data_PCOD8197730
_publ_section_title
;
Structure prediction by ZEFSAII (Michael W. Deem and Ramdas Pophale) SiO2 
 PCOD8197730
Probable space group: P M M M
;
_chemical_formula_sum "Si O2"
_cell_formula_units_Z 48
_cell_length_a 9.269277
_cell_length_b 30.397932
_cell_length_c 9.362592
_cell_angle_alpha 90.000000
_cell_angle_beta 90.000000
_cell_angle_gamma 90.000000
_cell_volume 2638.068074
_symmetry_space_group_name_H-M "P M M M"
_symmetry_group_IT_number 47
_symmetry_cell_setting 'orthorhombic'
loop_
_space_group_symop_operation_xyz
x,y,z
-x,-y,z
x,-y,-z
-x,y,-z
-x,-y,-z
x,y,-z
-x,y,z
x,-y,z
loop_
_atom_site_type_symbol
_atom_site_label
_atom_site_fract_x
_atom_site_fract_y
_atom_site_fract_z
Si Si1 0.332613 0.550715 0.662041
Si Si2 0.336952 0.792947 0.330120
Si Si3 0.166413 0.877746 0.668158
Si Si4 0.830556 0.622216 0.835960
Si Si5 0.335700 0.050894 0.165145
Si Si6 0.167771 0.707720 0.333844
O O1 0.284123 0.561258 0.500000
O O2 0.500000 0.561791 0.681231
O O3 0.302059 0.500000 0.697927
O O4 0.242761 0.579224 0.772351
O O5 0.334494 0.793298 0.500000
O O6 0.500000 0.793548 0.270856
O O7 0.253314 0.835666 0.271901
O O8 0.256851 0.749277 0.274900
O O9 0.187883 0.882905 0.500000
O O10 0.225731 0.921534 0.740510
O O11 0.000000 0.871313 0.708836
O O12 0.777293 0.665381 0.752285
O O13 0.000000 0.616140 0.817419
O O14 0.784951 0.627318 0.000000
O O15 0.500000 0.062192 0.208625
O O16 0.303080 0.000000 0.195184
O O17 0.310155 0.062133 0.000000
O O18 0.198598 0.698882 0.500000
O O19 0.000000 0.717533 0.306105
#
# Coordination Sequence:
#
# PCOD8197730 Si02
#       6
#     8   8   8   8   8   8
#     4   9  19  36  56  77 101 131 170 214 256 300
#     4   9  17  30  50  75 100 128 166 211 256 300
#     4  10  20  33  51  77 107 136 168 208 253 302
#     4  10  21  35  51  75 107 139 170 206 250 301
#     4   9  19  36  55  74  99 133 172 212 254 302
#     4   9  17  31  51  72  96 129 168 208 251 299
#
# _framework density 18.195132999999998
#
# number of rings (size 3 to 8) (size 9 to 14) (size 15 to 20)
#    0.000    2.667    0.000    2.500    0.000    6.667 
#    0.000    7.500    0.000    3.000    0.000    0.000 
#    0.000    0.000    0.000    0.000    0.000    0.000 
#
# Total GULP energy -595295.546346 kJ/mol
# GULP energy per Si atom -12401.990549 kJ/mol
# Density = 1.815372 g / cm^3
# Si number density = 18.195133 Si / 1000 Ang^3
#
#
#
# Elastic Constant Matrix: (Units=GPa)
#
#
# Indices 1 2 3 4 5 6 
#
# 1 96.3966 69.9665 47.5403 0.0000 0.0000 0.0000
# 2 69.9665 127.1851 58.0966 0.0000 0.0000 0.0000
# 3 47.5403 58.0966 66.3499 0.0000 0.0000 0.0000
# 4 0.0000 0.0000 0.0000 4.4790 0.0000 0.0000
# 5 0.0000 0.0000 0.0000 0.0000 25.2732 0.0000
# 6 0.0000 0.0000 0.0000 0.0000 0.0000 39.5554
#
#
#
# Elastic Compliance Matrix: (Units=1/GPa)
#
#
# Indices 1 2 3 4 5 6 
#
# 1 0.019301 -0.007168 -0.007554 0.000000 0.000000 0.000000
# 2 -0.007168 0.015765 -0.008669 0.000000 0.000000 0.000000
# 3 -0.007554 -0.008669 0.028074 0.000000 0.000000 0.000000
# 4 0.000000 0.000000 0.000000 0.223263 0.000000 0.000000
# 5 0.000000 0.000000 0.000000 0.000000 0.039568 0.000000
# 6 0.000000 0.000000 0.000000 0.000000 0.000000 0.025281
#
#
# Mechanical properties :
#
#
# Convention : Reuss Voigt Hill
#
# Bulk Modulus (GPa) = 61.12010 71.23762 66.17886
# Shear Modulus (GPa) = 12.39200 21.48339 16.93770
#
# Velocity S-wave (km/s) = 2.61255 3.43989 3.05436
# Velocity P-wave (km/s) = 6.53949 7.41715 6.99210
#
# Compressibility (1/GPa) = 0.01636123
#
# Stress axis : x y z
#
# Youngs Moduli (GPa) = 51.80956 63.43054 35.61997
#
# Poissons Ratio (x) = 0.45465 0.26906
# Poissons Ratio (y) = 0.37135 0.30877
# Poissons Ratio (z) = 0.39135 0.54985
#
# Static dielectric constant tensor:
#      x y z
#    x 3.352440 0.000000 0.000000 
#    y 0.000000 3.409860 0.000000 
#    z 0.000000 0.000000 3.129210 
# 
# 
# High freq. dielectric constant tensor:
#      x y z
#    x 1.705780 0.000000 0.000000 
#    y 0.000000 1.716040 0.000000 
#    z 0.000000 0.000000 1.681550 
# 
# From -- ./inp_files/2420.got.cif
#   From: 2010.03.12/outbox.cif.g09.slc.cpg/sg47_2_cif.got.tgz:2420.got - 2010.04.14 03:12:58.
