data_PCOD8197439
_publ_section_title
;
Structure prediction by ZEFSAII (Michael W. Deem and Ramdas Pophale) SiO2 
 PCOD8197439
Probable space group: P M M M
;
_chemical_formula_sum "Si O2"
_cell_formula_units_Z 44
_cell_length_a 18.977424
_cell_length_b 9.092327
_cell_length_c 14.043836
_cell_angle_alpha 90.000000
_cell_angle_beta 90.000000
_cell_angle_gamma 90.000000
_cell_volume 2423.249080
_symmetry_space_group_name_H-M "P M M M"
_symmetry_group_IT_number 47
_symmetry_cell_setting 'orthorhombic'
loop_
_space_group_symop_operation_xyz
x,y,z
-x,-y,z
x,-y,-z
-x,y,-z
-x,-y,-z
x,y,-z
-x,y,z
x,-y,z
loop_
_atom_site_type_symbol
_atom_site_label
_atom_site_fract_x
_atom_site_fract_y
_atom_site_fract_z
Si Si1 0.582936 0.163756 0.500000
Si Si2 0.920627 0.672750 0.727936
Si Si3 0.810529 0.170816 0.607908
Si Si4 0.418566 0.672654 0.309673
Si Si5 0.815540 0.670228 0.108560
Si Si6 0.295238 0.172592 0.773620
O O1 0.500000 0.145839 0.500000
O O2 0.606690 0.252973 0.407699
O O3 0.618166 0.000000 0.500000
O O4 0.920521 0.500000 0.711493
O O5 0.880971 0.744187 0.638518
O O6 0.882204 0.715073 0.826802
O O7 0.000000 0.734500 0.733088
O O8 0.789965 0.214472 0.500000
O O9 0.746068 0.214058 0.676614
O O10 0.827949 0.000000 0.617122
O O11 0.500000 0.706978 0.286377
O O12 0.405000 0.500000 0.317315
O O13 0.370591 0.744608 0.227496
O O14 0.795456 0.500000 0.123926
O O15 0.748141 0.768196 0.136186
O O16 0.836377 0.703498 0.000000
O O17 0.308116 0.000000 0.784861
#
# Coordination Sequence:
#
# PCOD8197439 Si02
#       6
#     4   8   8   8   8   8
#     4   9  17  29  45  67  97 133 170 205 244 291
#     4   9  18  32  50  75 104 130 163 207 250 297
#     4   9  19  34  49  68  97 135 175 209 244 291
#     4  10  20  33  49  72 103 136 171 211 255 303
#     4   9  18  34  55  76 100 131 165 204 255 312
#     4  10  20  33  52  75 100 132 170 214 257 302
#
# _framework density 18.157440000000001
#
# number of rings (size 3 to 8) (size 9 to 14) (size 15 to 20)
#    0.000    2.636    0.000    1.364    1.273    4.727 
#    0.000    3.636    0.000    0.545    0.000    8.909 
#    0.000    0.000    0.000    0.000    0.000    0.000 
#
# Total GULP energy -545640.716030 kJ/mol
# GULP energy per Si atom -12400.925364 kJ/mol
# Density = 1.811611 g / cm^3
# Si number density = 18.157440 Si / 1000 Ang^3
#
#
#
# Elastic Constant Matrix: (Units=GPa)
#
#
# Indices 1 2 3 4 5 6 
#
# 1 88.9730 39.0909 13.9546 0.0000 0.0000 0.0000
# 2 39.0909 69.2512 16.5443 0.0000 0.0000 0.0000
# 3 13.9546 16.5443 63.5599 0.0000 0.0000 0.0000
# 4 0.0000 0.0000 0.0000 25.5350 0.0000 0.0000
# 5 0.0000 0.0000 0.0000 0.0000 19.1789 0.0000
# 6 0.0000 0.0000 0.0000 0.0000 0.0000 27.8595
#
#
#
# Elastic Compliance Matrix: (Units=1/GPa)
#
#
# Indices 1 2 3 4 5 6 
#
# 1 0.015026 -0.008204 -0.001164 0.000000 0.000000 0.000000
# 2 -0.008204 0.019877 -0.003373 0.000000 0.000000 0.000000
# 3 -0.001164 -0.003373 0.016867 0.000000 0.000000 0.000000
# 4 0.000000 0.000000 0.000000 0.039162 0.000000 0.000000
# 5 0.000000 0.000000 0.000000 0.000000 0.052141 0.000000
# 6 0.000000 0.000000 0.000000 0.000000 0.000000 0.035894
#
#
# Mechanical properties :
#
#
# Convention : Reuss Voigt Hill
#
# Bulk Modulus (GPa) = 38.03838 40.10709 39.07273
# Shear Modulus (GPa) = 23.45099 24.66097 24.05598
#
# Velocity S-wave (km/s) = 3.59769 3.68934 3.64380
# Velocity P-wave (km/s) = 6.18486 6.34703 6.26647
#
# Compressibility (1/GPa) = 0.02628924
#
# Stress axis : x y z
#
# Youngs Moduli (GPa) = 66.54954 50.30938 59.28897
#
# Poissons Ratio (x) = 0.41275 0.06899
# Poissons Ratio (y) = 0.54598 0.19996
# Poissons Ratio (z) = 0.07743 0.16968
#
# Static dielectric constant tensor:
#      x y z
#    x 3.382090 0.000000 0.000000 
#    y 0.000000 3.355100 0.000000 
#    z 0.000000 0.000000 3.228040 
# 
# 
# High freq. dielectric constant tensor:
#      x y z
#    x 1.701920 0.000000 0.000000 
#    y 0.000000 1.706550 0.000000 
#    z 0.000000 0.000000 1.680720 
# 
# From -- ./inp_files/6148.got.cif
#   From: 2010.03.12/outbox.cif.g09.slc.cpg/sg47_4_cif.got.tgz:6148.got - 2010.04.14 03:12:58.
