data_PCOD8197338
_publ_section_title
;
Structure prediction by ZEFSAII (Michael W. Deem and Ramdas Pophale) SiO2 
 PCOD8197338
Probable space group: P M M M
;
_chemical_formula_sum "Si O2"
_cell_formula_units_Z 64
_cell_length_a 31.280350
_cell_length_b 14.399751
_cell_length_c 9.762883
_cell_angle_alpha 90.000000
_cell_angle_beta 90.000000
_cell_angle_gamma 90.000000
_cell_volume 4397.488079
_symmetry_space_group_name_H-M "P M M M"
_symmetry_group_IT_number 47
_symmetry_cell_setting 'orthorhombic'
loop_
_space_group_symop_operation_xyz
x,y,z
-x,-y,z
x,-y,-z
-x,y,-z
-x,-y,-z
x,y,-z
-x,y,z
x,-y,z
loop_
_atom_site_type_symbol
_atom_site_label
_atom_site_fract_x
_atom_site_fract_y
_atom_site_fract_z
Si Si1 0.912891 0.602774 0.844191
Si Si2 0.168186 0.397497 0.342325
Si Si3 0.285635 0.896200 0.663483
Si Si4 0.452644 0.889570 0.153413
Si Si5 0.379207 0.110871 0.347224
Si Si6 0.881142 0.109098 0.659569
Si Si7 0.048526 0.794330 0.842309
Si Si8 0.204403 0.791488 0.660232
O O1 0.932782 0.500000 0.814842
O O2 0.873192 0.621835 0.746771
O O3 0.947253 0.683369 0.816087
O O4 0.896175 0.607748 0.000000
O O5 0.153864 0.388181 0.500000
O O6 0.187615 0.500000 0.312601
O O7 0.203079 0.318686 0.306838
O O8 0.285389 0.896954 0.500000
O O9 0.332410 0.858942 0.710327
O O10 0.247949 0.831968 0.726219
O O11 0.277596 0.000000 0.719257
O O12 0.500000 0.858570 0.203484
O O13 0.416388 0.846534 0.251748
O O14 0.449761 0.000000 0.155103
O O15 0.444434 0.852671 0.000000
O O16 0.386722 0.150086 0.500000
O O17 0.380895 0.000000 0.350216
O O18 0.888704 0.132983 0.500000
O O19 0.921216 0.146433 0.744540
O O20 0.838067 0.157746 0.716987
O O21 0.876368 0.000000 0.683215
O O22 0.000000 0.822280 0.808052
O O23 0.059686 0.817830 0.000000
O O24 0.206208 0.812094 0.500000
#
# Coordination Sequence:
#
# PCOD8197338 Si02
#       8
#     8   8   8   8   8   8   8   8
#     4   9  17  30  48  67  85 105 128 154 186 227
#     4   9  16  26  43  66  87 104 124 153 190 230
#     4   8  13  21  34  53  75  98 126 159 192 225
#     4   8  13  20  29  41  59  87 122 156 190 227
#     4   8  13  20  30  45  64  86 116 156 194 221
#     4  10  20  33  49  67  83 103 135 169 196 225
#     4  10  21  35  49  65  85 108 131 156 192 236
#     4   9  15  25  42  62  82 103 126 156 193 229
#
# _framework density 14.553763
#
# number of rings (size 3 to 8) (size 9 to 14) (size 15 to 20)
#    0.000    3.125    1.250    1.500    0.000    2.750 
#    0.000    3.750    0.000    1.500    0.000    4.375 
#    0.000    0.000    0.000    0.000    0.000    0.625 
#
# Total GULP energy -793051.255358 kJ/mol
# GULP energy per Si atom -12391.425865 kJ/mol
# Density = 1.452064 g / cm^3
# Si number density = 14.553763 Si / 1000 Ang^3
#
#
#
# Elastic Constant Matrix: (Units=GPa)
#
#
# Indices 1 2 3 4 5 6 
#
# 1 127.1950 45.4672 45.4330 0.0000 0.0000 0.0000
# 2 45.4672 64.6201 23.9234 0.0000 0.0000 0.0000
# 3 45.4330 23.9234 43.8577 0.0000 0.0000 0.0000
# 4 0.0000 0.0000 0.0000 13.4835 0.0000 0.0000
# 5 0.0000 0.0000 0.0000 0.0000 2.9112 0.0000
# 6 0.0000 0.0000 0.0000 0.0000 0.0000 7.8572
#
#
#
# Elastic Compliance Matrix: (Units=1/GPa)
#
#
# Indices 1 2 3 4 5 6 
#
# 1 0.013921 -0.005584 -0.011375 0.000000 0.000000 0.000000
# 2 -0.005584 0.021631 -0.006015 0.000000 0.000000 0.000000
# 3 -0.011375 -0.006015 0.037866 0.000000 0.000000 0.000000
# 4 0.000000 0.000000 0.000000 0.074165 0.000000 0.000000
# 5 0.000000 0.000000 0.000000 0.000000 0.343504 0.000000
# 6 0.000000 0.000000 0.000000 0.000000 0.000000 0.127272
#
#
# Mechanical properties :
#
#
# Convention : Reuss Voigt Hill
#
# Bulk Modulus (GPa) = 36.40342 51.70220 44.05281
# Shear Modulus (GPa) = 7.42432 12.90699 10.16565
#
# Velocity S-wave (km/s) = 2.26106 2.98123 2.64576
# Velocity P-wave (km/s) = 5.64658 6.88857 6.29826
#
# Compressibility (1/GPa) = 0.02746995
#
# Stress axis : x y z
#
# Youngs Moduli (GPa) = 71.83381 46.23100 26.40908
#
# Poissons Ratio (x) = 0.25814 0.30041
# Poissons Ratio (y) = 0.40109 0.15884
# Poissons Ratio (z) = 0.81713 0.27807
#
# Static dielectric constant tensor:
#      x y z
#    x 3.011400 0.000000 0.000000 
#    y 0.000000 2.754110 0.000000 
#    z 0.000000 0.000000 2.760770 
# 
# 
# High freq. dielectric constant tensor:
#      x y z
#    x 1.547870 0.000000 0.000000 
#    y 0.000000 1.526290 0.000000 
#    z 0.000000 0.000000 1.537020 
# 
# From -- ./inp_files/14385.got.cif
#   From: 2010.03.12/outbox.cif.g09.slc.cpg/sg47_8_cif.got.tgz:14385.got - 2010.04.14 03:12:58.
