data_PCOD8197056
_publ_section_title
;
Structure prediction by ZEFSAII (Michael W. Deem and Ramdas Pophale) SiO2 
 PCOD8197056
Probable space group: P M M M
;
_chemical_formula_sum "Si O2"
_cell_formula_units_Z 64
_cell_length_a 9.662826
_cell_length_b 41.414367
_cell_length_c 9.215616
_cell_angle_alpha 90.000000
_cell_angle_beta 90.000000
_cell_angle_gamma 90.000000
_cell_volume 3687.903573
_symmetry_space_group_name_H-M "P M M M"
_symmetry_group_IT_number 47
_symmetry_cell_setting 'orthorhombic'
loop_
_space_group_symop_operation_xyz
x,y,z
-x,-y,z
x,-y,-z
-x,y,-z
-x,-y,-z
x,y,-z
-x,y,z
x,-y,z
loop_
_atom_site_type_symbol
_atom_site_label
_atom_site_fract_x
_atom_site_fract_y
_atom_site_fract_z
Si Si1 0.340585 0.342352 0.670184
Si Si2 0.838083 0.151236 0.169567
Si Si3 0.154293 0.715777 0.672733
Si Si4 0.340252 0.406373 0.169878
Si Si5 0.662478 0.097564 0.330846
Si Si6 0.835870 0.213647 0.661144
Si Si7 0.335902 0.964479 0.837621
Si Si8 0.844566 0.535642 0.827541
O O1 0.316485 0.347123 0.500000
O O2 0.500000 0.335704 0.707547
O O3 0.254881 0.312028 0.732644
O O4 0.286646 0.374412 0.749655
O O5 0.748888 0.124405 0.248615
O O6 0.787089 0.185937 0.228687
O O7 0.000000 0.145571 0.203231
O O8 0.806719 0.149920 0.000000
O O9 0.149562 0.715041 0.500000
O O10 0.212817 0.751126 0.719732
O O11 0.000000 0.709818 0.735505
O O12 0.500000 0.412865 0.204621
O O13 0.257296 0.436989 0.234275
O O14 0.313172 0.401580 0.000000
O O15 0.695455 0.099602 0.500000
O O16 0.500000 0.102607 0.298524
O O17 0.715696 0.062764 0.273776
O O18 0.774815 0.206492 0.500000
O O19 0.000000 0.214785 0.650377
O O20 0.500000 0.965319 0.838207
O O21 0.280271 0.000000 0.789713
O O22 0.282113 0.956297 0.000000
O O23 0.798791 0.500000 0.771623
O O24 0.000000 0.543230 0.774130
O O25 0.838656 0.535861 0.000000
#
# Coordination Sequence:
#
# PCOD8197056 Si02
#       8
#     8   8   8   8   8   8   8   8
#     4   9  17  29  44  62  86 115 144 174 211 255
#     4  10  20  33  50  71  95 126 161 193 231 282
#     4   8  14  26  45  66  85 109 144 181 214 252
#     4   9  17  28  42  61  84 109 138 172 208 248
#     4  10  20  32  48  72  99 126 158 197 238 277
#     4   8  14  27  47  67  87 113 146 185 225 263
#     4   8  14  26  45  68  94 125 158 191 232 282
#     4   8  14  25  41  61  84 108 135 171 214 254
#
# _framework density 17.354032
#
# number of rings (size 3 to 8) (size 9 to 14) (size 15 to 20)
#    0.000    3.250    0.000    2.250    0.000    2.500 
#    0.000    3.750    0.000    3.750    0.000    5.250 
#    0.000    0.000    0.000    0.000    0.000    0.000 
#
# Total GULP energy -793231.939914 kJ/mol
# GULP energy per Si atom -12394.249061 kJ/mol
# Density = 1.731453 g / cm^3
# Si number density = 17.354032 Si / 1000 Ang^3
#
#
#
# Elastic Constant Matrix: (Units=GPa)
#
#
# Indices 1 2 3 4 5 6 
#
# 1 54.2462 70.9274 34.4708 0.0000 0.0000 0.0000
# 2 70.9274 193.8352 66.8813 0.0000 0.0000 0.0000
# 3 34.4708 66.8813 66.3586 0.0000 0.0000 0.0000
# 4 0.0000 0.0000 0.0000 30.4111 0.0000 0.0000
# 5 0.0000 0.0000 0.0000 0.0000 16.1784 0.0000
# 6 0.0000 0.0000 0.0000 0.0000 0.0000 30.1701
#
#
#
# Elastic Compliance Matrix: (Units=1/GPa)
#
#
# Indices 1 2 3 4 5 6 
#
# 1 0.038486 -0.011015 -0.008890 0.000000 0.000000 0.000000
# 2 -0.011015 0.011062 -0.005428 0.000000 0.000000 0.000000
# 3 -0.008890 -0.005428 0.025158 0.000000 0.000000 0.000000
# 4 0.000000 0.000000 0.000000 0.032883 0.000000 0.000000
# 5 0.000000 0.000000 0.000000 0.000000 0.061811 0.000000
# 6 0.000000 0.000000 0.000000 0.000000 0.000000 0.033145
#
#
# Mechanical properties :
#
#
# Convention : Reuss Voigt Hill
#
# Bulk Modulus (GPa) = 41.59591 73.22212 57.40902
# Shear Modulus (GPa) = 19.14058 24.82930 21.98494
#
# Velocity S-wave (km/s) = 3.32467 3.78663 3.56314
# Velocity P-wave (km/s) = 6.22567 7.83600 7.07679
#
# Compressibility (1/GPa) = 0.02404082
#
# Stress axis : x y z
#
# Youngs Moduli (GPa) = 25.98328 90.39619 39.74879
#
# Poissons Ratio (x) = 0.99574 0.35337
# Poissons Ratio (y) = 0.28621 0.21574
# Poissons Ratio (z) = 0.23099 0.49063
#
# Static dielectric constant tensor:
#      x y z
#    x 3.053610 0.000000 0.000000 
#    y 0.000000 3.770340 0.000000 
#    z 0.000000 0.000000 3.053090 
# 
# 
# High freq. dielectric constant tensor:
#      x y z
#    x 1.638590 0.000000 0.000000 
#    y 0.000000 1.687990 0.000000 
#    z 0.000000 0.000000 1.642610 
# 
# From -- ./inp_files/4902.got.cif
#   From: 2010.03.12/outbox.cif.g09.slc.cpg/sg47_3_cif.got.tgz:4902.got - 2010.04.14 03:12:58.
