data_PCOD8197057
_publ_section_title
;
Structure prediction by ZEFSAII (Michael W. Deem and Ramdas Pophale) SiO2 
 PCOD8197057
Probable space group: P M M M
;
_chemical_formula_sum "Si O2"
_cell_formula_units_Z 48
_cell_length_a 9.572419
_cell_length_b 34.434339
_cell_length_c 7.840131
_cell_angle_alpha 90.000000
_cell_angle_beta 90.000000
_cell_angle_gamma 90.000000
_cell_volume 2584.263360
_symmetry_space_group_name_H-M "P M M M"
_symmetry_group_IT_number 47
_symmetry_cell_setting 'orthorhombic'
loop_
_space_group_symop_operation_xyz
x,y,z
-x,-y,z
x,-y,-z
-x,y,-z
-x,-y,-z
x,y,-z
-x,y,z
x,-y,z
loop_
_atom_site_type_symbol
_atom_site_label
_atom_site_fract_x
_atom_site_fract_y
_atom_site_fract_z
Si Si1 0.666935 0.905513 0.500000
Si Si2 0.654918 0.319876 0.798185
Si Si3 0.657146 0.456091 0.298949
Si Si4 0.846034 0.387268 0.196582
Si Si5 0.333242 0.817832 0.500000
Si Si6 0.333919 0.043623 0.189336
Si Si7 0.666435 0.233596 0.189875
O O1 0.500000 0.905987 0.500000
O O2 0.724131 0.861674 0.500000
O O3 0.726179 0.927103 0.331586
O O4 0.500000 0.325413 0.718438
O O5 0.756790 0.352438 0.716739
O O6 0.714558 0.276950 0.755964
O O7 0.644046 0.324974 0.000000
O O8 0.669986 0.451993 0.500000
O O9 0.500000 0.445087 0.240021
O O10 0.691708 0.500000 0.241725
O O11 0.767928 0.428126 0.211526
O O12 0.000000 0.389723 0.282563
O O13 0.864585 0.377170 0.000000
O O14 0.500000 0.817048 0.500000
O O15 0.275540 0.796654 0.329760
O O16 0.500000 0.043970 0.195954
O O17 0.280395 0.000000 0.228609
O O18 0.283651 0.056685 0.000000
O O19 0.500000 0.232984 0.184949
O O20 0.723345 0.222718 0.000000
#
# Coordination Sequence:
#
# PCOD8197057 Si02
#       7
#     4   8   8   8   4   8   8
#     4   9  15  20  27  40  60  83 107 148 207 258
#     4   8  14  27  46  63  82 112 145 175 212 260
#     4   9  19  36  54  70  91 122 159 192 221 261
#     4  10  20  32  48  73 101 123 146 182 228 274
#     4   9  16  23  32  51  73  91 120 162 210 268
#     4   8  13  20  28  37  51  77 116 156 194 245
#     4   8  14  25  39  53  72  99 129 165 209 255
#
# _framework density 18.573958999999999
#
# number of rings (size 3 to 8) (size 9 to 14) (size 15 to 20)
#    0.000    3.333    0.000    2.750    0.000    3.667 
#    1.500    5.833    0.000    0.000    0.000    0.000 
#    0.000    0.000    0.000    0.000    0.000    0.000 
#
# Total GULP energy -594834.800730 kJ/mol
# GULP energy per Si atom -12392.391682 kJ/mol
# Density = 1.853168 g / cm^3
# Si number density = 18.573959 Si / 1000 Ang^3
#
#
#
# Elastic Constant Matrix: (Units=GPa)
#
#
# Indices 1 2 3 4 5 6 
#
# 1 59.5956 47.8885 22.3270 0.0000 0.0000 0.0000
# 2 47.8885 158.6536 67.5520 0.0000 0.0000 0.0000
# 3 22.3270 67.5520 89.1662 0.0000 0.0000 0.0000
# 4 0.0000 0.0000 0.0000 17.7045 0.0000 0.0000
# 5 0.0000 0.0000 0.0000 0.0000 6.2794 0.0000
# 6 0.0000 0.0000 0.0000 0.0000 0.0000 1.9617
#
#
#
# Elastic Compliance Matrix: (Units=1/GPa)
#
#
# Indices 1 2 3 4 5 6 
#
# 1 0.022183 -0.006393 -0.000711 0.000000 0.000000 0.000000
# 2 -0.006393 0.011147 -0.006844 0.000000 0.000000 0.000000
# 3 -0.000711 -0.006844 0.016578 0.000000 0.000000 0.000000
# 4 0.000000 0.000000 0.000000 0.056483 0.000000 0.000000
# 5 0.000000 0.000000 0.000000 0.000000 0.159252 0.000000
# 6 0.000000 0.000000 0.000000 0.000000 0.000000 0.509763
#
#
# Mechanical properties :
#
#
# Convention : Reuss Voigt Hill
#
# Bulk Modulus (GPa) = 45.43057 64.77227 55.10142
# Shear Modulus (GPa) = 6.16797 16.49898 11.33348
#
# Velocity S-wave (km/s) = 1.82427 2.98365 2.47286
# Velocity P-wave (km/s) = 5.38049 6.84236 6.15498
#
# Compressibility (1/GPa) = 0.02201161
#
# Stress axis : x y z
#
# Youngs Moduli (GPa) = 45.07875 89.71212 60.32060
#
# Poissons Ratio (x) = 0.57353 0.04291
# Poissons Ratio (y) = 0.28819 0.41283
# Poissons Ratio (z) = 0.03207 0.61399
#
# Static dielectric constant tensor:
#      x y z
#    x 3.060220 0.000000 0.000000 
#    y 0.000000 3.629230 0.000000 
#    z 0.000000 0.000000 3.460440 
# 
# 
# High freq. dielectric constant tensor:
#      x y z
#    x 1.649390 0.000000 0.000000 
#    y 0.000000 1.723760 0.000000 
#    z 0.000000 0.000000 1.714590 
# 
# From -- ./inp_files/2665.got.cif
#   From: 2010.03.12/outbox.cif.g09.slc.cpg/sg47_2_cif.got.tgz:2665.got - 2010.04.14 03:12:58.
