data_PCOD8197659
_publ_section_title
;
Structure prediction by ZEFSAII (Michael W. Deem and Ramdas Pophale) SiO2 
 PCOD8197659
Probable space group: P M M M
;
_chemical_formula_sum "Si O2"
_cell_formula_units_Z 64
_cell_length_a 18.523900
_cell_length_b 20.216483
_cell_length_c 9.490254
_cell_angle_alpha 90.000000
_cell_angle_beta 90.000000
_cell_angle_gamma 90.000000
_cell_volume 3553.987279
_symmetry_space_group_name_H-M "P M M M"
_symmetry_group_IT_number 47
_symmetry_cell_setting 'orthorhombic'
loop_
_space_group_symop_operation_xyz
x,y,z
-x,-y,z
x,-y,-z
-x,y,-z
-x,-y,-z
x,y,-z
-x,y,z
x,-y,z
loop_
_atom_site_type_symbol
_atom_site_label
_atom_site_fract_x
_atom_site_fract_y
_atom_site_fract_z
Si Si1 0.583986 0.818855 0.835701
Si Si2 0.083315 0.818005 0.835385
Si Si3 0.163349 0.923228 0.338544
Si Si4 0.173019 0.693353 0.832629
Si Si5 0.583204 0.423886 0.662387
Si Si6 0.919030 0.573104 0.832303
Si Si7 0.663024 0.685899 0.166560
Si Si8 0.672144 0.076292 0.336253
O O1 0.500000 0.816311 0.799740
O O2 0.618167 0.749843 0.784843
O O3 0.618571 0.879701 0.754240
O O4 0.598916 0.829984 0.000000
O O5 0.107539 0.884236 0.757783
O O6 0.130264 0.757094 0.775547
O O7 0.000000 0.803003 0.803221
O O8 0.096983 0.828796 0.000000
O O9 0.151205 0.902737 0.500000
O O10 0.245562 0.907382 0.293538
O O11 0.146665 0.000000 0.316737
O O12 0.135779 0.627338 0.769417
O O13 0.255233 0.696610 0.781386
O O14 0.168255 0.692104 0.000000
O O15 0.597644 0.405964 0.500000
O O16 0.500000 0.410926 0.700807
O O17 0.603322 0.500000 0.691770
O O18 0.632623 0.379274 0.760698
O O19 0.895215 0.500000 0.780094
O O20 0.000000 0.589037 0.779205
O O21 0.917909 0.575315 0.000000
O O22 0.658182 0.674855 0.000000
O O23 0.659614 0.091581 0.500000
O O24 0.654577 0.000000 0.303544
#
# Coordination Sequence:
#
# PCOD8197659 Si02
#       8
#     8   8   8   8   8   8   8   8
#     4  10  21  35  50  72 104 137 167 203 252 309
#     4  10  20  33  51  75 102 133 169 208 248 292
#     4   9  19  36  55  74  99 131 164 201 249 301
#     4   9  17  29  45  68  99 130 161 201 246 287
#     4   9  19  36  55  74  99 132 168 206 250 300
#     4   8  13  22  38  61  91 127 161 191 229 280
#     4  10  20  33  51  75 102 132 166 206 250 295
#     4   9  19  36  56  77 100 128 167 212 253 298
#
# _framework density 18.007942
#
# number of rings (size 3 to 8) (size 9 to 14) (size 15 to 20)
#    0.000    2.750    0.000    3.000    0.000    6.500 
#    0.000    6.250    0.000    0.000    0.000    0.000 
#    0.000    0.000    0.000    6.625    0.000    5.750 
#
# Total GULP energy -793613.946651 kJ/mol
# GULP energy per Si atom -12400.217916 kJ/mol
# Density = 1.796696 g / cm^3
# Si number density = 18.007942 Si / 1000 Ang^3
#
#
#
# Elastic Constant Matrix: (Units=GPa)
#
#
# Indices 1 2 3 4 5 6 
#
# 1 126.5283 78.6937 49.2072 0.0000 0.0000 0.0000
# 2 78.6937 119.0322 47.3079 0.0000 0.0000 0.0000
# 3 49.2072 47.3079 40.9531 0.0000 0.0000 0.0000
# 4 0.0000 0.0000 0.0000 22.1729 0.0000 0.0000
# 5 0.0000 0.0000 0.0000 0.0000 24.1620 0.0000
# 6 0.0000 0.0000 0.0000 0.0000 0.0000 42.2988
#
#
#
# Elastic Compliance Matrix: (Units=1/GPa)
#
#
# Indices 1 2 3 4 5 6 
#
# 1 0.016670 -0.005658 -0.013495 0.000000 0.000000 0.000000
# 2 -0.005658 0.017452 -0.013362 0.000000 0.000000 0.000000
# 3 -0.013495 -0.013362 0.056068 0.000000 0.000000 0.000000
# 4 0.000000 0.000000 0.000000 0.045100 0.000000 0.000000
# 5 0.000000 0.000000 0.000000 0.000000 0.041387 0.000000
# 6 0.000000 0.000000 0.000000 0.000000 0.000000 0.023641
#
#
# Mechanical properties :
#
#
# Convention : Reuss Voigt Hill
#
# Bulk Modulus (GPa) = 39.74293 70.77013 55.25653
# Shear Modulus (GPa) = 18.26582 25.14705 21.70643
#
# Velocity S-wave (km/s) = 3.18829 3.74095 3.47563
# Velocity P-wave (km/s) = 5.97254 7.61868 6.84527
#
# Compressibility (1/GPa) = 0.02516171
#
# Stress axis : x y z
#
# Youngs Moduli (GPa) = 59.98746 57.29977 17.83542
#
# Poissons Ratio (x) = 0.32418 0.24068
# Poissons Ratio (y) = 0.33939 0.23832
# Poissons Ratio (z) = 0.80950 0.76565
#
# Static dielectric constant tensor:
#      x y z
#    x 3.407000 0.000000 0.000000 
#    y 0.000000 3.423330 0.000000 
#    z 0.000000 0.000000 2.967200 
# 
# 
# High freq. dielectric constant tensor:
#      x y z
#    x 1.703630 0.000000 0.000000 
#    y 0.000000 1.708810 0.000000 
#    z 0.000000 0.000000 1.661530 
# 
# From -- ./inp_files/9960.got.cif
#   From: 2010.03.12/outbox.cif.g09.slc.cpg/sg47_5_cif.got.tgz:9960.got - 2010.04.14 03:12:58.
