data_PCOD8197404
_publ_section_title
;
Structure prediction by ZEFSAII (Michael W. Deem and Ramdas Pophale) SiO2 
 PCOD8197404
Probable space group: P M M M
;
_chemical_formula_sum "Si O2"
_cell_formula_units_Z 44
_cell_length_a 14.019589
_cell_length_b 11.760839
_cell_length_c 15.160012
_cell_angle_alpha 90.000000
_cell_angle_beta 90.000000
_cell_angle_gamma 90.000000
_cell_volume 2499.615055
_symmetry_space_group_name_H-M "P M M M"
_symmetry_group_IT_number 47
_symmetry_cell_setting 'orthorhombic'
loop_
_space_group_symop_operation_xyz
x,y,z
-x,-y,z
x,-y,-z
-x,y,-z
-x,-y,-z
x,y,-z
-x,y,z
x,-y,z
loop_
_atom_site_type_symbol
_atom_site_label
_atom_site_fract_x
_atom_site_fract_y
_atom_site_fract_z
Si Si1 0.393638 0.634363 0.597141
Si Si2 0.112707 0.000000 0.400682
Si Si3 0.388075 0.246484 0.896073
Si Si4 0.112680 0.374575 0.500000
Si Si5 0.610210 0.000000 0.102812
Si Si6 0.887703 0.239348 0.672410
Si Si7 0.267123 0.366285 0.758016
O O1 0.352889 0.668390 0.500000
O O2 0.500000 0.685611 0.608590
O O3 0.400079 0.500000 0.605672
O O4 0.327178 0.681150 0.674686
O O5 0.144362 0.890342 0.344568
O O6 0.157202 0.000000 0.500000
O O7 0.000000 0.000000 0.412807
O O8 0.500000 0.263706 0.874737
O O9 0.325736 0.341189 0.846867
O O10 0.350438 0.121363 0.861616
O O11 0.370608 0.260635 0.000000
O O12 0.160159 0.500000 0.500000
O O13 0.145601 0.309809 0.413045
O O14 0.000000 0.384146 0.500000
O O15 0.500000 0.000000 0.124311
O O16 0.628617 0.000000 0.000000
O O17 0.831954 0.294924 0.755355
O O18 0.000000 0.249021 0.691533
O O19 0.244824 0.500000 0.753758
#
# Coordination Sequence:
#
# PCOD8197404 Si02
#       7
#     8   4   8   4   4   8   8
#     4   8  15  28  43  60  89 129 166 197 232 281
#     4   9  16  31  52  72  96 130 174 222 266 301
#     4   9  18  34  56  79 102 129 165 214 265 307
#     4   9  16  27  45  67  92 125 161 196 241 290
#     4   7  12  27  52  78 100 123 155 200 256 308
#     4  10  20  33  49  70  98 132 170 214 258 298
#     4  11  22  31  46  73 103 135 171 208 249 307
#
# _framework density 17.602710999999999
#
# number of rings (size 3 to 8) (size 9 to 14) (size 15 to 20)
#    0.000    2.818    0.909    2.727    1.273    3.273 
#    0.000    0.909    0.000    0.545    0.000    1.273 
#    0.000   10.909    0.000    0.000    0.000    0.000 
#
# Total GULP energy -545194.774893 kJ/mol
# GULP energy per Si atom -12390.790338 kJ/mol
# Density = 1.756265 g / cm^3
# Si number density = 17.602711 Si / 1000 Ang^3
#
#
#
# Elastic Constant Matrix: (Units=GPa)
#
#
# Indices 1 2 3 4 5 6 
#
# 1 60.5225 38.2267 38.9943 0.0000 0.0000 0.0000
# 2 38.2267 114.6767 35.1083 0.0000 0.0000 0.0000
# 3 38.9943 35.1083 67.1502 0.0000 0.0000 0.0000
# 4 0.0000 0.0000 0.0000 20.9140 0.0000 0.0000
# 5 0.0000 0.0000 0.0000 0.0000 24.5750 0.0000
# 6 0.0000 0.0000 0.0000 0.0000 0.0000 22.3079
#
#
#
# Elastic Compliance Matrix: (Units=1/GPa)
#
#
# Indices 1 2 3 4 5 6 
#
# 1 0.028923 -0.005357 -0.013995 0.000000 0.000000 0.000000
# 2 -0.005357 0.011374 -0.002836 0.000000 0.000000 0.000000
# 3 -0.013995 -0.002836 0.024502 0.000000 0.000000 0.000000
# 4 0.000000 0.000000 0.000000 0.047815 0.000000 0.000000
# 5 0.000000 0.000000 0.000000 0.000000 0.040692 0.000000
# 6 0.000000 0.000000 0.000000 0.000000 0.000000 0.044827
#
#
# Mechanical properties :
#
#
# Convention : Reuss Voigt Hill
#
# Bulk Modulus (GPa) = 48.96391 51.88979 50.42685
# Shear Modulus (GPa) = 20.05485 22.22738 21.14112
#
# Velocity S-wave (km/s) = 3.37902 3.55734 3.46933
# Velocity P-wave (km/s) = 6.56508 6.81287 6.69012
#
# Compressibility (1/GPa) = 0.02042321
#
# Stress axis : x y z
#
# Youngs Moduli (GPa) = 34.57439 87.91932 40.81337
#
# Poissons Ratio (x) = 0.47096 0.57119
# Poissons Ratio (y) = 0.18521 0.11575
# Poissons Ratio (z) = 0.48387 0.24934
#
# Static dielectric constant tensor:
#      x y z
#    x 3.127830 0.000000 0.000000 
#    y 0.000000 3.421860 0.000000 
#    z 0.000000 0.000000 3.027910 
# 
# 
# High freq. dielectric constant tensor:
#      x y z
#    x 1.660420 0.000000 0.000000 
#    y 0.000000 1.676020 0.000000 
#    z 0.000000 0.000000 1.650630 
# 
# From -- ./inp_files/23534.got.cif
#   From: 2010.03.12/outbox.cif.g09.slc.cpg/sg47_12_cif.got.tgz:23534.got - 2010.04.14 03:12:58.
