data_PCOD8197788
_publ_section_title
;
Structure prediction by ZEFSAII (Michael W. Deem and Ramdas Pophale) SiO2 
 PCOD8197788
Probable space group: P M M M
;
_chemical_formula_sum "Si O2"
_cell_formula_units_Z 48
_cell_length_a 8.794063
_cell_length_b 9.900315
_cell_length_c 28.948939
_cell_angle_alpha 90.000000
_cell_angle_beta 90.000000
_cell_angle_gamma 90.000000
_cell_volume 2520.410246
_symmetry_space_group_name_H-M "P M M M"
_symmetry_group_IT_number 47
_symmetry_cell_setting 'orthorhombic'
loop_
_space_group_symop_operation_xyz
x,y,z
-x,-y,z
x,-y,-z
-x,y,-z
-x,-y,-z
x,y,-z
-x,y,z
x,-y,z
loop_
_atom_site_type_symbol
_atom_site_label
_atom_site_fract_x
_atom_site_fract_y
_atom_site_fract_z
Si Si1 0.173150 0.000000 0.054704
Si Si2 0.678467 0.749185 0.898076
Si Si3 0.179551 0.500000 0.948020
Si Si4 0.819042 0.849500 0.705404
Si Si5 0.323377 0.152405 0.553757
Si Si6 0.173666 0.841776 0.191198
Si Si7 0.180325 0.346109 0.625933
O O1 0.265649 0.874361 0.072694
O O2 0.000000 0.000000 0.074079
O O3 0.170799 0.000000 0.000000
O O4 0.500000 0.729971 0.903166
O O5 0.765286 0.626026 0.919670
O O6 0.720168 0.761182 0.844080
O O7 0.000000 0.500000 0.950570
O O8 0.247282 0.500000 0.000000
O O9 0.766043 0.810872 0.757095
O O10 0.754872 0.737225 0.670016
O O11 0.000000 0.853305 0.704266
O O12 0.758030 0.000000 0.692160
O O13 0.291426 0.175395 0.500000
O O14 0.500000 0.171075 0.565202
O O15 0.229442 0.266670 0.580199
O O16 0.271658 0.000000 0.567811
O O17 0.000000 0.792958 0.185472
O O18 0.186044 0.000000 0.180307
O O19 0.244934 0.500000 0.626189
O O20 0.000000 0.350667 0.627529
#
# Coordination Sequence:
#
# PCOD8197788 Si02
#       7
#     4   8   4   8   8   8   8
#     4  11  23  39  61  87 115 151 195 235 272 331
#     4  12  24  38  59  88 121 150 182 233 292 340
#     4  11  25  45  65  83 109 151 197 233 274 339
#     4   8  15  30  53  78 104 142 189 232 270 315
#     4   9  19  36  56  77 103 140 189 238 282 334
#     4   9  17  33  58  83 110 146 190 232 272 328
#     4  10  20  33  51  80 117 148 181 228 280 333
#
# _framework density 19.044518
#
# number of rings (size 3 to 8) (size 9 to 14) (size 15 to 20)
#    0.000    2.167    0.833    4.500    0.000    5.333 
#    1.500    3.333    0.000    1.000    0.000    0.000 
#    0.000    0.000    0.000    0.000    0.000    0.000 
#
# Total GULP energy -595116.641317 kJ/mol
# GULP energy per Si atom -12398.263361 kJ/mol
# Density = 1.900117 g / cm^3
# Si number density = 19.044518 Si / 1000 Ang^3
#
#
#
# Elastic Constant Matrix: (Units=GPa)
#
#
# Indices 1 2 3 4 5 6 
#
# 1 41.3603 19.6135 22.7086 0.0000 0.0000 0.0000
# 2 19.6135 143.3220 69.4812 0.0000 0.0000 0.0000
# 3 22.7086 69.4812 118.9480 0.0000 0.0000 0.0000
# 4 0.0000 0.0000 0.0000 30.8093 0.0000 0.0000
# 5 0.0000 0.0000 0.0000 0.0000 4.6149 0.0000
# 6 0.0000 0.0000 0.0000 0.0000 0.0000 8.3287
#
#
#
# Elastic Compliance Matrix: (Units=1/GPa)
#
#
# Indices 1 2 3 4 5 6 
#
# 1 0.027298 -0.001687 -0.004226 0.000000 0.000000 0.000000
# 2 -0.001687 0.009838 -0.005425 0.000000 0.000000 0.000000
# 3 -0.004226 -0.005425 0.012383 0.000000 0.000000 0.000000
# 4 0.000000 0.000000 0.000000 0.032458 0.000000 0.000000
# 5 0.000000 0.000000 0.000000 0.000000 0.216689 0.000000
# 6 0.000000 0.000000 0.000000 0.000000 0.000000 0.120067
#
#
# Mechanical properties :
#
#
# Convention : Reuss Voigt Hill
#
# Bulk Modulus (GPa) = 37.25335 58.58187 47.91761
# Shear Modulus (GPa) = 11.10236 21.53906 16.32071
#
# Velocity S-wave (km/s) = 2.41709 3.36666 2.93059
# Velocity P-wave (km/s) = 5.23388 6.77789 6.05530
#
# Compressibility (1/GPa) = 0.02684322
#
# Stress axis : x y z
#
# Youngs Moduli (GPa) = 36.63263 101.64731 80.75903
#
# Poissons Ratio (x) = 0.17147 0.34130
# Poissons Ratio (y) = 0.06180 0.43808
# Poissons Ratio (z) = 0.15481 0.55139
#
# Static dielectric constant tensor:
#      x y z
#    x 3.249260 0.000000 0.000000 
#    y 0.000000 3.522800 0.000000 
#    z 0.000000 0.000000 3.712990 
# 
# 
# High freq. dielectric constant tensor:
#      x y z
#    x 1.716340 0.000000 0.000000 
#    y 0.000000 1.737690 0.000000 
#    z 0.000000 0.000000 1.755350 
# 
# From -- ./inp_files/34192.got.cif
#   From: 2010.03.12/outbox.cif.g09.slc.cpg/sg47_18_cif.got.tgz:34192.got - 2010.04.14 03:12:58.
