data_PCOD8197227
_publ_section_title
;
Structure prediction by ZEFSAII (Michael W. Deem and Ramdas Pophale) SiO2 
 PCOD8197227
Probable space group: P M M M
;
_chemical_formula_sum "Si O2"
_cell_formula_units_Z 40
_cell_length_a 23.586930
_cell_length_b 13.333258
_cell_length_c 7.440712
_cell_angle_alpha 90.000000
_cell_angle_beta 90.000000
_cell_angle_gamma 90.000000
_cell_volume 2340.034153
_symmetry_space_group_name_H-M "P M M M"
_symmetry_group_IT_number 47
_symmetry_cell_setting 'orthorhombic'
loop_
_space_group_symop_operation_xyz
x,y,z
-x,-y,z
x,-y,-z
-x,y,-z
-x,-y,-z
x,y,-z
-x,y,z
x,-y,z
loop_
_atom_site_type_symbol
_atom_site_label
_atom_site_fract_x
_atom_site_fract_y
_atom_site_fract_z
Si Si1 0.433807 0.844229 0.500000
Si Si2 0.218268 0.880031 0.500000
Si Si3 0.269319 0.386692 0.202051
Si Si4 0.433984 0.000000 0.800626
Si Si5 0.676933 0.736674 0.500000
Si Si6 0.063613 0.388186 0.786786
Si Si7 0.837051 0.749792 0.794677
O O1 0.500000 0.811445 0.500000
O O2 0.418050 0.903823 0.681966
O O3 0.390398 0.753432 0.500000
O O4 0.282289 0.835172 0.500000
O O5 0.183265 0.843599 0.325077
O O6 0.222663 0.000000 0.500000
O O7 0.264443 0.500000 0.270370
O O8 0.313372 0.327423 0.322630
O O9 0.207450 0.339922 0.218319
O O10 0.292607 0.380701 0.000000
O O11 0.500000 0.000000 0.833674
O O12 0.404086 0.000000 0.000000
O O13 0.079412 0.500000 0.713717
O O14 0.105356 0.300447 0.716263
O O15 0.000000 0.360395 0.724295
O O16 0.068076 0.390998 0.000000
O O17 0.843865 0.788271 0.000000
#
# Coordination Sequence:
#
# PCOD8197227 Si02
#       7
#     4   4   8   4   4   8   8
#     4   9  18  31  49  72  97 125 157 192 235 287
#     4  10  22  35  48  66  92 123 158 200 238 270
#     4   9  17  30  49  72  96 124 159 196 234 279
#     4   8  15  29  48  69  93 122 155 189 228 275
#     4  10  20  32  50  71  99 122 155 193 238 279
#     4   8  13  23  44  74 102 124 147 184 238 291
#     4   9  17  31  50  70  93 124 158 191 234 289
#
# _framework density 17.093767
#
# number of rings (size 3 to 8) (size 9 to 14) (size 15 to 20)
#    0.000    3.100    0.000    2.100    1.400    3.600 
#    0.000    2.000    0.000    3.600    0.000    4.200 
#    0.000    0.000    0.000    0.000    0.000    0.000 
#
# Total GULP energy -495648.370832 kJ/mol
# GULP energy per Si atom -12391.209271 kJ/mol
# Density = 1.705486 g / cm^3
# Si number density = 17.093767 Si / 1000 Ang^3
#
#
#
# Elastic Constant Matrix: (Units=GPa)
#
#
# Indices 1 2 3 4 5 6 
#
# 1 88.3949 45.6035 34.0330 0.0000 0.0000 0.0000
# 2 45.6035 113.7165 44.3132 0.0000 0.0000 0.0000
# 3 34.0330 44.3132 96.0984 0.0000 0.0000 0.0000
# 4 0.0000 0.0000 0.0000 15.5610 0.0000 0.0000
# 5 0.0000 0.0000 0.0000 0.0000 12.6463 0.0000
# 6 0.0000 0.0000 0.0000 0.0000 0.0000 24.5529
#
#
#
# Elastic Compliance Matrix: (Units=1/GPa)
#
#
# Indices 1 2 3 4 5 6 
#
# 1 0.014981 -0.004803 -0.003090 0.000000 0.000000 0.000000
# 2 -0.004803 0.012260 -0.003952 0.000000 0.000000 0.000000
# 3 -0.003090 -0.003952 0.013323 0.000000 0.000000 0.000000
# 4 0.000000 0.000000 0.000000 0.064263 0.000000 0.000000
# 5 0.000000 0.000000 0.000000 0.000000 0.079074 0.000000
# 6 0.000000 0.000000 0.000000 0.000000 0.000000 0.040728
#
#
# Mechanical properties :
#
#
# Convention : Reuss Voigt Hill
#
# Bulk Modulus (GPa) = 59.27120 60.67881 59.97500
# Shear Modulus (GPa) = 19.68920 22.16939 20.92930
#
# Velocity S-wave (km/s) = 3.39755 3.60520 3.50291
# Velocity P-wave (km/s) = 7.08100 7.27356 7.17792
#
# Compressibility (1/GPa) = 0.01687160
#
# Stress axis : x y z
#
# Youngs Moduli (GPa) = 66.75178 81.56418 75.05811
#
# Poissons Ratio (x) = 0.39179 0.23196
# Poissons Ratio (y) = 0.32064 0.29666
# Poissons Ratio (z) = 0.20629 0.32237
#
# Static dielectric constant tensor:
#      x y z
#    x 3.074040 0.000000 0.000000 
#    y 0.000000 2.967150 0.000000 
#    z 0.000000 0.000000 3.871960 
# 
# 
# High freq. dielectric constant tensor:
#      x y z
#    x 1.642320 0.000000 0.000000 
#    y 0.000000 1.630000 0.000000 
#    z 0.000000 0.000000 1.668470 
# 
# From -- ./inp_files/10751.got.cif
#   From: 2010.03.12/outbox.cif.g09.slc.cpg/sg47_6_cif.got.tgz:10751.got - 2010.04.14 03:12:58.
