data_PCOD8197808
_publ_section_title
;
Structure prediction by ZEFSAII (Michael W. Deem and Ramdas Pophale) SiO2 
 PCOD8197808
Probable space group: P M M M
;
_chemical_formula_sum "Si O2"
_cell_formula_units_Z 52
_cell_length_a 20.695771
_cell_length_b 9.358104
_cell_length_c 14.144995
_cell_angle_alpha 90.000000
_cell_angle_beta 90.000000
_cell_angle_gamma 90.000000
_cell_volume 2739.506126
_symmetry_space_group_name_H-M "P M M M"
_symmetry_group_IT_number 47
_symmetry_cell_setting 'orthorhombic'
loop_
_space_group_symop_operation_xyz
x,y,z
-x,-y,z
x,-y,-z
-x,y,-z
-x,-y,-z
x,y,-z
-x,y,z
x,-y,z
loop_
_atom_site_type_symbol
_atom_site_label
_atom_site_fract_x
_atom_site_fract_y
_atom_site_fract_z
Si Si1 0.680261 0.664523 0.787761
Si Si2 0.752775 0.336180 0.606416
Si Si3 0.000000 0.663584 0.613207
Si Si4 0.808915 0.664748 0.889063
Si Si5 0.877172 0.838038 0.387747
Si Si6 0.426046 0.832851 0.106977
Si Si7 0.070580 0.838279 0.112346
O O1 0.668098 0.500000 0.814184
O O2 0.691507 0.685732 0.675386
O O3 0.743447 0.723020 0.842145
O O4 0.617713 0.751888 0.817680
O O5 0.731178 0.295299 0.500000
O O6 0.777094 0.500000 0.611031
O O7 0.810937 0.237770 0.643586
O O8 0.062540 0.747982 0.653218
O O9 0.000000 0.500000 0.650127
O O10 0.000000 0.664433 0.500000
O O11 0.818852 0.500000 0.863946
O O12 0.870896 0.745781 0.844485
O O13 0.803033 0.692552 0.000000
O O14 0.881374 0.839301 0.500000
O O15 0.879310 0.000000 0.348078
O O16 0.500000 0.792488 0.128436
O O17 0.414716 0.000000 0.119687
O O18 0.408041 0.786583 0.000000
O O19 0.000000 0.780904 0.146325
O O20 0.080154 0.000000 0.146800
O O21 0.073248 0.829479 0.000000
#
# Coordination Sequence:
#
# PCOD8197808 Si02
#       7
#     8   8   4   8   8   8   8
#     4  10  20  33  52  78 106 135 172 214 255 303
#     4   9  18  33  51  70  96 132 174 219 265 312
#     4   9  15  23  39  63  89 119 156 201 262 331
#     4   9  17  28  43  67  98 126 154 194 245 299
#     4   9  16  26  42  65  91 119 158 211 266 318
#     4   9  19  36  57  83 115 146 172 199 239 297
#     4   8  14  25  41  61  86 119 160 201 239 286
#
# _framework density 18.981522999999999
#
# number of rings (size 3 to 8) (size 9 to 14) (size 15 to 20)
#    0.000    3.000    0.000    2.077    0.000    5.538 
#    0.000    3.846    1.692    0.462    0.000    3.231 
#    0.000    0.000    0.000    0.000    0.000    0.000 
#
# Total GULP energy -644695.902379 kJ/mol
# GULP energy per Si atom -12397.998123 kJ/mol
# Density = 1.893832 g / cm^3
# Si number density = 18.981523 Si / 1000 Ang^3
#
#
#
# Elastic Constant Matrix: (Units=GPa)
#
#
# Indices 1 2 3 4 5 6 
#
# 1 134.2185 67.4300 53.6307 0.0000 0.0000 0.0000
# 2 67.4300 93.9006 28.3329 0.0000 0.0000 0.0000
# 3 53.6307 28.3329 53.3106 0.0000 0.0000 0.0000
# 4 0.0000 0.0000 0.0000 12.0367 0.0000 0.0000
# 5 0.0000 0.0000 0.0000 0.0000 24.8159 0.0000
# 6 0.0000 0.0000 0.0000 0.0000 0.0000 40.1275
#
#
#
# Elastic Compliance Matrix: (Units=1/GPa)
#
#
# Indices 1 2 3 4 5 6 
#
# 1 0.016381 -0.008088 -0.012181 0.000000 0.000000 0.000000
# 2 -0.008088 0.016677 -0.000727 0.000000 0.000000 0.000000
# 3 -0.012181 -0.000727 0.031398 0.000000 0.000000 0.000000
# 4 0.000000 0.000000 0.000000 0.083079 0.000000 0.000000
# 5 0.000000 0.000000 0.000000 0.000000 0.040297 0.000000
# 6 0.000000 0.000000 0.000000 0.000000 0.000000 0.024921
#
#
# Mechanical properties :
#
#
# Convention : Reuss Voigt Hill
#
# Bulk Modulus (GPa) = 44.51375 64.46856 54.49115
# Shear Modulus (GPa) = 19.06708 24.19841 21.63275
#
# Velocity S-wave (km/s) = 3.17284 3.57436 3.37957
# Velocity P-wave (km/s) = 6.07655 7.14649 6.63313
#
# Compressibility (1/GPa) = 0.02246497
#
# Stress axis : x y z
#
# Youngs Moduli (GPa) = 61.04635 59.96393 31.84882
#
# Poissons Ratio (x) = 0.48498 0.38795
# Poissons Ratio (y) = 0.49373 0.02315
# Poissons Ratio (z) = 0.74360 0.04358
#
# Static dielectric constant tensor:
#      x y z
#    x 3.397780 0.000000 0.000000 
#    y 0.000000 3.501700 0.000000 
#    z 0.000000 0.000000 3.324030 
# 
# 
# High freq. dielectric constant tensor:
#      x y z
#    x 1.718810 0.000000 0.000000 
#    y 0.000000 1.732500 0.000000 
#    z 0.000000 0.000000 1.730350 
# 
# From -- ./inp_files/25043.got.cif
#   From: 2010.03.12/outbox.cif.g09.slc.cpg/sg47_13_cif.got.tgz:25043.got - 2010.04.14 03:12:58.
