data_PCOD8197795
_publ_section_title
;
Structure prediction by ZEFSAII (Michael W. Deem and Ramdas Pophale) SiO2 
 PCOD8197795
Probable space group: P M M M
;
_chemical_formula_sum "Si O2"
_cell_formula_units_Z 52
_cell_length_a 9.556363
_cell_length_b 17.289971
_cell_length_c 17.225326
_cell_angle_alpha 90.000000
_cell_angle_beta 90.000000
_cell_angle_gamma 90.000000
_cell_volume 2846.127509
_symmetry_space_group_name_H-M "P M M M"
_symmetry_group_IT_number 47
_symmetry_cell_setting 'orthorhombic'
loop_
_space_group_symop_operation_xyz
x,y,z
-x,-y,z
x,-y,-z
-x,y,-z
-x,-y,-z
x,y,-z
-x,y,z
x,-y,z
loop_
_atom_site_type_symbol
_atom_site_label
_atom_site_fract_x
_atom_site_fract_y
_atom_site_fract_z
Si Si1 0.165916 0.500000 0.585911
Si Si2 0.848587 0.909716 0.084872
Si Si3 0.340901 0.164556 0.202582
Si Si4 0.334059 0.411984 0.000000
Si Si5 0.834337 0.089016 0.500000
Si Si6 0.339221 0.659718 0.838230
Si Si7 0.163389 0.641604 0.688763
Si Si8 0.163519 0.815654 0.349609
O O1 0.232273 0.500000 0.500000
O O2 0.217407 0.576719 0.629608
O O3 0.000000 0.500000 0.580445
O O4 0.718256 0.893019 0.139200
O O5 0.000000 0.877747 0.116141
O O6 0.860731 0.000000 0.076543
O O7 0.819668 0.873190 0.000000
O O8 0.500000 0.143832 0.222261
O O9 0.325626 0.248550 0.165025
O O10 0.251065 0.150082 0.279188
O O11 0.280110 0.369702 0.921463
O O12 0.278669 0.500000 0.000000
O O13 0.500000 0.408962 0.000000
O O14 0.783345 0.138616 0.425756
O O15 0.000000 0.084860 0.500000
O O16 0.775190 0.000000 0.500000
O O17 0.500000 0.632966 0.826366
O O18 0.246246 0.626275 0.768455
O O19 0.194397 0.723627 0.646707
O O20 0.000000 0.633386 0.708531
O O21 0.000000 0.831204 0.335260
#
# Coordination Sequence:
#
# PCOD8197795 Si02
#       8
#     4   8   8   4   4   8   8   8
#     4   9  18  30  49  78 105 130 166 211 261 311
#     4   9  19  35  53  74 101 133 169 209 253 300
#     4  10  20  33  52  77 105 135 170 211 257 307
#     4   9  18  32  51  73  96 131 178 216 249 299
#     4   9  18  32  53  80 102 126 167 213 251 293
#     4   9  19  34  52  74 101 135 174 212 253 299
#     4   9  18  32  51  74 102 133 166 207 256 309
#     4   9  18  33  53  74 100 133 170 209 254 306
#
# _framework density 18.270439
#
# number of rings (size 3 to 8) (size 9 to 14) (size 15 to 20)
#    0.000    2.846    0.000    0.923    3.231    1.846 
#    0.000    3.077    0.000    1.846    0.000    0.000 
#    0.000    0.000    0.000    0.000    0.000    0.000 
#
# Total GULP energy -644512.352359 kJ/mol
# GULP energy per Si atom -12394.468315 kJ/mol
# Density = 1.822885 g / cm^3
# Si number density = 18.270439 Si / 1000 Ang^3
#
#
#
# Elastic Constant Matrix: (Units=GPa)
#
#
# Indices 1 2 3 4 5 6 
#
# 1 61.6073 31.4192 58.0583 0.0000 0.0000 0.0000
# 2 31.4192 75.4882 73.6352 0.0000 0.0000 0.0000
# 3 58.0583 73.6352 169.5448 0.0000 0.0000 0.0000
# 4 0.0000 0.0000 0.0000 33.8171 0.0000 0.0000
# 5 0.0000 0.0000 0.0000 0.0000 16.8253 0.0000
# 6 0.0000 0.0000 0.0000 0.0000 0.0000 17.8469
#
#
#
# Elastic Compliance Matrix: (Units=1/GPa)
#
#
# Indices 1 2 3 4 5 6 
#
# 1 0.024485 -0.003491 -0.006868 0.000000 0.000000 0.000000
# 2 -0.003491 0.023482 -0.009003 0.000000 0.000000 0.000000
# 3 -0.006868 -0.009003 0.012160 0.000000 0.000000 0.000000
# 4 0.000000 0.000000 0.000000 0.029571 0.000000 0.000000
# 5 0.000000 0.000000 0.000000 0.000000 0.059434 0.000000
# 6 0.000000 0.000000 0.000000 0.000000 0.000000 0.056032
#
#
# Mechanical properties :
#
#
# Convention : Reuss Voigt Hill
#
# Bulk Modulus (GPa) = 46.72411 70.31842 58.52126
# Shear Modulus (GPa) = 19.91841 23.26637 21.59239
#
# Velocity S-wave (km/s) = 3.30540 3.57240 3.44149
# Velocity P-wave (km/s) = 6.34008 7.45568 6.92040
#
# Compressibility (1/GPa) = 0.02140223
#
# Stress axis : x y z
#
# Youngs Moduli (GPa) = 40.84136 42.58525 82.23546
#
# Poissons Ratio (x) = 0.14868 0.56481
# Poissons Ratio (y) = 0.14259 0.74037
# Poissons Ratio (z) = 0.28051 0.38340
#
# Static dielectric constant tensor:
#      x y z
#    x 3.198400 0.000000 0.000000 
#    y 0.000000 3.361180 0.000000 
#    z 0.000000 0.000000 3.534580 
# 
# 
# High freq. dielectric constant tensor:
#      x y z
#    x 1.681220 0.000000 0.000000 
#    y 0.000000 1.704700 0.000000 
#    z 0.000000 0.000000 1.714690 
# 
# From -- ./inp_files/26817.got.cif
#   From: 2010.03.12/outbox.cif.g09.slc.cpg/sg47_14_cif.got.tgz:26817.got - 2010.04.14 03:12:58.
