data_PCOD8197462
_publ_section_title
;
Structure prediction by ZEFSAII (Michael W. Deem and Ramdas Pophale) SiO2 
 PCOD8197462
Probable space group: P M M M
;
_chemical_formula_sum "Si O2"
_cell_formula_units_Z 64
_cell_length_a 31.574426
_cell_length_b 14.223678
_cell_length_c 8.852474
_cell_angle_alpha 90.000000
_cell_angle_beta 90.000000
_cell_angle_gamma 90.000000
_cell_volume 3975.685630
_symmetry_space_group_name_H-M "P M M M"
_symmetry_group_IT_number 47
_symmetry_cell_setting 'orthorhombic'
loop_
_space_group_symop_operation_xyz
x,y,z
-x,-y,z
x,-y,-z
-x,y,-z
-x,-y,-z
x,y,-z
-x,y,z
x,-y,z
loop_
_atom_site_type_symbol
_atom_site_label
_atom_site_fract_x
_atom_site_fract_y
_atom_site_fract_z
Si Si1 0.455231 0.111473 0.168842
Si Si2 0.873256 0.217145 0.678732
Si Si3 0.636315 0.891903 0.180178
Si Si4 0.714771 0.796413 0.324147
Si Si5 0.842880 0.393740 0.175381
Si Si6 0.953421 0.894542 0.320492
Si Si7 0.245077 0.395412 0.327619
Si Si8 0.795064 0.890676 0.177045
O O1 0.500000 0.142810 0.251198
O O2 0.410297 0.142038 0.242579
O O3 0.453709 0.000000 0.160069
O O4 0.456756 0.152668 0.000000
O O5 0.870897 0.209849 0.500000
O O6 0.873315 0.325459 0.730083
O O7 0.916595 0.172281 0.743783
O O8 0.833080 0.164119 0.745355
O O9 0.669456 0.823756 0.258910
O O10 0.645621 0.000000 0.225884
O O11 0.638612 0.881216 0.000000
O O12 0.717132 0.821225 0.500000
O O13 0.719989 0.684332 0.295418
O O14 0.750567 0.855462 0.240128
O O15 0.856443 0.500000 0.214299
O O16 0.794258 0.375817 0.218773
O O17 0.847999 0.371108 0.000000
O O18 0.952120 0.894503 0.500000
O O19 0.000000 0.859725 0.265541
O O20 0.945164 0.000000 0.260386
O O21 0.228626 0.387565 0.500000
O O22 0.264180 0.500000 0.297269
O O23 0.800019 0.000000 0.215003
O O24 0.796349 0.870766 0.000000
#
# Coordination Sequence:
#
# PCOD8197462 Si02
#       8
#     8   8   8   8   8   8   8   8
#     4   7  10  19  37  59  80 106 147 193 227 259
#     4  11  20  31  51  76  97 120 152 191 233 274
#     4   9  17  28  42  61  88 123 156 186 224 269
#     4  11  21  31  45  65  89 120 153 188 228 271
#     4  10  20  33  50  71  94 121 153 189 230 276
#     4   8  15  29  49  73  99 124 151 186 227 270
#     4   9  18  33  50  66  85 112 150 194 236 274
#     4  11  23  35  46  63  92 128 159 188 222 263
#
# _framework density 16.097852
#
# number of rings (size 3 to 8) (size 9 to 14) (size 15 to 20)
#    0.000    2.500    1.250    3.750    0.000    4.500 
#    0.000    0.000    0.000    2.250    0.000    8.750 
#    0.000    0.500    0.000    6.250    0.000    0.250 
#
# Total GULP energy -793080.784119 kJ/mol
# GULP energy per Si atom -12391.887252 kJ/mol
# Density = 1.606121 g / cm^3
# Si number density = 16.097852 Si / 1000 Ang^3
#
#
#
# Elastic Constant Matrix: (Units=GPa)
#
#
# Indices 1 2 3 4 5 6 
#
# 1 128.9689 61.4905 30.1357 0.0000 0.0000 0.0000
# 2 61.4905 94.1138 33.7971 0.0000 0.0000 0.0000
# 3 30.1357 33.7971 46.8653 0.0000 0.0000 0.0000
# 4 0.0000 0.0000 0.0000 21.9774 0.0000 0.0000
# 5 0.0000 0.0000 0.0000 0.0000 18.0764 0.0000
# 6 0.0000 0.0000 0.0000 0.0000 0.0000 11.9989
#
#
#
# Elastic Compliance Matrix: (Units=1/GPa)
#
#
# Indices 1 2 3 4 5 6 
#
# 1 0.011504 -0.006558 -0.002668 0.000000 0.000000 0.000000
# 2 -0.006558 0.018078 -0.008820 0.000000 0.000000 0.000000
# 3 -0.002668 -0.008820 0.029414 0.000000 0.000000 0.000000
# 4 0.000000 0.000000 0.000000 0.045501 0.000000 0.000000
# 5 0.000000 0.000000 0.000000 0.000000 0.055321 0.000000
# 6 0.000000 0.000000 0.000000 0.000000 0.000000 0.083341
#
#
# Mechanical properties :
#
#
# Convention : Reuss Voigt Hill
#
# Bulk Modulus (GPa) = 43.66105 57.86605 50.76355
# Shear Modulus (GPa) = 17.42863 20.04552 18.73707
#
# Velocity S-wave (km/s) = 3.29396 3.53261 3.41537
# Velocity P-wave (km/s) = 6.45353 7.25697 6.86701
#
# Compressibility (1/GPa) = 0.02290371
#
# Stress axis : x y z
#
# Youngs Moduli (GPa) = 86.92543 55.31726 33.99796
#
# Poissons Ratio (x) = 0.36279 0.09070
# Poissons Ratio (y) = 0.57008 0.29985
# Poissons Ratio (z) = 0.23191 0.48787
#
# Static dielectric constant tensor:
#      x y z
#    x 3.388750 0.000000 0.000000 
#    y 0.000000 3.131590 0.000000 
#    z 0.000000 0.000000 2.928160 
# 
# 
# High freq. dielectric constant tensor:
#      x y z
#    x 1.613690 0.000000 0.000000 
#    y 0.000000 1.602080 0.000000 
#    z 0.000000 0.000000 1.604460 
# 
# From -- ./inp_files/8310.got.cif
#   From: 2010.03.12/outbox.cif.g09.slc.cpg/sg47_5_cif.got.tgz:8310.got - 2010.04.14 03:12:58.
