data_PCOD8197703
_publ_section_title
;
Structure prediction by ZEFSAII (Michael W. Deem and Ramdas Pophale) SiO2 
 PCOD8197703
Probable space group: P M M M
;
_chemical_formula_sum "Si O2"
_cell_formula_units_Z 64
_cell_length_a 8.880772
_cell_length_b 19.539808
_cell_length_c 19.227035
_cell_angle_alpha 90.000000
_cell_angle_beta 90.000000
_cell_angle_gamma 90.000000
_cell_volume 3336.440077
_symmetry_space_group_name_H-M "P M M M"
_symmetry_group_IT_number 47
_symmetry_cell_setting 'orthorhombic'
loop_
_space_group_symop_operation_xyz
x,y,z
-x,-y,z
x,-y,-z
-x,y,-z
-x,-y,-z
x,y,-z
-x,y,z
x,-y,z
loop_
_atom_site_type_symbol
_atom_site_label
_atom_site_fract_x
_atom_site_fract_y
_atom_site_fract_z
Si Si1 0.171398 0.602694 0.076818
Si Si2 0.671707 0.256732 0.923953
Si Si3 0.667356 0.919066 0.575583
Si Si4 0.825444 0.078922 0.711241
Si Si5 0.176413 0.673259 0.695459
Si Si6 0.675150 0.202587 0.225720
Si Si7 0.667441 0.425711 0.207136
Si Si8 0.676863 0.578165 0.580458
O O1 0.210398 0.682314 0.077267
O O2 0.284801 0.563252 0.127477
O O3 0.000000 0.592823 0.101808
O O4 0.192904 0.571683 0.000000
O O5 0.500000 0.283959 0.917025
O O6 0.711878 0.212402 0.856093
O O7 0.689195 0.218601 0.000000
O O8 0.714787 0.888935 0.500000
O O9 0.500000 0.892315 0.595725
O O10 0.787539 0.895862 0.632923
O O11 0.663980 0.000000 0.570555
O O12 0.730871 0.125306 0.763449
O O13 0.000000 0.089996 0.725152
O O14 0.777639 0.000000 0.722593
O O15 0.244464 0.746279 0.719053
O O16 0.208916 0.622532 0.758978
O O17 0.245503 0.637510 0.626570
O O18 0.000000 0.682679 0.683613
O O19 0.500000 0.209124 0.241365
O O20 0.500000 0.392767 0.212564
O O21 0.665606 0.500000 0.243842
O O22 0.713731 0.594143 0.500000
O O23 0.500000 0.582889 0.594987
O O24 0.731518 0.500000 0.598113
#
# Coordination Sequence:
#
# PCOD8197703 Si02
#       8
#     8   8   8   8   8   8   8   8
#     4  10  20  33  51  76 106 140 178 224 277 329
#     4   9  18  34  57  82 107 139 182 229 277 334
#     4   8  14  27  49  76 106 141 180 218 256 307
#     4  10  21  36  55  82 116 150 185 229 280 335
#     4  12  24  37  56  83 115 145 180 232 286 337
#     4  11  22  37  60  85 112 147 185 228 279 338
#     4  11  23  37  53  74 104 145 189 229 271 323
#     4   9  19  38  63  87 113 150 195 240 286 339
#
# _framework density 19.182120999999999
#
# number of rings (size 3 to 8) (size 9 to 14) (size 15 to 20)
#    0.000    2.000    1.250    3.750    0.000    5.500 
#    0.000    3.750    0.000    4.125    0.000    2.625 
#    0.000    0.000    0.000    0.000    0.000    0.000 
#
# Total GULP energy -792976.661219 kJ/mol
# GULP energy per Si atom -12390.260332 kJ/mol
# Density = 1.913846 g / cm^3
# Si number density = 19.182121 Si / 1000 Ang^3
#
#
#
# Elastic Constant Matrix: (Units=GPa)
#
#
# Indices 1 2 3 4 5 6 
#
# 1 84.7858 37.6061 42.4515 0.0000 0.0000 0.0000
# 2 37.6061 84.6533 50.2155 0.0000 0.0000 0.0000
# 3 42.4515 50.2155 119.3649 0.0000 0.0000 0.0000
# 4 0.0000 0.0000 0.0000 61.9602 0.0000 0.0000
# 5 0.0000 0.0000 0.0000 0.0000 27.6185 0.0000
# 6 0.0000 0.0000 0.0000 0.0000 0.0000 4.9481
#
#
#
# Elastic Compliance Matrix: (Units=1/GPa)
#
#
# Indices 1 2 3 4 5 6 
#
# 1 0.015736 -0.004891 -0.003539 0.000000 0.000000 0.000000
# 2 -0.004891 0.017261 -0.005522 0.000000 0.000000 0.000000
# 3 -0.003539 -0.005522 0.011959 0.000000 0.000000 0.000000
# 4 0.000000 0.000000 0.000000 0.016139 0.000000 0.000000
# 5 0.000000 0.000000 0.000000 0.000000 0.036208 0.000000
# 6 0.000000 0.000000 0.000000 0.000000 0.000000 0.202099
#
#
# Mechanical properties :
#
#
# Convention : Reuss Voigt Hill
#
# Bulk Modulus (GPa) = 58.64304 61.03890 59.84097
# Shear Modulus (GPa) = 15.01544 29.47408 22.24476
#
# Velocity S-wave (km/s) = 2.80086 3.92412 3.40907
# Velocity P-wave (km/s) = 6.41076 7.24027 6.83810
#
# Compressibility (1/GPa) = 0.01705232
#
# Stress axis : x y z
#
# Youngs Moduli (GPa) = 63.54985 57.93257 83.61724
#
# Poissons Ratio (x) = 0.28337 0.29589
# Poissons Ratio (y) = 0.31084 0.46175
# Poissons Ratio (z) = 0.22488 0.31991
#
# Static dielectric constant tensor:
#      x y z
#    x 3.457970 0.000000 0.000000 
#    y 0.000000 3.254350 0.000000 
#    z 0.000000 0.000000 3.880400 
# 
# 
# High freq. dielectric constant tensor:
#      x y z
#    x 1.746190 0.000000 0.000000 
#    y 0.000000 1.712730 0.000000 
#    z 0.000000 0.000000 1.755970 
# 
# From -- ./inp_files/27037.got.cif
#   From: 2010.03.12/outbox.cif.g09.slc.cpg/sg47_14_cif.got.tgz:27037.got - 2010.04.14 03:12:58.
