data_PCOD8197341
_publ_section_title
;
Structure prediction by ZEFSAII (Michael W. Deem and Ramdas Pophale) SiO2 
 PCOD8197341
Probable space group: P M M M
;
_chemical_formula_sum "Si O2"
_cell_formula_units_Z 48
_cell_length_a 9.530484
_cell_length_b 20.879698
_cell_length_c 14.457364
_cell_angle_alpha 90.000000
_cell_angle_beta 90.000000
_cell_angle_gamma 90.000000
_cell_volume 2876.923310
_symmetry_space_group_name_H-M "P M M M"
_symmetry_group_IT_number 47
_symmetry_cell_setting 'orthorhombic'
loop_
_space_group_symop_operation_xyz
x,y,z
-x,-y,z
x,-y,-z
-x,y,-z
-x,-y,-z
x,y,-z
-x,y,z
x,-y,z
loop_
_atom_site_type_symbol
_atom_site_label
_atom_site_fract_x
_atom_site_fract_y
_atom_site_fract_z
Si Si1 0.162372 0.927624 0.292826
Si Si2 0.160477 0.129950 0.102208
Si Si3 0.662536 0.744499 0.101845
Si Si4 0.336012 0.819015 0.391815
Si Si5 0.666935 0.570287 0.395403
Si Si6 0.335032 0.691674 0.290732
O O1 0.192624 0.920953 0.182706
O O2 0.255838 0.880585 0.353485
O O3 0.000000 0.912808 0.314147
O O4 0.201138 0.000000 0.320943
O O5 0.254229 0.191314 0.121525
O O6 0.000000 0.152896 0.106638
O O7 0.193552 0.100528 0.000000
O O8 0.500000 0.763113 0.109508
O O9 0.702033 0.693415 0.181369
O O10 0.697827 0.715837 0.000000
O O11 0.306105 0.811834 0.500000
O O12 0.500000 0.828779 0.370895
O O13 0.276829 0.755072 0.341933
O O14 0.716739 0.582991 0.500000
O O15 0.500000 0.571295 0.390445
O O16 0.720596 0.500000 0.362140
O O17 0.732648 0.626578 0.331831
O O18 0.500000 0.689489 0.308657
#
# Coordination Sequence:
#
# PCOD8197341 Si02
#       6
#     8   8   8   8   8   8
#     4  10  21  35  49  66  90 119 148 182 228 277
#     4   9  17  30  48  68  89 113 144 183 224 267
#     4   9  16  26  43  66  90 116 145 178 221 270
#     4  10  20  33  49  68  88 114 152 193 228 264
#     4   8  13  21  35  58  88 120 151 181 216 260
#     4   9  15  25  42  63  88 117 147 183 223 260
#
# _framework density 16.684491000000001
#
# number of rings (size 3 to 8) (size 9 to 14) (size 15 to 20)
#    0.000    2.833    1.667    1.000    0.000    3.333 
#    0.000    3.333    0.000    0.500    0.000    7.000 
#    0.000    2.667    0.000   13.333    0.000   12.667 
#
# Total GULP energy -594857.420149 kJ/mol
# GULP energy per Si atom -12392.862920 kJ/mol
# Density = 1.664652 g / cm^3
# Si number density = 16.684491 Si / 1000 Ang^3
#
#
#
# Elastic Constant Matrix: (Units=GPa)
#
#
# Indices 1 2 3 4 5 6 
#
# 1 26.8862 29.3713 28.7207 0.0000 0.0000 0.0000
# 2 29.3713 132.3487 74.4921 0.0000 0.0000 0.0000
# 3 28.7207 74.4921 114.8895 0.0000 0.0000 0.0000
# 4 0.0000 0.0000 0.0000 28.3557 0.0000 0.0000
# 5 0.0000 0.0000 0.0000 0.0000 18.6061 0.0000
# 6 0.0000 0.0000 0.0000 0.0000 0.0000 -5.7347
#
#
#
# Elastic Compliance Matrix: (Units=1/GPa)
#
#
# Indices 1 2 3 4 5 6 
#
# 1 0.054550 -0.006977 -0.009113 0.000000 0.000000 0.000000
# 2 -0.006977 0.012790 -0.006549 0.000000 0.000000 0.000000
# 3 -0.009113 -0.006549 0.015228 0.000000 0.000000 0.000000
# 4 0.000000 0.000000 0.000000 0.035266 0.000000 0.000000
# 5 0.000000 0.000000 0.000000 0.000000 0.053746 0.000000
# 6 0.000000 0.000000 0.000000 0.000000 0.000000 -0.174377
#
#
# Mechanical properties :
#
#
# Convention : Reuss Voigt Hill
#
# Bulk Modulus (GPa) = 26.81587 59.92138 43.36862
# Shear Modulus (GPa) = 91.05566 17.68144 54.36855
#
# Velocity S-wave (km/s) = 7.39551 3.25892 5.71463
# Velocity P-wave (km/s) = 9.43567 7.08189 8.34221
#
# Compressibility (1/GPa) = 0.03729136
#
# Stress axis : x y z
#
# Youngs Moduli (GPa) = 18.33169 78.18597 65.66730
#
# Poissons Ratio (x) = 0.54547 0.59844
# Poissons Ratio (y) = 0.12789 0.43004
# Poissons Ratio (z) = 0.16706 0.51202
#
# Static dielectric constant tensor:
#      x y z
#    x 2.822090 0.000000 0.000000 
#    y 0.000000 3.264580 0.000000 
#    z 0.000000 0.000000 3.411880 
# 
# 
# High freq. dielectric constant tensor:
#      x y z
#    x 1.603410 0.000000 0.000000 
#    y 0.000000 1.627110 0.000000 
#    z 0.000000 0.000000 1.655410 
# 
# From -- ./inp_files/6738.got.cif
#   From: 2010.03.12/outbox.cif.g09.slc.cpg/sg47_4_cif.got.tgz:6738.got - 2010.04.14 03:12:58.
