data_PCOD8197692
_publ_section_title
;
Structure prediction by ZEFSAII (Michael W. Deem and Ramdas Pophale) SiO2 
 PCOD8197692
Probable space group: P M M M
;
_chemical_formula_sum "Si O2"
_cell_formula_units_Z 44
_cell_length_a 9.183254
_cell_length_b 7.828877
_cell_length_c 30.136132
_cell_angle_alpha 90.000000
_cell_angle_beta 90.000000
_cell_angle_gamma 90.000000
_cell_volume 2166.624132
_symmetry_space_group_name_H-M "P M M M"
_symmetry_group_IT_number 47
_symmetry_cell_setting 'orthorhombic'
loop_
_space_group_symop_operation_xyz
x,y,z
-x,-y,z
x,-y,-z
-x,y,-z
-x,-y,-z
x,y,-z
-x,y,z
x,-y,z
loop_
_atom_site_type_symbol
_atom_site_label
_atom_site_fract_x
_atom_site_fract_y
_atom_site_fract_z
Si Si1 0.834387 0.202861 0.866705
Si Si2 0.671155 0.802578 0.387489
Si Si3 0.159774 0.195764 0.698012
Si Si4 0.672543 0.500000 0.549433
Si Si5 0.336745 0.797078 0.951094
Si Si6 0.336372 0.695975 0.218930
O O1 0.773038 0.272197 0.913676
O O2 0.738237 0.284701 0.828471
O O3 0.000000 0.265711 0.861902
O O4 0.823475 0.000000 0.863467
O O5 0.500000 0.786968 0.379067
O O6 0.747339 0.730723 0.342905
O O7 0.723960 0.674672 0.426337
O O8 0.712102 0.000000 0.399393
O O9 0.243911 0.207725 0.744190
O O10 0.000000 0.285444 0.701207
O O11 0.135288 0.000000 0.687460
O O12 0.500000 0.500000 0.546834
O O13 0.740313 0.500000 0.500000
O O14 0.500000 0.730707 0.940857
O O15 0.336137 0.000000 0.950623
O O16 0.286965 0.732113 0.000000
O O17 0.500000 0.772205 0.216861
O O18 0.341422 0.500000 0.232724
#
# Coordination Sequence:
#
# PCOD8197692 Si02
#       6
#     8   8   8   4   8   8
#     4  10  20  33  51  76 105 136 170 211 261 316
#     4   9  18  33  54  80 111 147 186 231 281 331
#     4  10  21  37  57  81 108 138 175 220 270 323
#     4   9  18  32  53  83 115 147 189 239 282 327
#     4   8  14  26  46  72 100 131 169 212 258 309
#     4  11  24  38  53  75 103 137 176 217 262 315
#
# _framework density 20.308088999999999
#
# number of rings (size 3 to 8) (size 9 to 14) (size 15 to 20)
#    0.000    2.455    0.000    2.727    1.273    6.545 
#    0.000    3.636    0.000    1.636    0.000    6.364 
#    0.000    0.000    0.000    0.000    0.000    0.000 
#
# Total GULP energy -545432.216999 kJ/mol
# GULP energy per Si atom -12396.186750 kJ/mol
# Density = 2.026187 g / cm^3
# Si number density = 20.308089 Si / 1000 Ang^3
#
#
#
# Elastic Constant Matrix: (Units=GPa)
#
#
# Indices 1 2 3 4 5 6 
#
# 1 125.4118 22.1097 68.0314 0.0000 0.0000 0.0000
# 2 22.1097 52.2545 31.0527 0.0000 0.0000 0.0000
# 3 68.0314 31.0527 165.6103 0.0000 0.0000 0.0000
# 4 0.0000 0.0000 0.0000 10.1255 0.0000 0.0000
# 5 0.0000 0.0000 0.0000 0.0000 9.8727 0.0000
# 6 0.0000 0.0000 0.0000 0.0000 0.0000 11.2534
#
#
#
# Elastic Compliance Matrix: (Units=1/GPa)
#
#
# Indices 1 2 3 4 5 6 
#
# 1 0.010462 -0.002108 -0.003903 0.000000 0.000000 0.000000
# 2 -0.002108 0.021961 -0.003252 0.000000 0.000000 0.000000
# 3 -0.003903 -0.003252 0.008251 0.000000 0.000000 0.000000
# 4 0.000000 0.000000 0.000000 0.098761 0.000000 0.000000
# 5 0.000000 0.000000 0.000000 0.000000 0.101290 0.000000
# 6 0.000000 0.000000 0.000000 0.000000 0.000000 0.088862
#
#
# Mechanical properties :
#
#
# Convention : Reuss Voigt Hill
#
# Bulk Modulus (GPa) = 45.14603 65.07380 55.10991
# Shear Modulus (GPa) = 14.06487 21.05583 17.56035
#
# Velocity S-wave (km/s) = 2.63454 3.22346 2.94376
# Velocity P-wave (km/s) = 5.61544 6.77991 6.22496
#
# Compressibility (1/GPa) = 0.02215034
#
# Stress axis : x y z
#
# Youngs Moduli (GPa) = 95.58082 45.53434 121.19383
#
# Poissons Ratio (x) = 0.09597 0.47298
# Poissons Ratio (y) = 0.20144 0.39413
# Poissons Ratio (z) = 0.37302 0.14808
#
# Static dielectric constant tensor:
#      x y z
#    x 3.888820 0.000000 0.000000 
#    y 0.000000 3.465370 0.000000 
#    z 0.000000 0.000000 3.862820 
# 
# 
# High freq. dielectric constant tensor:
#      x y z
#    x 1.786060 0.000000 0.000000 
#    y 0.000000 1.773890 0.000000 
#    z 0.000000 0.000000 1.797040 
# 
# From -- ./inp_files/33892.got.cif
#   From: 2010.03.12/outbox.cif.g09.slc.cpg/sg47_17_cif.got.tgz:33892.got - 2010.04.14 03:12:58.
