data_PCOD8197451
_publ_section_title
;
Structure prediction by ZEFSAII (Michael W. Deem and Ramdas Pophale) SiO2 
 PCOD8197451
Probable space group: P M M M
;
_chemical_formula_sum "Si O2"
_cell_formula_units_Z 64
_cell_length_a 9.285412
_cell_length_b 14.296029
_cell_length_c 31.361570
_cell_angle_alpha 90.000000
_cell_angle_beta 90.000000
_cell_angle_gamma 90.000000
_cell_volume 4163.076532
_symmetry_space_group_name_H-M "P M M M"
_symmetry_group_IT_number 47
_symmetry_cell_setting 'orthorhombic'
loop_
_space_group_symop_operation_xyz
x,y,z
-x,-y,z
x,-y,-z
-x,y,-z
-x,-y,-z
x,y,-z
-x,y,z
x,-y,z
loop_
_atom_site_type_symbol
_atom_site_label
_atom_site_fract_x
_atom_site_fract_y
_atom_site_fract_z
Si Si1 0.660996 0.388877 0.546495
Si Si2 0.832152 0.390827 0.719286
Si Si3 0.330717 0.713272 0.046613
Si Si4 0.663984 0.895821 0.906696
Si Si5 0.671304 0.395156 0.872012
Si Si6 0.832135 0.106419 0.820590
Si Si7 0.671353 0.277391 0.209964
Si Si8 0.841410 0.610925 0.624067
O O1 0.727082 0.360935 0.500000
O O2 0.500000 0.349447 0.549562
O O3 0.659871 0.500000 0.550681
O O4 0.747352 0.344036 0.586056
O O5 0.806953 0.500000 0.728096
O O6 0.727868 0.333412 0.749591
O O7 0.783280 0.364073 0.671167
O O8 0.000000 0.365556 0.726613
O O9 0.500000 0.696233 0.044562
O O10 0.296968 0.821871 0.056665
O O11 0.265684 0.647434 0.083814
O O12 0.263242 0.689423 0.000000
O O13 0.500000 0.878474 0.890090
O O14 0.772206 0.880771 0.868011
O O15 0.679734 0.000000 0.926003
O O16 0.500000 0.396424 0.873457
O O17 0.732569 0.500000 0.866398
O O18 0.722401 0.331764 0.832615
O O19 0.744560 0.175190 0.789414
O O20 0.000000 0.132960 0.820443
O O21 0.808016 0.000000 0.804766
O O22 0.500000 0.267572 0.212679
O O23 0.847373 0.500000 0.619474
O O24 0.000000 0.653352 0.618579
#
# Coordination Sequence:
#
# PCOD8197451 Si02
#       8
#     8   8   8   8   8   8   8   8
#     4   8  13  20  30  46  69  98 135 181 228 267
#     4   9  18  31  44  61  88 119 150 185 224 263
#     4   9  16  26  41  63  89 114 139 167 205 251
#     4   9  16  28  46  67  90 111 133 166 207 249
#     4   9  17  28  41  61  88 112 137 173 210 242
#     4  10  20  33  50  70  89 110 136 166 206 258
#     4  11  20  31  48  68  89 112 141 178 217 258
#     4   8  14  24  36  50  72 104 141 181 221 259
#
# _framework density 15.373246
#
# number of rings (size 3 to 8) (size 9 to 14) (size 15 to 20)
#    0.000    2.875    1.250    2.250    0.000    2.750 
#    0.000    5.000    0.000    0.375    0.000    1.750 
#    0.000    1.000    0.000    0.000    0.000    0.625 
#
# Total GULP energy -793136.153835 kJ/mol
# GULP energy per Si atom -12392.752404 kJ/mol
# Density = 1.533826 g / cm^3
# Si number density = 15.373246 Si / 1000 Ang^3
#
#
#
# Elastic Constant Matrix: (Units=GPa)
#
#
# Indices 1 2 3 4 5 6 
#
# 1 61.4759 31.8581 48.4351 0.0000 0.0000 0.0000
# 2 31.8581 69.4583 40.7700 0.0000 0.0000 0.0000
# 3 48.4351 40.7700 123.0745 0.0000 0.0000 0.0000
# 4 0.0000 0.0000 0.0000 5.7889 0.0000 0.0000
# 5 0.0000 0.0000 0.0000 0.0000 18.4500 0.0000
# 6 0.0000 0.0000 0.0000 0.0000 0.0000 15.9973
#
#
#
# Elastic Compliance Matrix: (Units=1/GPa)
#
#
# Indices 1 2 3 4 5 6 
#
# 1 0.026354 -0.007448 -0.007904 0.000000 0.000000 0.000000
# 2 -0.007448 0.019977 -0.003687 0.000000 0.000000 0.000000
# 3 -0.007904 -0.003687 0.012457 0.000000 0.000000 0.000000
# 4 0.000000 0.000000 0.000000 0.172744 0.000000 0.000000
# 5 0.000000 0.000000 0.000000 0.000000 0.054200 0.000000
# 6 0.000000 0.000000 0.000000 0.000000 0.000000 0.062511
#
#
# Mechanical properties :
#
#
# Convention : Reuss Voigt Hill
#
# Bulk Modulus (GPa) = 48.28472 55.12611 51.70542
# Shear Modulus (GPa) = 12.71539 16.91027 14.81283
#
# Velocity S-wave (km/s) = 2.87907 3.32019 3.10747
# Velocity P-wave (km/s) = 6.52139 7.11580 6.82507
#
# Compressibility (1/GPa) = 0.02071048
#
# Stress axis : x y z
#
# Youngs Moduli (GPa) = 37.94539 50.05699 80.27653
#
# Poissons Ratio (x) = 0.37283 0.63451
# Poissons Ratio (y) = 0.28262 0.29594
# Poissons Ratio (z) = 0.29992 0.18454
#
# Static dielectric constant tensor:
#      x y z
#    x 2.867910 0.000000 0.000000 
#    y 0.000000 2.847200 0.000000 
#    z 0.000000 0.000000 3.081240 
# 
# 
# High freq. dielectric constant tensor:
#      x y z
#    x 1.570120 0.000000 0.000000 
#    y 0.000000 1.555490 0.000000 
#    z 0.000000 0.000000 1.583920 
# 
# From -- ./inp_files/34422.got.cif
#   From: 2010.03.12/outbox.cif.g09.slc.cpg/sg47_18_cif.got.tgz:34422.got - 2010.04.14 03:12:58.
