data_PCOD8197739
_publ_section_title
;
Structure prediction by ZEFSAII (Michael W. Deem and Ramdas Pophale) SiO2 
 PCOD8197739
Probable space group: P M M M
;
_chemical_formula_sum "Si O2"
_cell_formula_units_Z 44
_cell_length_a 9.056418
_cell_length_b 28.065049
_cell_length_c 9.258768
_cell_angle_alpha 90.000000
_cell_angle_beta 90.000000
_cell_angle_gamma 90.000000
_cell_volume 2353.290090
_symmetry_space_group_name_H-M "P M M M"
_symmetry_group_IT_number 47
_symmetry_cell_setting 'orthorhombic'
loop_
_space_group_symop_operation_xyz
x,y,z
-x,-y,z
x,-y,-z
-x,y,-z
-x,-y,-z
x,y,-z
-x,y,z
x,-y,z
loop_
_atom_site_type_symbol
_atom_site_label
_atom_site_fract_x
_atom_site_fract_y
_atom_site_fract_z
Si Si1 0.675089 0.364574 0.836318
Si Si2 0.171031 0.554756 0.664805
Si Si3 0.827373 0.915411 0.167263
Si Si4 0.675767 0.726194 0.337078
Si Si5 0.670148 0.818303 0.167163
Si Si6 0.671621 0.000000 0.669925
O O1 0.500000 0.365371 0.829508
O O2 0.732599 0.413605 0.770866
O O3 0.738806 0.319803 0.746489
O O4 0.731508 0.359702 0.000000
O O5 0.217210 0.565372 0.500000
O O6 0.203401 0.500000 0.703261
O O7 0.000000 0.566690 0.688050
O O8 0.767902 0.863549 0.209761
O O9 0.000000 0.917715 0.200696
O O10 0.744921 0.953309 0.264809
O O11 0.793981 0.926737 0.000000
O O12 0.737087 0.725344 0.500000
O O13 0.500000 0.725148 0.334323
O O14 0.731571 0.774064 0.259219
O O15 0.500000 0.829880 0.204120
O O16 0.688153 0.804683 0.000000
O O17 0.500000 0.000000 0.710060
O O18 0.698556 0.000000 0.500000
#
# Coordination Sequence:
#
# PCOD8197739 Si02
#       6
#     8   8   8   8   8   4
#     4  10  20  33  51  77 107 137 172 215 260 307
#     4   9  19  36  55  74  99 133 172 213 259 313
#     4  10  21  37  57  81 109 141 176 214 259 311
#     4   9  17  30  50  75 102 134 173 216 260 305
#     4   9  17  31  52  76 102 134 172 213 257 306
#     4  11  24  39  56  80 108 139 178 221 262 308
#
# _framework density 18.697229
#
# number of rings (size 3 to 8) (size 9 to 14) (size 15 to 20)
#    0.000    2.455    0.000    2.727    0.000    8.000 
#    0.000    5.455    0.000    3.273    0.000    0.000 
#    0.000    0.000    0.000    0.000    0.000    0.000 
#
# Total GULP energy -545710.249950 kJ/mol
# GULP energy per Si atom -12402.505681 kJ/mol
# Density = 1.865467 g / cm^3
# Si number density = 18.697229 Si / 1000 Ang^3
#
#
#
# Elastic Constant Matrix: (Units=GPa)
#
#
# Indices 1 2 3 4 5 6 
#
# 1 53.7978 47.9401 45.4946 0.0000 0.0000 0.0000
# 2 47.9401 144.2793 90.4802 0.0000 0.0000 0.0000
# 3 45.4946 90.4802 131.1074 0.0000 0.0000 0.0000
# 4 0.0000 0.0000 0.0000 34.4314 0.0000 0.0000
# 5 0.0000 0.0000 0.0000 0.0000 23.3655 0.0000
# 6 0.0000 0.0000 0.0000 0.0000 0.0000 -29.8273
#
#
#
# Elastic Compliance Matrix: (Units=1/GPa)
#
#
# Indices 1 2 3 4 5 6 
#
# 1 0.028846 -0.005831 -0.005985 0.000000 0.000000 0.000000
# 2 -0.005831 0.013398 -0.007223 0.000000 0.000000 0.000000
# 3 -0.005985 -0.007223 0.014689 0.000000 0.000000 0.000000
# 4 0.000000 0.000000 0.000000 0.029043 0.000000 0.000000
# 5 0.000000 0.000000 0.000000 0.000000 0.042798 0.000000
# 6 0.000000 0.000000 0.000000 0.000000 0.000000 -0.033526
#
#
# Mechanical properties :
#
#
# Convention : Reuss Voigt Hill
#
# Bulk Modulus (GPa) = 53.03886 77.44601 65.24244
# Shear Modulus (GPa) = 35.81353 15.27856 25.54604
#
# Velocity S-wave (km/s) = 4.38133 2.86170 3.70036
# Velocity P-wave (km/s) = 7.35007 7.24086 7.29567
#
# Compressibility (1/GPa) = 0.01885410
#
# Stress axis : x y z
#
# Youngs Moduli (GPa) = 34.66692 74.63694 68.07810
#
# Poissons Ratio (x) = 0.43522 0.40747
# Poissons Ratio (y) = 0.20215 0.49173
# Poissons Ratio (z) = 0.20749 0.53910
#
# Static dielectric constant tensor:
#      x y z
#    x 3.185280 0.000000 0.000000 
#    y 0.000000 3.546210 0.000000 
#    z 0.000000 0.000000 3.527780 
# 
# 
# High freq. dielectric constant tensor:
#      x y z
#    x 1.701640 0.000000 0.000000 
#    y 0.000000 1.739740 0.000000 
#    z 0.000000 0.000000 1.729530 
# 
# From -- ./inp_files/2013.got.cif
#   From: 2010.03.12/outbox.cif.g09.slc.cpg/sg47_2_cif.got.tgz:2013.got - 2010.04.14 03:12:58.
