data_PCOD8197350
_publ_section_title
;
Structure prediction by ZEFSAII (Michael W. Deem and Ramdas Pophale) SiO2 
 PCOD8197350
Probable space group: P M M M
;
_chemical_formula_sum "Si O2"
_cell_formula_units_Z 52
_cell_length_a 8.822964
_cell_length_b 9.100209
_cell_length_c 33.913341
_cell_angle_alpha 90.000000
_cell_angle_beta 90.000000
_cell_angle_gamma 90.000000
_cell_volume 2722.929836
_symmetry_space_group_name_H-M "P M M M"
_symmetry_group_IT_number 47
_symmetry_cell_setting 'orthorhombic'
loop_
_space_group_symop_operation_xyz
x,y,z
-x,-y,z
x,-y,-z
-x,y,-z
-x,-y,-z
x,y,-z
-x,y,z
x,-y,z
loop_
_atom_site_type_symbol
_atom_site_label
_atom_site_fract_x
_atom_site_fract_y
_atom_site_fract_z
Si Si1 0.680257 0.334846 0.543411
Si Si2 0.821917 0.170271 0.231837
Si Si3 0.819572 0.666028 0.846194
Si Si4 0.180685 0.666204 0.000000
Si Si5 0.679881 0.333770 0.695192
Si Si6 0.180798 0.166257 0.077047
Si Si7 0.319240 0.164853 0.618457
O O1 0.733005 0.278979 0.500000
O O2 0.500000 0.334803 0.545413
O O3 0.740131 0.500000 0.550590
O O4 0.746572 0.230336 0.577552
O O5 0.761252 0.251114 0.192725
O O6 0.738867 0.238115 0.268957
O O7 0.000000 0.193951 0.237055
O O8 0.779210 0.000000 0.228256
O O9 0.756308 0.500000 0.846088
O O10 0.755841 0.750599 0.884427
O O11 0.000000 0.665788 0.847324
O O12 0.242636 0.749869 0.961469
O O13 0.243186 0.500000 0.000000
O O14 0.000000 0.665562 0.000000
O O15 0.500000 0.332107 0.695957
O O16 0.742104 0.500000 0.698173
O O17 0.740914 0.262629 0.654696
O O18 0.000000 0.165954 0.077237
O O19 0.242976 0.000000 0.076870
O O20 0.500000 0.165316 0.617689
O O21 0.256527 0.000000 0.623376
#
# Coordination Sequence:
#
# PCOD8197350 Si02
#       7
#     8   8   8   4   8   8   8
#     4   8  13  21  33  50  75 108 143 177 214 258
#     4  10  20  33  49  69  92 118 150 189 231 273
#     4   9  16  26  40  57  78 106 140 177 217 262
#     4   9  15  21  29  43  65  95 132 171 210 255
#     4  10  20  33  49  68  91 121 155 189 227 272
#     4   9  15  22  32  47  69  98 133 172 213 257
#     4   9  16  25  38  57  82 112 145 181 221 265
#
# _framework density 19.097076000000001
#
# number of rings (size 3 to 8) (size 9 to 14) (size 15 to 20)
#    0.000    2.846    0.000    3.000    0.000    8.615 
#    0.000    1.538    0.000    0.000    0.000    0.000 
#    0.000    0.615    0.000    7.154    0.000   22.462 
#
# Total GULP energy -644683.701704 kJ/mol
# GULP energy per Si atom -12397.763494 kJ/mol
# Density = 1.905361 g / cm^3
# Si number density = 19.097076 Si / 1000 Ang^3
#
#
#
# Elastic Constant Matrix: (Units=GPa)
#
#
# Indices 1 2 3 4 5 6 
#
# 1 2.9947 9.6997 9.3818 0.0000 0.0000 0.0000
# 2 9.6997 162.0323 87.4088 0.0000 0.0000 0.0000
# 3 9.3818 87.4088 185.0075 0.0000 0.0000 0.0000
# 4 0.0000 0.0000 0.0000 44.7008 0.0000 0.0000
# 5 0.0000 0.0000 0.0000 0.0000 15.3113 0.0000
# 6 0.0000 0.0000 0.0000 0.0000 0.0000 11.6159
#
#
#
# Elastic Compliance Matrix: (Units=1/GPa)
#
#
# Indices 1 2 3 4 5 6 
#
# 1 0.436842 -0.019058 -0.013148 0.000000 0.000000 0.000000
# 2 -0.019058 0.009114 -0.003340 0.000000 0.000000 0.000000
# 3 -0.013148 -0.003340 0.007650 0.000000 0.000000 0.000000
# 4 0.000000 0.000000 0.000000 0.022371 0.000000 0.000000
# 5 0.000000 0.000000 0.000000 0.000000 0.065311 0.000000
# 6 0.000000 0.000000 0.000000 0.000000 0.000000 0.086089
#
#
# Mechanical properties :
#
#
# Convention : Reuss Voigt Hill
#
# Bulk Modulus (GPa) = 2.61428 62.55724 32.58576
# Shear Modulus (GPa) = 6.05347 30.56189 18.30768
#
# Velocity S-wave (km/s) = 1.78234 4.00477 3.09959
# Velocity P-wave (km/s) = 2.36802 7.36294 5.46902
#
# Compressibility (1/GPa) = 0.38251455
#
# Stress axis : x y z
#
# Youngs Moduli (GPa) = 2.28916 109.72109 130.72310
#
# Poissons Ratio (x) = 2.09105 1.71878
# Poissons Ratio (y) = 0.04363 0.43656
# Poissons Ratio (z) = 0.03010 0.36642
#
# Static dielectric constant tensor:
#      x y z
#    x 2.667620 0.000000 0.000000 
#    y 0.000000 3.779400 0.000000 
#    z 0.000000 0.000000 3.803580 
# 
# 
# High freq. dielectric constant tensor:
#      x y z
#    x 1.652060 0.000000 0.000000 
#    y 0.000000 1.759350 0.000000 
#    z 0.000000 0.000000 1.764570 
# 
# From -- ./inp_files/14130.got.cif
#   From: 2010.03.12/outbox.cif.g09.slc.cpg/sg47_8_cif.got.tgz:14130.got - 2010.04.14 03:12:58.
