data_PCOD8197512
_publ_section_title
;
Structure prediction by ZEFSAII (Michael W. Deem and Ramdas Pophale) SiO2 
 PCOD8197512
Probable space group: P M M M
;
_chemical_formula_sum "Si O2"
_cell_formula_units_Z 48
_cell_length_a 19.593153
_cell_length_b 8.912896
_cell_length_c 15.037297
_cell_angle_alpha 90.000000
_cell_angle_beta 90.000000
_cell_angle_gamma 90.000000
_cell_volume 2625.989265
_symmetry_space_group_name_H-M "P M M M"
_symmetry_group_IT_number 47
_symmetry_cell_setting 'orthorhombic'
loop_
_space_group_symop_operation_xyz
x,y,z
-x,-y,z
x,-y,-z
-x,y,-z
-x,-y,-z
x,y,-z
-x,y,z
x,-y,z
loop_
_atom_site_type_symbol
_atom_site_label
_atom_site_fract_x
_atom_site_fract_y
_atom_site_fract_z
Si Si1 0.634925 0.169201 0.853853
Si Si2 0.772398 0.675829 0.899967
Si Si3 0.186404 0.178152 0.723860
Si Si4 0.079408 0.672746 0.398641
Si Si5 0.500000 0.661634 0.100677
Si Si6 0.421773 0.179976 0.500000
Si Si7 0.328212 0.832227 0.344352
O O1 0.695034 0.267998 0.894697
O O2 0.564406 0.237615 0.881024
O O3 0.632885 0.169698 0.747999
O O4 0.642721 0.000000 0.890344
O O5 0.773800 0.500000 0.880691
O O6 0.817947 0.756219 0.824123
O O7 0.800550 0.710194 0.000000
O O8 0.119666 0.221984 0.669180
O O9 0.253141 0.242683 0.670837
O O10 0.192443 0.000000 0.733966
O O11 0.098231 0.715611 0.500000
O O12 0.098083 0.500000 0.380352
O O13 0.000000 0.701477 0.381456
O O14 0.500000 0.500000 0.153042
O O15 0.500000 0.616342 0.000000
O O16 0.500000 0.242790 0.500000
O O17 0.378686 0.245330 0.584152
O O18 0.426012 0.000000 0.500000
O O19 0.314942 0.000000 0.379209
#
# Coordination Sequence:
#
# PCOD8197512 Si02
#       7
#     8   8   8   8   4   4   8
#     4  10  20  33  50  72  99 127 165 219 274 323
#     4  10  20  35  55  77 104 140 180 220 266 325
#     4  10  20  33  53  82 114 144 178 226 273 320
#     4   9  19  36  57  82 114 151 187 222 265 321
#     4  11  23  35  47  66  91 124 166 209 265 335
#     4   9  16  26  44  66  95 134 171 209 256 308
#     4   8  17  30  44  71 102 130 167 212 261 310
#
# _framework density 18.278825999999999
#
# number of rings (size 3 to 8) (size 9 to 14) (size 15 to 20)
#    0.000    2.500    0.000    3.750    2.333    4.667 
#    0.000    0.833    0.000    0.500    0.000    4.083 
#    0.000    0.000    0.000    0.000    0.000    0.000 
#
# Total GULP energy -594856.787701 kJ/mol
# GULP energy per Si atom -12392.849744 kJ/mol
# Density = 1.823722 g / cm^3
# Si number density = 18.278826 Si / 1000 Ang^3
#
#
#
# Elastic Constant Matrix: (Units=GPa)
#
#
# Indices 1 2 3 4 5 6 
#
# 1 82.8688 34.1561 58.3138 0.0000 0.0000 0.0000
# 2 34.1561 72.6058 49.0445 0.0000 0.0000 0.0000
# 3 58.3138 49.0445 116.9287 0.0000 0.0000 0.0000
# 4 0.0000 0.0000 0.0000 23.4828 0.0000 0.0000
# 5 0.0000 0.0000 0.0000 0.0000 24.9616 0.0000
# 6 0.0000 0.0000 0.0000 0.0000 0.0000 30.1834
#
#
#
# Elastic Compliance Matrix: (Units=1/GPa)
#
#
# Indices 1 2 3 4 5 6 
#
# 1 0.019238 -0.003585 -0.008091 0.000000 0.000000 0.000000
# 2 -0.003585 0.019886 -0.006553 0.000000 0.000000 0.000000
# 3 -0.008091 -0.006553 0.015336 0.000000 0.000000 0.000000
# 4 0.000000 0.000000 0.000000 0.042584 0.000000 0.000000
# 5 0.000000 0.000000 0.000000 0.000000 0.040062 0.000000
# 6 0.000000 0.000000 0.000000 0.000000 0.000000 0.033131
#
#
# Mechanical properties :
#
#
# Convention : Reuss Voigt Hill
#
# Bulk Modulus (GPa) = 55.54805 61.71467 58.63136
# Shear Modulus (GPa) = 23.50782 24.45148 23.97965
#
# Velocity S-wave (km/s) = 3.59007 3.66142 3.62592
# Velocity P-wave (km/s) = 6.90218 7.19103 7.04808
#
# Compressibility (1/GPa) = 0.01800243
#
# Stress axis : x y z
#
# Youngs Moduli (GPa) = 51.97986 50.28637 65.20738
#
# Poissons Ratio (x) = 0.18029 0.52756
# Poissons Ratio (y) = 0.18636 0.42731
# Poissons Ratio (z) = 0.42055 0.32953
#
# Static dielectric constant tensor:
#      x y z
#    x 3.146210 0.000000 0.000000 
#    y 0.000000 3.242820 0.000000 
#    z 0.000000 0.000000 3.523660 
# 
# 
# High freq. dielectric constant tensor:
#      x y z
#    x 1.693070 0.000000 0.000000 
#    y 0.000000 1.693350 0.000000 
#    z 0.000000 0.000000 1.714890 
# 
# From -- ./inp_files/21097.got.cif
#   From: 2010.03.12/outbox.cif.g09.slc.cpg/sg47_11_cif.got.tgz:21097.got - 2010.04.14 03:12:58.
