data_PCOD8197474
_publ_section_title
;
Structure prediction by ZEFSAII (Michael W. Deem and Ramdas Pophale) SiO2 
 PCOD8197474
Probable space group: P M M M
;
_chemical_formula_sum "Si O2"
_cell_formula_units_Z 64
_cell_length_a 18.488632
_cell_length_b 20.370018
_cell_length_c 9.183954
_cell_angle_alpha 90.000000
_cell_angle_beta 90.000000
_cell_angle_gamma 90.000000
_cell_volume 3458.803509
_symmetry_space_group_name_H-M "P M M M"
_symmetry_group_IT_number 47
_symmetry_cell_setting 'orthorhombic'
loop_
_space_group_symop_operation_xyz
x,y,z
-x,-y,z
x,-y,-z
-x,y,-z
-x,-y,-z
x,y,-z
-x,y,z
x,-y,z
loop_
_atom_site_type_symbol
_atom_site_label
_atom_site_fract_x
_atom_site_fract_y
_atom_site_fract_z
Si Si1 0.584145 0.807075 0.670176
Si Si2 0.082446 0.813037 0.829671
Si Si3 0.159048 0.924496 0.332138
Si Si4 0.175398 0.691757 0.826835
Si Si5 0.583661 0.424288 0.666714
Si Si6 0.918749 0.572866 0.826748
Si Si7 0.659962 0.688312 0.172710
Si Si8 0.678434 0.072301 0.326925
O O1 0.600224 0.796125 0.500000
O O2 0.500000 0.817205 0.700446
O O3 0.611169 0.744250 0.756789
O O4 0.624289 0.871961 0.731431
O O5 0.102534 0.881559 0.756574
O O6 0.132823 0.755069 0.766671
O O7 0.000000 0.794949 0.793031
O O8 0.094658 0.821524 0.000000
O O9 0.153671 0.904493 0.500000
O O10 0.240400 0.911533 0.273455
O O11 0.137559 0.000000 0.309085
O O12 0.137327 0.626199 0.762638
O O13 0.257725 0.696037 0.772809
O O14 0.171495 0.689835 0.000000
O O15 0.600432 0.404783 0.500000
O O16 0.500000 0.410529 0.701198
O O17 0.602692 0.500000 0.694411
O O18 0.632184 0.382325 0.775725
O O19 0.895998 0.500000 0.772435
O O20 0.000000 0.589516 0.772587
O O21 0.917552 0.574843 0.000000
O O22 0.653713 0.692976 0.000000
O O23 0.677552 0.070181 0.500000
O O24 0.654732 0.000000 0.268301
#
# Coordination Sequence:
#
# PCOD8197474 Si02
#       8
#     8   8   8   8   8   8   8   8
#     4  10  20  33  51  74  99 129 164 203 247 293
#     4  10  20  33  50  71  96 128 165 205 245 284
#     4   9  18  33  52  72  96 127 159 194 241 295
#     4   9  18  31  45  66  98 130 160 197 240 283
#     4   9  19  37  58  76  97 129 167 205 245 290
#     4   8  13  23  42  66  91 122 157 190 229 280
#     4  11  22  33  49  74 103 134 165 201 245 291
#     4   8  15  30  52  76  99 124 160 205 248 292
#
# _framework density 18.503508
#
# number of rings (size 3 to 8) (size 9 to 14) (size 15 to 20)
#    0.000    2.750    0.000    3.375    0.000    5.250 
#    0.000    5.000    0.000    1.125    0.000    0.875 
#    0.000    0.000    0.000   10.750    0.000    9.500 
#
# Total GULP energy -793524.374067 kJ/mol
# GULP energy per Si atom -12398.818345 kJ/mol
# Density = 1.846139 g / cm^3
# Si number density = 18.503508 Si / 1000 Ang^3
#
#
#
# Elastic Constant Matrix: (Units=GPa)
#
#
# Indices 1 2 3 4 5 6 
#
# 1 94.8178 60.3096 39.8837 0.0000 0.0000 0.0000
# 2 60.3096 117.1805 36.3097 0.0000 0.0000 0.0000
# 3 39.8837 36.3097 34.3989 0.0000 0.0000 0.0000
# 4 0.0000 0.0000 0.0000 20.6737 0.0000 0.0000
# 5 0.0000 0.0000 0.0000 0.0000 21.0664 0.0000
# 6 0.0000 0.0000 0.0000 0.0000 0.0000 41.9234
#
#
#
# Elastic Compliance Matrix: (Units=1/GPa)
#
#
# Indices 1 2 3 4 5 6 
#
# 1 0.022538 -0.005205 -0.020638 0.000000 0.000000 0.000000
# 2 -0.005205 0.013884 -0.008620 0.000000 0.000000 0.000000
# 3 -0.020638 -0.008620 0.062098 0.000000 0.000000 0.000000
# 4 0.000000 0.000000 0.000000 0.048371 0.000000 0.000000
# 5 0.000000 0.000000 0.000000 0.000000 0.047469 0.000000
# 6 0.000000 0.000000 0.000000 0.000000 0.000000 0.023853
#
#
# Mechanical properties :
#
#
# Convention : Reuss Voigt Hill
#
# Bulk Modulus (GPa) = 33.79019 57.71147 45.75083
# Shear Modulus (GPa) = 16.83482 24.05896 20.44689
#
# Velocity S-wave (km/s) = 3.01959 3.60979 3.32780
# Velocity P-wave (km/s) = 5.51891 6.97362 6.28847
#
# Compressibility (1/GPa) = 0.02959439
#
# Stress axis : x y z
#
# Youngs Moduli (GPa) = 44.36911 72.02685 16.10351
#
# Poissons Ratio (x) = 0.37489 0.33234
# Poissons Ratio (y) = 0.23094 0.13881
# Poissons Ratio (z) = 0.91568 0.62088
#
# Static dielectric constant tensor:
#      x y z
#    x 3.511950 0.000000 0.000000 
#    y 0.000000 3.674530 0.000000 
#    z 0.000000 0.000000 2.950890 
# 
# 
# High freq. dielectric constant tensor:
#      x y z
#    x 1.721980 0.000000 0.000000 
#    y 0.000000 1.733240 0.000000 
#    z 0.000000 0.000000 1.670500 
# 
# From -- ./inp_files/9961.got.cif
#   From: 2010.03.12/outbox.cif.g09.slc.cpg/sg47_5_cif.got.tgz:9961.got - 2010.04.14 03:12:58.
