data_PCOD8197304
_publ_section_title
;
Structure prediction by ZEFSAII (Michael W. Deem and Ramdas Pophale) SiO2 
 PCOD8197304
Probable space group: P M M M
;
_chemical_formula_sum "Si O2"
_cell_formula_units_Z 52
_cell_length_a 14.582748
_cell_length_b 25.247170
_cell_length_c 7.778935
_cell_angle_alpha 90.000000
_cell_angle_beta 90.000000
_cell_angle_gamma 90.000000
_cell_volume 2863.994752
_symmetry_space_group_name_H-M "P M M M"
_symmetry_group_IT_number 47
_symmetry_cell_setting 'orthorhombic'
loop_
_space_group_symop_operation_xyz
x,y,z
-x,-y,z
x,-y,-z
-x,y,-z
-x,-y,-z
x,y,-z
-x,y,z
x,-y,z
loop_
_atom_site_type_symbol
_atom_site_label
_atom_site_fract_x
_atom_site_fract_y
_atom_site_fract_z
Si Si1 0.102045 0.112257 0.801581
Si Si2 0.099346 0.771588 0.695328
Si Si3 0.719793 0.941973 0.298356
Si Si4 0.608555 0.558929 0.000000
Si Si5 0.291666 0.258821 0.295577
Si Si6 0.607786 0.634836 0.302699
Si Si7 0.603601 0.155793 0.294725
O O1 0.120316 0.165903 0.696544
O O2 0.173902 0.068117 0.743939
O O3 0.000000 0.090152 0.763088
O O4 0.113974 0.126649 0.000000
O O5 0.091092 0.752886 0.500000
O O6 0.186957 0.741529 0.779222
O O7 0.000000 0.759526 0.787120
O O8 0.705050 0.942751 0.500000
O O9 0.655570 0.895959 0.219020
O O10 0.693476 0.000000 0.222472
O O11 0.640589 0.588388 0.174541
O O12 0.651782 0.500000 0.000000
O O13 0.500000 0.555166 0.000000
O O14 0.288987 0.254228 0.500000
O O15 0.341055 0.312506 0.238715
O O16 0.347291 0.208531 0.221775
O O17 0.633080 0.619649 0.500000
O O18 0.500000 0.645786 0.286112
O O19 0.605403 0.155847 0.500000
O O20 0.500000 0.154866 0.225217
#
# Coordination Sequence:
#
# PCOD8197304 Si02
#       7
#     8   8   8   4   8   8   8
#     4  10  20  33  48  66  88 113 144 184 233 289
#     4   9  16  28  48  70  93 121 151 186 231 284
#     4  10  20  33  48  66  86 110 147 191 231 279
#     4   9  18  32  48  70 103 139 174 206 236 277
#     4   9  15  26  45  69  96 123 153 190 235 283
#     4   9  17  29  46  70 100 133 168 205 242 280
#     4   9  16  27  45  68  91 116 147 186 235 284
#
# _framework density 18.156457
#
# number of rings (size 3 to 8) (size 9 to 14) (size 15 to 20)
#    0.000    2.692    1.538    0.923    0.000    4.000 
#    1.385    4.615    0.000    0.462    0.000    1.077 
#    0.000    1.231    0.000    6.000    0.000    0.154 
#
# Total GULP energy -644431.859919 kJ/mol
# GULP energy per Si atom -12392.920383 kJ/mol
# Density = 1.811513 g / cm^3
# Si number density = 18.156457 Si / 1000 Ang^3
#
#
#
# Elastic Constant Matrix: (Units=GPa)
#
#
# Indices 1 2 3 4 5 6 
#
# 1 118.7905 69.9480 15.3955 0.0000 0.0000 0.0000
# 2 69.9480 146.1478 35.0615 0.0000 0.0000 0.0000
# 3 15.3955 35.0615 38.6213 0.0000 0.0000 0.0000
# 4 0.0000 0.0000 0.0000 4.9238 0.0000 0.0000
# 5 0.0000 0.0000 0.0000 0.0000 6.2130 0.0000
# 6 0.0000 0.0000 0.0000 0.0000 0.0000 16.4022
#
#
#
# Elastic Compliance Matrix: (Units=1/GPa)
#
#
# Indices 1 2 3 4 5 6 
#
# 1 0.011730 -0.005743 0.000538 0.000000 0.000000 0.000000
# 2 -0.005743 0.011560 -0.008205 0.000000 0.000000 0.000000
# 3 0.000538 -0.008205 0.033126 0.000000 0.000000 0.000000
# 4 0.000000 0.000000 0.000000 0.203094 0.000000 0.000000
# 5 0.000000 0.000000 0.000000 0.000000 0.160954 0.000000
# 6 0.000000 0.000000 0.000000 0.000000 0.000000 0.060968
#
#
# Mechanical properties :
#
#
# Convention : Reuss Voigt Hill
#
# Bulk Modulus (GPa) = 33.78811 60.48551 47.13681
# Shear Modulus (GPa) = 9.65034 17.71810 13.68422
#
# Velocity S-wave (km/s) = 2.30795 3.12726 2.74831
# Velocity P-wave (km/s) = 5.07464 6.81363 6.00739
#
# Compressibility (1/GPa) = 0.02959621
#
# Stress axis : x y z
#
# Youngs Moduli (GPa) = 85.24897 86.50860 30.18742
#
# Poissons Ratio (x) = 0.49685 -0.01624
# Poissons Ratio (y) = 0.48961 0.24768
# Poissons Ratio (z) = -0.04586 0.70977
#
# Static dielectric constant tensor:
#      x y z
#    x 3.624500 0.000000 0.000000 
#    y 0.000000 3.315120 0.000000 
#    z 0.000000 0.000000 3.090980 
# 
# 
# High freq. dielectric constant tensor:
#      x y z
#    x 1.699420 0.000000 0.000000 
#    y 0.000000 1.669710 0.000000 
#    z 0.000000 0.000000 1.683420 
# 
# From -- ./inp_files/6938.got.cif
#   From: 2010.03.12/outbox.cif.g09.slc.cpg/sg47_4_cif.got.tgz:6938.got - 2010.04.14 03:12:58.
