data_PCOD8197220
_publ_section_title
;
Structure prediction by ZEFSAII (Michael W. Deem and Ramdas Pophale) SiO2 
 PCOD8197220
Probable space group: P M M M
;
_chemical_formula_sum "Si O2"
_cell_formula_units_Z 52
_cell_length_a 19.888071
_cell_length_b 9.505946
_cell_length_c 14.755697
_cell_angle_alpha 90.000000
_cell_angle_beta 90.000000
_cell_angle_gamma 90.000000
_cell_volume 2789.637248
_symmetry_space_group_name_H-M "P M M M"
_symmetry_group_IT_number 47
_symmetry_cell_setting 'orthorhombic'
loop_
_space_group_symop_operation_xyz
x,y,z
-x,-y,z
x,-y,-z
-x,y,-z
-x,-y,-z
x,y,-z
-x,y,z
x,-y,z
loop_
_atom_site_type_symbol
_atom_site_label
_atom_site_fract_x
_atom_site_fract_y
_atom_site_fract_z
Si Si1 0.575827 0.333218 0.600350
Si Si2 0.425101 0.157215 0.106221
Si Si3 0.659801 0.339529 0.768191
Si Si4 0.075695 0.333478 0.101788
Si Si5 0.127409 0.835932 0.394450
Si Si6 0.185100 0.338130 0.248131
Si Si7 0.000000 0.342404 0.393116
O O1 0.593794 0.272934 0.500000
O O2 0.500000 0.285388 0.627850
O O3 0.579094 0.500000 0.595594
O O4 0.630567 0.276231 0.673266
O O5 0.500000 0.208312 0.131778
O O6 0.371274 0.260242 0.147808
O O7 0.413436 0.000000 0.143477
O O8 0.414433 0.159863 0.000000
O O9 0.636580 0.500000 0.773522
O O10 0.738955 0.325764 0.784531
O O11 0.079338 0.500000 0.098142
O O12 0.132994 0.279947 0.171742
O O13 0.000000 0.286695 0.132796
O O14 0.090197 0.274535 0.000000
O O15 0.143293 0.814068 0.500000
O O16 0.185634 0.765074 0.335412
O O17 0.063289 0.747095 0.361014
O O18 0.116863 0.000000 0.372315
O O19 0.167974 0.500000 0.275118
O O20 0.000000 0.500000 0.349188
O O21 0.000000 0.357247 0.500000
#
# Coordination Sequence:
#
# PCOD8197220 Si02
#       7
#     8   8   8   8   8   8   4
#     4   8  14  26  45  68  95 130 169 206 250 306
#     4   9  19  36  56  77 103 139 180 216 257 318
#     4  10  20  32  49  78 110 135 167 218 273 318
#     4   8  15  30  51  72  95 126 167 215 262 309
#     4  10  21  36  52  73 105 143 180 217 261 315
#     4  10  21  33  50  79 107 136 176 218 265 322
#     4   9  17  31  53  77  98 125 166 217 269 316
#
# _framework density 18.640416999999999
#
# number of rings (size 3 to 8) (size 9 to 14) (size 15 to 20)
#    0.000    2.846    0.000    2.538    1.077    4.923 
#    0.000    3.846    0.000    0.923    0.000    3.231 
#    0.000    0.000    0.000    0.000    0.000    0.000 
#
# Total GULP energy -644414.288660 kJ/mol
# GULP energy per Si atom -12392.582474 kJ/mol
# Density = 1.859799 g / cm^3
# Si number density = 18.640417 Si / 1000 Ang^3
#
#
#
# Elastic Constant Matrix: (Units=GPa)
#
#
# Indices 1 2 3 4 5 6 
#
# 1 105.4788 42.0599 56.7856 0.0000 0.0000 0.0000
# 2 42.0599 78.9299 41.3452 0.0000 0.0000 0.0000
# 3 56.7856 41.3452 77.3749 0.0000 0.0000 0.0000
# 4 0.0000 0.0000 0.0000 23.7024 0.0000 0.0000
# 5 0.0000 0.0000 0.0000 0.0000 25.8920 0.0000
# 6 0.0000 0.0000 0.0000 0.0000 0.0000 18.8932
#
#
#
# Elastic Compliance Matrix: (Units=1/GPa)
#
#
# Indices 1 2 3 4 5 6 
#
# 1 0.016290 -0.003358 -0.010161 0.000000 0.000000 0.000000
# 2 -0.003358 0.018286 -0.007307 0.000000 0.000000 0.000000
# 3 -0.010161 -0.007307 0.024286 0.000000 0.000000 0.000000
# 4 0.000000 0.000000 0.000000 0.042190 0.000000 0.000000
# 5 0.000000 0.000000 0.000000 0.000000 0.038622 0.000000
# 6 0.000000 0.000000 0.000000 0.000000 0.000000 0.052929
#
#
# Mechanical properties :
#
#
# Convention : Reuss Voigt Hill
#
# Bulk Modulus (GPa) = 58.10438 60.24056 59.17247
# Shear Modulus (GPa) = 20.83414 21.80369 21.31892
#
# Velocity S-wave (km/s) = 3.34681 3.42380 3.38552
# Velocity P-wave (km/s) = 6.79512 6.92944 6.86261
#
# Compressibility (1/GPa) = 0.01721041
#
# Stress axis : x y z
#
# Youngs Moduli (GPa) = 61.38835 54.68551 41.17683
#
# Poissons Ratio (x) = 0.18363 0.41839
# Poissons Ratio (y) = 0.20614 0.30087
# Poissons Ratio (z) = 0.62375 0.39958
#
# Static dielectric constant tensor:
#      x y z
#    x 3.456970 0.000000 0.000000 
#    y 0.000000 3.151160 0.000000 
#    z 0.000000 0.000000 3.533700 
# 
# 
# High freq. dielectric constant tensor:
#      x y z
#    x 1.720720 0.000000 0.000000 
#    y 0.000000 1.686080 0.000000 
#    z 0.000000 0.000000 1.725630 
# 
# From -- ./inp_files/7032.got.cif
#   From: 2010.03.12/outbox.cif.g09.slc.cpg/sg47_4_cif.got.tgz:7032.got - 2010.04.14 03:12:58.
