data_PCOD8197715
_publ_section_title
;
Structure prediction by ZEFSAII (Michael W. Deem and Ramdas Pophale) SiO2 
 PCOD8197715
Probable space group: P M M M
;
_chemical_formula_sum "Si O2"
_cell_formula_units_Z 44
_cell_length_a 28.448409
_cell_length_b 9.535129
_cell_length_c 9.262483
_cell_angle_alpha 90.000000
_cell_angle_beta 90.000000
_cell_angle_gamma 90.000000
_cell_volume 2512.534189
_symmetry_space_group_name_H-M "P M M M"
_symmetry_group_IT_number 47
_symmetry_cell_setting 'orthorhombic'
loop_
_space_group_symop_operation_xyz
x,y,z
-x,-y,z
x,-y,-z
-x,y,-z
-x,-y,-z
x,y,-z
-x,y,z
x,-y,z
loop_
_atom_site_type_symbol
_atom_site_label
_atom_site_fract_x
_atom_site_fract_y
_atom_site_fract_z
Si Si1 0.150794 0.166779 0.165092
Si Si2 0.591485 0.835769 0.831889
Si Si3 0.666921 0.336742 0.334705
Si Si4 0.950272 0.842542 0.828484
Si Si5 0.225393 0.343488 0.331207
Si Si6 0.500000 0.166611 0.336709
O O1 0.099482 0.225224 0.222315
O O2 0.192039 0.231909 0.257331
O O3 0.152157 0.000000 0.182260
O O4 0.158832 0.211181 0.000000
O O5 0.636705 0.754980 0.774419
O O6 0.545970 0.778583 0.746680
O O7 0.599264 0.000000 0.804071
O O8 0.584144 0.803398 0.000000
O O9 0.655671 0.294540 0.500000
O O10 0.655871 0.500000 0.310583
O O11 0.720910 0.303559 0.297406
O O12 0.000000 0.766540 0.780228
O O13 0.952362 0.000000 0.767651
O O14 0.947953 0.847770 0.000000
O O15 0.216009 0.337714 0.500000
O O16 0.214647 0.500000 0.272998
O O17 0.500000 0.226069 0.500000
O O18 0.500000 0.000000 0.336961
#
# Coordination Sequence:
#
# PCOD8197715 Si02
#       6
#     8   8   8   8   8   4
#     4   9  17  28  45  72  99 119 148 194 240 281
#     4  10  20  33  51  77 106 131 156 192 238 283
#     4   9  19  36  54  70  91 123 164 204 238 277
#     4   7  10  19  37  61  89 119 148 181 226 277
#     4   9  19  35  51  66  89 125 164 197 233 281
#     4   9  17  31  52  75 100 133 168 196 226 271
#
# _framework density 17.5122
#
# number of rings (size 3 to 8) (size 9 to 14) (size 15 to 20)
#    0.000    3.182    0.000    3.545    0.000    4.727 
#    0.000    5.909    0.000    3.818    0.000    6.364 
#    0.000    0.000    0.000    0.000    0.000    0.000 
#
# Total GULP energy -545131.826805 kJ/mol
# GULP energy per Si atom -12389.359700 kJ/mol
# Density = 1.747234 g / cm^3
# Si number density = 17.512200 Si / 1000 Ang^3
#
#
#
# Elastic Constant Matrix: (Units=GPa)
#
#
# Indices 1 2 3 4 5 6 
#
# 1 146.3528 47.4610 67.4715 0.0000 0.0000 0.0000
# 2 47.4610 34.7475 30.3467 0.0000 0.0000 0.0000
# 3 67.4715 30.3467 74.2296 0.0000 0.0000 0.0000
# 4 0.0000 0.0000 0.0000 22.5104 0.0000 0.0000
# 5 0.0000 0.0000 0.0000 0.0000 5.3053 0.0000
# 6 0.0000 0.0000 0.0000 0.0000 0.0000 -3.6502
#
#
#
# Elastic Compliance Matrix: (Units=1/GPa)
#
#
# Indices 1 2 3 4 5 6 
#
# 1 0.014850 -0.013212 -0.008097 0.000000 0.000000 0.000000
# 2 -0.013212 0.056516 -0.011095 0.000000 0.000000 0.000000
# 3 -0.008097 -0.011095 0.025367 0.000000 0.000000 0.000000
# 4 0.000000 0.000000 0.000000 0.044424 0.000000 0.000000
# 5 0.000000 0.000000 0.000000 0.000000 0.188492 0.000000
# 6 0.000000 0.000000 0.000000 0.000000 0.000000 -0.273957
#
#
# Mechanical properties :
#
#
# Convention : Reuss Voigt Hill
#
# Bulk Modulus (GPa) = 31.32404 60.65425 45.98915
# Shear Modulus (GPa) = 38.12629 12.16980 25.14805
#
# Velocity S-wave (km/s) = 4.67103 2.63902 3.79361
# Velocity P-wave (km/s) = 6.85691 6.63299 6.74588
#
# Compressibility (1/GPa) = 0.03192436
#
# Stress axis : x y z
#
# Youngs Moduli (GPa) = 67.33912 17.69414 39.42081
#
# Poissons Ratio (x) = 0.23378 0.31918
# Poissons Ratio (y) = 0.88971 0.43739
# Poissons Ratio (z) = 0.54522 0.19632
#
# Static dielectric constant tensor:
#      x y z
#    x 3.611720 0.000000 0.000000 
#    y 0.000000 2.902560 0.000000 
#    z 0.000000 0.000000 3.057510 
# 
# 
# High freq. dielectric constant tensor:
#      x y z
#    x 1.700300 0.000000 0.000000 
#    y 0.000000 1.637170 0.000000 
#    z 0.000000 0.000000 1.657030 
# 
# From -- ./inp_files/13575.got.cif
#   From: 2010.03.12/outbox.cif.g09.slc.cpg/sg47_7_cif.got.tgz:13575.got - 2010.04.14 03:12:58.
