data_PCOD8197516
_publ_section_title
;
Structure prediction by ZEFSAII (Michael W. Deem and Ramdas Pophale) SiO2 
 PCOD8197516
Probable space group: P M M M
;
_chemical_formula_sum "Si O2"
_cell_formula_units_Z 44
_cell_length_a 9.100990
_cell_length_b 28.435711
_cell_length_c 9.031895
_cell_angle_alpha 90.000000
_cell_angle_beta 90.000000
_cell_angle_gamma 90.000000
_cell_volume 2337.392300
_symmetry_space_group_name_H-M "P M M M"
_symmetry_group_IT_number 47
_symmetry_cell_setting 'orthorhombic'
loop_
_space_group_symop_operation_xyz
x,y,z
-x,-y,z
x,-y,-z
-x,y,-z
-x,-y,-z
x,y,-z
-x,y,z
x,-y,z
loop_
_atom_site_type_symbol
_atom_site_label
_atom_site_fract_x
_atom_site_fract_y
_atom_site_fract_z
Si Si1 0.329244 0.414605 0.827066
Si Si2 0.329800 0.318322 0.328140
Si Si3 0.824889 0.858241 0.665782
Si Si4 0.825255 0.948296 0.166455
Si Si5 0.825613 0.765913 0.832041
Si Si6 0.826300 0.500000 0.670045
O O1 0.500000 0.425197 0.797157
O O2 0.282159 0.364841 0.759329
O O3 0.234279 0.454092 0.749213
O O4 0.292795 0.414112 0.000000
O O5 0.294193 0.326101 0.500000
O O6 0.500000 0.306901 0.301208
O O7 0.235728 0.275527 0.267862
O O8 0.763916 0.851607 0.500000
O O9 0.760522 0.907219 0.729827
O O10 0.768307 0.815262 0.766182
O O11 0.000000 0.859601 0.665785
O O12 0.000000 0.945718 0.166344
O O13 0.774748 0.000000 0.224192
O O14 0.766909 0.940301 0.000000
O O15 0.000000 0.763476 0.826264
O O16 0.767811 0.761309 0.000000
O O17 0.774695 0.500000 0.500000
O O18 0.000000 0.500000 0.684244
#
# Coordination Sequence:
#
# PCOD8197516 Si02
#       6
#     8   8   8   8   8   4
#     4  10  21  38  60  83 106 136 174 212 252 300
#     4  10  21  37  57  80 105 134 169 210 255 301
#     4   9  16  25  38  58  86 120 158 201 248 298
#     4   8  13  21  33  50  76 113 155 197 242 294
#     4  10  20  33  50  72  99 133 170 207 251 303
#     4  11  24  39  56  82 114 145 176 211 252 296
#
# _framework density 18.824397000000001
#
# number of rings (size 3 to 8) (size 9 to 14) (size 15 to 20)
#    0.000    2.455    0.000    3.273    0.000    8.364 
#    0.000    1.818    0.000    0.000    0.000    0.000 
#    0.000    0.727    0.000    7.636    0.000   10.545 
#
# Total GULP energy -545598.385893 kJ/mol
# GULP energy per Si atom -12399.963316 kJ/mol
# Density = 1.878155 g / cm^3
# Si number density = 18.824397 Si / 1000 Ang^3
#
#
#
# Elastic Constant Matrix: (Units=GPa)
#
#
# Indices 1 2 3 4 5 6 
#
# 1 23.3074 34.2251 30.7489 0.0000 0.0000 0.0000
# 2 34.2251 157.3674 73.8491 0.0000 0.0000 0.0000
# 3 30.7489 73.8491 131.1262 0.0000 0.0000 0.0000
# 4 0.0000 0.0000 0.0000 54.8222 0.0000 0.0000
# 5 0.0000 0.0000 0.0000 0.0000 20.8907 0.0000
# 6 0.0000 0.0000 0.0000 0.0000 0.0000 17.4692
#
#
#
# Elastic Compliance Matrix: (Units=1/GPa)
#
#
# Indices 1 2 3 4 5 6 
#
# 1 0.073380 -0.010716 -0.011172 0.000000 0.000000 0.000000
# 2 -0.010716 0.010202 -0.003233 0.000000 0.000000 0.000000
# 3 -0.011172 -0.003233 0.012067 0.000000 0.000000 0.000000
# 4 0.000000 0.000000 0.000000 0.018241 0.000000 0.000000
# 5 0.000000 0.000000 0.000000 0.000000 0.047868 0.000000
# 6 0.000000 0.000000 0.000000 0.000000 0.000000 0.057244
#
#
# Mechanical properties :
#
#
# Convention : Reuss Voigt Hill
#
# Bulk Modulus (GPa) = 22.02330 65.49413 43.75871
# Shear Modulus (GPa) = 17.58213 30.16828 23.87521
#
# Velocity S-wave (km/s) = 3.05947 4.00761 3.56520
# Velocity P-wave (km/s) = 4.91988 7.50215 6.34380
#
# Compressibility (1/GPa) = 0.04540645
#
# Stress axis : x y z
#
# Youngs Moduli (GPa) = 13.62771 98.01711 82.87159
#
# Poissons Ratio (x) = 1.05037 0.92586
# Poissons Ratio (y) = 0.14604 0.26792
# Poissons Ratio (z) = 0.15225 0.31688
#
# Static dielectric constant tensor:
#      x y z
#    x 2.974810 0.000000 0.000000 
#    y 0.000000 4.658610 0.000000 
#    z 0.000000 0.000000 3.708560 
# 
# 
# High freq. dielectric constant tensor:
#      x y z
#    x 1.677570 0.000000 0.000000 
#    y 0.000000 1.750720 0.000000 
#    z 0.000000 0.000000 1.746460 
# 
# From -- ./inp_files/2006.got.cif
#   From: 2010.03.12/outbox.cif.g09.slc.cpg/sg47_2_cif.got.tgz:2006.got - 2010.04.14 03:12:58.
