data_PCOD8197317
_publ_section_title
;
Structure prediction by ZEFSAII (Michael W. Deem and Ramdas Pophale) SiO2 
 PCOD8197317
Probable space group: P M M M
;
_chemical_formula_sum "Si O2"
_cell_formula_units_Z 48
_cell_length_a 9.220613
_cell_length_b 14.479236
_cell_length_c 20.997291
_cell_angle_alpha 90.000000
_cell_angle_beta 90.000000
_cell_angle_gamma 90.000000
_cell_volume 2803.294394
_symmetry_space_group_name_H-M "P M M M"
_symmetry_group_IT_number 47
_symmetry_cell_setting 'orthorhombic'
loop_
_space_group_symop_operation_xyz
x,y,z
-x,-y,z
x,-y,-z
-x,y,-z
-x,-y,-z
x,y,-z
-x,y,z
x,-y,z
loop_
_atom_site_type_symbol
_atom_site_label
_atom_site_fract_x
_atom_site_fract_y
_atom_site_fract_z
Si Si1 0.170522 0.789826 0.190344
Si Si2 0.167005 0.397686 0.753745
Si Si3 0.827336 0.896039 0.314365
Si Si4 0.827502 0.895586 0.070048
Si Si5 0.832626 0.769383 0.571132
Si Si6 0.668782 0.604503 0.623493
O O1 0.206742 0.680461 0.194262
O O2 0.233673 0.843249 0.252020
O O3 0.239347 0.829705 0.124993
O O4 0.000000 0.807420 0.188641
O O5 0.193922 0.500000 0.783055
O O6 0.265961 0.380578 0.693140
O O7 0.000000 0.386111 0.732034
O O8 0.772433 0.843317 0.377791
O O9 0.000000 0.898386 0.313574
O O10 0.764661 0.000000 0.315141
O O11 0.000000 0.890413 0.070275
O O12 0.777191 0.000000 0.084489
O O13 0.770407 0.864538 0.000000
O O14 0.812615 0.810294 0.500000
O O15 0.744789 0.673824 0.574739
O O16 0.000000 0.746892 0.585431
O O17 0.500000 0.627457 0.626954
O O18 0.696297 0.500000 0.599645
#
# Coordination Sequence:
#
# PCOD8197317 Si02
#       6
#     8   8   8   8   8   8
#     4   9  14  22  39  61  85 115 149 183 218 257
#     4   9  16  27  45  67  90 115 146 184 225 270
#     4   9  16  26  42  65  88 110 144 188 225 257
#     4   8  13  20  31  53  88 124 151 177 215 262
#     4  10  20  33  48  67  91 118 148 183 225 270
#     4  10  20  33  49  68  90 116 147 185 229 273
#
# _framework density 17.122710999999999
#
# number of rings (size 3 to 8) (size 9 to 14) (size 15 to 20)
#    0.000    2.833    1.667    1.500    0.000    4.000 
#    0.000    3.333    0.000    1.000    0.000    4.667 
#    0.000    0.667    0.000    6.000    0.000    6.000 
#
# Total GULP energy -594916.670604 kJ/mol
# GULP energy per Si atom -12394.097304 kJ/mol
# Density = 1.708374 g / cm^3
# Si number density = 17.122711 Si / 1000 Ang^3
#
#
#
# Elastic Constant Matrix: (Units=GPa)
#
#
# Indices 1 2 3 4 5 6 
#
# 1 27.4929 21.1429 16.1135 0.0000 0.0000 0.0000
# 2 21.1429 134.2766 79.7190 0.0000 0.0000 0.0000
# 3 16.1135 79.7190 138.4255 0.0000 0.0000 0.0000
# 4 0.0000 0.0000 0.0000 30.5789 0.0000 0.0000
# 5 0.0000 0.0000 0.0000 0.0000 2.8741 0.0000
# 6 0.0000 0.0000 0.0000 0.0000 0.0000 8.2961
#
#
#
# Elastic Compliance Matrix: (Units=1/GPa)
#
#
# Indices 1 2 3 4 5 6 
#
# 1 0.041624 -0.005588 -0.001627 0.000000 0.000000 0.000000
# 2 -0.005588 0.012067 -0.006299 0.000000 0.000000 0.000000
# 3 -0.001627 -0.006299 0.011041 0.000000 0.000000 0.000000
# 4 0.000000 0.000000 0.000000 0.032702 0.000000 0.000000
# 5 0.000000 0.000000 0.000000 0.000000 0.347930 0.000000
# 6 0.000000 0.000000 0.000000 0.000000 0.000000 0.120538
#
#
# Mechanical properties :
#
#
# Convention : Reuss Voigt Hill
#
# Bulk Modulus (GPa) = 26.52245 59.34954 42.93599
# Shear Modulus (GPa) = 8.25767 20.56446 14.41107
#
# Velocity S-wave (km/s) = 2.19843 3.46931 2.90424
# Velocity P-wave (km/s) = 4.68694 7.12634 6.03126
#
# Compressibility (1/GPa) = 0.03770391
#
# Stress axis : x y z
#
# Youngs Moduli (GPa) = 24.02460 82.87277 90.57206
#
# Poissons Ratio (x) = 0.46309 0.14737
# Poissons Ratio (y) = 0.13425 0.57049
# Poissons Ratio (z) = 0.03909 0.52199
#
# Static dielectric constant tensor:
#      x y z
#    x 2.720610 0.000000 0.000000 
#    y 0.000000 3.452360 0.000000 
#    z 0.000000 0.000000 3.351740 
# 
# 
# High freq. dielectric constant tensor:
#      x y z
#    x 1.601980 0.000000 0.000000 
#    y 0.000000 1.667060 0.000000 
#    z 0.000000 0.000000 1.650610 
# 
# From -- ./inp_files/6765.got.cif
#   From: 2010.03.12/outbox.cif.g09.slc.cpg/sg47_4_cif.got.tgz:6765.got - 2010.04.14 03:12:58.
