data_PCOD8197880
_publ_section_title
;
Structure prediction by ZEFSAII (Michael W. Deem and Ramdas Pophale) SiO2 
 PCOD8197880
Probable space group: P M M M
;
_chemical_formula_sum "Si O2"
_cell_formula_units_Z 52
_cell_length_a 10.669005
_cell_length_b 29.637484
_cell_length_c 8.868010
_cell_angle_alpha 90.000000
_cell_angle_beta 90.000000
_cell_angle_gamma 90.000000
_cell_volume 2804.086621
_symmetry_space_group_name_H-M "P M M M"
_symmetry_group_IT_number 47
_symmetry_cell_setting 'orthorhombic'
loop_
_space_group_symop_operation_xyz
x,y,z
-x,-y,z
x,-y,-z
-x,y,-z
-x,-y,-z
x,y,-z
-x,y,z
x,-y,z
loop_
_atom_site_type_symbol
_atom_site_label
_atom_site_fract_x
_atom_site_fract_y
_atom_site_fract_z
Si Si1 0.207607 0.887064 0.825859
Si Si2 0.145715 0.202699 0.671193
Si Si3 0.644573 0.048947 0.334366
Si Si4 0.354207 0.360509 0.676700
Si Si5 0.143455 0.297613 0.821461
Si Si6 0.000000 0.948464 0.678160
Si Si7 0.647865 0.549294 0.832103
O O1 0.215971 0.837415 0.755853
O O2 0.337862 0.912368 0.793439
O O3 0.117999 0.921446 0.739392
O O4 0.171947 0.882698 0.000000
O O5 0.194476 0.207306 0.500000
O O6 0.174928 0.248552 0.758044
O O7 0.000000 0.190735 0.674988
O O8 0.697917 0.063709 0.500000
O O9 0.500000 0.041153 0.349019
O O10 0.705810 0.000000 0.290749
O O11 0.341432 0.352739 0.500000
O O12 0.500000 0.350890 0.727646
O O13 0.252214 0.329764 0.759246
O O14 0.313420 0.411773 0.715445
O O15 0.000000 0.311925 0.773570
O O16 0.153671 0.296554 0.000000
O O17 0.000000 0.946671 0.500000
O O18 0.000000 0.000000 0.737433
O O19 0.500000 0.546187 0.839561
O O20 0.700502 0.500000 0.779891
O O21 0.699549 0.560859 0.000000
#
# Coordination Sequence:
#
# PCOD8197880 Si02
#       7
#     8   8   8   8   8   4   8
#     4  12  23  34  53  80 109 134 163 209 259 306
#     4  10  20  36  58  79 103 137 175 213 259 317
#     4   9  19  37  58  76  98 134 176 211 247 301
#     4  10  20  33  52  81 115 149 186 229 278 331
#     4  10  21  37  58  82 108 140 183 231 279 331
#     4  11  23  37  53  75 105 139 171 203 246 303
#     4   8  14  26  46  73 106 145 187 229 276 330
#
# _framework density 18.544364000000002
#
# number of rings (size 3 to 8) (size 9 to 14) (size 15 to 20)
#    0.000    2.077    0.769    4.385    0.000    5.846 
#    0.000    3.077    0.000    5.077    0.000    3.231 
#    0.000    0.000    0.000    0.000    0.000    0.000 
#
# Total GULP energy -644271.052634 kJ/mol
# GULP energy per Si atom -12389.827935 kJ/mol
# Density = 1.850216 g / cm^3
# Si number density = 18.544364 Si / 1000 Ang^3
#
#
#
# Elastic Constant Matrix: (Units=GPa)
#
#
# Indices 1 2 3 4 5 6 
#
# 1 62.4028 54.2029 38.3319 0.0000 0.0000 0.0000
# 2 54.2029 145.5705 62.6847 0.0000 0.0000 0.0000
# 3 38.3319 62.6847 101.2838 0.0000 0.0000 0.0000
# 4 0.0000 0.0000 0.0000 34.1545 0.0000 0.0000
# 5 0.0000 0.0000 0.0000 0.0000 3.1061 0.0000
# 6 0.0000 0.0000 0.0000 0.0000 0.0000 37.1622
#
#
#
# Elastic Compliance Matrix: (Units=1/GPa)
#
#
# Indices 1 2 3 4 5 6 
#
# 1 0.025513 -0.007283 -0.005148 0.000000 0.000000 0.000000
# 2 -0.007283 0.011444 -0.004327 0.000000 0.000000 0.000000
# 3 -0.005148 -0.004327 0.014500 0.000000 0.000000 0.000000
# 4 0.000000 0.000000 0.000000 0.029279 0.000000 0.000000
# 5 0.000000 0.000000 0.000000 0.000000 0.321949 0.000000
# 6 0.000000 0.000000 0.000000 0.000000 0.000000 0.026909
#
#
# Mechanical properties :
#
#
# Convention : Reuss Voigt Hill
#
# Bulk Modulus (GPa) = 55.73731 68.85514 62.29622
# Shear Modulus (GPa) = 10.65892 25.15372 17.90632
#
# Velocity S-wave (km/s) = 2.40006 3.68694 3.11077
# Velocity P-wave (km/s) = 6.14832 7.43877 6.82411
#
# Compressibility (1/GPa) = 0.01794130
#
# Stress axis : x y z
#
# Youngs Moduli (GPa) = 39.19533 87.37892 68.96782
#
# Poissons Ratio (x) = 0.63637 0.35507
# Poissons Ratio (y) = 0.28545 0.29840
# Poissons Ratio (z) = 0.20179 0.37806
#
# Static dielectric constant tensor:
#      x y z
#    x 3.196610 0.000000 0.000000 
#    y 0.000000 3.679030 0.000000 
#    z 0.000000 0.000000 3.497180 
# 
# 
# High freq. dielectric constant tensor:
#      x y z
#    x 1.692400 0.000000 0.000000 
#    y 0.000000 1.727000 0.000000 
#    z 0.000000 0.000000 1.722730 
# 
# From -- ./inp_files/4564.got.cif
#   From: 2010.03.12/outbox.cif.g09.slc.cpg/sg47_3_cif.got.tgz:4564.got - 2010.04.14 03:12:58.
