data_PCOD8197421
_publ_section_title
;
Structure prediction by ZEFSAII (Michael W. Deem and Ramdas Pophale) SiO2 
 PCOD8197421
Probable space group: P M M M
;
_chemical_formula_sum "Si O2"
_cell_formula_units_Z 32
_cell_length_a 17.004349
_cell_length_b 14.368145
_cell_length_c 7.821092
_cell_angle_alpha 90.000000
_cell_angle_beta 90.000000
_cell_angle_gamma 90.000000
_cell_volume 1910.856644
_symmetry_space_group_name_H-M "P M M M"
_symmetry_group_IT_number 47
_symmetry_cell_setting 'orthorhombic'
loop_
_space_group_symop_operation_xyz
x,y,z
-x,-y,z
x,-y,-z
-x,y,-z
-x,-y,-z
x,y,-z
-x,y,z
x,-y,z
loop_
_atom_site_type_symbol
_atom_site_label
_atom_site_fract_x
_atom_site_fract_y
_atom_site_fract_z
Si Si1 0.411923 0.398243 0.203008
Si Si2 0.656142 0.209391 0.196715
Si Si3 0.194174 0.892866 0.309517
Si Si4 0.500000 0.109120 0.300851
Si Si5 0.087768 0.110571 0.000000
O O1 0.500000 0.384796 0.276842
O O2 0.379051 0.500000 0.260725
O O3 0.356753 0.314535 0.269038
O O4 0.416272 0.392720 0.000000
O O5 0.724918 0.163753 0.306484
O O6 0.576408 0.151607 0.212585
O O7 0.682724 0.210048 0.000000
O O8 0.157710 0.882715 0.500000
O O9 0.132306 0.854018 0.170579
O O10 0.214449 0.000000 0.268238
O O11 0.500000 0.133431 0.500000
O O12 0.500000 0.000000 0.266483
O O13 0.000000 0.153347 0.000000
O O14 0.082754 0.000000 0.000000
#
# Coordination Sequence:
#
# PCOD8197421 Si02
#       5
#     8   8   8   4   4
#     4   8  14  26  44  65  88 117 159 207 250 288
#     4  11  19  30  48  68  91 125 166 204 242 284
#     4  10  20  33  49  71 101 133 161 197 242 283
#     4  11  23  33  40  57  88 128 171 208 240 281
#     4   9  18  34  54  75  98 125 160 197 234 289
#
# _framework density 16.746417000000001
#
# number of rings (size 3 to 8) (size 9 to 14) (size 15 to 20)
#    0.000    2.250    2.500    2.625    0.000    4.500 
#    0.000    2.500    0.000    3.750    0.000    0.000 
#    0.000    2.000    0.000    2.250    0.000    0.250 
#
# Total GULP energy -396689.921001 kJ/mol
# GULP energy per Si atom -12396.560031 kJ/mol
# Density = 1.670830 g / cm^3
# Si number density = 16.746417 Si / 1000 Ang^3
#
#
#
# Elastic Constant Matrix: (Units=GPa)
#
#
# Indices 1 2 3 4 5 6 
#
# 1 102.9253 36.2106 35.4719 0.0000 0.0000 0.0000
# 2 36.2106 92.7142 25.6443 0.0000 0.0000 0.0000
# 3 35.4719 25.6443 77.7349 0.0000 0.0000 0.0000
# 4 0.0000 0.0000 0.0000 7.4447 0.0000 0.0000
# 5 0.0000 0.0000 0.0000 0.0000 12.9550 0.0000
# 6 0.0000 0.0000 0.0000 0.0000 0.0000 1.6169
#
#
#
# Elastic Compliance Matrix: (Units=1/GPa)
#
#
# Indices 1 2 3 4 5 6 
#
# 1 0.012561 -0.003654 -0.004527 0.000000 0.000000 0.000000
# 2 -0.003654 0.012932 -0.002599 0.000000 0.000000 0.000000
# 3 -0.004527 -0.002599 0.015787 0.000000 0.000000 0.000000
# 4 0.000000 0.000000 0.000000 0.134324 0.000000 0.000000
# 5 0.000000 0.000000 0.000000 0.000000 0.077190 0.000000
# 6 0.000000 0.000000 0.000000 0.000000 0.000000 0.618448
#
#
# Mechanical properties :
#
#
# Convention : Reuss Voigt Hill
#
# Bulk Modulus (GPa) = 50.70563 52.00309 51.35436
# Shear Modulus (GPa) = 5.55942 16.13984 10.84963
#
# Velocity S-wave (km/s) = 1.82400 3.10785 2.54811
# Velocity P-wave (km/s) = 5.89747 6.63317 6.27611
#
# Compressibility (1/GPa) = 0.01972168
#
# Stress axis : x y z
#
# Youngs Moduli (GPa) = 79.60956 77.32925 63.34289
#
# Poissons Ratio (x) = 0.28256 0.28672
# Poissons Ratio (y) = 0.29089 0.16461
# Poissons Ratio (z) = 0.36036 0.20096
#
# Static dielectric constant tensor:
#      x y z
#    x 2.984210 0.000000 0.000000 
#    y 0.000000 3.314560 0.000000 
#    z 0.000000 0.000000 3.121080 
# 
# 
# High freq. dielectric constant tensor:
#      x y z
#    x 1.609370 0.000000 0.000000 
#    y 0.000000 1.628880 0.000000 
#    z 0.000000 0.000000 1.648330 
# 
# From -- ./inp_files/5423.got.cif
#   From: 2010.03.12/outbox.cif.g09.slc.cpg/sg47_3_cif.got.tgz:5423.got - 2010.04.14 03:12:58.
