data_PCOD8197314
_publ_section_title
;
Structure prediction by ZEFSAII (Michael W. Deem and Ramdas Pophale) SiO2 
 PCOD8197314
Probable space group: P M M M
;
_chemical_formula_sum "Si O2"
_cell_formula_units_Z 52
_cell_length_a 27.100304
_cell_length_b 9.041940
_cell_length_c 15.447112
_cell_angle_alpha 90.000000
_cell_angle_beta 90.000000
_cell_angle_gamma 90.000000
_cell_volume 3785.149863
_symmetry_space_group_name_H-M "P M M M"
_symmetry_group_IT_number 47
_symmetry_cell_setting 'orthorhombic'
loop_
_space_group_symop_operation_xyz
x,y,z
-x,-y,z
x,-y,-z
-x,y,-z
-x,-y,-z
x,y,-z
-x,y,z
x,-y,z
loop_
_atom_site_type_symbol
_atom_site_label
_atom_site_fract_x
_atom_site_fract_y
_atom_site_fract_z
Si Si1 0.941495 0.833136 0.500000
Si Si2 0.058388 0.331842 0.000000
Si Si3 0.596567 0.166758 0.103254
Si Si4 0.500000 0.666788 0.103213
Si Si5 0.211077 0.170098 0.098774
Si Si6 0.942014 0.672770 0.326735
Si Si7 0.895437 0.826500 0.836686
Si Si8 0.692649 0.333292 0.896848
O O1 0.923072 0.744850 0.415876
O O2 0.000000 0.838562 0.500000
O O3 0.919881 0.000000 0.500000
O O4 0.076423 0.247834 0.084437
O O5 0.078652 0.500000 0.000000
O O6 0.000000 0.332105 0.000000
O O7 0.548559 0.251456 0.139084
O O8 0.645685 0.244731 0.140066
O O9 0.595133 0.000000 0.138339
O O10 0.596717 0.169680 0.000000
O O11 0.500000 0.500000 0.138616
O O12 0.500000 0.668370 0.000000
O O13 0.162983 0.201652 0.155858
O O14 0.256484 0.263119 0.137830
O O15 0.227026 0.000000 0.102402
O O16 0.198976 0.216607 0.000000
O O17 0.929184 0.500000 0.327702
O O18 0.912708 0.752993 0.251335
O O19 0.000000 0.698978 0.312652
O O20 0.907917 0.000000 0.836954
O O21 0.689024 0.500000 0.862722
O O22 0.692401 0.325872 0.000000
#
# Coordination Sequence:
#
# PCOD8197314 Si02
#       8
#     4   4   8   4   8   8   8   8
#     4   9  17  31  51  71  87 105 129 155 185 226
#     4  11  23  35  45  59  81 107 133 162 197 236
#     4   9  15  22  31  43  59  81 106 135 175 222
#     4   9  15  21  29  41  59  79 101 135 175 218
#     4   9  17  30  42  53  71  95 124 158 194 227
#     4  10  20  33  48  67  89 109 128 155 193 235
#     4  11  21  33  47  63  81 105 135 165 195 233
#     4   9  16  24  35  50  64  82 112 147 183 222
#
# _framework density 13.737897999999999
#
# number of rings (size 3 to 8) (size 9 to 14) (size 15 to 20)
#    0.000    2.385    0.769    3.000    0.000   10.154 
#    0.000    0.000    0.000    0.000    0.000    0.000 
#    0.000    0.000    0.000    0.000    0.000    0.000 
#
# Total GULP energy -644794.098109 kJ/mol
# GULP energy per Si atom -12399.886502 kJ/mol
# Density = 1.370663 g / cm^3
# Si number density = 13.737898 Si / 1000 Ang^3
#
#
#
# Elastic Constant Matrix: (Units=GPa)
#
#
# Indices 1 2 3 4 5 6 
#
# 1 91.1975 66.5904 34.4399 0.0000 0.0000 0.0000
# 2 66.5904 133.0301 43.0651 0.0000 0.0000 0.0000
# 3 34.4399 43.0651 68.2919 0.0000 0.0000 0.0000
# 4 0.0000 0.0000 0.0000 16.9729 0.0000 0.0000
# 5 0.0000 0.0000 0.0000 0.0000 -3.8452 0.0000
# 6 0.0000 0.0000 0.0000 0.0000 0.0000 25.6332
#
#
#
# Elastic Compliance Matrix: (Units=1/GPa)
#
#
# Indices 1 2 3 4 5 6 
#
# 1 0.018245 -0.007733 -0.004325 0.000000 0.000000 0.000000
# 2 -0.007733 0.012723 -0.004123 0.000000 0.000000 0.000000
# 3 -0.004325 -0.004123 0.019424 0.000000 0.000000 0.000000
# 4 0.000000 0.000000 0.000000 0.058917 0.000000 0.000000
# 5 0.000000 0.000000 0.000000 0.000000 -0.260068 0.000000
# 6 0.000000 0.000000 0.000000 0.000000 0.000000 0.039012
#
#
# Mechanical properties :
#
#
# Convention : Reuss Voigt Hill
#
# Bulk Modulus (GPa) = 55.46251 64.52338 59.99295
# Shear Modulus (GPa) = -68.14231 17.64713 -25.24759
#
# Velocity S-wave (km/s) = -7.05049 3.58796 -4.29161
# Velocity P-wave (km/s) = 5.08130 8.01461 4.38260
#
# Compressibility (1/GPa) = 0.01803020
#
# Stress axis : x y z
#
# Youngs Moduli (GPa) = 54.81085 78.60010 51.48243
#
# Poissons Ratio (x) = 0.60779 0.22264
# Poissons Ratio (y) = 0.42383 0.21228
# Poissons Ratio (z) = 0.23703 0.32409
#
# Static dielectric constant tensor:
#      x y z
#    x 2.770920 0.000000 0.000000 
#    y 0.000000 2.971880 0.000000 
#    z 0.000000 0.000000 2.276960 
# 
# 
# High freq. dielectric constant tensor:
#      x y z
#    x 1.520810 0.000000 0.000000 
#    y 0.000000 1.546990 0.000000 
#    z 0.000000 0.000000 1.456940 
# 
# From -- ./inp_files/25738.got.cif
#   From: 2010.03.12/outbox.cif.g09.slc.cpg/sg47_13_cif.got.tgz:25738.got - 2010.04.14 03:12:58.
