data_PCOD8197409
_publ_section_title
;
Structure prediction by ZEFSAII (Michael W. Deem and Ramdas Pophale) SiO2 
 PCOD8197409
Probable space group: P M M M
;
_chemical_formula_sum "Si O2"
_cell_formula_units_Z 44
_cell_length_a 9.671993
_cell_length_b 9.086524
_cell_length_c 28.624951
_cell_angle_alpha 90.000000
_cell_angle_beta 90.000000
_cell_angle_gamma 90.000000
_cell_volume 2515.697994
_symmetry_space_group_name_H-M "P M M M"
_symmetry_group_IT_number 47
_symmetry_cell_setting 'orthorhombic'
loop_
_space_group_symop_operation_xyz
x,y,z
-x,-y,z
x,-y,-z
-x,y,-z
-x,-y,-z
x,y,-z
-x,y,z
x,-y,z
loop_
_atom_site_type_symbol
_atom_site_label
_atom_site_fract_x
_atom_site_fract_y
_atom_site_fract_z
Si Si1 0.660494 0.668749 0.446863
Si Si2 0.836664 0.160411 0.727679
Si Si3 0.844588 0.824649 0.372363
Si Si4 0.338065 0.328136 0.092687
Si Si5 0.840458 0.824958 0.170836
Si Si6 0.664162 0.833964 0.000000
O O1 0.699951 0.708687 0.500000
O O2 0.500000 0.698800 0.438128
O O3 0.697272 0.500000 0.436411
O O4 0.745398 0.771766 0.412867
O O5 0.793891 0.239884 0.678676
O O6 0.799541 0.237642 0.777140
O O7 0.000000 0.139238 0.725909
O O8 0.765687 0.000000 0.728683
O O9 0.000000 0.769988 0.383469
O O10 0.840304 0.000000 0.369879
O O11 0.500000 0.297851 0.100096
O O12 0.306000 0.500000 0.088571
O O13 0.257587 0.260017 0.135825
O O14 0.282141 0.250679 0.045746
O O15 0.000000 0.788451 0.159382
O O16 0.815610 0.000000 0.167831
O O17 0.500000 0.835036 0.000000
O O18 0.723407 0.000000 0.000000
#
# Coordination Sequence:
#
# PCOD8197409 Si02
#       6
#     8   8   8   8   8   4
#     4   9  19  35  50  64  89 127 164 194 230 280
#     4   7  12  26  47  69  94 123 153 188 232 279
#     4   9  17  30  50  75  98 119 150 195 241 282
#     4  10  20  33  49  71 100 130 158 192 237 285
#     4   9  17  31  52  74  95 124 162 198 232 275
#     4   9  17  31  52  73  92 121 162 202 238 279
#
# _framework density 17.490176000000002
#
# number of rings (size 3 to 8) (size 9 to 14) (size 15 to 20)
#    0.000    3.182    0.000    3.545    0.000    4.000 
#    0.000    5.000    0.000   11.455    0.000    0.000 
#    0.000    0.000    0.000    0.000    0.000    0.000 
#
# Total GULP energy -545104.678585 kJ/mol
# GULP energy per Si atom -12388.742695 kJ/mol
# Density = 1.745037 g / cm^3
# Si number density = 17.490176 Si / 1000 Ang^3
#
#
#
# Elastic Constant Matrix: (Units=GPa)
#
#
# Indices 1 2 3 4 5 6 
#
# 1 47.5788 33.6643 60.4107 0.0000 0.0000 0.0000
# 2 33.6643 64.0341 58.9733 0.0000 0.0000 0.0000
# 3 60.4107 58.9733 173.1918 0.0000 0.0000 0.0000
# 4 0.0000 0.0000 0.0000 -3.4684 0.0000 0.0000
# 5 0.0000 0.0000 0.0000 0.0000 40.2360 0.0000
# 6 0.0000 0.0000 0.0000 0.0000 0.0000 20.4031
#
#
#
# Elastic Compliance Matrix: (Units=1/GPa)
#
#
# Indices 1 2 3 4 5 6 
#
# 1 0.044236 -0.013178 -0.010942 0.000000 0.000000 0.000000
# 2 -0.013178 0.026677 -0.004487 0.000000 0.000000 0.000000
# 3 -0.010942 -0.004487 0.011119 0.000000 0.000000 0.000000
# 4 0.000000 0.000000 0.000000 -0.288319 0.000000 0.000000
# 5 0.000000 0.000000 0.000000 0.000000 0.024853 0.000000
# 6 0.000000 0.000000 0.000000 0.000000 0.000000 0.049012
#
#
# Mechanical properties :
#
#
# Convention : Reuss Voigt Hill
#
# Bulk Modulus (GPa) = 40.29656 65.65572 52.97614
# Shear Modulus (GPa) = -74.69997 20.21788 -27.24104
#
# Velocity S-wave (km/s) = -6.54235 3.40362 -3.95081
# Velocity P-wave (km/s) = 5.82926 7.28466 3.08918
#
# Compressibility (1/GPa) = 0.02481601
#
# Stress axis : x y z
#
# Youngs Moduli (GPa) = 22.60625 37.48504 89.93848
#
# Poissons Ratio (x) = 0.49398 0.98415
# Poissons Ratio (y) = 0.29791 0.40358
# Poissons Ratio (z) = 0.24737 0.16820
#
# Static dielectric constant tensor:
#      x y z
#    x 2.932680 0.000000 0.000000 
#    y 0.000000 3.020580 0.000000 
#    z 0.000000 0.000000 3.711570 
# 
# 
# High freq. dielectric constant tensor:
#      x y z
#    x 1.642450 0.000000 0.000000 
#    y 0.000000 1.652070 0.000000 
#    z 0.000000 0.000000 1.700130 
# 
# From -- ./inp_files/2178.got.cif
#   From: 2010.03.12/outbox.cif.g09.slc.cpg/sg47_2_cif.got.tgz:2178.got - 2010.04.14 03:12:58.
