data_PCOD8197250
_publ_section_title
;
Structure prediction by ZEFSAII (Michael W. Deem and Ramdas Pophale) SiO2 
 PCOD8197250
Probable space group: P M M M
;
_chemical_formula_sum "Si O2"
_cell_formula_units_Z 64
_cell_length_a 14.519023
_cell_length_b 13.050532
_cell_length_c 19.180739
_cell_angle_alpha 90.000000
_cell_angle_beta 90.000000
_cell_angle_gamma 90.000000
_cell_volume 3634.385113
_symmetry_space_group_name_H-M "P M M M"
_symmetry_group_IT_number 47
_symmetry_cell_setting 'orthorhombic'
loop_
_space_group_symop_operation_xyz
x,y,z
-x,-y,z
x,-y,-z
-x,y,-z
-x,-y,-z
x,y,-z
-x,y,z
x,-y,z
loop_
_atom_site_type_symbol
_atom_site_label
_atom_site_fract_x
_atom_site_fract_y
_atom_site_fract_z
Si Si1 0.898618 0.755784 0.249279
Si Si2 0.734244 0.379620 0.784735
Si Si3 0.608005 0.769811 0.705724
Si Si4 0.393573 0.885737 0.843954
Si Si5 0.263835 0.258640 0.922797
Si Si6 0.893475 0.881650 0.882670
Si Si7 0.300817 0.117502 0.423017
Si Si8 0.100210 0.885355 0.615632
O O1 0.830464 0.660371 0.245330
O O2 0.873766 0.848615 0.197000
O O3 0.892571 0.801683 0.325068
O O4 0.000000 0.712473 0.232401
O O5 0.727861 0.500000 0.777362
O O6 0.651953 0.333921 0.737205
O O7 0.732079 0.350315 0.866705
O O8 0.500000 0.751460 0.691954
O O9 0.627275 0.855121 0.764205
O O10 0.655691 0.806050 0.633907
O O11 0.500000 0.874080 0.860726
O O12 0.342897 0.819956 0.901722
O O13 0.357220 0.000000 0.852597
O O14 0.167553 0.196340 0.928013
O O15 0.283401 0.303742 0.000000
O O16 0.000000 0.867590 0.904031
O O17 0.863722 0.000000 0.892829
O O18 0.341607 0.142897 0.500000
O O19 0.190060 0.131407 0.431781
O O20 0.325082 0.000000 0.402560
O O21 0.000000 0.870891 0.576801
O O22 0.103254 0.000000 0.647522
#
# Coordination Sequence:
#
# PCOD8197250 Si02
#       8
#     8   8   8   8   8   8   8   8
#     4   9  16  29  50  76 102 129 166 214 263 305
#     4  10  21  37  56  76  95 124 169 221 272 314
#     4  10  20  36  55  75 101 134 173 218 261 302
#     4   9  18  32  51  74  99 130 165 201 247 303
#     4  10  21  34  48  71 101 132 165 205 254 310
#     4   9  17  28  44  69 102 138 173 206 242 293
#     4  10  20  32  50  81 118 151 177 200 235 291
#     4   9  16  27  47  76 111 147 176 202 239 292
#
# _framework density 17.609582
#
# number of rings (size 3 to 8) (size 9 to 14) (size 15 to 20)
#    0.000    2.500    1.250    1.125    0.000    5.000 
#    0.000    3.125    0.000    0.375    0.000    7.875 
#    0.000    2.000    0.000    0.000    0.000    0.000 
#
# Total GULP energy -793029.329613 kJ/mol
# GULP energy per Si atom -12391.083275 kJ/mol
# Density = 1.756950 g / cm^3
# Si number density = 17.609582 Si / 1000 Ang^3
#
#
#
# Elastic Constant Matrix: (Units=GPa)
#
#
# Indices 1 2 3 4 5 6 
#
# 1 93.8479 43.7116 39.2784 0.0000 0.0000 0.0000
# 2 43.7116 101.7520 37.5733 0.0000 0.0000 0.0000
# 3 39.2784 37.5733 95.1840 0.0000 0.0000 0.0000
# 4 0.0000 0.0000 0.0000 11.4344 0.0000 0.0000
# 5 0.0000 0.0000 0.0000 0.0000 14.0044 0.0000
# 6 0.0000 0.0000 0.0000 0.0000 0.0000 17.4407
#
#
#
# Elastic Compliance Matrix: (Units=1/GPa)
#
#
# Indices 1 2 3 4 5 6 
#
# 1 0.014602 -0.004738 -0.004155 0.000000 0.000000 0.000000
# 2 -0.004738 0.013042 -0.003193 0.000000 0.000000 0.000000
# 3 -0.004155 -0.003193 0.013481 0.000000 0.000000 0.000000
# 4 0.000000 0.000000 0.000000 0.087456 0.000000 0.000000
# 5 0.000000 0.000000 0.000000 0.000000 0.071406 0.000000
# 6 0.000000 0.000000 0.000000 0.000000 0.000000 0.057337
#
#
# Mechanical properties :
#
#
# Convention : Reuss Voigt Hill
#
# Bulk Modulus (GPa) = 58.98984 59.10116 59.04550
# Shear Modulus (GPa) = 17.41265 19.92393 18.66829
#
# Velocity S-wave (km/s) = 3.14796 3.36732 3.25948
# Velocity P-wave (km/s) = 6.83990 6.98235 6.91149
#
# Compressibility (1/GPa) = 0.01695207
#
# Stress axis : x y z
#
# Youngs Moduli (GPa) = 68.48595 76.67254 74.17842
#
# Poissons Ratio (x) = 0.36330 0.30821
# Poissons Ratio (y) = 0.32451 0.23686
# Poissons Ratio (z) = 0.28456 0.24482
#
# Static dielectric constant tensor:
#      x y z
#    x 3.687670 0.000000 0.000000 
#    y 0.000000 2.903590 0.000000 
#    z 0.000000 0.000000 3.126920 
# 
# 
# High freq. dielectric constant tensor:
#      x y z
#    x 1.696860 0.000000 0.000000 
#    y 0.000000 1.640840 0.000000 
#    z 0.000000 0.000000 1.671160 
# 
# From -- ./inp_files/18674.got.cif
#   From: 2010.03.12/outbox.cif.g09.slc.cpg/sg47_10_cif.got.tgz:18674.got - 2010.04.14 03:12:58.
