data_PCOD8197774
_publ_section_title
;
Structure prediction by ZEFSAII (Michael W. Deem and Ramdas Pophale) SiO2 
 PCOD8197774
Probable space group: P M M M
;
_chemical_formula_sum "Si O2"
_cell_formula_units_Z 48
_cell_length_a 8.839062
_cell_length_b 9.882274
_cell_length_c 29.017838
_cell_angle_alpha 90.000000
_cell_angle_beta 90.000000
_cell_angle_gamma 90.000000
_cell_volume 2534.709095
_symmetry_space_group_name_H-M "P M M M"
_symmetry_group_IT_number 47
_symmetry_cell_setting 'orthorhombic'
loop_
_space_group_symop_operation_xyz
x,y,z
-x,-y,z
x,-y,-z
-x,y,-z
-x,-y,-z
x,y,-z
-x,y,z
x,-y,z
loop_
_atom_site_type_symbol
_atom_site_label
_atom_site_fract_x
_atom_site_fract_y
_atom_site_fract_z
Si Si1 0.677043 0.844822 0.793377
Si Si2 0.671985 0.000000 0.554605
Si Si3 0.171287 0.155355 0.699404
Si Si4 0.822666 0.748244 0.600360
Si Si5 0.321851 0.500000 0.448358
Si Si6 0.820205 0.151381 0.948539
Si Si7 0.820086 0.655278 0.868572
O O1 0.500000 0.828689 0.801552
O O2 0.715808 0.807743 0.740740
O O3 0.763297 0.736596 0.824425
O O4 0.729239 0.000000 0.804165
O O5 0.764852 0.125476 0.572394
O O6 0.500000 0.000000 0.573753
O O7 0.669768 0.000000 0.500000
O O8 0.213480 0.243069 0.654807
O O9 0.000000 0.184742 0.715942
O O10 0.189010 0.000000 0.684375
O O11 0.730931 0.625684 0.580581
O O12 0.000000 0.730167 0.591957
O O13 0.500000 0.500000 0.452133
O O14 0.252008 0.500000 0.500000
O O15 0.757039 0.264937 0.913576
O O16 0.000000 0.153238 0.948022
O O17 0.764314 0.000000 0.934186
O O18 0.761256 0.185964 0.000000
O O19 0.759555 0.500000 0.868795
O O20 0.000000 0.655190 0.868026
#
# Coordination Sequence:
#
# PCOD8197774 Si02
#       7
#     8   4   8   8   4   8   8
#     4  10  21  36  56  81 106 139 183 227 273 328
#     4  11  23  37  57  87 121 155 187 227 280 335
#     4   9  18  36  60  86 113 139 174 225 281 333
#     4  11  22  39  62  88 114 146 190 237 283 334
#     4  11  25  43  59  81 117 157 193 229 278 339
#     4   8  14  26  47  76 108 142 183 230 277 326
#     4  10  20  33  51  78 111 148 186 225 275 329
#
# _framework density 18.937083000000001
#
# number of rings (size 3 to 8) (size 9 to 14) (size 15 to 20)
#    0.000    2.167    0.833    3.000    0.000    7.000 
#    1.500    1.667    0.000    0.500    0.000    3.500 
#    0.000    0.000    0.000    0.000    0.000    0.000 
#
# Total GULP energy -595101.271038 kJ/mol
# GULP energy per Si atom -12397.943147 kJ/mol
# Density = 1.889398 g / cm^3
# Si number density = 18.937083 Si / 1000 Ang^3
#
#
#
# Elastic Constant Matrix: (Units=GPa)
#
#
# Indices 1 2 3 4 5 6 
#
# 1 35.4833 24.6950 26.2890 0.0000 0.0000 0.0000
# 2 24.6950 143.4993 72.2705 0.0000 0.0000 0.0000
# 3 26.2890 72.2705 118.6079 0.0000 0.0000 0.0000
# 4 0.0000 0.0000 0.0000 28.7616 0.0000 0.0000
# 5 0.0000 0.0000 0.0000 0.0000 1.8916 0.0000
# 6 0.0000 0.0000 0.0000 0.0000 0.0000 36.2752
#
#
#
# Elastic Compliance Matrix: (Units=1/GPa)
#
#
# Indices 1 2 3 4 5 6 
#
# 1 0.034603 -0.003018 -0.005830 0.000000 0.000000 0.000000
# 2 -0.003018 0.010317 -0.005618 0.000000 0.000000 0.000000
# 3 -0.005830 -0.005618 0.013146 0.000000 0.000000 0.000000
# 4 0.000000 0.000000 0.000000 0.034769 0.000000 0.000000
# 5 0.000000 0.000000 0.000000 0.000000 0.528654 0.000000
# 6 0.000000 0.000000 0.000000 0.000000 0.000000 0.027567
#
#
# Mechanical properties :
#
#
# Convention : Reuss Voigt Hill
#
# Bulk Modulus (GPa) = 34.32470 60.45550 47.39010
# Shear Modulus (GPa) = 7.27061 25.00809 16.13935
#
# Velocity S-wave (km/s) = 1.96155 3.63793 2.92252
# Velocity P-wave (km/s) = 4.82652 7.04555 6.03883
#
# Compressibility (1/GPa) = 0.02913354
#
# Stress axis : x y z
#
# Youngs Moduli (GPa) = 28.89957 96.92481 76.06712
#
# Poissons Ratio (x) = 0.29257 0.44349
# Poissons Ratio (y) = 0.08723 0.42731
# Poissons Ratio (z) = 0.16849 0.54448
#
# Static dielectric constant tensor:
#      x y z
#    x 3.328060 0.000000 0.000000 
#    y 0.000000 3.500240 0.000000 
#    z 0.000000 0.000000 3.653610 
# 
# 
# High freq. dielectric constant tensor:
#      x y z
#    x 1.717620 0.000000 0.000000 
#    y 0.000000 1.732820 0.000000 
#    z 0.000000 0.000000 1.747550 
# 
# From -- ./inp_files/2759.got.cif
#   From: 2010.03.12/outbox.cif.g09.slc.cpg/sg47_2_cif.got.tgz:2759.got - 2010.04.14 03:12:58.
