data_PCOD8197337
_publ_section_title
;
Structure prediction by ZEFSAII (Michael W. Deem and Ramdas Pophale) SiO2 
 PCOD8197337
Probable space group: P M M M
;
_chemical_formula_sum "Si O2"
_cell_formula_units_Z 48
_cell_length_a 17.632391
_cell_length_b 21.285935
_cell_length_c 7.657435
_cell_angle_alpha 90.000000
_cell_angle_beta 90.000000
_cell_angle_gamma 90.000000
_cell_volume 2874.003273
_symmetry_space_group_name_H-M "P M M M"
_symmetry_group_IT_number 47
_symmetry_cell_setting 'orthorhombic'
loop_
_space_group_symop_operation_xyz
x,y,z
-x,-y,z
x,-y,-z
-x,y,-z
-x,-y,-z
x,y,-z
-x,y,z
x,-y,z
loop_
_atom_site_type_symbol
_atom_site_label
_atom_site_fract_x
_atom_site_fract_y
_atom_site_fract_z
Si Si1 0.682636 0.756183 0.194055
Si Si2 0.589226 0.805316 0.500000
Si Si3 0.085438 0.430643 0.792309
Si Si4 0.827551 0.311659 0.207490
Si Si5 0.316103 0.068733 0.500000
Si Si6 0.777001 0.116719 0.806460
Si Si7 0.916032 0.192327 0.207167
O O1 0.614397 0.766067 0.329715
O O2 0.739083 0.700208 0.258255
O O3 0.733371 0.817813 0.186081
O O4 0.649114 0.742174 0.000000
O O5 0.500000 0.811824 0.500000
O O6 0.622240 0.875997 0.500000
O O7 0.109927 0.500000 0.724897
O O8 0.143443 0.378435 0.716348
O O9 0.000000 0.415405 0.728338
O O10 0.087211 0.429566 0.000000
O O11 0.881058 0.256696 0.285619
O O12 0.834100 0.310655 0.000000
O O13 0.262856 0.070762 0.329637
O O14 0.356282 0.000000 0.500000
O O15 0.862784 0.132750 0.743959
O O16 0.776229 0.085619 0.000000
O O17 0.000000 0.181500 0.285837
O O18 0.919458 0.198511 0.000000
#
# Coordination Sequence:
#
# PCOD8197337 Si02
#       7
#     8   4   8   8   4   8   8
#     4   8  15  28  45  65  88 113 140 171 208 249
#     4  10  20  33  50  71  92 109 125 156 205 256
#     4   8  12  16  24  46  85 127 160 190 221 249
#     4   8  12  19  33  54  82 115 150 184 214 249
#     4  10  20  33  49  66  84 110 139 160 187 240
#     4   8  15  28  44  62  84 110 141 176 210 240
#     4   8  12  19  35  57  78 104 141 184 224 253
#
# _framework density 16.701442
#
# number of rings (size 3 to 8) (size 9 to 14) (size 15 to 20)
#    0.000    3.667    0.000    3.000    0.000    2.833 
#    0.000    0.417    0.000    1.000    0.000    9.333 
#    0.000    2.667    0.000    6.667    0.000    0.000 
#
# Total GULP energy -594636.457012 kJ/mol
# GULP energy per Si atom -12388.259521 kJ/mol
# Density = 1.666343 g / cm^3
# Si number density = 16.701442 Si / 1000 Ang^3
#
#
#
# Elastic Constant Matrix: (Units=GPa)
#
#
# Indices 1 2 3 4 5 6 
#
# 1 114.3718 46.5839 40.2143 0.0000 0.0000 0.0000
# 2 46.5839 79.3388 24.0433 0.0000 0.0000 0.0000
# 3 40.2143 24.0433 62.6340 0.0000 0.0000 0.0000
# 4 0.0000 0.0000 0.0000 0.0194 0.0000 0.0000
# 5 0.0000 0.0000 0.0000 0.0000 1.3684 0.0000
# 6 0.0000 0.0000 0.0000 0.0000 0.0000 15.7166
#
#
#
# Elastic Compliance Matrix: (Units=1/GPa)
#
#
# Indices 1 2 3 4 5 6 
#
# 1 0.013384 -0.005946 -0.006311 0.000000 0.000000 0.000000
# 2 -0.005946 0.016905 -0.002672 0.000000 0.000000 0.000000
# 3 -0.006311 -0.002672 0.021043 0.000000 0.000000 0.000000
# 4 0.000000 0.000000 0.000000 51.550256 0.000000 0.000000
# 5 0.000000 0.000000 0.000000 0.000000 0.730800 0.000000
# 6 0.000000 0.000000 0.000000 0.000000 0.000000 0.063627
#
#
# Mechanical properties :
#
#
# Convention : Reuss Voigt Hill
#
# Bulk Modulus (GPa) = 46.56499 53.11416 49.83958
# Shear Modulus (GPa) = 0.09536 13.12108 6.60822
#
# Velocity S-wave (km/s) = 0.23921 2.80594 1.99130
# Velocity P-wave (km/s) = 5.29317 6.50914 5.93239
#
# Compressibility (1/GPa) = 0.02147536
#
# Stress axis : x y z
#
# Youngs Moduli (GPa) = 74.71476 59.15390 47.52118
#
# Poissons Ratio (x) = 0.35173 0.29990
# Poissons Ratio (y) = 0.44426 0.12696
# Poissons Ratio (z) = 0.47151 0.15804
#
# Static dielectric constant tensor:
#      x y z
#    x 3.010410 0.000000 0.000000 
#    y 0.000000 3.159320 0.000000 
#    z 0.000000 0.000000 3.187440 
# 
# 
# High freq. dielectric constant tensor:
#      x y z
#    x 1.610370 0.000000 0.000000 
#    y 0.000000 1.614400 0.000000 
#    z 0.000000 0.000000 1.631000 
# 
# From -- ./inp_files/9757.got.cif
#   From: 2010.03.12/outbox.cif.g09.slc.cpg/sg47_5_cif.got.tgz:9757.got - 2010.04.14 03:12:58.
