data_PCOD8197249
_publ_section_title
;
Structure prediction by ZEFSAII (Michael W. Deem and Ramdas Pophale) SiO2 
 PCOD8197249
Probable space group: P M M M
;
_chemical_formula_sum "Si O2"
_cell_formula_units_Z 64
_cell_length_a 14.654178
_cell_length_b 18.322169
_cell_length_c 13.268186
_cell_angle_alpha 90.000000
_cell_angle_beta 90.000000
_cell_angle_gamma 90.000000
_cell_volume 3562.459192
_symmetry_space_group_name_H-M "P M M M"
_symmetry_group_IT_number 47
_symmetry_cell_setting 'orthorhombic'
loop_
_space_group_symop_operation_xyz
x,y,z
-x,-y,z
x,-y,-z
-x,y,-z
-x,-y,-z
x,y,-z
-x,y,z
x,-y,z
loop_
_atom_site_type_symbol
_atom_site_label
_atom_site_fract_x
_atom_site_fract_y
_atom_site_fract_z
Si Si1 0.605290 0.671506 0.615757
Si Si2 0.769361 0.712462 0.884842
Si Si3 0.600977 0.222437 0.206214
Si Si4 0.256043 0.582489 0.260239
Si Si5 0.794827 0.083523 0.612951
Si Si6 0.600076 0.918511 0.313427
Si Si7 0.896063 0.643833 0.385458
Si Si8 0.106641 0.210584 0.727887
O O1 0.636203 0.686334 0.500000
O O2 0.500000 0.648132 0.619093
O O3 0.624155 0.743550 0.683025
O O4 0.662543 0.606145 0.665203
O O5 0.672557 0.753628 0.877885
O O6 0.753830 0.632439 0.838384
O O7 0.847257 0.760059 0.830193
O O8 0.799124 0.703685 0.000000
O O9 0.500000 0.247295 0.171099
O O10 0.607241 0.135460 0.218210
O O11 0.273441 0.500000 0.224537
O O12 0.161769 0.587205 0.320846
O O13 0.829888 0.099978 0.500000
O O14 0.685047 0.095304 0.612148
O O15 0.845535 0.136198 0.691604
O O16 0.818418 0.000000 0.643162
O O17 0.500000 0.906359 0.367258
O O18 0.605450 0.000000 0.268931
O O19 0.866899 0.634687 0.500000
O O20 0.877338 0.727936 0.356590
O O21 0.000000 0.622585 0.365839
O O22 0.000000 0.195704 0.748039
#
# Coordination Sequence:
#
# PCOD8197249 Si02
#       8
#     8   8   8   8   8   8   8   8
#     4   9  18  31  48  73 105 142 180 212 245 294
#     4  10  21  38  58  79  98 126 170 219 272 322
#     4   9  17  32  53  78 105 137 175 219 264 307
#     4  10  21  35  51  75 104 133 164 205 256 312
#     4  10  20  32  50  80 115 150 184 214 250 300
#     4   9  17  30  49  75 111 150 181 210 249 296
#     4   9  18  32  51  75 102 134 169 204 248 305
#     4  10  20  36  55  75 102 137 177 224 268 307
#
# _framework density 17.965118
#
# number of rings (size 3 to 8) (size 9 to 14) (size 15 to 20)
#    0.000    2.500    1.250    0.750    0.000    4.000 
#    0.000    4.375    0.000    1.500    0.000    9.625 
#    0.000    0.000    0.000    0.000    0.000    0.000 
#
# Total GULP energy -793314.789825 kJ/mol
# GULP energy per Si atom -12395.543591 kJ/mol
# Density = 1.792423 g / cm^3
# Si number density = 17.965118 Si / 1000 Ang^3
#
#
#
# Elastic Constant Matrix: (Units=GPa)
#
#
# Indices 1 2 3 4 5 6 
#
# 1 97.3824 39.5347 34.9995 0.0000 0.0000 0.0000
# 2 39.5347 102.1466 34.4106 0.0000 0.0000 0.0000
# 3 34.9995 34.4106 89.0064 0.0000 0.0000 0.0000
# 4 0.0000 0.0000 0.0000 12.8952 0.0000 0.0000
# 5 0.0000 0.0000 0.0000 0.0000 17.0961 0.0000
# 6 0.0000 0.0000 0.0000 0.0000 0.0000 22.8828
#
#
#
# Elastic Compliance Matrix: (Units=1/GPa)
#
#
# Indices 1 2 3 4 5 6 
#
# 1 0.013156 -0.003851 -0.003685 0.000000 0.000000 0.000000
# 2 -0.003851 0.012383 -0.003273 0.000000 0.000000 0.000000
# 3 -0.003685 -0.003273 0.013949 0.000000 0.000000 0.000000
# 4 0.000000 0.000000 0.000000 0.077548 0.000000 0.000000
# 5 0.000000 0.000000 0.000000 0.000000 0.058493 0.000000
# 6 0.000000 0.000000 0.000000 0.000000 0.000000 0.043701
#
#
# Mechanical properties :
#
#
# Convention : Reuss Voigt Hill
#
# Bulk Modulus (GPa) = 55.95459 56.26944 56.11202
# Shear Modulus (GPa) = 20.25894 22.54755 21.40324
#
# Velocity S-wave (km/s) = 3.36174 3.54655 3.45538
# Velocity P-wave (km/s) = 6.80311 6.93975 6.87177
#
# Compressibility (1/GPa) = 0.01787163
#
# Stress axis : x y z
#
# Youngs Moduli (GPa) = 76.00870 80.75677 71.68741
#
# Poissons Ratio (x) = 0.31098 0.26414
# Poissons Ratio (y) = 0.29269 0.23464
# Poissons Ratio (z) = 0.28007 0.26432
#
# Static dielectric constant tensor:
#      x y z
#    x 3.550040 0.000000 0.000000 
#    y 0.000000 3.285620 0.000000 
#    z 0.000000 0.000000 2.935340 
# 
# 
# High freq. dielectric constant tensor:
#      x y z
#    x 1.710440 0.000000 0.000000 
#    y 0.000000 1.691780 0.000000 
#    z 0.000000 0.000000 1.654580 
# 
# From -- ./inp_files/17875.got.cif
#   From: 2010.03.12/outbox.cif.g09.slc.cpg/sg47_9_cif.got.tgz:17875.got - 2010.04.14 03:12:58.
