data_PCOD8197199
_publ_section_title
;
Structure prediction by ZEFSAII (Michael W. Deem and Ramdas Pophale) SiO2 
 PCOD8197199
Probable space group: P M M M
;
_chemical_formula_sum "Si O2"
_cell_formula_units_Z 44
_cell_length_a 8.979089
_cell_length_b 8.948326
_cell_length_c 28.291807
_cell_angle_alpha 90.000000
_cell_angle_beta 90.000000
_cell_angle_gamma 90.000000
_cell_volume 2273.184891
_symmetry_space_group_name_H-M "P M M M"
_symmetry_group_IT_number 47
_symmetry_cell_setting 'orthorhombic'
loop_
_space_group_symop_operation_xyz
x,y,z
-x,-y,z
x,-y,-z
-x,y,-z
-x,-y,-z
x,y,-z
-x,y,z
x,-y,z
loop_
_atom_site_type_symbol
_atom_site_label
_atom_site_fract_x
_atom_site_fract_y
_atom_site_fract_z
Si Si1 0.333179 0.177478 0.856831
Si Si2 0.826852 0.825360 0.411821
Si Si3 0.325365 0.327084 0.674818
Si Si4 0.329398 0.323235 0.500000
Si Si5 0.167298 0.822334 0.948027
Si Si6 0.171932 0.672660 0.228292
O O1 0.500000 0.239054 0.848865
O O2 0.274410 0.241057 0.907085
O O3 0.225344 0.231293 0.815712
O O4 0.331458 0.000000 0.857084
O O5 0.756510 0.776822 0.362521
O O6 0.749330 0.737160 0.453673
O O7 0.000000 0.784371 0.411601
O O8 0.800286 0.000000 0.419663
O O9 0.500000 0.295975 0.672309
O O10 0.288004 0.500000 0.664087
O O11 0.266933 0.279955 0.726171
O O12 0.317395 0.500000 0.500000
O O13 0.500000 0.269864 0.500000
O O14 0.000000 0.763028 0.938924
O O15 0.167087 0.000000 0.946557
O O16 0.222980 0.768384 0.000000
O O17 0.197790 0.500000 0.216083
O O18 0.000000 0.707966 0.238714
#
# Coordination Sequence:
#
# PCOD8197199 Si02
#       6
#     8   8   8   4   8   8
#     4  10  20  32  49  76 107 138 173 215 265 319
#     4  11  24  40  59  86 118 150 185 225 270 319
#     4  10  21  38  60  84 109 140 180 223 268 321
#     4  11  24  41  62  88 116 149 190 231 272 320
#     4   8  14  26  45  69  98 133 172 214 261 313
#     4  10  21  37  57  79 104 139 181 222 267 319
#
# _framework density 19.356102
#
# number of rings (size 3 to 8) (size 9 to 14) (size 15 to 20)
#    0.000    2.091    0.000    3.818    0.000    9.818 
#    0.000    1.818    0.000    0.545    0.000    3.818 
#    0.000    0.000    0.000    0.000    0.000    0.000 
#
# Total GULP energy -545683.711303 kJ/mol
# GULP energy per Si atom -12401.902530 kJ/mol
# Density = 1.931205 g / cm^3
# Si number density = 19.356102 Si / 1000 Ang^3
#
#
#
# Elastic Constant Matrix: (Units=GPa)
#
#
# Indices 1 2 3 4 5 6 
#
# 1 116.4959 38.4981 57.4569 0.0000 0.0000 0.0000
# 2 38.4981 31.4612 33.8326 0.0000 0.0000 0.0000
# 3 57.4569 33.8326 132.4742 0.0000 0.0000 0.0000
# 4 0.0000 0.0000 0.0000 50.0878 0.0000 0.0000
# 5 0.0000 0.0000 0.0000 0.0000 46.8435 0.0000
# 6 0.0000 0.0000 0.0000 0.0000 0.0000 26.0918
#
#
#
# Elastic Compliance Matrix: (Units=1/GPa)
#
#
# Indices 1 2 3 4 5 6 
#
# 1 0.014992 -0.015651 -0.002505 0.000000 0.000000 0.000000
# 2 -0.015651 0.060159 -0.008576 0.000000 0.000000 0.000000
# 3 -0.002505 -0.008576 0.010825 0.000000 0.000000 0.000000
# 4 0.000000 0.000000 0.000000 0.019965 0.000000 0.000000
# 5 0.000000 0.000000 0.000000 0.000000 0.021348 0.000000
# 6 0.000000 0.000000 0.000000 0.000000 0.000000 0.038326
#
#
# Mechanical properties :
#
#
# Convention : Reuss Voigt Hill
#
# Bulk Modulus (GPa) = 30.75772 60.00073 45.37922
# Shear Modulus (GPa) = 21.74710 34.64754 28.19732
#
# Velocity S-wave (km/s) = 3.35554 4.23544 3.82090
# Velocity P-wave (km/s) = 5.56218 7.41513 6.55447
#
# Compressibility (1/GPa) = 0.03251216
#
# Stress axis : x y z
#
# Youngs Moduli (GPa) = 66.70384 16.62266 92.37570
#
# Poissons Ratio (x) = 0.26016 0.23141
# Poissons Ratio (y) = 1.04397 0.79220
# Poissons Ratio (z) = 0.16710 0.14255
#
# Static dielectric constant tensor:
#      x y z
#    x 3.794960 0.000000 0.000000 
#    y 0.000000 3.277130 0.000000 
#    z 0.000000 0.000000 3.768680 
# 
# 
# High freq. dielectric constant tensor:
#      x y z
#    x 1.767050 0.000000 0.000000 
#    y 0.000000 1.725840 0.000000 
#    z 0.000000 0.000000 1.771280 
# 
# From -- ./inp_files/33894.got.cif
#   From: 2010.03.12/outbox.cif.g09.slc.cpg/sg47_17_cif.got.tgz:33894.got - 2010.04.14 03:12:58.
