data_PCOD8197388
_publ_section_title
;
Structure prediction by ZEFSAII (Michael W. Deem and Ramdas Pophale) SiO2 
 PCOD8197388
Probable space group: P M M M
;
_chemical_formula_sum "Si O2"
_cell_formula_units_Z 44
_cell_length_a 9.114235
_cell_length_b 8.805507
_cell_length_c 28.696581
_cell_angle_alpha 90.000000
_cell_angle_beta 90.000000
_cell_angle_gamma 90.000000
_cell_volume 2303.057311
_symmetry_space_group_name_H-M "P M M M"
_symmetry_group_IT_number 47
_symmetry_cell_setting 'orthorhombic'
loop_
_space_group_symop_operation_xyz
x,y,z
-x,-y,z
x,-y,-z
-x,y,-z
-x,-y,-z
x,y,-z
-x,y,z
x,-y,z
loop_
_atom_site_type_symbol
_atom_site_label
_atom_site_fract_x
_atom_site_fract_y
_atom_site_fract_z
Si Si1 0.165527 0.819132 0.230188
Si Si2 0.333019 0.819723 0.678606
Si Si3 0.830951 0.320446 0.591730
Si Si4 0.164892 0.180597 0.051285
Si Si5 0.334131 0.319396 0.500000
Si Si6 0.335213 0.181322 0.139953
O O1 0.257601 0.758806 0.274225
O O2 0.240412 0.756382 0.183185
O O3 0.000000 0.755633 0.233220
O O4 0.164583 0.000000 0.229652
O O5 0.500000 0.760004 0.677078
O O6 0.243603 0.755834 0.635626
O O7 0.328308 0.000000 0.676767
O O8 0.814738 0.500000 0.596220
O O9 0.750219 0.259002 0.545519
O O10 0.000000 0.270669 0.589132
O O11 0.268824 0.246862 0.091727
O O12 0.000000 0.240508 0.059740
O O13 0.165183 0.000000 0.053576
O O14 0.220768 0.233613 0.000000
O O15 0.334697 0.500000 0.500000
O O16 0.500000 0.255376 0.500000
O O17 0.500000 0.243128 0.145013
O O18 0.333412 0.000000 0.139666
#
# Coordination Sequence:
#
# PCOD8197388 Si02
#       6
#     8   8   8   8   4   8
#     4   9  16  26  40  56  76 105 140 177 218 265
#     4  10  20  33  49  70  96 124 155 193 235 276
#     4  10  20  34  53  76 100 126 157 191 227 271
#     4   8  13  20  28  38  55  82 118 161 208 256
#     4   9  17  31  52  75  98 125 156 190 228 269
#     4   9  15  21  30  45  65  90 124 167 212 258
#
# _framework density 19.105039999999999
#
# number of rings (size 3 to 8) (size 9 to 14) (size 15 to 20)
#    0.000    2.818    0.000    3.000    0.000    8.000 
#    0.000    2.273    0.000    2.727    0.000    0.000 
#    0.000    0.000    0.000    0.000    0.000    0.909 
#
# Total GULP energy -545494.271031 kJ/mol
# GULP energy per Si atom -12397.597069 kJ/mol
# Density = 1.906156 g / cm^3
# Si number density = 19.105040 Si / 1000 Ang^3
#
#
#
# Elastic Constant Matrix: (Units=GPa)
#
#
# Indices 1 2 3 4 5 6 
#
# 1 154.7668 9.7095 84.5971 0.0000 0.0000 0.0000
# 2 9.7095 3.5505 9.3434 0.0000 0.0000 0.0000
# 3 84.5971 9.3434 183.4283 0.0000 0.0000 0.0000
# 4 0.0000 0.0000 0.0000 -15.1819 0.0000 0.0000
# 5 0.0000 0.0000 0.0000 0.0000 43.2911 0.0000
# 6 0.0000 0.0000 0.0000 0.0000 0.0000 13.3924
#
#
#
# Elastic Compliance Matrix: (Units=1/GPa)
#
#
# Indices 1 2 3 4 5 6 
#
# 1 0.009410 -0.016529 -0.003498 0.000000 0.000000 0.000000
# 2 -0.016529 0.354279 -0.010423 0.000000 0.000000 0.000000
# 3 -0.003498 -0.010423 0.007596 0.000000 0.000000 0.000000
# 4 0.000000 0.000000 0.000000 -0.065868 0.000000 0.000000
# 5 0.000000 0.000000 0.000000 0.000000 0.023099 0.000000
# 6 0.000000 0.000000 0.000000 0.000000 0.000000 0.074669
#
#
# Mechanical properties :
#
#
# Convention : Reuss Voigt Hill
#
# Bulk Modulus (GPa) = 3.22180 61.00506 32.11343
# Shear Modulus (GPa) = 8.80982 24.17335 16.49159
#
# Velocity S-wave (km/s) = 2.14971 3.56095 2.94122
# Velocity P-wave (km/s) = 2.80209 6.99341 5.32727
#
# Compressibility (1/GPa) = 0.31038557
#
# Stress axis : x y z
#
# Youngs Moduli (GPa) = 106.26541 2.82263 131.64827
#
# Poissons Ratio (x) = 0.04665 0.46052
# Poissons Ratio (y) = 1.75643 1.37219
# Poissons Ratio (z) = 0.37173 0.02942
#
# Static dielectric constant tensor:
#      x y z
#    x 3.788930 0.000000 0.000000 
#    y 0.000000 2.735620 0.000000 
#    z 0.000000 0.000000 3.841830 
# 
# 
# High freq. dielectric constant tensor:
#      x y z
#    x 1.758600 0.000000 0.000000 
#    y 0.000000 1.659090 0.000000 
#    z 0.000000 0.000000 1.765110 
# 
# From -- ./inp_files/2206.got.cif
#   From: 2010.03.12/outbox.cif.g09.slc.cpg/sg47_2_cif.got.tgz:2206.got - 2010.04.14 03:12:58.
