data_PCOD8197675
_publ_section_title
;
Structure prediction by ZEFSAII (Michael W. Deem and Ramdas Pophale) SiO2 
 PCOD8197675
Probable space group: P M M M
;
_chemical_formula_sum "Si O2"
_cell_formula_units_Z 48
_cell_length_a 8.051310
_cell_length_b 32.658084
_cell_length_c 9.463643
_cell_angle_alpha 90.000000
_cell_angle_beta 90.000000
_cell_angle_gamma 90.000000
_cell_volume 2488.373681
_symmetry_space_group_name_H-M "P M M M"
_symmetry_group_IT_number 47
_symmetry_cell_setting 'orthorhombic'
loop_
_space_group_symop_operation_xyz
x,y,z
-x,-y,z
x,-y,-z
-x,y,-z
-x,-y,-z
x,y,-z
-x,y,z
x,-y,z
loop_
_atom_site_type_symbol
_atom_site_label
_atom_site_fract_x
_atom_site_fract_y
_atom_site_fract_z
Si Si1 0.688053 0.901807 0.168382
Si Si2 0.802803 0.350881 0.341275
Si Si3 0.693638 0.424718 0.842264
Si Si4 0.698488 0.500000 0.660211
Si Si5 0.812233 0.259507 0.664582
Si Si6 0.000000 0.953577 0.168425
Si Si7 0.691027 0.187409 0.847571
O O1 0.500000 0.912258 0.225958
O O2 0.751475 0.856242 0.215788
O O3 0.829624 0.932692 0.226815
O O4 0.682350 0.903431 0.000000
O O5 0.742985 0.362608 0.500000
O O6 0.724167 0.380867 0.227304
O O7 0.741892 0.305003 0.303204
O O8 0.000000 0.352971 0.334542
O O9 0.500000 0.432572 0.856643
O O10 0.769411 0.460265 0.742667
O O11 0.773429 0.426167 0.000000
O O12 0.500000 0.500000 0.656175
O O13 0.768701 0.500000 0.500000
O O14 0.799940 0.250440 0.500000
O O15 0.709286 0.225173 0.743018
O O16 0.000000 0.256569 0.718424
O O17 0.000000 0.000000 0.223469
O O18 0.000000 0.951367 0.000000
O O19 0.500000 0.180548 0.876561
O O20 0.777640 0.196800 0.000000
#
# Coordination Sequence:
#
# PCOD8197675 Si02
#       7
#     8   8   8   4   8   4   8
#     4   8  15  27  40  59  91 125 159 205 254 300
#     4   9  19  36  53  69  95 130 164 199 241 290
#     4  10  20  33  51  76 103 128 157 199 247 292
#     4   9  17  31  52  75  98 127 164 202 242 293
#     4   9  19  34  50  70  96 126 162 203 245 290
#     4   9  16  24  38  62  89 125 171 207 247 308
#     4   9  18  31  47  69  96 127 163 201 244 296
#
# _framework density 19.289705999999999
#
# number of rings (size 3 to 8) (size 9 to 14) (size 15 to 20)
#    0.000    3.000    0.000    2.750    1.167    4.667 
#    0.000    7.083    0.000    2.500    0.000    0.000 
#    0.000    1.333    0.000    3.667    0.000    3.667 
#
# Total GULP energy -594773.438046 kJ/mol
# GULP energy per Si atom -12391.113293 kJ/mol
# Density = 1.924580 g / cm^3
# Si number density = 19.289706 Si / 1000 Ang^3
#
#
#
# Elastic Constant Matrix: (Units=GPa)
#
#
# Indices 1 2 3 4 5 6 
#
# 1 50.2272 38.5797 19.7042 0.0000 0.0000 0.0000
# 2 38.5797 158.6146 65.7239 0.0000 0.0000 0.0000
# 3 19.7042 65.7239 84.2800 0.0000 0.0000 0.0000
# 4 0.0000 0.0000 0.0000 2.3595 0.0000 0.0000
# 5 0.0000 0.0000 0.0000 0.0000 16.3129 0.0000
# 6 0.0000 0.0000 0.0000 0.0000 0.0000 17.5505
#
#
#
# Elastic Compliance Matrix: (Units=1/GPa)
#
#
# Indices 1 2 3 4 5 6 
#
# 1 0.024630 -0.005326 -0.001605 0.000000 0.000000 0.000000
# 2 -0.005326 0.010466 -0.006916 0.000000 0.000000 0.000000
# 3 -0.001605 -0.006916 0.017634 0.000000 0.000000 0.000000
# 4 0.000000 0.000000 0.000000 0.423814 0.000000 0.000000
# 5 0.000000 0.000000 0.000000 0.000000 0.061301 0.000000
# 6 0.000000 0.000000 0.000000 0.000000 0.000000 0.056978
#
#
# Mechanical properties :
#
#
# Convention : Reuss Voigt Hill
#
# Bulk Modulus (GPa) = 39.94373 60.12639 50.03506
# Shear Modulus (GPa) = 7.92565 18.51884 13.22225
#
# Velocity S-wave (km/s) = 2.02920 3.10181 2.62096
# Velocity P-wave (km/s) = 5.12274 6.63823 5.92911
#
# Compressibility (1/GPa) = 0.02503522
#
# Stress axis : x y z
#
# Youngs Moduli (GPa) = 40.60111 95.54896 56.70803
#
# Poissons Ratio (x) = 0.50885 0.09104
# Poissons Ratio (y) = 0.21622 0.39222
# Poissons Ratio (z) = 0.06518 0.66086
#
# Static dielectric constant tensor:
#      x y z
#    x 3.388330 0.000000 0.000000 
#    y 0.000000 3.740270 0.000000 
#    z 0.000000 0.000000 3.343700 
# 
# 
# High freq. dielectric constant tensor:
#      x y z
#    x 1.733490 0.000000 0.000000 
#    y 0.000000 1.758480 0.000000 
#    z 0.000000 0.000000 1.715770 
# 
# From -- ./inp_files/2571.got.cif
#   From: 2010.03.12/outbox.cif.g09.slc.cpg/sg47_2_cif.got.tgz:2571.got - 2010.04.14 03:12:58.
