data_PCOD8197580
_publ_section_title
;
Structure prediction by ZEFSAII (Michael W. Deem and Ramdas Pophale) SiO2 
 PCOD8197580
Probable space group: P M M M
;
_chemical_formula_sum "Si O2"
_cell_formula_units_Z 52
_cell_length_a 8.979438
_cell_length_b 9.598632
_cell_length_c 33.742060
_cell_angle_alpha 90.000000
_cell_angle_beta 90.000000
_cell_angle_gamma 90.000000
_cell_volume 2908.238980
_symmetry_space_group_name_H-M "P M M M"
_symmetry_group_IT_number 47
_symmetry_cell_setting 'orthorhombic'
loop_
_space_group_symop_operation_xyz
x,y,z
-x,-y,z
x,-y,-z
-x,y,-z
-x,-y,-z
x,y,-z
-x,y,z
x,-y,z
loop_
_atom_site_type_symbol
_atom_site_label
_atom_site_fract_x
_atom_site_fract_y
_atom_site_fract_z
Si Si1 0.322973 0.656498 0.956290
Si Si2 0.167605 0.334677 0.500000
Si Si3 0.332650 0.834569 0.272175
Si Si4 0.325122 0.839169 0.115558
Si Si5 0.168050 0.166042 0.805254
Si Si6 0.674911 0.662060 0.579493
Si Si7 0.173933 0.162985 0.647903
O O1 0.500000 0.661717 0.955694
O O2 0.267320 0.500000 0.947511
O O3 0.259412 0.758069 0.922479
O O4 0.266615 0.704213 0.000000
O O5 0.166280 0.500000 0.500000
O O6 0.252862 0.281152 0.538910
O O7 0.000000 0.274385 0.500000
O O8 0.500000 0.774672 0.275753
O O9 0.256434 0.773379 0.232584
O O10 0.236615 0.786761 0.309840
O O11 0.336698 0.000000 0.269641
O O12 0.500000 0.814915 0.121106
O O13 0.245765 0.779762 0.154730
O O14 0.286716 0.000000 0.108728
O O15 0.000000 0.222662 0.803789
O O16 0.171262 0.000000 0.804192
O O17 0.500000 0.687287 0.576873
O O18 0.713081 0.500000 0.586438
O O19 0.741553 0.750592 0.614877
O O20 0.000000 0.197163 0.646369
O O21 0.205388 0.000000 0.640999
#
# Coordination Sequence:
#
# PCOD8197580 Si02
#       7
#     8   4   8   8   8   8   8
#     4   8  14  25  41  61  85 113 144 177 215 261
#     4   9  17  31  52  75  98 127 164 204 246 293
#     4   9  16  27  45  68  94 124 157 193 232 275
#     4   9  16  25  40  64  89 110 138 180 224 261
#     4   9  16  26  41  62  89 119 149 182 223 271
#     4  10  20  34  53  76 101 130 165 204 245 290
#     4  10  20  33  50  74 103 133 165 201 242 288
#
# _framework density 17.880236
#
# number of rings (size 3 to 8) (size 9 to 14) (size 15 to 20)
#    0.000    2.846    0.000    2.538    0.000    6.769 
#    0.000    1.923    0.000    4.154    0.000    5.385 
#    0.000    0.000    0.000    0.000    0.000    0.000 
#
# Total GULP energy -644704.248343 kJ/mol
# GULP energy per Si atom -12398.158622 kJ/mol
# Density = 1.783954 g / cm^3
# Si number density = 17.880236 Si / 1000 Ang^3
#
#
#
# Elastic Constant Matrix: (Units=GPa)
#
#
# Indices 1 2 3 4 5 6 
#
# 1 94.2736 29.1967 63.1649 0.0000 0.0000 0.0000
# 2 29.1967 36.8171 51.6271 0.0000 0.0000 0.0000
# 3 63.1649 51.6271 182.8282 0.0000 0.0000 0.0000
# 4 0.0000 0.0000 0.0000 -5.9236 0.0000 0.0000
# 5 0.0000 0.0000 0.0000 0.0000 13.6947 0.0000
# 6 0.0000 0.0000 0.0000 0.0000 0.0000 15.2217
#
#
#
# Elastic Compliance Matrix: (Units=1/GPa)
#
#
# Indices 1 2 3 4 5 6 
#
# 1 0.015004 -0.007665 -0.003019 0.000000 0.000000 0.000000
# 2 -0.007665 0.048882 -0.011155 0.000000 0.000000 0.000000
# 3 -0.003019 -0.011155 0.009663 0.000000 0.000000 0.000000
# 4 0.000000 0.000000 0.000000 -0.168816 0.000000 0.000000
# 5 0.000000 0.000000 0.000000 0.000000 0.073021 0.000000
# 6 0.000000 0.000000 0.000000 0.000000 0.000000 0.065696
#
#
# Mechanical properties :
#
#
# Convention : Reuss Voigt Hill
#
# Bulk Modulus (GPa) = 33.47791 66.87736 50.17764
# Shear Modulus (GPa) = 51.50070 15.92723 33.71397
#
# Velocity S-wave (km/s) = 5.37268 2.98782 4.34700
# Velocity P-wave (km/s) = 7.56648 7.02758 7.30200
#
# Compressibility (1/GPa) = 0.02987044
#
# Stress axis : x y z
#
# Youngs Moduli (GPa) = 66.64779 20.45737 103.48926
#
# Poissons Ratio (x) = 0.15680 0.31248
# Poissons Ratio (y) = 0.51083 1.15446
# Poissons Ratio (z) = 0.20124 0.22821
#
# Static dielectric constant tensor:
#      x y z
#    x 3.314760 0.000000 0.000000 
#    y 0.000000 2.940080 0.000000 
#    z 0.000000 0.000000 3.657000 
# 
# 
# High freq. dielectric constant tensor:
#      x y z
#    x 1.687930 0.000000 0.000000 
#    y 0.000000 1.640110 0.000000 
#    z 0.000000 0.000000 1.711500 
# 
# From -- ./inp_files/34308.got.cif
#   From: 2010.03.12/outbox.cif.g09.slc.cpg/sg47_18_cif.got.tgz:34308.got - 2010.04.14 03:12:58.
