data_PCOD8197903
_publ_section_title
;
Structure prediction by ZEFSAII (Michael W. Deem and Ramdas Pophale) SiO2 
 PCOD8197903
Probable space group: P M M M
;
_chemical_formula_sum "Si O2"
_cell_formula_units_Z 44
_cell_length_a 9.242141
_cell_length_b 17.092434
_cell_length_c 15.110630
_cell_angle_alpha 90.000000
_cell_angle_beta 90.000000
_cell_angle_gamma 90.000000
_cell_volume 2387.036573
_symmetry_space_group_name_H-M "P M M M"
_symmetry_group_IT_number 47
_symmetry_cell_setting 'orthorhombic'
loop_
_space_group_symop_operation_xyz
x,y,z
-x,-y,z
x,-y,-z
-x,y,-z
-x,-y,-z
x,y,-z
-x,y,z
x,-y,z
loop_
_atom_site_type_symbol
_atom_site_label
_atom_site_fract_x
_atom_site_fract_y
_atom_site_fract_z
Si Si1 0.831902 0.304810 0.734111
Si Si2 0.670377 0.000000 0.397600
Si Si3 0.164445 0.878427 0.715569
Si Si4 0.163681 0.863495 0.905672
Si Si5 0.668067 0.706543 0.097039
Si Si6 0.664824 0.410976 0.396630
O O1 0.798571 0.213510 0.716622
O O2 0.755775 0.335856 0.824359
O O3 0.772772 0.353063 0.652008
O O4 0.000000 0.321393 0.743822
O O5 0.731876 0.921911 0.352537
O O6 0.500000 0.000000 0.385338
O O7 0.715505 0.000000 0.500000
O O8 0.189479 0.913360 0.815795
O O9 0.000000 0.893515 0.684885
O O10 0.280417 0.795507 0.908523
O O11 0.000000 0.827808 0.897708
O O12 0.176415 0.910894 0.000000
O O13 0.500000 0.704905 0.121879
O O14 0.694423 0.666888 0.000000
O O15 0.691634 0.399703 0.500000
O O16 0.500000 0.389727 0.372075
O O17 0.698539 0.500000 0.368652
#
# Coordination Sequence:
#
# PCOD8197903 Si02
#       6
#     8   4   8   8   8   8
#     4  10  20  33  53  81 108 136 172 212 254 303
#     4  11  25  41  54  69  92 128 173 219 266 307
#     4   9  19  35  54  76 101 132 169 206 249 302
#     4   8  14  27  48  74 103 131 160 198 246 301
#     4   9  16  26  44  72 104 138 174 209 248 296
#     4   9  19  36  56  78 106 139 171 206 255 311
#
# _framework density 18.432897000000001
#
# number of rings (size 3 to 8) (size 9 to 14) (size 15 to 20)
#    0.000    2.818    0.000    3.000    0.000    6.909 
#    0.000    5.000    0.000    3.273    0.000    3.818 
#    0.000    0.000    0.000    0.000    0.000    0.000 
#
# Total GULP energy -545136.397264 kJ/mol
# GULP energy per Si atom -12389.463574 kJ/mol
# Density = 1.839094 g / cm^3
# Si number density = 18.432897 Si / 1000 Ang^3
#
#
#
# Elastic Constant Matrix: (Units=GPa)
#
#
# Indices 1 2 3 4 5 6 
#
# 1 109.5462 42.5681 75.3783 0.0000 0.0000 0.0000
# 2 42.5681 57.1842 49.8946 0.0000 0.0000 0.0000
# 3 75.3783 49.8946 144.6481 0.0000 0.0000 0.0000
# 4 0.0000 0.0000 0.0000 -31.9024 0.0000 0.0000
# 5 0.0000 0.0000 0.0000 0.0000 33.5249 0.0000
# 6 0.0000 0.0000 0.0000 0.0000 0.0000 23.8816
#
#
#
# Elastic Compliance Matrix: (Units=1/GPa)
#
#
# Indices 1 2 3 4 5 6 
#
# 1 0.015773 -0.006537 -0.005965 0.000000 0.000000 0.000000
# 2 -0.006537 0.027726 -0.006157 0.000000 0.000000 0.000000
# 3 -0.005965 -0.006157 0.012145 0.000000 0.000000 0.000000
# 4 0.000000 0.000000 0.000000 -0.031346 0.000000 0.000000
# 5 0.000000 0.000000 0.000000 0.000000 0.029829 0.000000
# 6 0.000000 0.000000 0.000000 0.000000 0.000000 0.041873
#
#
# Mechanical properties :
#
#
# Convention : Reuss Voigt Hill
#
# Bulk Modulus (GPa) = 54.56589 71.89563 63.23076
# Shear Modulus (GPa) = 35.86097 14.66997 25.26547
#
# Velocity S-wave (km/s) = 4.41555 2.82416 3.70628
# Velocity P-wave (km/s) = 7.46075 7.05146 7.25899
#
# Compressibility (1/GPa) = 0.01832647
#
# Stress axis : x y z
#
# Youngs Moduli (GPa) = 63.39903 36.06745 82.33570
#
# Poissons Ratio (x) = 0.23578 0.49111
# Poissons Ratio (y) = 0.41446 0.50694
# Poissons Ratio (z) = 0.37815 0.22207
#
# Static dielectric constant tensor:
#      x y z
#    x 3.381080 0.000000 0.000000 
#    y 0.000000 2.935610 0.000000 
#    z 0.000000 0.000000 3.815520 
# 
# 
# High freq. dielectric constant tensor:
#      x y z
#    x 1.719270 0.000000 0.000000 
#    y 0.000000 1.665850 0.000000 
#    z 0.000000 0.000000 1.735600 
# 
# From -- ./inp_files/6130.got.cif
#   From: 2010.03.12/outbox.cif.g09.slc.cpg/sg47_4_cif.got.tgz:6130.got - 2010.04.14 03:12:58.
