data_PCOD8197844
_publ_section_title
;
Structure prediction by ZEFSAII (Michael W. Deem and Ramdas Pophale) SiO2 
 PCOD8197844
Probable space group: P M M M
;
_chemical_formula_sum "Si O2"
_cell_formula_units_Z 48
_cell_length_a 7.884997
_cell_length_b 32.737439
_cell_length_c 9.091590
_cell_angle_alpha 90.000000
_cell_angle_beta 90.000000
_cell_angle_gamma 90.000000
_cell_volume 2346.854023
_symmetry_space_group_name_H-M "P M M M"
_symmetry_group_IT_number 47
_symmetry_cell_setting 'orthorhombic'
loop_
_space_group_symop_operation_xyz
x,y,z
-x,-y,z
x,-y,-z
-x,y,-z
-x,-y,-z
x,y,-z
-x,y,z
x,-y,z
loop_
_atom_site_type_symbol
_atom_site_label
_atom_site_fract_x
_atom_site_fract_y
_atom_site_fract_z
Si Si1 0.000000 0.045517 0.674261
Si Si2 0.797184 0.658709 0.834444
Si Si3 0.693747 0.102157 0.327443
Si Si4 0.301909 0.814340 0.832769
Si Si5 0.198348 0.419648 0.663461
Si Si6 0.699900 0.500000 0.166426
Si Si7 0.195235 0.736187 0.337870
O O1 0.172686 0.067951 0.726548
O O2 0.000000 0.043026 0.500000
O O3 0.000000 0.000000 0.742611
O O4 0.724355 0.619044 0.750052
O O5 0.722603 0.699076 0.754509
O O6 0.000000 0.658824 0.837215
O O7 0.725436 0.658090 0.000000
O O8 0.712921 0.110863 0.500000
O O9 0.500000 0.088351 0.290173
O O10 0.744298 0.143080 0.242980
O O11 0.500000 0.805658 0.825020
O O12 0.208869 0.778544 0.747381
O O13 0.236168 0.815605 0.000000
O O14 0.279715 0.422342 0.500000
O O15 0.232494 0.460506 0.751904
O O16 0.000000 0.413053 0.648075
O O17 0.500000 0.500000 0.168361
O O18 0.770271 0.500000 0.000000
O O19 0.281100 0.739346 0.500000
O O20 0.000000 0.725667 0.358853
#
# Coordination Sequence:
#
# PCOD8197844 Si02
#       7
#     4   8   8   8   8   4   8
#     4   9  18  32  53  83 113 141 183 235 283 338
#     4   9  17  31  52  78 108 140 174 214 261 313
#     4   9  18  33  53  77 108 145 184 230 283 335
#     4  10  21  36  53  75 105 141 181 225 271 320
#     4  10  20  35  57  82 106 135 174 218 264 318
#     4  11  24  39  54  76 106 137 172 217 268 320
#     4  10  20  33  52  79 109 140 175 217 264 314
#
# _framework density 20.452912999999999
#
# number of rings (size 3 to 8) (size 9 to 14) (size 15 to 20)
#    0.000    2.333    0.000    2.500    1.167    7.000 
#    0.000    2.500    0.000    6.000    0.000    2.333 
#    0.000    0.000    0.000    0.000    0.000    0.000 
#
# Total GULP energy -595157.721234 kJ/mol
# GULP energy per Si atom -12399.119192 kJ/mol
# Density = 2.040636 g / cm^3
# Si number density = 20.452913 Si / 1000 Ang^3
#
#
#
# Elastic Constant Matrix: (Units=GPa)
#
#
# Indices 1 2 3 4 5 6 
#
# 1 46.7847 40.9111 25.5842 0.0000 0.0000 0.0000
# 2 40.9111 187.1345 90.6884 0.0000 0.0000 0.0000
# 3 25.5842 90.6884 165.0150 0.0000 0.0000 0.0000
# 4 0.0000 0.0000 0.0000 2.4947 0.0000 0.0000
# 5 0.0000 0.0000 0.0000 0.0000 14.5613 0.0000
# 6 0.0000 0.0000 0.0000 0.0000 0.0000 -40.0101
#
#
#
# Elastic Compliance Matrix: (Units=1/GPa)
#
#
# Indices 1 2 3 4 5 6 
#
# 1 0.026619 -0.005206 -0.001266 0.000000 0.000000 0.000000
# 2 -0.005206 0.008302 -0.003755 0.000000 0.000000 0.000000
# 3 -0.001266 -0.003755 0.008320 0.000000 0.000000 0.000000
# 4 0.000000 0.000000 0.000000 0.400844 0.000000 0.000000
# 5 0.000000 0.000000 0.000000 0.000000 0.068675 0.000000
# 6 0.000000 0.000000 0.000000 0.000000 0.000000 -0.024994
#
#
# Mechanical properties :
#
#
# Convention : Reuss Voigt Hill
#
# Bulk Modulus (GPa) = 43.88548 79.25573 61.57061
# Shear Modulus (GPa) = 9.69337 11.52588 10.60963
#
# Velocity S-wave (km/s) = 2.17937 2.37646 2.28004
# Velocity P-wave (km/s) = 5.27601 6.80915 6.09101
#
# Compressibility (1/GPa) = 0.02278658
#
# Stress axis : x y z
#
# Youngs Moduli (GPa) = 37.56693 120.45659 120.18978
#
# Poissons Ratio (x) = 0.62709 0.15216
# Poissons Ratio (y) = 0.19557 0.45135
# Poissons Ratio (z) = 0.04756 0.45235
#
# Static dielectric constant tensor:
#      x y z
#    x 3.481250 0.000000 0.000000 
#    y 0.000000 3.791360 0.000000 
#    z 0.000000 0.000000 3.969040 
# 
# 
# High freq. dielectric constant tensor:
#      x y z
#    x 1.776580 0.000000 0.000000 
#    y 0.000000 1.804000 0.000000 
#    z 0.000000 0.000000 1.803900 
# 
# From -- ./inp_files/2793.got.cif
#   From: 2010.03.12/outbox.cif.g09.slc.cpg/sg47_2_cif.got.tgz:2793.got - 2010.04.14 03:12:58.
