data_PCOD8197356
_publ_section_title
;
Structure prediction by ZEFSAII (Michael W. Deem and Ramdas Pophale) SiO2 
 PCOD8197356
Probable space group: P M M M
;
_chemical_formula_sum "Si O2"
_cell_formula_units_Z 32
_cell_length_a 7.792995
_cell_length_b 9.699121
_cell_length_c 23.913415
_cell_angle_alpha 90.000000
_cell_angle_beta 90.000000
_cell_angle_gamma 90.000000
_cell_volume 1807.500290
_symmetry_space_group_name_H-M "P M M M"
_symmetry_group_IT_number 47
_symmetry_cell_setting 'orthorhombic'
loop_
_space_group_symop_operation_xyz
x,y,z
-x,-y,z
x,-y,-z
-x,y,-z
-x,-y,-z
x,y,-z
-x,y,z
x,-y,z
loop_
_atom_site_type_symbol
_atom_site_label
_atom_site_fract_x
_atom_site_fract_y
_atom_site_fract_z
Si Si1 0.308879 0.158206 0.838744
Si Si2 0.799728 0.657802 0.936587
Si Si3 0.690508 0.836098 0.562709
Si Si4 0.000000 0.836409 0.237482
Si Si5 0.000000 0.164990 0.637152
O O1 0.500000 0.171440 0.812729
O O2 0.305091 0.243428 0.895933
O O3 0.170528 0.216479 0.794432
O O4 0.265615 0.000000 0.853361
O O5 0.757384 0.500000 0.921437
O O6 0.000000 0.687687 0.929128
O O7 0.742550 0.689352 0.000000
O O8 0.732256 0.783300 0.500000
O O9 0.500000 0.786014 0.580938
O O10 0.831266 0.776998 0.605654
O O11 0.697014 0.000000 0.563077
O O12 0.000000 0.774921 0.300008
O O13 0.000000 0.000000 0.241215
O O14 0.000000 0.000000 0.637265
#
# Coordination Sequence:
#
# PCOD8197356 Si02
#       5
#     8   8   8   4   4
#     4  10  20  33  49  68  92 123 156 189 228 275
#     4   9  18  33  53  75  96 118 147 186 232 280
#     4   8  13  20  30  47  71  97 130 176 224 265
#     4   9  18  31  42  57  83 114 152 195 230 262
#     4   9  15  22  35  50  68 101 142 181 222 264
#
# _framework density 17.704008999999999
#
# number of rings (size 3 to 8) (size 9 to 14) (size 15 to 20)
#    0.000    3.000    1.250    1.875    0.000    4.000 
#    0.000    8.750    0.000    0.000    0.000    0.000 
#    0.000    0.000    0.000    0.000    0.000   10.000 
#
# Total GULP energy -396661.541494 kJ/mol
# GULP energy per Si atom -12395.673172 kJ/mol
# Density = 1.766371 g / cm^3
# Si number density = 17.704009 Si / 1000 Ang^3
#
#
#
# Elastic Constant Matrix: (Units=GPa)
#
#
# Indices 1 2 3 4 5 6 
#
# 1 139.2344 24.1511 82.0900 0.0000 0.0000 0.0000
# 2 24.1511 26.1595 29.1231 0.0000 0.0000 0.0000
# 3 82.0900 29.1231 134.7729 0.0000 0.0000 0.0000
# 4 0.0000 0.0000 0.0000 0.4949 0.0000 0.0000
# 5 0.0000 0.0000 0.0000 0.0000 16.6113 0.0000
# 6 0.0000 0.0000 0.0000 0.0000 0.0000 11.8812
#
#
#
# Elastic Compliance Matrix: (Units=1/GPa)
#
#
# Indices 1 2 3 4 5 6 
#
# 1 0.011473 -0.003703 -0.006188 0.000000 0.000000 0.000000
# 2 -0.003703 0.051532 -0.008880 0.000000 0.000000 0.000000
# 3 -0.006188 -0.008880 0.013108 0.000000 0.000000 0.000000
# 4 0.000000 0.000000 0.000000 2.020559 0.000000 0.000000
# 5 0.000000 0.000000 0.000000 0.000000 0.060200 0.000000
# 6 0.000000 0.000000 0.000000 0.000000 0.000000 0.084166
#
#
# Mechanical properties :
#
#
# Convention : Reuss Voigt Hill
#
# Bulk Modulus (GPa) = 25.92651 63.43281 44.67966
# Shear Modulus (GPa) = 2.18204 16.78432 9.48318
#
# Velocity S-wave (km/s) = 1.11139 3.08239 2.31693
# Velocity P-wave (km/s) = 4.04019 6.96962 5.69643
#
# Compressibility (1/GPa) = 0.03857056
#
# Stress axis : x y z
#
# Youngs Moduli (GPa) = 87.16382 19.40548 76.29073
#
# Poissons Ratio (x) = 0.07186 0.47207
# Poissons Ratio (y) = 0.32277 0.67746
# Poissons Ratio (z) = 0.53935 0.17232
#
# Static dielectric constant tensor:
#      x y z
#    x 3.516060 0.000000 0.000000 
#    y 0.000000 2.692320 0.000000 
#    z 0.000000 0.000000 3.407820 
# 
# 
# High freq. dielectric constant tensor:
#      x y z
#    x 1.699770 0.000000 0.000000 
#    y 0.000000 1.614970 0.000000 
#    z 0.000000 0.000000 1.679610 
# 
# From -- ./inp_files/3840.got.cif
#   From: 2010.03.12/outbox.cif.g09.slc.cpg/sg47_2_cif.got.tgz:3840.got - 2010.04.14 03:12:58.
