data_PCOD8197370
_publ_section_title
;
Structure prediction by ZEFSAII (Michael W. Deem and Ramdas Pophale) SiO2 
 PCOD8197370
Probable space group: P M M M
;
_chemical_formula_sum "Si O2"
_cell_formula_units_Z 64
_cell_length_a 14.211019
_cell_length_b 9.195110
_cell_length_c 31.039558
_cell_angle_alpha 90.000000
_cell_angle_beta 90.000000
_cell_angle_gamma 90.000000
_cell_volume 4055.997489
_symmetry_space_group_name_H-M "P M M M"
_symmetry_group_IT_number 47
_symmetry_cell_setting 'orthorhombic'
loop_
_space_group_symop_operation_xyz
x,y,z
-x,-y,z
x,-y,-z
-x,y,-z
-x,-y,-z
x,y,-z
-x,y,z
x,-y,z
loop_
_atom_site_type_symbol
_atom_site_label
_atom_site_fract_x
_atom_site_fract_y
_atom_site_fract_z
Si Si1 0.392403 0.330956 0.155935
Si Si2 0.224960 0.172440 0.880948
Si Si3 0.891042 0.829281 0.370277
Si Si4 0.207529 0.170495 0.714297
Si Si5 0.894385 0.173029 0.200981
Si Si6 0.891930 0.333605 0.949942
Si Si7 0.395062 0.832781 0.244052
Si Si8 0.111796 0.336100 0.547103
O O1 0.500000 0.306503 0.141538
O O2 0.365743 0.500000 0.156597
O O3 0.327458 0.246374 0.121854
O O4 0.375204 0.267859 0.203388
O O5 0.164223 0.226916 0.840133
O O6 0.174635 0.224591 0.924207
O O7 0.236664 0.000000 0.882266
O O8 0.832632 0.762471 0.330029
O O9 0.848505 0.762027 0.414173
O O10 0.000000 0.787561 0.363290
O O11 0.877352 0.000000 0.374347
O O12 0.152903 0.236082 0.755569
O O13 0.319065 0.204585 0.718851
O O14 0.187383 0.000000 0.712797
O O15 0.000000 0.235003 0.197485
O O16 0.895081 0.000000 0.202054
O O17 0.871009 0.500000 0.936722
O O18 0.000000 0.294604 0.939756
O O19 0.870312 0.310025 0.000000
O O20 0.500000 0.806647 0.262776
O O21 0.381853 0.000000 0.228847
O O22 0.147086 0.279822 0.500000
O O23 0.147296 0.500000 0.554385
O O24 0.000000 0.330105 0.547785
#
# Coordination Sequence:
#
# PCOD8197370 Si02
#       8
#     8   8   8   8   8   8   8   8
#     4  10  20  33  49  69  93 121 154 192 235 281
#     4  11  20  31  50  75  98 122 156 196 232 268
#     4   9  16  24  37  57  80 110 145 177 209 251
#     4   9  15  25  39  59  87 117 146 177 216 261
#     4   9  16  25  39  62  91 121 150 179 212 253
#     4   9  19  36  55  74 100 133 161 187 226 273
#     4   9  16  28  46  65  85 112 150 192 229 265
#     4   8  14  25  39  53  73 104 139 175 216 258
#
# _framework density 15.779102999999999
#
# number of rings (size 3 to 8) (size 9 to 14) (size 15 to 20)
#    0.000    2.750    1.250    2.250    0.000    3.500 
#    0.000    2.500    0.000    0.375    0.000    2.625 
#    0.000    0.500    0.000    6.250    0.000    1.250 
#
# Total GULP energy -793367.175126 kJ/mol
# GULP energy per Si atom -12396.362111 kJ/mol
# Density = 1.574319 g / cm^3
# Si number density = 15.779103 Si / 1000 Ang^3
#
#
#
# Elastic Constant Matrix: (Units=GPa)
#
#
# Indices 1 2 3 4 5 6 
#
# 1 94.2235 40.0202 53.8141 0.0000 0.0000 0.0000
# 2 40.0202 56.9313 42.1074 0.0000 0.0000 0.0000
# 3 53.8141 42.1074 107.5595 0.0000 0.0000 0.0000
# 4 0.0000 0.0000 0.0000 18.7211 0.0000 0.0000
# 5 0.0000 0.0000 0.0000 0.0000 14.0459 0.0000
# 6 0.0000 0.0000 0.0000 0.0000 0.0000 16.9595
#
#
#
# Elastic Compliance Matrix: (Units=1/GPa)
#
#
# Indices 1 2 3 4 5 6 
#
# 1 0.017118 -0.008021 -0.005424 0.000000 0.000000 0.000000
# 2 -0.008021 0.028482 -0.007137 0.000000 0.000000 0.000000
# 3 -0.005424 -0.007137 0.014805 0.000000 0.000000 0.000000
# 4 0.000000 0.000000 0.000000 0.053416 0.000000 0.000000
# 5 0.000000 0.000000 0.000000 0.000000 0.071195 0.000000
# 6 0.000000 0.000000 0.000000 0.000000 0.000000 0.058964
#
#
# Mechanical properties :
#
#
# Convention : Reuss Voigt Hill
#
# Bulk Modulus (GPa) = 51.97469 58.95528 55.46499
# Shear Modulus (GPa) = 17.14918 18.13013 17.63965
#
# Velocity S-wave (km/s) = 3.30028 3.39336 3.34715
# Velocity P-wave (km/s) = 6.89441 7.26617 7.08273
#
# Compressibility (1/GPa) = 0.01924013
#
# Stress axis : x y z
#
# Youngs Moduli (GPa) = 58.41807 35.10945 67.54450
#
# Poissons Ratio (x) = 0.28162 0.36638
# Poissons Ratio (y) = 0.46859 0.48207
# Poissons Ratio (z) = 0.31688 0.25058
#
# Static dielectric constant tensor:
#      x y z
#    x 3.024280 0.000000 0.000000 
#    y 0.000000 2.844040 0.000000 
#    z 0.000000 0.000000 3.103830 
# 
# 
# High freq. dielectric constant tensor:
#      x y z
#    x 1.589700 0.000000 0.000000 
#    y 0.000000 1.586560 0.000000 
#    z 0.000000 0.000000 1.594910 
# 
# From -- ./inp_files/14275.got.cif
#   From: 2010.03.12/outbox.cif.g09.slc.cpg/sg47_8_cif.got.tgz:14275.got - 2010.04.14 03:12:58.
