data_PCOD8197742
_publ_section_title
;
Structure prediction by ZEFSAII (Michael W. Deem and Ramdas Pophale) SiO2 
 PCOD8197742
Probable space group: P M M M
;
_chemical_formula_sum "Si O2"
_cell_formula_units_Z 64
_cell_length_a 14.330980
_cell_length_b 9.459407
_cell_length_c 24.907312
_cell_angle_alpha 90.000000
_cell_angle_beta 90.000000
_cell_angle_gamma 90.000000
_cell_volume 3376.499289
_symmetry_space_group_name_H-M "P M M M"
_symmetry_group_IT_number 47
_symmetry_cell_setting 'orthorhombic'
loop_
_space_group_symop_operation_xyz
x,y,z
-x,-y,z
x,-y,-z
-x,y,-z
-x,-y,-z
x,y,-z
-x,y,z
x,-y,z
loop_
_atom_site_type_symbol
_atom_site_label
_atom_site_fract_x
_atom_site_fract_y
_atom_site_fract_z
Si Si1 0.705916 0.665789 0.438918
Si Si2 0.899244 0.332653 0.395384
Si Si3 0.275550 0.337216 0.063396
Si Si4 0.392143 0.837767 0.140464
Si Si5 0.897074 0.841879 0.936216
Si Si6 0.723538 0.834360 0.244676
Si Si7 0.894759 0.335818 0.727149
Si Si8 0.392208 0.835955 0.651503
O O1 0.676717 0.696277 0.500000
O O2 0.700086 0.500000 0.425274
O O3 0.812088 0.722694 0.430276
O O4 0.634538 0.747402 0.400989
O O5 0.903760 0.500000 0.398130
O O6 0.884964 0.284574 0.334182
O O7 0.000000 0.273321 0.416543
O O8 0.273699 0.500000 0.080220
O O9 0.362581 0.260136 0.090800
O O10 0.179916 0.266960 0.085518
O O11 0.286658 0.317724 0.000000
O O12 0.500000 0.812677 0.152399
O O13 0.337874 0.791801 0.193713
O O14 0.371625 0.000000 0.125034
O O15 0.000000 0.796193 0.915407
O O16 0.873060 0.000000 0.915530
O O17 0.897043 0.840743 0.000000
O O18 0.821959 0.754619 0.238280
O O19 0.668754 0.784265 0.297941
O O20 0.743197 0.000000 0.246633
O O21 0.869252 0.500000 0.732779
O O22 0.000000 0.307185 0.747899
O O23 0.500000 0.808362 0.665417
O O24 0.373897 0.000000 0.639132
#
# Coordination Sequence:
#
# PCOD8197742 Si02
#       8
#     8   8   8   8   8   8   8   8
#     4  10  20  33  51  77 107 138 177 224 266 309
#     4   8  14  27  48  74 104 137 172 210 255 309
#     4  10  21  36  55  82 116 150 182 220 269 325
#     4  10  22  40  60  81 106 139 182 231 278 323
#     4   8  14  27  50  79 109 143 184 225 262 306
#     4  10  20  36  59  84 107 133 173 226 273 316
#     4   9  17  31  54  82 111 143 176 211 257 318
#     4  10  21  37  56  76 100 135 176 218 271 329
#
# _framework density 18.954543000000001
#
# number of rings (size 3 to 8) (size 9 to 14) (size 15 to 20)
#    0.000    2.625    1.250    1.875    0.000    4.750 
#    0.000    5.625    0.000    3.375    0.000    0.875 
#    0.000    0.000    0.000    0.000    0.000    0.000 
#
# Total GULP energy -793495.681352 kJ/mol
# GULP energy per Si atom -12398.370021 kJ/mol
# Density = 1.891140 g / cm^3
# Si number density = 18.954543 Si / 1000 Ang^3
#
#
#
# Elastic Constant Matrix: (Units=GPa)
#
#
# Indices 1 2 3 4 5 6 
#
# 1 118.9581 54.6288 45.2668 0.0000 0.0000 0.0000
# 2 54.6288 73.3066 44.8453 0.0000 0.0000 0.0000
# 3 45.2668 44.8453 62.8234 0.0000 0.0000 0.0000
# 4 0.0000 0.0000 0.0000 24.2628 0.0000 0.0000
# 5 0.0000 0.0000 0.0000 0.0000 28.7692 0.0000
# 6 0.0000 0.0000 0.0000 0.0000 0.0000 29.9187
#
#
#
# Elastic Compliance Matrix: (Units=1/GPa)
#
#
# Indices 1 2 3 4 5 6 
#
# 1 0.013462 -0.007275 -0.004507 0.000000 0.000000 0.000000
# 2 -0.007275 0.028148 -0.014851 0.000000 0.000000 0.000000
# 3 -0.004507 -0.014851 0.029766 0.000000 0.000000 0.000000
# 4 0.000000 0.000000 0.000000 0.041215 0.000000 0.000000
# 5 0.000000 0.000000 0.000000 0.000000 0.034759 0.000000
# 6 0.000000 0.000000 0.000000 0.000000 0.000000 0.033424
#
#
# Mechanical properties :
#
#
# Convention : Reuss Voigt Hill
#
# Bulk Modulus (GPa) = 55.21665 60.50777 57.86221
# Shear Modulus (GPa) = 20.82668 23.94664 22.38666
#
# Velocity S-wave (km/s) = 3.31837 3.55825 3.44040
# Velocity P-wave (km/s) = 6.62393 6.99095 6.80991
#
# Compressibility (1/GPa) = 0.01811048
#
# Stress axis : x y z
#
# Youngs Moduli (GPa) = 74.28180 35.52687 33.59550
#
# Poissons Ratio (x) = 0.25846 0.15141
# Poissons Ratio (y) = 0.54041 0.49892
# Poissons Ratio (z) = 0.33478 0.52760
#
# Static dielectric constant tensor:
#      x y z
#    x 3.811360 0.000000 0.000000 
#    y 0.000000 3.278390 0.000000 
#    z 0.000000 0.000000 3.266330 
# 
# 
# High freq. dielectric constant tensor:
#      x y z
#    x 1.749270 0.000000 0.000000 
#    y 0.000000 1.714040 0.000000 
#    z 0.000000 0.000000 1.718570 
# 
# From -- ./inp_files/32752.got.cif
#   From: 2010.03.12/outbox.cif.g09.slc.cpg/sg47_17_cif.got.tgz:32752.got - 2010.04.14 03:12:58.
