data_PCOD8197935
_publ_section_title
;
Structure prediction by ZEFSAII (Michael W. Deem and Ramdas Pophale) SiO2 
 PCOD8197935
Probable space group: P M M M
;
_chemical_formula_sum "Si O2"
_cell_formula_units_Z 40
_cell_length_a 9.695987
_cell_length_b 29.321409
_cell_length_c 7.713528
_cell_angle_alpha 90.000000
_cell_angle_beta 90.000000
_cell_angle_gamma 90.000000
_cell_volume 2192.956014
_symmetry_space_group_name_H-M "P M M M"
_symmetry_group_IT_number 47
_symmetry_cell_setting 'orthorhombic'
loop_
_space_group_symop_operation_xyz
x,y,z
-x,-y,z
x,-y,-z
-x,y,-z
-x,-y,-z
x,y,-z
-x,y,z
x,-y,z
loop_
_atom_site_type_symbol
_atom_site_label
_atom_site_fract_x
_atom_site_fract_y
_atom_site_fract_z
Si Si1 0.159269 0.202233 0.500000
Si Si2 0.840841 0.132292 0.199202
Si Si3 0.335281 0.707575 0.500000
Si Si4 0.658672 0.548996 0.703452
Si Si5 0.345732 0.949776 0.205617
Si Si6 0.337374 0.355381 0.190669
O O1 0.192254 0.174358 0.675102
O O2 0.261797 0.244273 0.500000
O O3 0.000000 0.218159 0.500000
O O4 0.757401 0.088948 0.273275
O O5 0.000000 0.118541 0.210396
O O6 0.799940 0.144944 0.000000
O O7 0.500000 0.714827 0.500000
O O8 0.281062 0.679979 0.667978
O O9 0.672683 0.555741 0.500000
O O10 0.500000 0.546761 0.759431
O O11 0.726991 0.500000 0.759362
O O12 0.728376 0.593640 0.790478
O O13 0.500000 0.938310 0.271315
O O14 0.301285 0.000000 0.275185
O O15 0.342441 0.950498 0.000000
O O16 0.500000 0.360090 0.220437
O O17 0.300917 0.336328 0.000000
#
# Coordination Sequence:
#
# PCOD8197935 Si02
#       6
#     4   8   4   8   8   8
#     4  10  22  38  53  70  93 120 154 200 247 286
#     4   9  18  33  52  72  94 122 157 195 234 277
#     4  10  20  34  49  67  91 118 152 195 239 284
#     4   8  12  19  33  54  85 125 159 184 218 269
#     4   8  14  26  46  73 104 134 160 188 225 270
#     4   9  16  26  41  62  90 122 154 190 232 277
#
# _framework density 18.240220999999998
#
# number of rings (size 3 to 8) (size 9 to 14) (size 15 to 20)
#    0.000    3.200    1.000    1.200    0.000    2.400 
#    0.000    4.500    0.000    3.000    0.000    0.000 
#    0.000    1.600    0.000    1.800    0.000    2.000 
#
# Total GULP energy -495571.015386 kJ/mol
# GULP energy per Si atom -12389.275385 kJ/mol
# Density = 1.819870 g / cm^3
# Si number density = 18.240221 Si / 1000 Ang^3
#
#
#
# Elastic Constant Matrix: (Units=GPa)
#
#
# Indices 1 2 3 4 5 6 
#
# 1 41.7744 57.6002 27.9880 0.0000 0.0000 0.0000
# 2 57.6002 159.8185 67.7084 0.0000 0.0000 0.0000
# 3 27.9880 67.7084 97.3070 0.0000 0.0000 0.0000
# 4 0.0000 0.0000 0.0000 9.2606 0.0000 0.0000
# 5 0.0000 0.0000 0.0000 0.0000 8.6658 0.0000
# 6 0.0000 0.0000 0.0000 0.0000 0.0000 1.2135
#
#
#
# Elastic Compliance Matrix: (Units=1/GPa)
#
#
# Indices 1 2 3 4 5 6 
#
# 1 0.048014 -0.016242 -0.002509 0.000000 0.000000 0.000000
# 2 -0.016242 0.014367 -0.005325 0.000000 0.000000 0.000000
# 3 -0.002509 -0.005325 0.014704 0.000000 0.000000 0.000000
# 4 0.000000 0.000000 0.000000 0.107985 0.000000 0.000000
# 5 0.000000 0.000000 0.000000 0.000000 0.115397 0.000000
# 6 0.000000 0.000000 0.000000 0.000000 0.000000 0.824036
#
#
# Mechanical properties :
#
#
# Convention : Reuss Voigt Hill
#
# Bulk Modulus (GPa) = 34.56253 67.27699 50.91976
# Shear Modulus (GPa) = 4.22906 13.53487 8.88196
#
# Velocity S-wave (km/s) = 1.52432 2.72699 2.20907
# Velocity P-wave (km/s) = 4.69976 6.84684 5.87226
#
# Compressibility (1/GPa) = 0.02893306
#
# Stress axis : x y z
#
# Youngs Moduli (GPa) = 20.82738 69.60440 68.01018
#
# Poissons Ratio (x) = 1.13051 0.17060
# Poissons Ratio (y) = 0.33828 0.36217
# Poissons Ratio (z) = 0.05225 0.37066
#
# Static dielectric constant tensor:
#      x y z
#    x 2.931700 0.000000 0.000000 
#    y 0.000000 3.557540 0.000000 
#    z 0.000000 0.000000 3.370130 
# 
# 
# High freq. dielectric constant tensor:
#      x y z
#    x 1.642570 0.000000 0.000000 
#    y 0.000000 1.713070 0.000000 
#    z 0.000000 0.000000 1.706910 
# 
# From -- ./inp_files/1804.got.cif
#   From: 2010.03.12/outbox.cif.g09.slc.cpg/sg47_1_cif.got.tgz:1804.got - 2010.04.14 03:12:58.
