data_PCOD8197800
_publ_section_title
;
Structure prediction by ZEFSAII (Michael W. Deem and Ramdas Pophale) SiO2 
 PCOD8197800
Probable space group: P M M M
;
_chemical_formula_sum "Si O2"
_cell_formula_units_Z 44
_cell_length_a 9.310794
_cell_length_b 28.390909
_cell_length_c 9.109426
_cell_angle_alpha 90.000000
_cell_angle_beta 90.000000
_cell_angle_gamma 90.000000
_cell_volume 2408.003024
_symmetry_space_group_name_H-M "P M M M"
_symmetry_group_IT_number 47
_symmetry_cell_setting 'orthorhombic'
loop_
_space_group_symop_operation_xyz
x,y,z
-x,-y,z
x,-y,-z
-x,y,-z
-x,-y,-z
x,y,-z
-x,y,z
x,-y,z
loop_
_atom_site_type_symbol
_atom_site_label
_atom_site_fract_x
_atom_site_fract_y
_atom_site_fract_z
Si Si1 0.158559 0.413235 0.173937
Si Si2 0.831780 0.307590 0.829770
Si Si3 0.829566 0.051726 0.335402
Si Si4 0.666659 0.773558 0.327257
Si Si5 0.660252 0.500000 0.824489
Si Si6 0.168481 0.143028 0.829240
O O1 0.211834 0.360855 0.214951
O O2 0.263612 0.453067 0.238277
O O3 0.000000 0.422051 0.239746
O O4 0.150274 0.417434 0.000000
O O5 0.736348 0.274447 0.729269
O O6 0.000000 0.298700 0.799981
O O7 0.797050 0.297573 0.000000
O O8 0.773943 0.062694 0.500000
O O9 0.774498 0.092161 0.225777
O O10 0.000000 0.050939 0.334761
O O11 0.772785 0.000000 0.284626
O O12 0.689201 0.776797 0.500000
O O13 0.500000 0.774213 0.283393
O O14 0.744721 0.817410 0.254509
O O15 0.500000 0.500000 0.762309
O O16 0.662185 0.500000 0.000000
O O17 0.000000 0.149703 0.795793
O O18 0.201808 0.147193 0.000000
#
# Coordination Sequence:
#
# PCOD8197800 Si02
#       6
#     8   8   8   8   4   8
#     4   8  14  25  41  62  91 125 157 193 239 288
#     4   9  18  33  53  76  99 125 162 206 251 299
#     4   8  14  26  46  73 104 136 168 202 242 288
#     4  11  24  38  51  70  97 130 167 205 248 300
#     4   9  15  21  33  59  94 129 164 197 230 276
#     4  10  20  33  52  78 104 131 165 205 249 296
#
# _framework density 18.272400999999999
#
# number of rings (size 3 to 8) (size 9 to 14) (size 15 to 20)
#    0.000    2.818    0.000    3.545    0.000    7.273 
#    0.000    3.636    0.000    0.545    0.000    4.455 
#    0.000    5.091    0.000    0.000    0.000    0.000 
#
# Total GULP energy -545429.720809 kJ/mol
# GULP energy per Si atom -12396.130018 kJ/mol
# Density = 1.823081 g / cm^3
# Si number density = 18.272401 Si / 1000 Ang^3
#
#
#
# Elastic Constant Matrix: (Units=GPa)
#
#
# Indices 1 2 3 4 5 6 
#
# 1 88.3595 80.2085 48.2996 0.0000 0.0000 0.0000
# 2 80.2085 178.3842 61.2914 0.0000 0.0000 0.0000
# 3 48.2996 61.2914 68.2483 0.0000 0.0000 0.0000
# 4 0.0000 0.0000 0.0000 -7.1208 0.0000 0.0000
# 5 0.0000 0.0000 0.0000 0.0000 20.1591 0.0000
# 6 0.0000 0.0000 0.0000 0.0000 0.0000 -2.5645
#
#
#
# Elastic Compliance Matrix: (Units=1/GPa)
#
#
# Indices 1 2 3 4 5 6 
#
# 1 0.023160 -0.006916 -0.010179 0.000000 0.000000 0.000000
# 2 -0.006916 0.010173 -0.004241 0.000000 0.000000 0.000000
# 3 -0.010179 -0.004241 0.025665 0.000000 0.000000 0.000000
# 4 0.000000 0.000000 0.000000 -0.140434 0.000000 0.000000
# 5 0.000000 0.000000 0.000000 0.000000 0.049605 0.000000
# 6 0.000000 0.000000 0.000000 0.000000 0.000000 -0.389935
#
#
# Mechanical properties :
#
#
# Convention : Reuss Voigt Hill
#
# Bulk Modulus (GPa) = 61.25706 79.39901 70.32803
# Shear Modulus (GPa) = -13.38144 11.77425 -0.80359
#
# Velocity S-wave (km/s) = -2.70910 2.54121 -0.66388
# Velocity P-wave (km/s) = 4.87971 7.22202 6.16316
#
# Compressibility (1/GPa) = 0.01632465
#
# Stress axis : x y z
#
# Youngs Moduli (GPa) = 43.17871 98.30021 38.96310
#
# Poissons Ratio (x) = 0.67984 0.39661
# Poissons Ratio (y) = 0.29862 0.16526
# Poissons Ratio (z) = 0.43952 0.41694
#
# Static dielectric constant tensor:
#      x y z
#    x 3.265840 0.000000 0.000000 
#    y 0.000000 3.796940 0.000000 
#    z 0.000000 0.000000 3.107430 
# 
# 
# High freq. dielectric constant tensor:
#      x y z
#    x 1.683660 0.000000 0.000000 
#    y 0.000000 1.729960 0.000000 
#    z 0.000000 0.000000 1.676110 
# 
# From -- ./inp_files/1961.got.cif
#   From: 2010.03.12/outbox.cif.g09.slc.cpg/sg47_1_cif.got.tgz:1961.got - 2010.04.14 03:12:58.
