data_PCOD8197708
_publ_section_title
;
Structure prediction by ZEFSAII (Michael W. Deem and Ramdas Pophale) SiO2 
 PCOD8197708
Probable space group: P M M M
;
_chemical_formula_sum "Si O2"
_cell_formula_units_Z 48
_cell_length_a 8.890943
_cell_length_b 15.083331
_cell_length_c 20.579750
_cell_angle_alpha 90.000000
_cell_angle_beta 90.000000
_cell_angle_gamma 90.000000
_cell_volume 2759.848118
_symmetry_space_group_name_H-M "P M M M"
_symmetry_group_IT_number 47
_symmetry_cell_setting 'orthorhombic'
loop_
_space_group_symop_operation_xyz
x,y,z
-x,-y,z
x,-y,-z
-x,y,-z
-x,-y,-z
x,y,-z
-x,y,z
x,-y,z
loop_
_atom_site_type_symbol
_atom_site_label
_atom_site_fract_x
_atom_site_fract_y
_atom_site_fract_z
Si Si1 0.334621 0.500000 0.925217
Si Si2 0.322858 0.720811 0.741960
Si Si3 0.172412 0.335885 0.869390
Si Si4 0.325270 0.097172 0.201330
Si Si5 0.667678 0.395407 0.500000
Si Si6 0.177958 0.602049 0.632240
Si Si7 0.172078 0.147979 0.927685
O O1 0.500000 0.500000 0.890123
O O2 0.231805 0.417253 0.909439
O O3 0.368514 0.500000 0.000000
O O4 0.500000 0.714948 0.728611
O O5 0.280091 0.670415 0.807327
O O6 0.266227 0.823837 0.751259
O O7 0.237471 0.672401 0.684023
O O8 0.187769 0.252469 0.916527
O O9 0.000000 0.349611 0.846600
O O10 0.500000 0.113853 0.191250
O O11 0.257263 0.096550 0.129120
O O12 0.291988 0.000000 0.232693
O O13 0.656380 0.500000 0.500000
O O14 0.500000 0.353600 0.500000
O O15 0.756855 0.364531 0.563702
O O16 0.228018 0.500000 0.648204
O O17 0.000000 0.607520 0.629120
O O18 0.000000 0.117661 0.924074
O O19 0.236527 0.125736 0.000000
#
# Coordination Sequence:
#
# PCOD8197708 Si02
#       7
#     4   8   8   8   4   8   8
#     4  11  23  35  47  65  89 120 161 206 251 299
#     4  10  20  34  52  74 100 131 168 209 250 295
#     4  10  20  34  50  66  90 123 162 205 250 298
#     4   9  19  35  52  71  96 126 162 206 256 307
#     4   9  17  31  51  77 108 141 176 209 241 278
#     4  10  20  33  51  76 109 144 175 204 241 288
#     4   9  18  32  49  69  92 119 154 199 252 308
#
# _framework density 17.392261000000001
#
# number of rings (size 3 to 8) (size 9 to 14) (size 15 to 20)
#    0.000    2.333    0.000    2.500    1.167    5.667 
#    0.000    1.667    0.000    0.000    0.000    0.583 
#    0.000    4.667    0.000    0.000    0.000    0.000 
#
# Total GULP energy -594918.253390 kJ/mol
# GULP energy per Si atom -12394.130279 kJ/mol
# Density = 1.735268 g / cm^3
# Si number density = 17.392261 Si / 1000 Ang^3
#
#
#
# Elastic Constant Matrix: (Units=GPa)
#
#
# Indices 1 2 3 4 5 6 
#
# 1 62.2523 35.8925 30.0484 0.0000 0.0000 0.0000
# 2 35.8925 99.0441 47.4124 0.0000 0.0000 0.0000
# 3 30.0484 47.4124 105.5857 0.0000 0.0000 0.0000
# 4 0.0000 0.0000 0.0000 22.3192 0.0000 0.0000
# 5 0.0000 0.0000 0.0000 0.0000 31.6690 0.0000
# 6 0.0000 0.0000 0.0000 0.0000 0.0000 20.3512
#
#
#
# Elastic Compliance Matrix: (Units=1/GPa)
#
#
# Indices 1 2 3 4 5 6 
#
# 1 0.021165 -0.006097 -0.003285 0.000000 0.000000 0.000000
# 2 -0.006097 0.014618 -0.004829 0.000000 0.000000 0.000000
# 3 -0.003285 -0.004829 0.012574 0.000000 0.000000 0.000000
# 4 0.000000 0.000000 0.000000 0.044805 0.000000 0.000000
# 5 0.000000 0.000000 0.000000 0.000000 0.031577 0.000000
# 6 0.000000 0.000000 0.000000 0.000000 0.000000 0.049137
#
#
# Mechanical properties :
#
#
# Convention : Reuss Voigt Hill
#
# Bulk Modulus (GPa) = 50.16519 54.84319 52.50419
# Shear Modulus (GPa) = 23.93002 25.10311 24.51657
#
# Velocity S-wave (km/s) = 3.71334 3.80327 3.75857
# Velocity P-wave (km/s) = 6.87686 7.13358 7.00640
#
# Compressibility (1/GPa) = 0.01993414
#
# Stress axis : x y z
#
# Youngs Moduli (GPa) = 47.24796 68.41070 79.52769
#
# Poissons Ratio (x) = 0.41712 0.26128
# Poissons Ratio (y) = 0.28808 0.38402
# Poissons Ratio (z) = 0.15523 0.33034
#
# Static dielectric constant tensor:
#      x y z
#    x 3.362390 0.000000 0.000000 
#    y 0.000000 3.323700 0.000000 
#    z 0.000000 0.000000 3.212460 
# 
# 
# High freq. dielectric constant tensor:
#      x y z
#    x 1.682000 0.000000 0.000000 
#    y 0.000000 1.663940 0.000000 
#    z 0.000000 0.000000 1.651960 
# 
# From -- ./inp_files/9136.got.cif
#   From: 2010.03.12/outbox.cif.g09.slc.cpg/sg47_5_cif.got.tgz:9136.got - 2010.04.14 03:12:58.
