data_PCOD8197091
_publ_section_title
;
Structure prediction by ZEFSAII (Michael W. Deem and Ramdas Pophale) SiO2 
 PCOD8197091
Probable space group: P M M M
;
_chemical_formula_sum "Si O2"
_cell_formula_units_Z 40
_cell_length_a 8.007238
_cell_length_b 27.600818
_cell_length_c 8.929182
_cell_angle_alpha 90.000000
_cell_angle_beta 90.000000
_cell_angle_gamma 90.000000
_cell_volume 1973.405643
_symmetry_space_group_name_H-M "P M M M"
_symmetry_group_IT_number 47
_symmetry_cell_setting 'orthorhombic'
loop_
_space_group_symop_operation_xyz
x,y,z
-x,-y,z
x,-y,-z
-x,y,-z
-x,-y,-z
x,y,-z
-x,y,z
x,-y,z
loop_
_atom_site_type_symbol
_atom_site_label
_atom_site_fract_x
_atom_site_fract_y
_atom_site_fract_z
Si Si1 0.500000 0.057216 0.328133
Si Si2 0.191937 0.207012 0.663391
Si Si3 0.804524 0.889047 0.176946
Si Si4 0.308813 0.298816 0.169902
Si Si5 0.193417 0.600348 0.171355
Si Si6 0.304133 0.500000 0.168680
O O1 0.500000 0.075057 0.500000
O O2 0.326839 0.074149 0.250967
O O3 0.500000 0.000000 0.316733
O O4 0.282008 0.205132 0.500000
O O5 0.256936 0.164359 0.771260
O O6 0.210791 0.259610 0.735166
O O7 0.000000 0.197325 0.637425
O O8 0.000000 0.900169 0.221698
O O9 0.784794 0.892125 0.000000
O O10 0.500000 0.283767 0.173616
O O11 0.284420 0.352564 0.241654
O O12 0.238369 0.298814 0.000000
O O13 0.241411 0.549265 0.251628
O O14 0.000000 0.610225 0.187448
O O15 0.254251 0.595854 0.000000
O O16 0.500000 0.500000 0.167661
O O17 0.228737 0.500000 0.000000
#
# Coordination Sequence:
#
# PCOD8197091 Si02
#       6
#     4   8   8   8   8   4
#     4  11  25  43  65  95 131 171 211 252 301 358
#     4  10  21  37  57  81 110 146 187 232 286 348
#     4  10  22  41  66  94 125 163 208 258 309 360
#     4  10  20  32  48  73 105 140 178 223 277 336
#     4   9  16  26  41  62  91 129 172 218 270 330
#     4   9  15  23  37  59  90 125 164 215 274 333
#
# _framework density 20.269528000000001
#
# number of rings (size 3 to 8) (size 9 to 14) (size 15 to 20)
#    0.000    2.200    0.000    3.000    1.400    8.400 
#    0.000    2.000    0.000    0.000    0.000    0.700 
#    0.000    5.600    0.000    0.000    0.000    0.000 
#
# Total GULP energy -495705.372090 kJ/mol
# GULP energy per Si atom -12392.634302 kJ/mol
# Density = 2.022339 g / cm^3
# Si number density = 20.269528 Si / 1000 Ang^3
#
#
#
# Elastic Constant Matrix: (Units=GPa)
#
#
# Indices 1 2 3 4 5 6 
#
# 1 72.2218 37.6880 35.2094 0.0000 0.0000 0.0000
# 2 37.6880 136.7993 49.5091 0.0000 0.0000 0.0000
# 3 35.2094 49.5091 90.9568 0.0000 0.0000 0.0000
# 4 0.0000 0.0000 0.0000 2.1562 0.0000 0.0000
# 5 0.0000 0.0000 0.0000 0.0000 17.6507 0.0000
# 6 0.0000 0.0000 0.0000 0.0000 0.0000 37.8621
#
#
#
# Elastic Compliance Matrix: (Units=1/GPa)
#
#
# Indices 1 2 3 4 5 6 
#
# 1 0.018028 -0.003040 -0.005324 0.000000 0.000000 0.000000
# 2 -0.003040 0.009616 -0.004057 0.000000 0.000000 0.000000
# 3 -0.005324 -0.004057 0.015264 0.000000 0.000000 0.000000
# 4 0.000000 0.000000 0.000000 0.463780 0.000000 0.000000
# 5 0.000000 0.000000 0.000000 0.000000 0.056655 0.000000
# 6 0.000000 0.000000 0.000000 0.000000 0.000000 0.026412
#
#
# Mechanical properties :
#
#
# Convention : Reuss Voigt Hill
#
# Bulk Modulus (GPa) = 55.35528 60.53234 57.94381
# Shear Modulus (GPa) = 8.05647 23.37188 15.71418
#
# Velocity S-wave (km/s) = 1.99582 3.39935 2.78737
# Velocity P-wave (km/s) = 5.71664 6.73320 6.24564
#
# Compressibility (1/GPa) = 0.01806512
#
# Stress axis : x y z
#
# Youngs Moduli (GPa) = 55.46882 103.99493 65.51530
#
# Poissons Ratio (x) = 0.31614 0.34881
# Poissons Ratio (y) = 0.16862 0.26582
# Poissons Ratio (z) = 0.29532 0.42194
#
# Static dielectric constant tensor:
#      x y z
#    x 3.603160 0.000000 0.000000 
#    y 0.000000 3.879340 0.000000 
#    z 0.000000 0.000000 3.480140 
# 
# 
# High freq. dielectric constant tensor:
#      x y z
#    x 1.793080 0.000000 0.000000 
#    y 0.000000 1.808180 0.000000 
#    z 0.000000 0.000000 1.747070 
# 
# From -- ./inp_files/1872.got.cif
#   From: 2010.03.12/outbox.cif.g09.slc.cpg/sg47_1_cif.got.tgz:1872.got - 2010.04.14 03:12:58.
