data_PCOD8197783
_publ_section_title
;
Structure prediction by ZEFSAII (Michael W. Deem and Ramdas Pophale) SiO2 
 PCOD8197783
Probable space group: P M M M
;
_chemical_formula_sum "Si O2"
_cell_formula_units_Z 48
_cell_length_a 9.119063
_cell_length_b 7.917942
_cell_length_c 32.265627
_cell_angle_alpha 90.000000
_cell_angle_beta 90.000000
_cell_angle_gamma 90.000000
_cell_volume 2329.714170
_symmetry_space_group_name_H-M "P M M M"
_symmetry_group_IT_number 47
_symmetry_cell_setting 'orthorhombic'
loop_
_space_group_symop_operation_xyz
x,y,z
-x,-y,z
x,-y,-z
-x,y,-z
-x,-y,-z
x,y,-z
-x,y,z
x,-y,z
loop_
_atom_site_type_symbol
_atom_site_label
_atom_site_fract_x
_atom_site_fract_y
_atom_site_fract_z
Si Si1 0.171396 0.690227 0.591396
Si Si2 0.836335 0.807213 0.679818
Si Si3 0.668110 0.301559 0.758776
Si Si4 0.330369 0.000000 0.451306
Si Si5 0.834631 0.701520 0.160357
Si Si6 0.166378 0.199140 0.000000
Si Si7 0.663161 0.697812 0.081253
O O1 0.209626 0.500000 0.575905
O O2 0.212362 0.698511 0.640113
O O3 0.000000 0.729882 0.585375
O O4 0.260700 0.828113 0.565893
O O5 0.724247 0.783789 0.717099
O O6 0.000000 0.753994 0.694541
O O7 0.833882 0.000000 0.665052
O O8 0.500000 0.251676 0.765561
O O9 0.690138 0.500000 0.754406
O O10 0.757816 0.230669 0.798006
O O11 0.500000 0.000000 0.438786
O O12 0.305827 0.000000 0.500000
O O13 0.833138 0.500000 0.159490
O O14 0.748194 0.775938 0.120678
O O15 0.000000 0.771461 0.158993
O O16 0.247309 0.267542 0.959946
O O17 0.000000 0.267609 0.000000
O O18 0.170207 0.000000 0.000000
O O19 0.500000 0.778043 0.078177
O O20 0.648404 0.500000 0.087843
#
# Coordination Sequence:
#
# PCOD8197783 Si02
#       7
#     8   8   8   4   8   4   8
#     4  10  21  40  67  95 123 161 211 264 316 371
#     4  10  20  36  58  83 114 152 195 245 297 349
#     4  10  20  33  51  79 114 149 186 229 279 338
#     4  11  25  43  63  91 131 173 209 255 315 378
#     4   9  17  31  53  79 107 141 181 226 276 330
#     4  11  24  39  54  76 106 139 176 219 268 326
#     4  10  20  35  57  83 108 136 174 222 276 334
#
# _framework density 20.603386
#
# number of rings (size 3 to 8) (size 9 to 14) (size 15 to 20)
#    0.000    2.000    0.833    2.750    0.000    8.667 
#    0.000    2.500    0.000    5.000    0.000    0.000 
#    0.000    0.000    0.000    0.000    0.000    0.000 
#
# Total GULP energy -595264.080311 kJ/mol
# GULP energy per Si atom -12401.335006 kJ/mol
# Density = 2.055649 g / cm^3
# Si number density = 20.603386 Si / 1000 Ang^3
#
#
#
# Elastic Constant Matrix: (Units=GPa)
#
#
# Indices 1 2 3 4 5 6 
#
# 1 155.4875 46.0173 77.8606 0.0000 0.0000 0.0000
# 2 46.0173 70.5627 43.8519 0.0000 0.0000 0.0000
# 3 77.8606 43.8519 131.4667 0.0000 0.0000 0.0000
# 4 0.0000 0.0000 0.0000 -2.9994 0.0000 0.0000
# 5 0.0000 0.0000 0.0000 0.0000 29.8113 0.0000
# 6 0.0000 0.0000 0.0000 0.0000 0.0000 20.3529
#
#
#
# Elastic Compliance Matrix: (Units=1/GPa)
#
#
# Indices 1 2 3 4 5 6 
#
# 1 0.009786 -0.003507 -0.004626 0.000000 0.000000 0.000000
# 2 -0.003507 0.019135 -0.004306 0.000000 0.000000 0.000000
# 3 -0.004626 -0.004306 0.011782 0.000000 0.000000 0.000000
# 4 0.000000 0.000000 0.000000 -0.333399 0.000000 0.000000
# 5 0.000000 0.000000 0.000000 0.000000 0.033544 0.000000
# 6 0.000000 0.000000 0.000000 0.000000 0.000000 0.049133
#
#
# Mechanical properties :
#
#
# Convention : Reuss Voigt Hill
#
# Bulk Modulus (GPa) = 63.18727 76.99739 70.09233
# Shear Modulus (GPa) = -27.79826 22.08541 -2.85642
#
# Velocity S-wave (km/s) = -3.67714 3.27759 -1.17873
# Velocity P-wave (km/s) = 3.56461 7.19554 5.67813
#
# Compressibility (1/GPa) = 0.01582597
#
# Stress axis : x y z
#
# Youngs Moduli (GPa) = 102.19069 52.26145 84.87382
#
# Poissons Ratio (x) = 0.18328 0.39260
# Poissons Ratio (y) = 0.35838 0.36543
# Poissons Ratio (z) = 0.47271 0.22501
#
# Static dielectric constant tensor:
#      x y z
#    x 3.930190 0.000000 0.000000 
#    y 0.000000 3.602340 0.000000 
#    z 0.000000 0.000000 3.726030 
# 
# 
# High freq. dielectric constant tensor:
#      x y z
#    x 1.812520 0.000000 0.000000 
#    y 0.000000 1.790280 0.000000 
#    z 0.000000 0.000000 1.811210 
# 
# From -- ./inp_files/34062.got.cif
#   From: 2010.03.12/outbox.cif.g09.slc.cpg/sg47_18_cif.got.tgz:34062.got - 2010.04.14 03:12:58.
