data_PCOD8197656
_publ_section_title
;
Structure prediction by ZEFSAII (Michael W. Deem and Ramdas Pophale) SiO2 
 PCOD8197656
Probable space group: P M M M
;
_chemical_formula_sum "Si O2"
_cell_formula_units_Z 44
_cell_length_a 9.356242
_cell_length_b 29.846974
_cell_length_c 8.014242
_cell_angle_alpha 90.000000
_cell_angle_beta 90.000000
_cell_angle_gamma 90.000000
_cell_volume 2238.021251
_symmetry_space_group_name_H-M "P M M M"
_symmetry_group_IT_number 47
_symmetry_cell_setting 'orthorhombic'
loop_
_space_group_symop_operation_xyz
x,y,z
-x,-y,z
x,-y,-z
-x,y,-z
-x,-y,-z
x,y,-z
-x,y,z
x,-y,z
loop_
_atom_site_type_symbol
_atom_site_label
_atom_site_fract_x
_atom_site_fract_y
_atom_site_fract_z
Si Si1 0.161991 0.792307 0.305973
Si Si2 0.842625 0.369695 0.306917
Si Si3 0.169773 0.893799 0.685036
Si Si4 0.338734 0.288456 0.191069
Si Si5 0.660096 0.549524 0.698542
Si Si6 0.170570 0.949180 0.000000
O O1 0.167695 0.780017 0.500000
O O2 0.215657 0.842942 0.275264
O O3 0.268194 0.760291 0.206543
O O4 0.000000 0.786152 0.239178
O O5 0.861837 0.380056 0.500000
O O6 0.752954 0.324464 0.290931
O O7 0.762055 0.412194 0.223225
O O8 0.000000 0.364121 0.224221
O O9 0.227447 0.908230 0.500000
O O10 0.231051 0.925488 0.831971
O O11 0.000000 0.896514 0.680713
O O12 0.500000 0.286960 0.263137
O O13 0.340436 0.303088 0.000000
O O14 0.657768 0.552892 0.500000
O O15 0.500000 0.557639 0.767014
O O16 0.714161 0.500000 0.753388
O O17 0.000000 0.946927 0.000000
O O18 0.226078 0.000000 0.000000
#
# Coordination Sequence:
#
# PCOD8197656 Si02
#       6
#     8   8   8   8   8   4
#     4   9  18  33  53  75  97 126 167 209 252 305
#     4  10  20  33  51  75 101 130 165 204 248 300
#     4   8  15  27  42  64  95 129 168 214 258 306
#     4  11  24  37  49  70  99 130 165 205 251 304
#     4   8  14  26  46  72 100 130 164 202 247 297
#     4   9  16  24  38  64  97 137 179 211 252 309
#
# _framework density 19.660222999999998
#
# number of rings (size 3 to 8) (size 9 to 14) (size 15 to 20)
#    0.000    2.818    0.000    3.273    1.273    5.818 
#    0.000    3.636    0.000    0.545    0.000    3.818 
#    0.000    1.455    0.000    4.000    0.000    4.000 
#
# Total GULP energy -545391.318823 kJ/mol
# GULP energy per Si atom -12395.257246 kJ/mol
# Density = 1.961548 g / cm^3
# Si number density = 19.660223 Si / 1000 Ang^3
#
#
#
# Elastic Constant Matrix: (Units=GPa)
#
#
# Indices 1 2 3 4 5 6 
#
# 1 101.6655 60.2461 22.8696 0.0000 0.0000 0.0000
# 2 60.2461 149.5716 45.1352 0.0000 0.0000 0.0000
# 3 22.8696 45.1352 62.1341 0.0000 0.0000 0.0000
# 4 0.0000 0.0000 0.0000 -0.9851 0.0000 0.0000
# 5 0.0000 0.0000 0.0000 0.0000 13.1584 0.0000
# 6 0.0000 0.0000 0.0000 0.0000 0.0000 9.5371
#
#
#
# Elastic Compliance Matrix: (Units=1/GPa)
#
#
# Indices 1 2 3 4 5 6 
#
# 1 0.012996 -0.004856 -0.001256 0.000000 0.000000 0.000000
# 2 -0.004856 0.010377 -0.005751 0.000000 0.000000 0.000000
# 3 -0.001256 -0.005751 0.020734 0.000000 0.000000 0.000000
# 4 0.000000 0.000000 0.000000 -1.015144 0.000000 0.000000
# 5 0.000000 0.000000 0.000000 0.000000 0.075997 0.000000
# 6 0.000000 0.000000 0.000000 0.000000 0.000000 0.104854
#
#
# Mechanical properties :
#
#
# Convention : Reuss Voigt Hill
#
# Bulk Modulus (GPa) = 49.06334 63.31922 56.19128
# Shear Modulus (GPa) = -6.58184 16.68343 5.05080
#
# Velocity S-wave (km/s) = -1.83168 2.91621 1.60456
# Velocity P-wave (km/s) = 4.53171 6.60422 5.66357
#
# Compressibility (1/GPa) = 0.02038182
#
# Stress axis : x y z
#
# Youngs Moduli (GPa) = 76.94564 96.36758 48.22987
#
# Poissons Ratio (x) = 0.46793 0.06059
# Poissons Ratio (y) = 0.37362 0.27736
# Poissons Ratio (z) = 0.09666 0.55419
#
# Static dielectric constant tensor:
#      x y z
#    x 3.503770 0.000000 0.000000 
#    y 0.000000 3.674460 0.000000 
#    z 0.000000 0.000000 3.452860 
# 
# 
# High freq. dielectric constant tensor:
#      x y z
#    x 1.730000 0.000000 0.000000 
#    y 0.000000 1.770490 0.000000 
#    z 0.000000 0.000000 1.747040 
# 
# From -- ./inp_files/2249.got.cif
#   From: 2010.03.12/outbox.cif.g09.slc.cpg/sg47_2_cif.got.tgz:2249.got - 2010.04.14 03:12:58.
