data_PCOD8197089
_publ_section_title
;
Structure prediction by ZEFSAII (Michael W. Deem and Ramdas Pophale) SiO2 
 PCOD8197089
Probable space group: P M M M
;
_chemical_formula_sum "Si O2"
_cell_formula_units_Z 44
_cell_length_a 8.987679
_cell_length_b 29.962567
_cell_length_c 7.934786
_cell_angle_alpha 90.000000
_cell_angle_beta 90.000000
_cell_angle_gamma 90.000000
_cell_volume 2136.789739
_symmetry_space_group_name_H-M "P M M M"
_symmetry_group_IT_number 47
_symmetry_cell_setting 'orthorhombic'
loop_
_space_group_symop_operation_xyz
x,y,z
-x,-y,z
x,-y,-z
-x,y,-z
-x,-y,-z
x,y,-z
-x,y,z
x,-y,z
loop_
_atom_site_type_symbol
_atom_site_label
_atom_site_fract_x
_atom_site_fract_y
_atom_site_fract_z
Si Si1 0.829593 0.811131 0.200320
Si Si2 0.168508 0.641358 0.308262
Si Si3 0.175835 0.451978 0.807091
Si Si4 0.337237 0.275056 0.193472
Si Si5 0.170827 0.947282 0.000000
Si Si6 0.325610 0.101234 0.692032
O O1 0.768498 0.763551 0.268292
O O2 0.733827 0.848702 0.291737
O O3 0.000000 0.814931 0.257685
O O4 0.814707 0.816880 0.000000
O O5 0.172065 0.656562 0.500000
O O6 0.237412 0.591297 0.291817
O O7 0.265467 0.676243 0.205673
O O8 0.000000 0.642032 0.236577
O O9 0.239044 0.500000 0.739035
O O10 0.000000 0.453466 0.786257
O O11 0.222901 0.446233 0.000000
O O12 0.500000 0.274711 0.282322
O O13 0.359215 0.263657 0.000000
O O14 0.246140 0.930133 0.828532
O O15 0.000000 0.930829 0.000000
O O16 0.183598 0.000000 0.000000
O O17 0.294614 0.084369 0.500000
O O18 0.500000 0.100896 0.731494
#
# Coordination Sequence:
#
# PCOD8197089 Si02
#       6
#     8   8   8   8   4   8
#     4  10  20  36  61  90 119 154 197 246 301 359
#     4  10  20  32  48  73 105 139 175 219 273 333
#     4   8  14  26  46  71  97 127 166 214 268 327
#     4  10  21  36  55  78 106 145 190 234 282 337
#     4  11  25  45  69  97 131 173 219 269 320 367
#     4  11  24  41  65  97 132 171 213 260 316 377
#
# _framework density 20.591636999999999
#
# number of rings (size 3 to 8) (size 9 to 14) (size 15 to 20)
#    0.000    2.091    0.909    3.000    0.000    6.545 
#    0.000    3.636    0.000    0.545    0.000    3.818 
#    0.000    0.000    0.000    0.000    0.000    0.000 
#
# Total GULP energy -545387.190202 kJ/mol
# GULP energy per Si atom -12395.163414 kJ/mol
# Density = 2.054477 g / cm^3
# Si number density = 20.591637 Si / 1000 Ang^3
#
#
#
# Elastic Constant Matrix: (Units=GPa)
#
#
# Indices 1 2 3 4 5 6 
#
# 1 128.0155 62.1625 46.4134 0.0000 0.0000 0.0000
# 2 62.1625 130.3253 39.0292 0.0000 0.0000 0.0000
# 3 46.4134 39.0292 74.1289 0.0000 0.0000 0.0000
# 4 0.0000 0.0000 0.0000 10.9251 0.0000 0.0000
# 5 0.0000 0.0000 0.0000 0.0000 19.3723 0.0000
# 6 0.0000 0.0000 0.0000 0.0000 0.0000 6.3673
#
#
#
# Elastic Compliance Matrix: (Units=1/GPa)
#
#
# Indices 1 2 3 4 5 6 
#
# 1 0.011629 -0.003996 -0.005177 0.000000 0.000000 0.000000
# 2 -0.003996 0.010483 -0.003017 0.000000 0.000000 0.000000
# 3 -0.005177 -0.003017 0.018320 0.000000 0.000000 0.000000
# 4 0.000000 0.000000 0.000000 0.091533 0.000000 0.000000
# 5 0.000000 0.000000 0.000000 0.000000 0.051620 0.000000
# 6 0.000000 0.000000 0.000000 0.000000 0.000000 0.157054
#
#
# Mechanical properties :
#
#
# Convention : Reuss Voigt Hill
#
# Bulk Modulus (GPa) = 62.30192 69.74221 66.02207
# Shear Modulus (GPa) = 13.50003 19.65724 16.57864
#
# Velocity S-wave (km/s) = 2.56326 3.09305 2.84053
# Velocity P-wave (km/s) = 6.25156 6.83364 6.54907
#
# Compressibility (1/GPa) = 0.01605087
#
# Stress axis : x y z
#
# Youngs Moduli (GPa) = 85.99048 95.39377 54.58535
#
# Poissons Ratio (x) = 0.38124 0.28259
# Poissons Ratio (y) = 0.34366 0.16468
# Poissons Ratio (z) = 0.44518 0.28780
#
# Static dielectric constant tensor:
#      x y z
#    x 3.689090 0.000000 0.000000 
#    y 0.000000 3.733350 0.000000 
#    z 0.000000 0.000000 3.571330 
# 
# 
# High freq. dielectric constant tensor:
#      x y z
#    x 1.785360 0.000000 0.000000 
#    y 0.000000 1.818330 0.000000 
#    z 0.000000 0.000000 1.792120 
# 
# From -- ./inp_files/1966.got.cif
#   From: 2010.03.12/outbox.cif.g09.slc.cpg/sg47_1_cif.got.tgz:1966.got - 2010.04.14 03:12:58.
