data_PCOD8197393
_publ_section_title
;
Structure prediction by ZEFSAII (Michael W. Deem and Ramdas Pophale) SiO2 
 PCOD8197393
Probable space group: P M M M
;
_chemical_formula_sum "Si O2"
_cell_formula_units_Z 40
_cell_length_a 9.049400
_cell_length_b 25.989916
_cell_length_c 8.981883
_cell_angle_alpha 90.000000
_cell_angle_beta 90.000000
_cell_angle_gamma 90.000000
_cell_volume 2112.477318
_symmetry_space_group_name_H-M "P M M M"
_symmetry_group_IT_number 47
_symmetry_cell_setting 'orthorhombic'
loop_
_space_group_symop_operation_xyz
x,y,z
-x,-y,z
x,-y,-z
-x,y,-z
-x,-y,-z
x,y,-z
-x,y,z
x,-y,z
loop_
_atom_site_type_symbol
_atom_site_label
_atom_site_fract_x
_atom_site_fract_y
_atom_site_fract_z
Si Si1 0.833130 0.500000 0.677495
Si Si2 0.333069 0.399116 0.322357
Si Si3 0.833486 0.701211 0.677088
Si Si4 0.175527 0.000000 0.332419
Si Si5 0.326529 0.196001 0.328109
Si Si6 0.829993 0.897273 0.824969
O O1 0.832837 0.500000 0.500000
O O2 0.750069 0.449565 0.738643
O O3 0.000000 0.500000 0.738748
O O4 0.332330 0.398785 0.500000
O O5 0.500000 0.399355 0.261489
O O6 0.250416 0.348754 0.259261
O O7 0.833733 0.699047 0.500000
O O8 0.750174 0.752244 0.732018
O O9 0.000000 0.701742 0.739900
O O10 0.233374 0.050836 0.249368
O O11 0.237833 0.000000 0.500000
O O12 0.000000 0.000000 0.329670
O O13 0.285250 0.185646 0.500000
O O14 0.500000 0.202638 0.306318
O O15 0.269368 0.149354 0.229745
O O16 0.000000 0.887286 0.778470
O O17 0.813951 0.903654 0.000000
#
# Coordination Sequence:
#
# PCOD8197393 Si02
#       6
#     4   8   8   4   8   8
#     4   9  15  21  29  43  67 103 148 193 236 287
#     4   9  15  22  32  48  73 106 145 190 240 292
#     4   9  16  26  41  60  82 111 150 196 243 291
#     4   9  17  31  54  81 106 133 166 204 244 287
#     4  10  20  33  49  70  96 127 164 205 248 295
#     4  10  20  34  53  77 104 133 165 202 245 293
#
# _framework density 18.935113999999999
#
# number of rings (size 3 to 8) (size 9 to 14) (size 15 to 20)
#    0.000    2.600    0.000    3.000    0.000    9.600 
#    0.000    0.500    0.000    3.000    0.000    0.000 
#    0.000    0.000    0.000    0.900    0.000   17.600 
#
# Total GULP energy -496036.251752 kJ/mol
# GULP energy per Si atom -12400.906294 kJ/mol
# Density = 1.889202 g / cm^3
# Si number density = 18.935114 Si / 1000 Ang^3
#
#
#
# Elastic Constant Matrix: (Units=GPa)
#
#
# Indices 1 2 3 4 5 6 
#
# 1 132.8188 81.8584 24.6478 0.0000 0.0000 0.0000
# 2 81.8584 193.4196 35.5731 0.0000 0.0000 0.0000
# 3 24.6478 35.5731 39.9445 0.0000 0.0000 0.0000
# 4 0.0000 0.0000 0.0000 -0.4039 0.0000 0.0000
# 5 0.0000 0.0000 0.0000 0.0000 13.3559 0.0000
# 6 0.0000 0.0000 0.0000 0.0000 0.0000 22.0558
#
#
#
# Elastic Compliance Matrix: (Units=1/GPa)
#
#
# Indices 1 2 3 4 5 6 
#
# 1 0.010480 -0.003882 -0.003010 0.000000 0.000000 0.000000
# 2 -0.003882 0.007621 -0.004391 0.000000 0.000000 0.000000
# 3 -0.003010 -0.004391 0.030803 0.000000 0.000000 0.000000
# 4 0.000000 0.000000 0.000000 -2.475791 0.000000 0.000000
# 5 0.000000 0.000000 0.000000 0.000000 0.074873 0.000000
# 6 0.000000 0.000000 0.000000 0.000000 0.000000 0.045340
#
#
# Mechanical properties :
#
#
# Convention : Reuss Voigt Hill
#
# Bulk Modulus (GPa) = 37.96864 72.26015 55.11439
# Shear Modulus (GPa) = -2.19748 21.94180 9.87216
#
# Velocity S-wave (km/s) = -1.07845 3.40779 2.28583
# Velocity P-wave (km/s) = 4.30636 7.33000 6.01139
#
# Compressibility (1/GPa) = 0.02633753
#
# Stress axis : x y z
#
# Youngs Moduli (GPa) = 95.42004 131.22369 32.46473
#
# Poissons Ratio (x) = 0.50938 0.09771
# Poissons Ratio (y) = 0.37040 0.14256
# Poissons Ratio (z) = 0.28719 0.57625
#
# Static dielectric constant tensor:
#      x y z
#    x 3.505170 0.000000 0.000000 
#    y 0.000000 3.699330 0.000000 
#    z 0.000000 0.000000 2.888480 
# 
# 
# High freq. dielectric constant tensor:
#      x y z
#    x 1.735490 0.000000 0.000000 
#    y 0.000000 1.756300 0.000000 
#    z 0.000000 0.000000 1.673250 
# 
# From -- ./inp_files/1886.got.cif
#   From: 2010.03.12/outbox.cif.g09.slc.cpg/sg47_1_cif.got.tgz:1886.got - 2010.04.14 03:12:58.
