data_PCOD8197962
_publ_section_title
;
Structure prediction by ZEFSAII (Michael W. Deem and Ramdas Pophale) SiO2 
 PCOD8197962
Probable space group: P M M M
;
_chemical_formula_sum "Si O2"
_cell_formula_units_Z 52
_cell_length_a 24.079057
_cell_length_b 13.947985
_cell_length_c 8.935463
_cell_angle_alpha 90.000000
_cell_angle_beta 90.000000
_cell_angle_gamma 90.000000
_cell_volume 3001.013902
_symmetry_space_group_name_H-M "P M M M"
_symmetry_group_IT_number 47
_symmetry_cell_setting 'orthorhombic'
loop_
_space_group_symop_operation_xyz
x,y,z
-x,-y,z
x,-y,-z
-x,y,-z
-x,-y,-z
x,y,-z
-x,y,z
x,-y,z
loop_
_atom_site_type_symbol
_atom_site_label
_atom_site_fract_x
_atom_site_fract_y
_atom_site_fract_z
Si Si1 0.330521 0.889962 0.825510
Si Si2 0.439285 0.113599 0.667989
Si Si3 0.500000 0.614267 0.670326
Si Si4 0.177439 0.607665 0.678863
Si Si5 0.058796 0.613981 0.332079
Si Si6 0.611564 0.386306 0.172456
Si Si7 0.714690 0.283160 0.677381
O O1 0.392283 0.851274 0.783441
O O2 0.286461 0.826547 0.734450
O O3 0.322495 0.000000 0.776175
O O4 0.321196 0.875846 0.000000
O O5 0.421999 0.144741 0.500000
O O6 0.500000 0.158165 0.708802
O O7 0.444239 0.000000 0.677210
O O8 0.500000 0.500000 0.679236
O O9 0.500000 0.650939 0.500000
O O10 0.555364 0.654257 0.750977
O O11 0.174516 0.607262 0.500000
O O12 0.188934 0.500000 0.737585
O O13 0.117496 0.647700 0.742300
O O14 0.227105 0.674388 0.736605
O O15 0.056074 0.654774 0.500000
O O16 0.061937 0.500000 0.337265
O O17 0.000000 0.645461 0.250930
O O18 0.614460 0.500000 0.189999
O O19 0.664702 0.343222 0.253627
O O20 0.611630 0.354681 0.000000
O O21 0.710327 0.288002 0.500000
#
# Coordination Sequence:
#
# PCOD8197962 Si02
#       7
#     8   8   4   8   8   8   8
#     4  10  21  36  51  66  87 115 148 189 237 286
#     4   8  14  27  48  70  88 105 128 164 215 276
#     4   9  17  31  51  71  90 115 150 191 235 279
#     4   8  14  24  39  63  95 127 157 188 221 260
#     4   7   9  15  30  54  87 126 159 182 210 254
#     4  10  20  34  51  70  94 122 152 189 231 274
#     4  11  21  32  48  69  93 122 156 193 231 275
#
# _framework density 17.327477999999999
#
# number of rings (size 3 to 8) (size 9 to 14) (size 15 to 20)
#    0.000    3.000    0.000    3.923    0.000    3.692 
#    1.385    1.538    0.000    0.000    0.000    0.000 
#    0.000    3.077    0.000   25.077    0.000   15.692 
#
# Total GULP energy -644261.602043 kJ/mol
# GULP energy per Si atom -12389.646193 kJ/mol
# Density = 1.728804 g / cm^3
# Si number density = 17.327478 Si / 1000 Ang^3
#
#
#
# Elastic Constant Matrix: (Units=GPa)
#
#
# Indices 1 2 3 4 5 6 
#
# 1 184.6235 55.3549 46.5006 0.0000 0.0000 0.0000
# 2 55.3549 41.9898 22.8305 0.0000 0.0000 0.0000
# 3 46.5006 22.8305 66.4079 0.0000 0.0000 0.0000
# 4 0.0000 0.0000 0.0000 19.2895 0.0000 0.0000
# 5 0.0000 0.0000 0.0000 0.0000 1.6298 0.0000
# 6 0.0000 0.0000 0.0000 0.0000 0.0000 15.0452
#
#
#
# Elastic Compliance Matrix: (Units=1/GPa)
#
#
# Indices 1 2 3 4 5 6 
#
# 1 0.009375 -0.010811 -0.002848 0.000000 0.000000 0.000000
# 2 -0.010811 0.041756 -0.006786 0.000000 0.000000 0.000000
# 3 -0.002848 -0.006786 0.019386 0.000000 0.000000 0.000000
# 4 0.000000 0.000000 0.000000 0.051842 0.000000 0.000000
# 5 0.000000 0.000000 0.000000 0.000000 0.613577 0.000000
# 6 0.000000 0.000000 0.000000 0.000000 0.000000 0.066466
#
#
# Mechanical properties :
#
#
# Convention : Reuss Voigt Hill
#
# Bulk Modulus (GPa) = 33.75142 60.26592 47.00867
# Shear Modulus (GPa) = 5.86052 18.41525 12.13788
#
# Velocity S-wave (km/s) = 1.84107 3.26356 2.64957
# Velocity P-wave (km/s) = 4.90309 7.00408 6.04555
#
# Compressibility (1/GPa) = 0.02962838
#
# Stress axis : x y z
#
# Youngs Moduli (GPa) = 106.66619 23.94854 51.58471
#
# Poissons Ratio (x) = 0.25890 0.14692
# Poissons Ratio (y) = 1.15312 0.35003
# Poissons Ratio (z) = 0.30379 0.16251
#
# Static dielectric constant tensor:
#      x y z
#    x 3.804650 0.000000 0.000000 
#    y 0.000000 3.094720 0.000000 
#    z 0.000000 0.000000 2.998540 
# 
# 
# High freq. dielectric constant tensor:
#      x y z
#    x 1.668930 0.000000 0.000000 
#    y 0.000000 1.642560 0.000000 
#    z 0.000000 0.000000 1.641940 
# 
# From -- ./inp_files/12515.got.cif
#   From: 2010.03.12/outbox.cif.g09.slc.cpg/sg47_7_cif.got.tgz:12515.got - 2010.04.14 03:12:58.
