data_PCOD8197806
_publ_section_title
;
Structure prediction by ZEFSAII (Michael W. Deem and Ramdas Pophale) SiO2 
 PCOD8197806
Probable space group: P M M M
;
_chemical_formula_sum "Si O2"
_cell_formula_units_Z 64
_cell_length_a 20.395018
_cell_length_b 9.281436
_cell_length_c 17.774732
_cell_angle_alpha 90.000000
_cell_angle_beta 90.000000
_cell_angle_gamma 90.000000
_cell_volume 3364.668859
_symmetry_space_group_name_H-M "P M M M"
_symmetry_group_IT_number 47
_symmetry_cell_setting 'orthorhombic'
loop_
_space_group_symop_operation_xyz
x,y,z
-x,-y,z
x,-y,-z
-x,y,-z
-x,-y,-z
x,y,-z
-x,y,z
x,-y,z
loop_
_atom_site_type_symbol
_atom_site_label
_atom_site_fract_x
_atom_site_fract_y
_atom_site_fract_z
Si Si1 0.075787 0.665454 0.163258
Si Si2 0.304989 0.337510 0.339475
Si Si3 0.572391 0.838308 0.660534
Si Si4 0.187530 0.833162 0.912258
Si Si5 0.572391 0.161692 0.839440
Si Si6 0.075790 0.665446 0.336670
Si Si7 0.304990 0.337511 0.839448
Si Si8 0.812493 0.833152 0.412253
O O1 0.094455 0.500000 0.146545
O O2 0.117243 0.768999 0.109932
O O3 0.090950 0.701666 0.249964
O O4 0.000000 0.693426 0.144778
O O5 0.300335 0.500000 0.370330
O O6 0.372072 0.267798 0.371878
O O7 0.305027 0.335459 0.250013
O O8 0.243479 0.247694 0.366884
O O9 0.500000 0.787630 0.633122
O O10 0.574370 0.837502 0.749987
O O11 0.586563 0.000000 0.631090
O O12 0.243475 0.752299 0.866853
O O13 0.189041 0.000000 0.889757
O O14 0.199421 0.810001 0.000000
O O15 0.500000 0.212370 0.866852
O O16 0.627929 0.267796 0.871852
O O17 0.586563 0.000000 0.868884
O O18 0.094479 0.500000 0.353381
O O19 0.117232 0.769018 0.389996
O O20 0.000000 0.693369 0.355149
O O21 0.300337 0.500000 0.870304
O O22 0.800662 0.809928 0.500000
O O23 0.810960 0.000000 0.389780
#
# Coordination Sequence:
#
# PCOD8197806 Si02
#       8
#     8   8   8   8   8   8   8   8
#     4   9  19  37  60  84 108 134 167 208 254 306
#     4  10  20  33  52  78 105 135 173 216 261 309
#     4   8  14  26  46  73 104 136 169 207 254 307
#     4  11  24  38  52  74 105 140 177 216 257 303
#     4   8  14  26  46  73 104 136 169 207 254 307
#     4   9  19  37  60  84 108 134 167 208 254 306
#     4  10  20  33  52  78 105 135 173 216 261 309
#     4  11  24  38  52  74 105 140 177 216 257 303
#
# _framework density 19.021190000000001
#
# number of rings (size 3 to 8) (size 9 to 14) (size 15 to 20)
#    0.000    2.500    0.000    3.750    0.000    8.500 
#    0.000    6.250    0.000    0.750    0.000    5.250 
#    0.000    0.000    0.000    0.000    0.000    0.000 
#
# Total GULP energy -793578.527616 kJ/mol
# GULP energy per Si atom -12399.664494 kJ/mol
# Density = 1.897790 g / cm^3
# Si number density = 19.021190 Si / 1000 Ang^3
#
#
#
# Elastic Constant Matrix: (Units=GPa)
#
#
# Indices 1 2 3 4 5 6 
#
# 1 120.8625 70.4033 17.1967 0.0000 0.0000 0.0000
# 2 70.4033 129.3680 25.2378 0.0000 0.0000 0.0000
# 3 17.1967 25.2378 17.3631 0.0000 0.0000 0.0000
# 4 0.0000 0.0000 0.0000 22.9091 0.0000 0.0000
# 5 0.0000 0.0000 0.0000 0.0000 -1.2232 0.0000
# 6 0.0000 0.0000 0.0000 0.0000 0.0000 43.2108
#
#
#
# Elastic Compliance Matrix: (Units=1/GPa)
#
#
# Indices 1 2 3 4 5 6 
#
# 1 0.012257 -0.006005 -0.003411 0.000000 0.000000 0.000000
# 2 -0.006005 0.013731 -0.014011 0.000000 0.000000 0.000000
# 3 -0.003411 -0.014011 0.081338 0.000000 0.000000 0.000000
# 4 0.000000 0.000000 0.000000 0.043651 0.000000 0.000000
# 5 0.000000 0.000000 0.000000 0.000000 -0.817537 0.000000
# 6 0.000000 0.000000 0.000000 0.000000 0.000000 0.023142
#
#
# Mechanical properties :
#
#
# Convention : Reuss Voigt Hill
#
# Bulk Modulus (GPa) = 16.53680 54.80768 35.67224
# Shear Modulus (GPa) = -8.67446 23.29640 7.31097
#
# Velocity S-wave (km/s) = -2.13783 3.50345 1.96263
# Velocity P-wave (km/s) = 1.61833 6.72623 4.89189
#
# Compressibility (1/GPa) = 0.06047120
#
# Stress axis : x y z
#
# Youngs Moduli (GPa) = 81.58485 72.82644 12.29436
#
# Poissons Ratio (x) = 0.43732 0.04194
# Poissons Ratio (y) = 0.48992 0.17226
# Poissons Ratio (z) = 0.27831 1.02040
#
# Static dielectric constant tensor:
#      x y z
#    x 3.715800 0.000000 0.000000 
#    y 0.000000 3.687140 0.000000 
#    z 0.000000 0.000000 3.095110 
# 
# 
# High freq. dielectric constant tensor:
#      x y z
#    x 1.756600 0.000000 0.000000 
#    y 0.000000 1.744250 0.000000 
#    z 0.000000 0.000000 1.700640 
# 
# From -- ./inp_files/28770.got.cif
#   From: 2010.03.12/outbox.cif.g09.slc.cpg/sg47_15_cif.got.tgz:28770.got - 2010.04.14 03:12:58.
