data_PCOD8197245
_publ_section_title
;
Structure prediction by ZEFSAII (Michael W. Deem and Ramdas Pophale) SiO2 
 PCOD8197245
Probable space group: P M M M
;
_chemical_formula_sum "Si O2"
_cell_formula_units_Z 64
_cell_length_a 23.768780
_cell_length_b 8.864959
_cell_length_c 15.011509
_cell_angle_alpha 90.000000
_cell_angle_beta 90.000000
_cell_angle_gamma 90.000000
_cell_volume 3163.063956
_symmetry_space_group_name_H-M "P M M M"
_symmetry_group_IT_number 47
_symmetry_cell_setting 'orthorhombic'
loop_
_space_group_symop_operation_xyz
x,y,z
-x,-y,z
x,-y,-z
-x,y,-z
-x,-y,-z
x,y,-z
-x,y,z
x,-y,z
loop_
_atom_site_type_symbol
_atom_site_label
_atom_site_fract_x
_atom_site_fract_y
_atom_site_fract_z
Si Si1 0.725364 0.322021 0.897073
Si Si2 0.887270 0.678597 0.403583
Si Si3 0.436798 0.325355 0.729811
Si Si4 0.565207 0.164981 0.904385
Si Si5 0.239942 0.326398 0.601992
Si Si6 0.157583 0.825920 0.103020
Si Si7 0.326807 0.176780 0.270155
Si Si8 0.935888 0.676569 0.220962
O O1 0.721390 0.500000 0.883176
O O2 0.787776 0.269182 0.868936
O O3 0.680905 0.241907 0.830733
O O4 0.713062 0.276079 0.000000
O O5 0.908091 0.743346 0.500000
O O6 0.887415 0.500000 0.410326
O O7 0.823600 0.731790 0.385286
O O8 0.926778 0.732769 0.322934
O O9 0.500000 0.267683 0.702775
O O10 0.431393 0.500000 0.706568
O O11 0.424946 0.298239 0.834409
O O12 0.385606 0.234679 0.683915
O O13 0.500000 0.144233 0.919554
O O14 0.588925 0.000000 0.871346
O O15 0.592927 0.209340 0.000000
O O16 0.259323 0.305188 0.500000
O O17 0.246279 0.500000 0.631274
O O18 0.276858 0.225509 0.666304
O O19 0.103499 0.770229 0.156205
O O20 0.169675 0.000000 0.125048
O O21 0.143365 0.800995 0.000000
O O22 0.328024 0.000000 0.264684
O O23 0.921375 0.500000 0.212229
O O24 0.000000 0.709688 0.194152
#
# Coordination Sequence:
#
# PCOD8197245 Si02
#       8
#     8   8   8   8   8   8   8   8
#     4  10  21  38  60  84 111 144 184 232 283 335
#     4   8  15  30  53  80 109 141 176 217 268 322
#     4  10  21  36  53  73 100 138 183 226 268 319
#     4   8  14  26  44  65  91 125 165 209 256 305
#     4   9  18  35  60  86 111 142 183 231 280 332
#     4  10  21  37  56  77 104 141 185 234 289 341
#     4  12  24  36  56  84 115 149 181 222 275 331
#     4  10  20  32  50  79 112 148 191 234 272 317
#
# _framework density 20.233546
#
# number of rings (size 3 to 8) (size 9 to 14) (size 15 to 20)
#    0.000    2.375    0.000    4.125    0.000    5.000 
#    0.000    3.750    0.000    1.500    0.000    3.500 
#    0.000    0.000    0.000    0.000    0.000    0.000 
#
# Total GULP energy -793140.145439 kJ/mol
# GULP energy per Si atom -12392.814772 kJ/mol
# Density = 2.018749 g / cm^3
# Si number density = 20.233546 Si / 1000 Ang^3
#
#
#
# Elastic Constant Matrix: (Units=GPa)
#
#
# Indices 1 2 3 4 5 6 
#
# 1 91.2711 35.3803 23.4731 0.0000 0.0000 0.0000
# 2 35.3803 84.4711 21.2066 0.0000 0.0000 0.0000
# 3 23.4731 21.2066 50.7297 0.0000 0.0000 0.0000
# 4 0.0000 0.0000 0.0000 13.4480 0.0000 0.0000
# 5 0.0000 0.0000 0.0000 0.0000 18.7757 0.0000
# 6 0.0000 0.0000 0.0000 0.0000 0.0000 14.7821
#
#
#
# Elastic Compliance Matrix: (Units=1/GPa)
#
#
# Indices 1 2 3 4 5 6 
#
# 1 0.013935 -0.004712 -0.004478 0.000000 0.000000 0.000000
# 2 -0.004712 0.014820 -0.004015 0.000000 0.000000 0.000000
# 3 -0.004478 -0.004015 0.023463 0.000000 0.000000 0.000000
# 4 0.000000 0.000000 0.000000 0.074361 0.000000 0.000000
# 5 0.000000 0.000000 0.000000 0.000000 0.053260 0.000000
# 6 0.000000 0.000000 0.000000 0.000000 0.000000 0.067649
#
#
# Mechanical properties :
#
#
# Convention : Reuss Voigt Hill
#
# Bulk Modulus (GPa) = 38.74858 42.95465 40.85162
# Shear Modulus (GPa) = 17.69912 19.16193 18.43052
#
# Velocity S-wave (km/s) = 2.96081 3.08074 3.02137
# Velocity P-wave (km/s) = 5.55705 5.82495 5.69258
#
# Compressibility (1/GPa) = 0.02580740
#
# Stress axis : x y z
#
# Youngs Moduli (GPa) = 71.76352 67.47630 42.62109
#
# Poissons Ratio (x) = 0.31797 0.19085
# Poissons Ratio (y) = 0.33817 0.17112
# Poissons Ratio (z) = 0.32134 0.27090
#
# Static dielectric constant tensor:
#      x y z
#    x 3.814190 0.000000 0.000000 
#    y 0.000000 3.432900 0.000000 
#    z 0.000000 0.000000 3.892180 
# 
# 
# High freq. dielectric constant tensor:
#      x y z
#    x 1.798280 0.000000 0.000000 
#    y 0.000000 1.770510 0.000000 
#    z 0.000000 0.000000 1.774240 
# 
# From -- ./inp_files/25551.got.cif
#   From: 2010.03.12/outbox.cif.g09.slc.cpg/sg47_13_cif.got.tgz:25551.got - 2010.04.14 03:12:58.
