data_PCOD8197363
_publ_section_title
;
Structure prediction by ZEFSAII (Michael W. Deem and Ramdas Pophale) SiO2 
 PCOD8197363
Probable space group: P M M M
;
_chemical_formula_sum "Si O2"
_cell_formula_units_Z 52
_cell_length_a 23.451229
_cell_length_b 9.398493
_cell_length_c 13.933341
_cell_angle_alpha 90.000000
_cell_angle_beta 90.000000
_cell_angle_gamma 90.000000
_cell_volume 3070.994905
_symmetry_space_group_name_H-M "P M M M"
_symmetry_group_IT_number 47
_symmetry_cell_setting 'orthorhombic'
loop_
_space_group_symop_operation_xyz
x,y,z
-x,-y,z
x,-y,-z
-x,y,-z
-x,-y,-z
x,y,-z
-x,y,z
x,-y,z
loop_
_atom_site_type_symbol
_atom_site_label
_atom_site_fract_x
_atom_site_fract_y
_atom_site_fract_z
Si Si1 0.062567 0.660287 0.114023
Si Si2 0.830902 0.833384 0.889885
Si Si3 0.608726 0.835292 0.889464
Si Si4 0.500000 0.663114 0.114579
Si Si5 0.562575 0.158700 0.613687
Si Si6 0.329770 0.334052 0.611980
Si Si7 0.721119 0.833758 0.771193
O O1 0.074092 0.500000 0.149314
O O2 0.112747 0.759843 0.154596
O O3 0.000000 0.711326 0.151186
O O4 0.062760 0.667364 0.000000
O O5 0.776544 0.783526 0.829227
O O6 0.840739 0.000000 0.881876
O O7 0.820338 0.787568 0.000000
O O8 0.556545 0.742932 0.846281
O O9 0.666165 0.795442 0.834263
O O10 0.592439 0.000000 0.876997
O O11 0.619889 0.797440 0.000000
O O12 0.500000 0.500000 0.150044
O O13 0.500000 0.673317 0.000000
O O14 0.560782 0.154652 0.500000
O O15 0.500000 0.205507 0.652287
O O16 0.609902 0.269796 0.648334
O O17 0.578088 0.000000 0.652365
O O18 0.318933 0.303551 0.500000
O O19 0.329974 0.500000 0.634972
O O20 0.280406 0.255512 0.672185
O O21 0.723948 0.000000 0.746327
#
# Coordination Sequence:
#
# PCOD8197363 Si02
#       7
#     8   8   8   4   8   8   8
#     4   8  14  25  41  63  94 132 168 194 218 256
#     4   9  17  29  46  70  99 127 157 195 232 264
#     4   9  17  31  50  68  87 114 148 184 223 270
#     4   9  17  29  45  65  88 113 144 185 229 268
#     4   8  14  27  48  69  85 104 133 171 219 277
#     4  10  21  35  49  66  89 116 147 187 234 280
#     4  10  20  33  49  69  91 119 154 190 229 276
#
# _framework density 16.932624000000001
#
# number of rings (size 3 to 8) (size 9 to 14) (size 15 to 20)
#    0.000    3.000    0.000    2.077    0.000    5.538 
#    1.385    3.077    0.000    4.615    0.000    0.000 
#    0.000    0.615    0.000    6.769    0.000    5.231 
#
# Total GULP energy -644635.077037 kJ/mol
# GULP energy per Si atom -12396.828405 kJ/mol
# Density = 1.689408 g / cm^3
# Si number density = 16.932624 Si / 1000 Ang^3
#
#
#
# Elastic Constant Matrix: (Units=GPa)
#
#
# Indices 1 2 3 4 5 6 
#
# 1 148.3681 70.7297 47.3678 0.0000 0.0000 0.0000
# 2 70.7297 80.4097 33.7331 0.0000 0.0000 0.0000
# 3 47.3678 33.7331 51.1767 0.0000 0.0000 0.0000
# 4 0.0000 0.0000 0.0000 17.7397 0.0000 0.0000
# 5 0.0000 0.0000 0.0000 0.0000 12.4629 0.0000
# 6 0.0000 0.0000 0.0000 0.0000 0.0000 21.2303
#
#
#
# Elastic Compliance Matrix: (Units=1/GPa)
#
#
# Indices 1 2 3 4 5 6 
#
# 1 0.012871 -0.008741 -0.006151 0.000000 0.000000 0.000000
# 2 -0.008741 0.023126 -0.007153 0.000000 0.000000 0.000000
# 3 -0.006151 -0.007153 0.029949 0.000000 0.000000 0.000000
# 4 0.000000 0.000000 0.000000 0.056371 0.000000 0.000000
# 5 0.000000 0.000000 0.000000 0.000000 0.080238 0.000000
# 6 0.000000 0.000000 0.000000 0.000000 0.000000 0.047103
#
#
# Mechanical properties :
#
#
# Convention : Reuss Voigt Hill
#
# Bulk Modulus (GPa) = 45.75680 64.84619 55.30150
# Shear Modulus (GPa) = 16.60956 18.82818 17.71887
#
# Velocity S-wave (km/s) = 3.13536 3.33820 3.23837
# Velocity P-wave (km/s) = 6.33947 7.29643 6.83472
#
# Compressibility (1/GPa) = 0.02185467
#
# Stress axis : x y z
#
# Youngs Moduli (GPa) = 77.69578 43.24220 33.39050
#
# Poissons Ratio (x) = 0.37797 0.20540
# Poissons Ratio (y) = 0.67911 0.23884
# Poissons Ratio (z) = 0.47794 0.30931
#
# Static dielectric constant tensor:
#      x y z
#    x 3.382770 0.000000 0.000000 
#    y 0.000000 3.170370 0.000000 
#    z 0.000000 0.000000 2.972590 
# 
# 
# High freq. dielectric constant tensor:
#      x y z
#    x 1.641320 0.000000 0.000000 
#    y 0.000000 1.649160 0.000000 
#    z 0.000000 0.000000 1.625290 
# 
# From -- ./inp_files/6957.got.cif
#   From: 2010.03.12/outbox.cif.g09.slc.cpg/sg47_4_cif.got.tgz:6957.got - 2010.04.14 03:12:58.
