data_PCOD8197915
_publ_section_title
;
Structure prediction by ZEFSAII (Michael W. Deem and Ramdas Pophale) SiO2 
 PCOD8197915
Probable space group: P M M M
;
_chemical_formula_sum "Si O2"
_cell_formula_units_Z 32
_cell_length_a 7.956464
_cell_length_b 21.964801
_cell_length_c 9.612414
_cell_angle_alpha 90.000000
_cell_angle_beta 90.000000
_cell_angle_gamma 90.000000
_cell_volume 1679.886122
_symmetry_space_group_name_H-M "P M M M"
_symmetry_group_IT_number 47
_symmetry_cell_setting 'orthorhombic'
loop_
_space_group_symop_operation_xyz
x,y,z
-x,-y,z
x,-y,-z
-x,y,-z
-x,-y,-z
x,y,-z
-x,y,z
x,-y,z
loop_
_atom_site_type_symbol
_atom_site_label
_atom_site_fract_x
_atom_site_fract_y
_atom_site_fract_z
Si Si1 0.811778 0.148233 0.660904
Si Si2 0.195705 0.500000 0.653331
Si Si3 0.698211 0.608151 0.847248
Si Si4 0.500000 0.067978 0.334937
Si Si5 0.694078 0.744159 0.838202
O O1 0.776756 0.163461 0.500000
O O2 0.669691 0.101664 0.717410
O O3 0.804351 0.210617 0.746378
O O4 0.000000 0.120360 0.679796
O O5 0.280618 0.500000 0.500000
O O6 0.247204 0.439426 0.732640
O O7 0.000000 0.500000 0.635591
O O8 0.500000 0.609488 0.858217
O O9 0.760073 0.675794 0.806514
O O10 0.770755 0.589937 0.000000
O O11 0.500000 0.064405 0.500000
O O12 0.500000 0.000000 0.271284
O O13 0.500000 0.751319 0.795001
O O14 0.719069 0.759719 0.000000
#
# Coordination Sequence:
#
# PCOD8197915 Si02
#       5
#     8   4   8   4   8
#     4  10  20  33  53  82 112 143 181 224 270 320
#     4  11  24  37  48  70 106 141 174 217 268 320
#     4   9  19  36  57  78  99 130 176 222 263 316
#     4   9  18  34  55  79 111 148 183 222 267 315
#     4   9  18  34  56  80 106 138 176 220 271 324
#
# _framework density 19.048909999999999
#
# number of rings (size 3 to 8) (size 9 to 14) (size 15 to 20)
#    0.000    2.500    1.250    2.250    0.000    6.000 
#    0.000   10.000    0.000    1.500    0.000    1.750 
#    0.000    0.000    0.000    0.000    0.000    0.000 
#
# Total GULP energy -396690.567777 kJ/mol
# GULP energy per Si atom -12396.580243 kJ/mol
# Density = 1.900555 g / cm^3
# Si number density = 19.048910 Si / 1000 Ang^3
#
#
#
# Elastic Constant Matrix: (Units=GPa)
#
#
# Indices 1 2 3 4 5 6 
#
# 1 91.0372 54.5828 31.8525 0.0000 0.0000 0.0000
# 2 54.5828 144.5258 67.7745 0.0000 0.0000 0.0000
# 3 31.8525 67.7745 83.4462 0.0000 0.0000 0.0000
# 4 0.0000 0.0000 0.0000 402.4595 0.0000 0.0000
# 5 0.0000 0.0000 0.0000 0.0000 6.3499 0.0000
# 6 0.0000 0.0000 0.0000 0.0000 0.0000 10.3843
#
#
#
# Elastic Compliance Matrix: (Units=1/GPa)
#
#
# Indices 1 2 3 4 5 6 
#
# 1 0.014354 -0.004606 -0.001738 0.000000 0.000000 0.000000
# 2 -0.004606 0.012654 -0.008519 0.000000 0.000000 0.000000
# 3 -0.001738 -0.008519 0.019566 0.000000 0.000000 0.000000
# 4 0.000000 0.000000 0.000000 0.002485 0.000000 0.000000
# 5 0.000000 0.000000 0.000000 0.000000 0.157483 0.000000
# 6 0.000000 0.000000 0.000000 0.000000 0.000000 0.096299
#
#
# Mechanical properties :
#
#
# Convention : Reuss Voigt Hill
#
# Bulk Modulus (GPa) = 59.35513 69.71430 64.53471
# Shear Modulus (GPa) = 14.78484 94.82536 54.80510
#
# Velocity S-wave (km/s) = 2.78897 7.06314 5.36965
# Velocity P-wave (km/s) = 6.44966 10.15846 8.50860
#
# Compressibility (1/GPa) = 0.01684774
#
# Stress axis : x y z
#
# Youngs Moduli (GPa) = 69.66542 79.02829 51.10793
#
# Poissons Ratio (x) = 0.36401 0.08884
# Poissons Ratio (y) = 0.32088 0.43539
# Poissons Ratio (z) = 0.12110 0.67325
#
# Static dielectric constant tensor:
#      x y z
#    x 3.491450 0.000000 0.000000 
#    y 0.000000 3.439860 0.000000 
#    z 0.000000 0.000000 2.727530 
# 
# 
# High freq. dielectric constant tensor:
#      x y z
#    x 1.740580 0.000000 0.000000 
#    y 0.000000 1.736640 0.000000 
#    z 0.000000 0.000000 1.723230 
# 
# From -- ./inp_files/1324.got.cif
#   From: 2010.03.12/outbox.cif.g09.slc.cpg/sg47_1_cif.got.tgz:1324.got - 2010.04.14 03:12:58.
