data_PCOD8197567
_publ_section_title
;
Structure prediction by ZEFSAII (Michael W. Deem and Ramdas Pophale) SiO2 
 PCOD8197567
Probable space group: P M M M
;
_chemical_formula_sum "Si O2"
_cell_formula_units_Z 48
_cell_length_a 9.301834
_cell_length_b 30.959902
_cell_length_c 9.377794
_cell_angle_alpha 90.000000
_cell_angle_beta 90.000000
_cell_angle_gamma 90.000000
_cell_volume 2700.653399
_symmetry_space_group_name_H-M "P M M M"
_symmetry_group_IT_number 47
_symmetry_cell_setting 'orthorhombic'
loop_
_space_group_symop_operation_xyz
x,y,z
-x,-y,z
x,-y,-z
-x,y,-z
-x,-y,-z
x,y,-z
-x,y,z
x,-y,z
loop_
_atom_site_type_symbol
_atom_site_label
_atom_site_fract_x
_atom_site_fract_y
_atom_site_fract_z
Si Si1 0.162949 0.500000 0.169450
Si Si2 0.667870 0.166461 0.664443
Si Si3 0.158739 0.752525 0.669299
Si Si4 0.167374 0.656085 0.333356
Si Si5 0.162449 0.000000 0.169613
Si Si6 0.333200 0.583730 0.167979
Si Si7 0.666885 0.916862 0.166552
O O1 0.246955 0.542065 0.225436
O O2 0.000000 0.500000 0.229860
O O3 0.161545 0.500000 0.000000
O O4 0.710011 0.159337 0.500000
O O5 0.500000 0.172325 0.685701
O O6 0.737867 0.210011 0.728493
O O7 0.724411 0.125311 0.751834
O O8 0.155267 0.753743 0.500000
O O9 0.209794 0.704717 0.715185
O O10 0.000000 0.761534 0.730586
O O11 0.197604 0.648985 0.500000
O O12 0.269927 0.625451 0.243959
O O13 0.000000 0.646986 0.299085
O O14 0.244125 0.042436 0.226047
O O15 0.000000 0.000000 0.228457
O O16 0.165631 0.000000 0.000000
O O17 0.500000 0.578001 0.207831
O O18 0.312137 0.589507 0.000000
O O19 0.500000 0.925738 0.199474
O O20 0.693740 0.909376 0.000000
#
# Coordination Sequence:
#
# PCOD8197567 Si02
#       7
#     4   8   8   8   4   8   8
#     4   9  17  31  52  73  94 127 166 198 234 285
#     4   9  17  29  46  68  91 116 149 186 222 264
#     4   8  15  29  48  68  91 121 155 189 227 273
#     4   9  18  33  52  73  97 127 164 202 239 283
#     4   9  17  29  46  67  88 112 146 185 220 260
#     4  10  20  33  50  74 102 129 159 198 242 286
#     4   9  17  30  47  65  87 117 149 180 219 267
#
# _framework density 17.773475999999999
#
# number of rings (size 3 to 8) (size 9 to 14) (size 15 to 20)
#    0.000    3.000    0.000    2.000    0.000    4.667 
#    0.000    3.333    0.000    8.000    0.000    0.000 
#    0.000    0.000    0.000    0.000    0.000    0.000 
#
# Total GULP energy -595093.767229 kJ/mol
# GULP energy per Si atom -12397.786817 kJ/mol
# Density = 1.773302 g / cm^3
# Si number density = 17.773476 Si / 1000 Ang^3
#
#
#
# Elastic Constant Matrix: (Units=GPa)
#
#
# Indices 1 2 3 4 5 6 
#
# 1 108.2506 93.1765 35.0269 0.0000 0.0000 0.0000
# 2 93.1765 186.1128 44.3275 0.0000 0.0000 0.0000
# 3 35.0269 44.3275 30.0605 0.0000 0.0000 0.0000
# 4 0.0000 0.0000 0.0000 33.2101 0.0000 0.0000
# 5 0.0000 0.0000 0.0000 0.0000 19.8177 0.0000
# 6 0.0000 0.0000 0.0000 0.0000 0.0000 39.5950
#
#
#
# Elastic Compliance Matrix: (Units=1/GPa)
#
#
# Indices 1 2 3 4 5 6 
#
# 1 0.018813 -0.006470 -0.012380 0.000000 0.000000 0.000000
# 2 -0.006470 0.010507 -0.007955 0.000000 0.000000 0.000000
# 3 -0.012380 -0.007955 0.059422 0.000000 0.000000 0.000000
# 4 0.000000 0.000000 0.000000 0.030111 0.000000 0.000000
# 5 0.000000 0.000000 0.000000 0.000000 0.050460 0.000000
# 6 0.000000 0.000000 0.000000 0.000000 0.000000 0.025256
#
#
# Mechanical properties :
#
#
# Convention : Reuss Voigt Hill
#
# Bulk Modulus (GPa) = 28.46421 74.38732 51.42576
# Shear Modulus (GPa) = 19.23900 28.65077 23.94489
#
# Velocity S-wave (km/s) = 3.29364 4.01932 3.67444
# Velocity P-wave (km/s) = 5.52393 7.96767 6.85557
#
# Compressibility (1/GPa) = 0.03513184
#
# Stress axis : x y z
#
# Youngs Moduli (GPa) = 53.15597 95.17693 16.82873
#
# Poissons Ratio (x) = 0.61577 0.20835
# Poissons Ratio (y) = 0.34390 0.13387
# Poissons Ratio (z) = 0.65809 0.75711
#
# Static dielectric constant tensor:
#      x y z
#    x 3.389320 0.000000 0.000000 
#    y 0.000000 3.585570 0.000000 
#    z 0.000000 0.000000 2.911120 
# 
# 
# High freq. dielectric constant tensor:
#      x y z
#    x 1.688320 0.000000 0.000000 
#    y 0.000000 1.703420 0.000000 
#    z 0.000000 0.000000 1.644310 
# 
# From -- ./inp_files/2676.got.cif
#   From: 2010.03.12/outbox.cif.g09.slc.cpg/sg47_2_cif.got.tgz:2676.got - 2010.04.14 03:12:58.
