data_PCOD8197913
_publ_section_title
;
Structure prediction by ZEFSAII (Michael W. Deem and Ramdas Pophale) SiO2 
 PCOD8197913
Probable space group: P M M M
;
_chemical_formula_sum "Si O2"
_cell_formula_units_Z 48
_cell_length_a 9.565408
_cell_length_b 8.099557
_cell_length_c 32.284266
_cell_angle_alpha 90.000000
_cell_angle_beta 90.000000
_cell_angle_gamma 90.000000
_cell_volume 2501.241824
_symmetry_space_group_name_H-M "P M M M"
_symmetry_group_IT_number 47
_symmetry_cell_setting 'orthorhombic'
loop_
_space_group_symop_operation_xyz
x,y,z
-x,-y,z
x,-y,-z
-x,y,-z
-x,-y,-z
x,y,-z
-x,y,z
x,-y,z
loop_
_atom_site_type_symbol
_atom_site_label
_atom_site_fract_x
_atom_site_fract_y
_atom_site_fract_z
Si Si1 0.839950 0.305241 0.500000
Si Si2 0.164422 0.190386 0.827002
Si Si3 0.665700 0.000000 0.953715
Si Si4 0.342237 0.309505 0.664370
Si Si5 0.337378 0.686204 0.099343
Si Si6 0.151139 0.191362 0.736102
Si Si7 0.342006 0.806762 0.423570
O O1 0.832979 0.500000 0.500000
O O2 0.762843 0.237637 0.459872
O O3 0.000000 0.242213 0.500000
O O4 0.251565 0.302621 0.858252
O O5 0.202526 0.258563 0.780766
O O6 0.000000 0.212037 0.835395
O O7 0.209775 0.000000 0.832923
O O8 0.717335 0.169302 0.931509
O O9 0.500000 0.000000 0.955761
O O10 0.729186 0.000000 0.000000
O O11 0.500000 0.242026 0.665805
O O12 0.333138 0.500000 0.675088
O O13 0.258017 0.215228 0.699166
O O14 0.283199 0.276743 0.618315
O O15 0.500000 0.715160 0.109320
O O16 0.314648 0.500000 0.080848
O O17 0.000000 0.270804 0.724284
O O18 0.128276 0.000000 0.743492
O O19 0.500000 0.743782 0.433910
O O20 0.343218 0.000000 0.416483
#
# Coordination Sequence:
#
# PCOD8197913 Si02
#       7
#     4   8   4   8   8   8   8
#     4  11  24  39  56  82 112 139 170 209 258 314
#     4   9  18  34  55  77 105 144 186 226 272 326
#     4   9  18  34  55  79 111 147 181 225 281 332
#     4  10  21  36  54  78 108 141 177 218 265 316
#     4  10  20  33  53  82 111 141 182 228 275 330
#     4   9  19  35  54  77 105 140 182 222 263 316
#     4  10  21  38  60  82 104 135 176 217 260 313
#
# _framework density 19.190466000000001
#
# number of rings (size 3 to 8) (size 9 to 14) (size 15 to 20)
#    0.000    2.333    0.833    2.500    0.000    6.667 
#    0.000    6.667    0.000    1.000    0.000    1.167 
#    0.000    0.000    0.000    0.000    0.000    0.000 
#
# Total GULP energy -595027.710685 kJ/mol
# GULP energy per Si atom -12396.410639 kJ/mol
# Density = 1.914679 g / cm^3
# Si number density = 19.190466 Si / 1000 Ang^3
#
#
#
# Elastic Constant Matrix: (Units=GPa)
#
#
# Indices 1 2 3 4 5 6 
#
# 1 65.7028 24.6233 56.2978 0.0000 0.0000 0.0000
# 2 24.6233 74.6970 34.8504 0.0000 0.0000 0.0000
# 3 56.2978 34.8504 141.6948 0.0000 0.0000 0.0000
# 4 0.0000 0.0000 0.0000 17.8068 0.0000 0.0000
# 5 0.0000 0.0000 0.0000 0.0000 -388.1684 0.0000
# 6 0.0000 0.0000 0.0000 0.0000 0.0000 21.8072
#
#
#
# Elastic Compliance Matrix: (Units=1/GPa)
#
#
# Indices 1 2 3 4 5 6 
#
# 1 0.024051 -0.003920 -0.008592 0.000000 0.000000 0.000000
# 2 -0.003920 0.015762 -0.002319 0.000000 0.000000 0.000000
# 3 -0.008592 -0.002319 0.011042 0.000000 0.000000 0.000000
# 4 0.000000 0.000000 0.000000 0.056158 0.000000 0.000000
# 5 0.000000 0.000000 0.000000 0.000000 -0.002576 0.000000
# 6 0.000000 0.000000 0.000000 0.000000 0.000000 0.045856
#
#
# Mechanical properties :
#
#
# Convention : Reuss Voigt Hill
#
# Bulk Modulus (GPa) = 47.18628 57.07083 52.12856
# Shear Modulus (GPa) = 26.73537 -58.62268 -15.94365
#
# Velocity S-wave (km/s) = 3.73655 -5.53300 -2.88551
# Velocity P-wave (km/s) = 6.57705 3.31890 4.01512
#
# Compressibility (1/GPa) = 0.02119260
#
# Stress axis : x y z
#
# Youngs Moduli (GPa) = 41.57840 63.44546 90.56713
#
# Poissons Ratio (x) = 0.24868 0.77814
# Poissons Ratio (y) = 0.16297 0.21005
# Poissons Ratio (z) = 0.35723 0.14715
#
# Static dielectric constant tensor:
#      x y z
#    x 3.421370 0.000000 0.000000 
#    y 0.000000 3.515420 0.000000 
#    z 0.000000 0.000000 3.556300 
# 
# 
# High freq. dielectric constant tensor:
#      x y z
#    x 1.729160 0.000000 0.000000 
#    y 0.000000 1.748510 0.000000 
#    z 0.000000 0.000000 1.748620 
# 
# From -- ./inp_files/34102.got.cif
#   From: 2010.03.12/outbox.cif.g09.slc.cpg/sg47_18_cif.got.tgz:34102.got - 2010.04.14 03:12:58.
