data_PCOD8197733
_publ_section_title
;
Structure prediction by ZEFSAII (Michael W. Deem and Ramdas Pophale) SiO2 
 PCOD8197733
Probable space group: P M M M
;
_chemical_formula_sum "Si O2"
_cell_formula_units_Z 48
_cell_length_a 30.328375
_cell_length_b 9.033000
_cell_length_c 9.443462
_cell_angle_alpha 90.000000
_cell_angle_beta 90.000000
_cell_angle_gamma 90.000000
_cell_volume 2587.095072
_symmetry_space_group_name_H-M "P M M M"
_symmetry_group_IT_number 47
_symmetry_cell_setting 'orthorhombic'
loop_
_space_group_symop_operation_xyz
x,y,z
-x,-y,z
x,-y,-z
-x,y,-z
-x,-y,-z
x,y,-z
-x,y,z
x,-y,z
loop_
_atom_site_type_symbol
_atom_site_label
_atom_site_fract_x
_atom_site_fract_y
_atom_site_fract_z
Si Si1 0.739030 0.332138 0.834970
Si Si2 0.840202 0.330891 0.164230
Si Si3 0.000000 0.667295 0.331537
Si Si4 0.500000 0.174247 0.165730
Si Si5 0.577011 0.673805 0.664002
Si Si6 0.333259 0.830178 0.336598
Si Si7 0.913193 0.827400 0.336740
O O1 0.728556 0.500000 0.787031
O O2 0.789591 0.293460 0.801127
O O3 0.709133 0.217501 0.751315
O O4 0.729239 0.313609 0.000000
O O5 0.850803 0.500000 0.205917
O O6 0.869847 0.221083 0.254229
O O7 0.850086 0.304305 0.000000
O O8 0.043794 0.746549 0.272644
O O9 0.000000 0.500000 0.275863
O O10 0.000000 0.677355 0.500000
O O11 0.542939 0.243095 0.236586
O O12 0.500000 0.000000 0.192716
O O13 0.500000 0.213013 0.000000
O O14 0.566674 0.711148 0.500000
O O15 0.573844 0.500000 0.692782
O O16 0.625350 0.729617 0.707008
O O17 0.321436 0.807400 0.500000
O O18 0.344882 0.000000 0.302521
O O19 0.906277 0.784435 0.500000
O O20 0.920867 0.000000 0.316448
#
# Coordination Sequence:
#
# PCOD8197733 Si02
#       7
#     8   8   4   4   8   8   8
#     4   9  19  36  56  77 103 138 178 218 262 311
#     4   9  19  36  55  75 102 137 177 218 259 307
#     4   9  17  31  52  75 100 133 172 212 256 307
#     4  11  24  39  56  82 114 145 178 217 262 312
#     4  10  21  38  60  83 107 140 181 220 262 313
#     4  10  21  36  55  81 111 141 175 217 264 313
#     4  10  20  33  51  77 107 136 168 210 260 312
#
# _framework density 18.553628
#
# number of rings (size 3 to 8) (size 9 to 14) (size 15 to 20)
#    0.000    2.333    0.000    3.250    0.000    8.333 
#    0.000    5.417    0.000    2.500    0.000    0.000 
#    0.000    0.000    0.000    0.000    0.000    0.000 
#
# Total GULP energy -595350.412588 kJ/mol
# GULP energy per Si atom -12403.133596 kJ/mol
# Density = 1.851140 g / cm^3
# Si number density = 18.553628 Si / 1000 Ang^3
#
#
#
# Elastic Constant Matrix: (Units=GPa)
#
#
# Indices 1 2 3 4 5 6 
#
# 1 123.3426 62.9418 63.1241 0.0000 0.0000 0.0000
# 2 62.9418 98.7184 52.0442 0.0000 0.0000 0.0000
# 3 63.1241 52.0442 67.3786 0.0000 0.0000 0.0000
# 4 0.0000 0.0000 0.0000 31.6887 0.0000 0.0000
# 5 0.0000 0.0000 0.0000 0.0000 615.1235 0.0000
# 6 0.0000 0.0000 0.0000 0.0000 0.0000 27.8770
#
#
#
# Elastic Compliance Matrix: (Units=1/GPa)
#
#
# Indices 1 2 3 4 5 6 
#
# 1 0.016456 -0.003989 -0.012336 0.000000 0.000000 0.000000
# 2 -0.003989 0.018055 -0.010209 0.000000 0.000000 0.000000
# 3 -0.012336 -0.010209 0.034285 0.000000 0.000000 0.000000
# 4 0.000000 0.000000 0.000000 0.031557 0.000000 0.000000
# 5 0.000000 0.000000 0.000000 0.000000 0.001626 0.000000
# 6 0.000000 0.000000 0.000000 0.000000 0.000000 0.035872
#
#
# Mechanical properties :
#
#
# Convention : Reuss Voigt Hill
#
# Bulk Modulus (GPa) = 63.58224 71.73998 67.66111
# Shear Modulus (GPa) = 25.48906 142.35982 83.92444
#
# Velocity S-wave (km/s) = 3.71051 8.76900 6.73288
# Velocity P-wave (km/s) = 7.25954 11.88602 9.84831
#
# Compressibility (1/GPa) = 0.01572766
#
# Stress axis : x y z
#
# Youngs Moduli (GPa) = 60.76651 55.38522 29.16743
#
# Poissons Ratio (x) = 0.22092 0.35982
# Poissons Ratio (y) = 0.24238 0.29778
# Poissons Ratio (z) = 0.74964 0.56545
#
# Static dielectric constant tensor:
#      x y z
#    x 3.457220 0.000000 0.000000 
#    y 0.000000 3.446530 0.000000 
#    z 0.000000 0.000000 3.245650 
# 
# 
# High freq. dielectric constant tensor:
#      x y z
#    x 1.730730 0.000000 0.000000 
#    y 0.000000 1.728970 0.000000 
#    z 0.000000 0.000000 1.704100 
# 
# From -- ./inp_files/13842.got.cif
#   From: 2010.03.12/outbox.cif.g09.slc.cpg/sg47_7_cif.got.tgz:13842.got - 2010.04.14 03:12:58.
