data_PCOD8197425
_publ_section_title
;
Structure prediction by ZEFSAII (Michael W. Deem and Ramdas Pophale) SiO2 
 PCOD8197425
Probable space group: P M M M
;
_chemical_formula_sum "Si O2"
_cell_formula_units_Z 48
_cell_length_a 8.253536
_cell_length_b 9.036878
_cell_length_c 32.775918
_cell_angle_alpha 90.000000
_cell_angle_beta 90.000000
_cell_angle_gamma 90.000000
_cell_volume 2444.631106
_symmetry_space_group_name_H-M "P M M M"
_symmetry_group_IT_number 47
_symmetry_cell_setting 'orthorhombic'
loop_
_space_group_symop_operation_xyz
x,y,z
-x,-y,z
x,-y,-z
-x,y,-z
-x,-y,-z
x,y,-z
-x,y,z
x,-y,z
loop_
_atom_site_type_symbol
_atom_site_label
_atom_site_fract_x
_atom_site_fract_y
_atom_site_fract_z
Si Si1 0.310969 0.166466 0.500000
Si Si2 0.189839 0.668948 0.744586
Si Si3 0.000000 0.324448 0.045777
Si Si4 0.688239 0.835473 0.667115
Si Si5 0.684076 0.326450 0.095874
Si Si6 0.810788 0.832048 0.416899
Si Si7 0.187063 0.825700 0.826702
O O1 0.500000 0.161727 0.500000
O O2 0.253575 0.248130 0.458257
O O3 0.235599 0.000000 0.500000
O O4 0.242427 0.500000 0.751337
O O5 0.274164 0.730137 0.704594
O O6 0.247860 0.761829 0.783691
O O7 0.000000 0.685649 0.738306
O O8 0.831438 0.268863 0.066775
O O9 0.000000 0.500000 0.045032
O O10 0.000000 0.259853 0.000000
O O11 0.500000 0.853821 0.662928
O O12 0.751739 0.757740 0.625352
O O13 0.767090 0.000000 0.673410
O O14 0.500000 0.294727 0.078564
O O15 0.706227 0.500000 0.103435
O O16 0.700421 0.243437 0.138626
O O17 0.000000 0.824714 0.418250
O O18 0.743121 0.000000 0.416373
O O19 0.000000 0.781370 0.834876
O O20 0.211339 0.000000 0.826148
#
# Coordination Sequence:
#
# PCOD8197425 Si02
#       7
#     4   8   4   8   8   8   8
#     4   9  15  23  37  61  94 127 160 201 252 307
#     4  10  21  36  55  78 104 137 177 220 266 318
#     4   9  18  34  57  85 119 155 191 237 285 328
#     4  10  20  33  49  71 101 136 173 215 264 315
#     4  10  20  34  56  85 116 152 192 234 282 333
#     4   9  16  26  42  64  92 127 166 208 254 306
#     4  10  20  35  57  82 109 144 184 227 277 330
#
# _framework density 19.634865000000001
#
# number of rings (size 3 to 8) (size 9 to 14) (size 15 to 20)
#    0.000    2.333    0.833    2.250    0.000    7.000 
#    0.000    1.667    0.000    1.000    0.000    1.750 
#    0.000    4.667    0.000    0.000    0.000    0.000 
#
# Total GULP energy -594953.590288 kJ/mol
# GULP energy per Si atom -12394.866464 kJ/mol
# Density = 1.959018 g / cm^3
# Si number density = 19.634865 Si / 1000 Ang^3
#
#
#
# Elastic Constant Matrix: (Units=GPa)
#
#
# Indices 1 2 3 4 5 6 
#
# 1 97.8413 37.7607 77.2020 0.0000 0.0000 0.0000
# 2 37.7607 16.0615 1.0660 0.0000 0.0000 0.0000
# 3 77.2020 1.0660 133.6620 0.0000 0.0000 0.0000
# 4 0.0000 0.0000 0.0000 2155.4432 0.0000 0.0000
# 5 0.0000 0.0000 0.0000 0.0000 24.9737 0.0000
# 6 0.0000 0.0000 0.0000 0.0000 0.0000 17.6970
#
#
#
# Elastic Compliance Matrix: (Units=1/GPa)
#
#
# Indices 1 2 3 4 5 6 
#
# 1 -0.030581 0.070762 0.017099 0.000000 0.000000 0.000000
# 2 0.070762 -0.101443 -0.040063 0.000000 0.000000 0.000000
# 3 0.017099 -0.040063 -0.002075 0.000000 0.000000 0.000000
# 4 0.000000 0.000000 0.000000 0.000464 0.000000 0.000000
# 5 0.000000 0.000000 0.000000 0.000000 0.040042 0.000000
# 6 0.000000 0.000000 0.000000 0.000000 0.000000 0.056507
#
#
# Mechanical properties :
#
#
# Convention : Reuss Voigt Hill
#
# Bulk Modulus (GPa) = -25.97276 53.29135 13.65930
# Shear Modulus (GPa) = -34.35998 448.39187 207.01594
#
# Velocity S-wave (km/s) = -4.18778 15.12815 10.27919
# Velocity P-wave (km/s) = 6.05309 18.23041 12.15953
#
# Compressibility (1/GPa) = -0.03850188
#
# Stress axis : x y z
#
# Youngs Moduli (GPa) = -32.69964 -9.85777 -481.86246
#
# Poissons Ratio (x) = 0.69756 8.23946
# Poissons Ratio (y) = 2.31390 -19.30465
# Poissons Ratio (z) = 0.55914 -0.39493
#
# Static dielectric constant tensor:
#      x y z
#    x 3.586540 0.000000 0.000000 
#    y 0.000000 3.240810 0.000000 
#    z 0.000000 0.000000 3.792100 
# 
# 
# High freq. dielectric constant tensor:
#      x y z
#    x 1.769020 0.000000 0.000000 
#    y 0.000000 1.713460 0.000000 
#    z 0.000000 0.000000 1.778450 
# 
# From -- ./inp_files/13965.got.cif
#   From: 2010.03.12/outbox.cif.g09.slc.cpg/sg47_7_cif.got.tgz:13965.got - 2010.04.14 03:12:58.
