data_PCOD8197594
_publ_section_title
;
Structure prediction by ZEFSAII (Michael W. Deem and Ramdas Pophale) SiO2 
 PCOD8197594
Probable space group: P M M M
;
_chemical_formula_sum "Si O2"
_cell_formula_units_Z 64
_cell_length_a 18.643431
_cell_length_b 18.866816
_cell_length_c 10.079808
_cell_angle_alpha 90.000000
_cell_angle_beta 90.000000
_cell_angle_gamma 90.000000
_cell_volume 3545.493663
_symmetry_space_group_name_H-M "P M M M"
_symmetry_group_IT_number 47
_symmetry_cell_setting 'orthorhombic'
loop_
_space_group_symop_operation_xyz
x,y,z
-x,-y,z
x,-y,-z
-x,y,-z
-x,-y,-z
x,y,-z
-x,y,z
x,-y,z
loop_
_atom_site_type_symbol
_atom_site_label
_atom_site_fract_x
_atom_site_fract_y
_atom_site_fract_z
Si Si1 0.082845 0.076627 0.642573
Si Si2 0.917477 0.315079 0.150557
Si Si3 0.843689 0.582747 0.348804
Si Si4 0.151353 0.168122 0.848220
Si Si5 0.416297 0.326199 0.152565
Si Si6 0.288150 0.079939 0.842592
Si Si7 0.578749 0.834376 0.157604
Si Si8 0.679153 0.417056 0.348598
O O1 0.115232 0.102705 0.500000
O O2 0.091904 0.131934 0.759181
O O3 0.000000 0.065771 0.623037
O O4 0.117469 0.000000 0.679890
O O5 0.897364 0.377085 0.251077
O O6 0.859724 0.251862 0.172174
O O7 0.000000 0.290609 0.176637
O O8 0.910241 0.343282 0.000000
O O9 0.861203 0.604807 0.500000
O O10 0.857581 0.500000 0.328669
O O11 0.761468 0.601708 0.315322
O O12 0.227622 0.136767 0.798726
O O13 0.137545 0.146728 0.000000
O O14 0.500000 0.344029 0.168323
O O15 0.400640 0.245679 0.197851
O O16 0.371599 0.376803 0.247186
O O17 0.392278 0.338129 0.000000
O O18 0.363081 0.110341 0.784911
O O19 0.274914 0.000000 0.787028
O O20 0.291687 0.077046 0.000000
O O21 0.500000 0.854461 0.214557
O O22 0.576381 0.838235 0.000000
O O23 0.661265 0.394855 0.500000
O O24 0.665527 0.500000 0.329840
#
# Coordination Sequence:
#
# PCOD8197594 Si02
#       8
#     8   8   8   8   8   8   8   8
#     4   9  18  32  49  69  95 130 170 209 251 301
#     4  10  22  37  53  78 108 137 173 215 260 315
#     4   9  20  39  59  79 104 135 174 218 263 315
#     4  10  20  33  50  74 104 135 168 209 254 306
#     4   9  18  31  49  75 106 141 181 220 258 307
#     4   9  17  28  45  72 102 133 171 212 254 301
#     4   8  15  28  45  68 100 136 172 212 257 301
#     4   9  19  35  53  75 105 139 175 216 260 309
#
# _framework density 18.051082999999998
#
# number of rings (size 3 to 8) (size 9 to 14) (size 15 to 20)
#    0.000    2.875    0.000    2.625    1.750    4.250 
#    0.000    5.625    0.000    0.000    0.000    0.000 
#    0.000    0.000    0.000    5.375    0.000    5.250 
#
# Total GULP energy -793085.989300 kJ/mol
# GULP energy per Si atom -12391.968583 kJ/mol
# Density = 1.801000 g / cm^3
# Si number density = 18.051083 Si / 1000 Ang^3
#
#
#
# Elastic Constant Matrix: (Units=GPa)
#
#
# Indices 1 2 3 4 5 6 
#
# 1 95.0095 58.5838 41.0776 0.0000 0.0000 0.0000
# 2 58.5838 88.8797 49.4569 0.0000 0.0000 0.0000
# 3 41.0776 49.4569 73.9942 0.0000 0.0000 0.0000
# 4 0.0000 0.0000 0.0000 2.6344 0.0000 0.0000
# 5 0.0000 0.0000 0.0000 0.0000 24.6211 0.0000
# 6 0.0000 0.0000 0.0000 0.0000 0.0000 33.0067
#
#
#
# Elastic Compliance Matrix: (Units=1/GPa)
#
#
# Indices 1 2 3 4 5 6 
#
# 1 0.018232 -0.010167 -0.003326 0.000000 0.000000 0.000000
# 2 -0.010167 0.023583 -0.010119 0.000000 0.000000 0.000000
# 3 -0.003326 -0.010119 0.022124 0.000000 0.000000 0.000000
# 4 0.000000 0.000000 0.000000 0.379590 0.000000 0.000000
# 5 0.000000 0.000000 0.000000 0.000000 0.040616 0.000000
# 6 0.000000 0.000000 0.000000 0.000000 0.000000 0.030297
#
#
# Mechanical properties :
#
#
# Convention : Reuss Voigt Hill
#
# Bulk Modulus (GPa) = 59.82144 61.79111 60.80628
# Shear Modulus (GPa) = 8.81467 19.30346 14.05907
#
# Velocity S-wave (km/s) = 2.21219 3.27368 2.79381
# Velocity P-wave (km/s) = 6.30373 6.97101 6.64575
#
# Compressibility (1/GPa) = 0.01671641
#
# Stress axis : x y z
#
# Youngs Moduli (GPa) = 54.84797 42.40387 45.19928
#
# Poissons Ratio (x) = 0.43110 0.15035
# Poissons Ratio (y) = 0.55762 0.45735
# Poissons Ratio (z) = 0.18244 0.42906
#
# Static dielectric constant tensor:
#      x y z
#    x 3.402350 0.000000 0.000000 
#    y 0.000000 3.306000 0.000000 
#    z 0.000000 0.000000 3.128650 
# 
# 
# High freq. dielectric constant tensor:
#      x y z
#    x 1.698100 0.000000 0.000000 
#    y 0.000000 1.695800 0.000000 
#    z 0.000000 0.000000 1.674060 
# 
# From -- ./inp_files/11593.got.cif
#   From: 2010.03.12/outbox.cif.g09.slc.cpg/sg47_6_cif.got.tgz:11593.got - 2010.04.14 03:12:58.
