data_PCOD8197407
_publ_section_title
;
Structure prediction by ZEFSAII (Michael W. Deem and Ramdas Pophale) SiO2 
 PCOD8197407
Probable space group: P M M M
;
_chemical_formula_sum "Si O2"
_cell_formula_units_Z 44
_cell_length_a 9.048235
_cell_length_b 14.191984
_cell_length_c 19.187145
_cell_angle_alpha 90.000000
_cell_angle_beta 90.000000
_cell_angle_gamma 90.000000
_cell_volume 2463.867460
_symmetry_space_group_name_H-M "P M M M"
_symmetry_group_IT_number 47
_symmetry_cell_setting 'orthorhombic'
loop_
_space_group_symop_operation_xyz
x,y,z
-x,-y,z
x,-y,-z
-x,y,-z
-x,-y,-z
x,y,-z
-x,y,z
x,-y,z
loop_
_atom_site_type_symbol
_atom_site_label
_atom_site_fract_x
_atom_site_fract_y
_atom_site_fract_z
Si Si1 0.674409 0.810400 0.079751
Si Si2 0.672256 0.891354 0.697006
Si Si3 0.826295 0.251729 0.206643
Si Si4 0.164655 0.000000 0.081966
Si Si5 0.672205 0.251005 0.578518
Si Si6 0.173547 0.606618 0.674157
O O1 0.500000 0.815733 0.089046
O O2 0.745310 0.733294 0.131886
O O3 0.743565 0.909028 0.105068
O O4 0.716765 0.785395 0.000000
O O5 0.500000 0.879653 0.715729
O O6 0.767897 0.843734 0.757560
O O7 0.709893 0.841866 0.623375
O O8 0.718547 0.000000 0.690778
O O9 0.783712 0.341155 0.254012
O O10 0.000000 0.243284 0.194197
O O11 0.000000 0.000000 0.115726
O O12 0.148517 0.000000 0.000000
O O13 0.727733 0.232408 0.500000
O O14 0.500000 0.273489 0.580439
O O15 0.752503 0.342869 0.608540
O O16 0.232200 0.500000 0.679213
O O17 0.000000 0.610244 0.661838
#
# Coordination Sequence:
#
# PCOD8197407 Si02
#       6
#     8   8   8   4   8   8
#     4  10  20  33  49  70  99 133 166 202 246 295
#     4   9  18  32  49  69  97 135 172 203 240 289
#     4  10  20  33  51  73  97 127 165 210 252 295
#     4   9  17  29  45  67  95 127 164 201 236 277
#     4   9  18  32  50  75 104 130 162 204 246 292
#     4   9  19  36  55  74  97 127 164 205 252 304
#
# _framework density 17.858104000000001
#
# number of rings (size 3 to 8) (size 9 to 14) (size 15 to 20)
#    0.000    2.636    0.000    1.364    1.273    4.727 
#    0.000    3.636    0.000    0.545    0.000    8.909 
#    0.000    0.000    0.000    0.000    0.000    0.000 
#
# Total GULP energy -545579.460555 kJ/mol
# GULP energy per Si atom -12399.533194 kJ/mol
# Density = 1.781746 g / cm^3
# Si number density = 17.858104 Si / 1000 Ang^3
#
#
#
# Elastic Constant Matrix: (Units=GPa)
#
#
# Indices 1 2 3 4 5 6 
#
# 1 62.0707 29.4290 44.6710 0.0000 0.0000 0.0000
# 2 29.4290 106.0792 44.2161 0.0000 0.0000 0.0000
# 3 44.6710 44.2161 125.7913 0.0000 0.0000 0.0000
# 4 0.0000 0.0000 0.0000 16.8710 0.0000 0.0000
# 5 0.0000 0.0000 0.0000 0.0000 29.3703 0.0000
# 6 0.0000 0.0000 0.0000 0.0000 0.0000 24.5476
#
#
#
# Elastic Compliance Matrix: (Units=1/GPa)
#
#
# Indices 1 2 3 4 5 6 
#
# 1 0.022662 -0.003436 -0.006840 0.000000 0.000000 0.000000
# 2 -0.003436 0.011566 -0.002845 0.000000 0.000000 0.000000
# 3 -0.006840 -0.002845 0.011379 0.000000 0.000000 0.000000
# 4 0.000000 0.000000 0.000000 0.059273 0.000000 0.000000
# 5 0.000000 0.000000 0.000000 0.000000 0.034048 0.000000
# 6 0.000000 0.000000 0.000000 0.000000 0.000000 0.040737
#
#
# Mechanical properties :
#
#
# Convention : Reuss Voigt Hill
#
# Bulk Modulus (GPa) = 51.64081 58.95260 55.29671
# Shear Modulus (GPa) = 23.54450 25.86612 24.70531
#
# Velocity S-wave (km/s) = 3.63495 3.80995 3.72347
# Velocity P-wave (km/s) = 6.82621 7.24138 7.03686
#
# Compressibility (1/GPa) = 0.01936453
#
# Stress axis : x y z
#
# Youngs Moduli (GPa) = 44.12588 86.45911 87.88197
#
# Poissons Ratio (x) = 0.29707 0.60112
# Poissons Ratio (y) = 0.15162 0.25006
# Poissons Ratio (z) = 0.30183 0.24601
#
# Static dielectric constant tensor:
#      x y z
#    x 3.311140 0.000000 0.000000 
#    y 0.000000 3.263130 0.000000 
#    z 0.000000 0.000000 3.482790 
# 
# 
# High freq. dielectric constant tensor:
#      x y z
#    x 1.694140 0.000000 0.000000 
#    y 0.000000 1.666410 0.000000 
#    z 0.000000 0.000000 1.697830 
# 
# From -- ./inp_files/6147.got.cif
#   From: 2010.03.12/outbox.cif.g09.slc.cpg/sg47_4_cif.got.tgz:6147.got - 2010.04.14 03:12:58.
