data_PCOD8197229
_publ_section_title
;
Structure prediction by ZEFSAII (Michael W. Deem and Ramdas Pophale) SiO2 
 PCOD8197229
Probable space group: P M M M
;
_chemical_formula_sum "Si O2"
_cell_formula_units_Z 44
_cell_length_a 14.083146
_cell_length_b 19.220316
_cell_length_c 9.002602
_cell_angle_alpha 90.000000
_cell_angle_beta 90.000000
_cell_angle_gamma 90.000000
_cell_volume 2436.846963
_symmetry_space_group_name_H-M "P M M M"
_symmetry_group_IT_number 47
_symmetry_cell_setting 'orthorhombic'
loop_
_space_group_symop_operation_xyz
x,y,z
-x,-y,z
x,-y,-z
-x,y,-z
-x,-y,-z
x,y,-z
-x,y,z
x,-y,z
loop_
_atom_site_type_symbol
_atom_site_label
_atom_site_fract_x
_atom_site_fract_y
_atom_site_fract_z
Si Si1 0.275149 0.208618 0.175842
Si Si2 0.000000 0.924224 0.675156
Si Si3 0.205854 0.919017 0.674365
Si Si4 0.389698 0.677039 0.327860
Si Si5 0.246090 0.420509 0.174140
Si Si6 0.104903 0.695904 0.825411
O O1 0.279233 0.129407 0.236296
O O2 0.361978 0.251759 0.244250
O O3 0.176658 0.244295 0.230402
O O4 0.285816 0.208751 0.000000
O O5 0.100216 0.889752 0.721683
O O6 0.000000 0.933622 0.500000
O O7 0.000000 0.000000 0.749557
O O8 0.223532 0.909893 0.500000
O O9 0.219251 0.000000 0.719169
O O10 0.363818 0.685437 0.500000
O O11 0.500000 0.662946 0.302553
O O12 0.335060 0.610735 0.261965
O O13 0.231059 0.500000 0.221812
O O14 0.149874 0.379040 0.215994
O O15 0.268300 0.412600 0.000000
O O16 0.000000 0.703433 0.750762
O O17 0.093255 0.702542 0.000000
#
# Coordination Sequence:
#
# PCOD8197229 Si02
#       6
#     8   4   8   8   8   8
#     4  10  20  32  50  75 102 132 166 210 258 302
#     4   7  12  24  41  63  93 131 170 201 234 279
#     4   9  17  30  48  70 100 138 175 209 247 293
#     4  10  21  37  56  75  96 126 165 208 255 308
#     4   9  18  32  51  77 106 134 165 203 248 296
#     4   8  15  28  45  68 100 136 171 203 237 282
#
# _framework density 18.056118999999999
#
# number of rings (size 3 to 8) (size 9 to 14) (size 15 to 20)
#    0.000    3.000    0.000    3.273    1.273    2.909 
#    0.000    3.636    0.000    7.091    0.000    8.909 
#    0.000    0.000    0.000    0.000    0.000    0.000 
#
# Total GULP energy -545215.891832 kJ/mol
# GULP energy per Si atom -12391.270269 kJ/mol
# Density = 1.801502 g / cm^3
# Si number density = 18.056119 Si / 1000 Ang^3
#
#
#
# Elastic Constant Matrix: (Units=GPa)
#
#
# Indices 1 2 3 4 5 6 
#
# 1 64.6025 16.3864 23.4578 0.0000 0.0000 0.0000
# 2 16.3864 98.4098 31.2927 0.0000 0.0000 0.0000
# 3 23.4578 31.2927 55.4312 0.0000 0.0000 0.0000
# 4 0.0000 0.0000 0.0000 28.5679 0.0000 0.0000
# 5 0.0000 0.0000 0.0000 0.0000 19.9649 0.0000
# 6 0.0000 0.0000 0.0000 0.0000 0.0000 15.6895
#
#
#
# Elastic Compliance Matrix: (Units=1/GPa)
#
#
# Indices 1 2 3 4 5 6 
#
# 1 0.018331 -0.000714 -0.007354 0.000000 0.000000 0.000000
# 2 -0.000714 0.012413 -0.006705 0.000000 0.000000 0.000000
# 3 -0.007354 -0.006705 0.024938 0.000000 0.000000 0.000000
# 4 0.000000 0.000000 0.000000 0.035004 0.000000 0.000000
# 5 0.000000 0.000000 0.000000 0.000000 0.050088 0.000000
# 6 0.000000 0.000000 0.000000 0.000000 0.000000 0.063737
#
#
# Mechanical properties :
#
#
# Convention : Reuss Voigt Hill
#
# Bulk Modulus (GPa) = 38.26354 40.07971 39.17163
# Shear Modulus (GPa) = 20.59573 22.66491 21.63032
#
# Velocity S-wave (km/s) = 3.38102 3.54679 3.46490
# Velocity P-wave (km/s) = 6.03980 6.24648 6.14401
#
# Compressibility (1/GPa) = 0.02613454
#
# Stress axis : x y z
#
# Youngs Moduli (GPa) = 54.55306 80.56336 40.09943
#
# Poissons Ratio (x) = 0.05750 0.29491
# Poissons Ratio (y) = 0.03893 0.26888
# Poissons Ratio (z) = 0.40121 0.54020
#
# Static dielectric constant tensor:
#      x y z
#    x 3.378410 0.000000 0.000000 
#    y 0.000000 3.347560 0.000000 
#    z 0.000000 0.000000 3.061690 
# 
# 
# High freq. dielectric constant tensor:
#      x y z
#    x 1.682770 0.000000 0.000000 
#    y 0.000000 1.699460 0.000000 
#    z 0.000000 0.000000 1.676940 
# 
# From -- ./inp_files/6097.got.cif
#   From: 2010.03.12/outbox.cif.g09.slc.cpg/sg47_4_cif.got.tgz:6097.got - 2010.04.14 03:12:58.
