data_PCOD8197447
_publ_section_title
;
Structure prediction by ZEFSAII (Michael W. Deem and Ramdas Pophale) SiO2 
 PCOD8197447
Probable space group: P M M M
;
_chemical_formula_sum "Si O2"
_cell_formula_units_Z 48
_cell_length_a 8.893943
_cell_length_b 18.433660
_cell_length_c 15.952656
_cell_angle_alpha 90.000000
_cell_angle_beta 90.000000
_cell_angle_gamma 90.000000
_cell_volume 2615.404791
_symmetry_space_group_name_H-M "P M M M"
_symmetry_group_IT_number 47
_symmetry_cell_setting 'orthorhombic'
loop_
_space_group_symop_operation_xyz
x,y,z
-x,-y,z
x,-y,-z
-x,y,-z
-x,-y,-z
x,y,-z
-x,y,z
x,-y,z
loop_
_atom_site_type_symbol
_atom_site_label
_atom_site_fract_x
_atom_site_fract_y
_atom_site_fract_z
Si Si1 0.677932 0.791392 0.745629
Si Si2 0.822331 0.663956 0.342903
Si Si3 0.668424 0.085863 0.000000
Si Si4 0.673719 0.295175 0.907807
Si Si5 0.176323 0.580476 0.825030
Si Si6 0.321556 0.415387 0.500000
Si Si7 0.175980 0.915681 0.171497
O O1 0.500000 0.794714 0.731542
O O2 0.752921 0.744555 0.671013
O O3 0.728578 0.758366 0.835226
O O4 0.747396 0.872370 0.750804
O O5 0.779224 0.615080 0.263723
O O6 0.745820 0.625054 0.420473
O O7 0.000000 0.670794 0.357602
O O8 0.754092 0.111402 0.916601
O O9 0.500000 0.120260 0.000000
O O10 0.657868 0.000000 0.000000
O O11 0.500000 0.311924 0.895819
O O12 0.757054 0.372146 0.900300
O O13 0.708143 0.261546 0.000000
O O14 0.245742 0.500000 0.828946
O O15 0.000000 0.577744 0.836360
O O16 0.272907 0.500000 0.500000
O O17 0.500000 0.407598 0.500000
O O18 0.000000 0.899461 0.168806
O O19 0.209995 0.000000 0.187304
#
# Coordination Sequence:
#
# PCOD8197447 Si02
#       7
#     8   8   4   8   8   4   8
#     4  10  20  34  53  74 102 138 176 219 266 316
#     4  10  20  36  56  78 106 138 173 210 258 318
#     4   9  17  29  45  67  97 133 174 221 272 321
#     4   9  19  33  46  64  91 126 169 213 256 303
#     4   9  18  32  49  69  94 125 163 208 253 299
#     4  11  23  37  57  87 118 143 172 213 261 317
#     4  10  20  33  49  73 104 137 177 224 272 322
#
# _framework density 18.352799999999998
#
# number of rings (size 3 to 8) (size 9 to 14) (size 15 to 20)
#    0.000    2.333    0.000    2.500    1.167    5.667 
#    0.000    1.667    0.000    0.000    0.000    0.583 
#    0.000    4.667    0.000    0.000    0.000    0.000 
#
# Total GULP energy -595146.696043 kJ/mol
# GULP energy per Si atom -12398.889501 kJ/mol
# Density = 1.831103 g / cm^3
# Si number density = 18.352800 Si / 1000 Ang^3
#
#
#
# Elastic Constant Matrix: (Units=GPa)
#
#
# Indices 1 2 3 4 5 6 
#
# 1 83.2278 44.7298 37.3077 0.0000 0.0000 0.0000
# 2 44.7298 90.4774 34.2048 0.0000 0.0000 0.0000
# 3 37.3077 34.2048 74.9416 0.0000 0.0000 0.0000
# 4 0.0000 0.0000 0.0000 28.9391 0.0000 0.0000
# 5 0.0000 0.0000 0.0000 0.0000 29.7244 0.0000
# 6 0.0000 0.0000 0.0000 0.0000 0.0000 31.2220
#
#
#
# Elastic Compliance Matrix: (Units=1/GPa)
#
#
# Indices 1 2 3 4 5 6 
#
# 1 0.018381 -0.006801 -0.006046 0.000000 0.000000 0.000000
# 2 -0.006801 0.015874 -0.003859 0.000000 0.000000 0.000000
# 3 -0.006046 -0.003859 0.018115 0.000000 0.000000 0.000000
# 4 0.000000 0.000000 0.000000 0.034555 0.000000 0.000000
# 5 0.000000 0.000000 0.000000 0.000000 0.033642 0.000000
# 6 0.000000 0.000000 0.000000 0.000000 0.000000 0.032029
#
#
# Mechanical properties :
#
#
# Convention : Reuss Voigt Hill
#
# Bulk Modulus (GPa) = 52.75297 53.45904 53.10601
# Shear Modulus (GPa) = 25.99723 26.80407 26.40065
#
# Velocity S-wave (km/s) = 3.76776 3.82578 3.79688
# Velocity P-wave (km/s) = 6.90900 6.97906 6.94412
#
# Compressibility (1/GPa) = 0.01895628
#
# Stress axis : x y z
#
# Youngs Moduli (GPa) = 54.40486 62.99673 55.20255
#
# Poissons Ratio (x) = 0.42846 0.33376
# Poissons Ratio (y) = 0.37002 0.21304
# Poissons Ratio (z) = 0.32894 0.24312
#
# Static dielectric constant tensor:
#      x y z
#    x 3.413540 0.000000 0.000000 
#    y 0.000000 3.595900 0.000000 
#    z 0.000000 0.000000 3.258150 
# 
# 
# High freq. dielectric constant tensor:
#      x y z
#    x 1.719680 0.000000 0.000000 
#    y 0.000000 1.717590 0.000000 
#    z 0.000000 0.000000 1.678000 
# 
# From -- ./inp_files/6455.got.cif
#   From: 2010.03.12/outbox.cif.g09.slc.cpg/sg47_4_cif.got.tgz:6455.got - 2010.04.14 03:12:58.
