data_PCOD8197183
_publ_section_title
;
Structure prediction by ZEFSAII (Michael W. Deem and Ramdas Pophale) SiO2 
 PCOD8197183
Probable space group: P M M M
;
_chemical_formula_sum "Si O2"
_cell_formula_units_Z 40
_cell_length_a 9.494434
_cell_length_b 9.611984
_cell_length_c 25.147158
_cell_angle_alpha 90.000000
_cell_angle_beta 90.000000
_cell_angle_gamma 90.000000
_cell_volume 2294.938383
_symmetry_space_group_name_H-M "P M M M"
_symmetry_group_IT_number 47
_symmetry_cell_setting 'orthorhombic'
loop_
_space_group_symop_operation_xyz
x,y,z
-x,-y,z
x,-y,-z
-x,y,-z
-x,-y,-z
x,y,-z
-x,y,z
x,-y,z
loop_
_atom_site_type_symbol
_atom_site_label
_atom_site_fract_x
_atom_site_fract_y
_atom_site_fract_z
Si Si1 0.336835 0.835989 0.141973
Si Si2 0.661302 0.661135 0.439303
Si Si3 0.833978 0.842240 0.358345
Si Si4 0.839200 0.659335 0.937918
Si Si5 0.843796 0.165269 0.759482
O O1 0.500000 0.796112 0.144399
O O2 0.266545 0.760197 0.092364
O O3 0.265630 0.780964 0.196416
O O4 0.313914 0.000000 0.134642
O O5 0.690924 0.704966 0.500000
O O6 0.500000 0.691974 0.424417
O O7 0.696493 0.500000 0.431120
O O8 0.760883 0.748234 0.401706
O O9 0.795377 0.785489 0.299229
O O10 0.000000 0.834398 0.367010
O O11 0.780196 0.000000 0.365388
O O12 0.808878 0.500000 0.921862
O O13 0.000000 0.698633 0.923655
O O14 0.811671 0.681279 0.000000
O O15 0.000000 0.223874 0.772906
O O16 0.850383 0.000000 0.758833
#
# Coordination Sequence:
#
# PCOD8197183 Si02
#       5
#     8   8   8   8   8
#     4  10  20  32  49  76 105 130 160 199 241 287
#     4   9  19  35  51  68  95 131 167 201 239 286
#     4   9  18  32  51  76 101 124 157 202 246 288
#     4   9  19  36  55  73  95 127 167 206 243 286
#     4   8  15  30  50  70  96 130 163 196 238 286
#
# _framework density 17.429662
#
# number of rings (size 3 to 8) (size 9 to 14) (size 15 to 20)
#    0.000    3.000    0.000    3.000    0.000    4.800 
#    0.000    9.000    0.000    1.200    0.000    0.000 
#    0.000    0.000    0.000    0.000    0.000    0.000 
#
# Total GULP energy -495914.726387 kJ/mol
# GULP energy per Si atom -12397.868160 kJ/mol
# Density = 1.738999 g / cm^3
# Si number density = 17.429662 Si / 1000 Ang^3
#
#
#
# Elastic Constant Matrix: (Units=GPa)
#
#
# Indices 1 2 3 4 5 6 
#
# 1 98.7932 45.4118 70.5645 0.0000 0.0000 0.0000
# 2 45.4118 48.1804 49.1555 0.0000 0.0000 0.0000
# 3 70.5645 49.1555 110.8273 0.0000 0.0000 0.0000
# 4 0.0000 0.0000 0.0000 -34.5296 0.0000 0.0000
# 5 0.0000 0.0000 0.0000 0.0000 8.6277 0.0000
# 6 0.0000 0.0000 0.0000 0.0000 0.0000 30.7024
#
#
#
# Elastic Compliance Matrix: (Units=1/GPa)
#
#
# Indices 1 2 3 4 5 6 
#
# 1 0.021593 -0.011553 -0.008624 0.000000 0.000000 0.000000
# 2 -0.011553 0.044092 -0.012200 0.000000 0.000000 0.000000
# 3 -0.008624 -0.012200 0.019925 0.000000 0.000000 0.000000
# 4 0.000000 0.000000 0.000000 -0.028961 0.000000 0.000000
# 5 0.000000 0.000000 0.000000 0.000000 0.115906 0.000000
# 6 0.000000 0.000000 0.000000 0.000000 0.000000 0.032571
#
#
# Mechanical properties :
#
#
# Convention : Reuss Voigt Hill
#
# Bulk Modulus (GPa) = 47.95050 65.34050 56.64550
# Shear Modulus (GPa) = 18.06155 7.13803 12.59979
#
# Velocity S-wave (km/s) = 3.22258 2.02589 2.69159
# Velocity P-wave (km/s) = 6.43563 6.56062 6.49843
#
# Compressibility (1/GPa) = 0.02085484
#
# Stress axis : x y z
#
# Youngs Moduli (GPa) = 46.31234 22.67998 50.18833
#
# Poissons Ratio (x) = 0.26203 0.43281
# Poissons Ratio (y) = 0.53507 0.61230
# Poissons Ratio (z) = 0.39939 0.27670
#
# Static dielectric constant tensor:
#      x y z
#    x 3.228600 0.000000 0.000000 
#    y 0.000000 3.004930 0.000000 
#    z 0.000000 0.000000 3.362020 
# 
# 
# High freq. dielectric constant tensor:
#      x y z
#    x 1.672810 0.000000 0.000000 
#    y 0.000000 1.649070 0.000000 
#    z 0.000000 0.000000 1.683140 
# 
# From -- ./inp_files/1354.got.cif
#   From: 2010.03.12/outbox.cif.g09.slc.cpg/sg47_1_cif.got.tgz:1354.got - 2010.04.14 03:12:58.
