data_PCOD8197651
_publ_section_title
;
Structure prediction by ZEFSAII (Michael W. Deem and Ramdas Pophale) SiO2 
 PCOD8197651
Probable space group: P M M M
;
_chemical_formula_sum "Si O2"
_cell_formula_units_Z 64
_cell_length_a 14.439892
_cell_length_b 9.424086
_cell_length_c 25.272606
_cell_angle_alpha 90.000000
_cell_angle_beta 90.000000
_cell_angle_gamma 90.000000
_cell_volume 3439.166584
_symmetry_space_group_name_H-M "P M M M"
_symmetry_group_IT_number 47
_symmetry_cell_setting 'orthorhombic'
loop_
_space_group_symop_operation_xyz
x,y,z
-x,-y,z
x,-y,-z
-x,y,-z
-x,-y,-z
x,y,-z
-x,y,z
x,-y,z
loop_
_atom_site_type_symbol
_atom_site_label
_atom_site_fract_x
_atom_site_fract_y
_atom_site_fract_z
Si Si1 0.398166 0.338059 0.284946
Si Si2 0.397777 0.658787 0.937140
Si Si3 0.602442 0.834826 0.390007
Si Si4 0.892568 0.664020 0.861344
Si Si5 0.212751 0.167835 0.557724
Si Si6 0.225260 0.836609 0.937507
Si Si7 0.107376 0.832574 0.660642
Si Si8 0.795867 0.664377 0.245774
O O1 0.500000 0.303021 0.260004
O O2 0.395594 0.500000 0.304460
O O3 0.378355 0.242840 0.335390
O O4 0.315505 0.311061 0.243100
O O5 0.500000 0.705259 0.916762
O O6 0.374707 0.500000 0.916450
O O7 0.320652 0.767234 0.915934
O O8 0.397680 0.659054 0.000000
O O9 0.500000 0.798383 0.412676
O O10 0.680408 0.787642 0.431768
O O11 0.611723 0.000000 0.377057
O O12 0.872222 0.500000 0.874393
O O13 0.861307 0.758013 0.911003
O O14 0.837113 0.715945 0.809764
O O15 0.000000 0.691370 0.850709
O O16 0.184294 0.230900 0.500000
O O17 0.146374 0.224843 0.604352
O O18 0.203499 0.000000 0.555572
O O19 0.225843 0.000000 0.920754
O O20 0.214475 0.817424 0.000000
O O21 0.160189 0.755084 0.707539
O O22 0.000000 0.793282 0.663378
O O23 0.124647 0.000000 0.666593
O O24 0.820992 0.500000 0.255695
#
# Coordination Sequence:
#
# PCOD8197651 Si02
#       8
#     8   8   8   8   8   8   8   8
#     4   9  17  30  51  78 105 133 164 200 250 310
#     4   8  14  27  50  79 109 143 183 221 255 299
#     4   9  16  27  46  71  98 130 168 209 252 301
#     4  10  22  39  57  78 104 136 177 223 269 318
#     4   9  17  29  45  69 102 135 169 212 259 309
#     4  10  21  36  55  81 113 147 180 218 267 319
#     4  10  20  33  51  75 100 130 172 219 266 315
#     4  10  20  36  58  80 104 134 169 214 263 312
#
# _framework density 18.609159999999999
#
# number of rings (size 3 to 8) (size 9 to 14) (size 15 to 20)
#    0.000    2.625    1.250    1.125    0.000    3.250 
#    0.000    5.625    0.000    3.750    0.000    2.625 
#    0.000    0.000    0.000    0.000    0.000    0.000 
#
# Total GULP energy -793326.301833 kJ/mol
# GULP energy per Si atom -12395.723466 kJ/mol
# Density = 1.856680 g / cm^3
# Si number density = 18.609160 Si / 1000 Ang^3
#
#
#
# Elastic Constant Matrix: (Units=GPa)
#
#
# Indices 1 2 3 4 5 6 
#
# 1 124.2495 45.3187 54.0677 0.0000 0.0000 0.0000
# 2 45.3187 59.0182 37.8229 0.0000 0.0000 0.0000
# 3 54.0677 37.8229 72.0079 0.0000 0.0000 0.0000
# 4 0.0000 0.0000 0.0000 15.8846 0.0000 0.0000
# 5 0.0000 0.0000 0.0000 0.0000 27.6038 0.0000
# 6 0.0000 0.0000 0.0000 0.0000 0.0000 23.5287
#
#
#
# Elastic Compliance Matrix: (Units=1/GPa)
#
#
# Indices 1 2 3 4 5 6 
#
# 1 0.013099 -0.005661 -0.006862 0.000000 0.000000 0.000000
# 2 -0.005661 0.027988 -0.010451 0.000000 0.000000 0.000000
# 3 -0.006862 -0.010451 0.024529 0.000000 0.000000 0.000000
# 4 0.000000 0.000000 0.000000 0.062954 0.000000 0.000000
# 5 0.000000 0.000000 0.000000 0.000000 0.036227 0.000000
# 6 0.000000 0.000000 0.000000 0.000000 0.000000 0.042501
#
#
# Mechanical properties :
#
#
# Convention : Reuss Voigt Hill
#
# Bulk Modulus (GPa) = 50.84070 58.85493 54.84781
# Shear Modulus (GPa) = 19.24539 21.27451 20.25995
#
# Velocity S-wave (km/s) = 3.21937 3.38483 3.30314
# Velocity P-wave (km/s) = 6.41862 6.85359 6.63967
#
# Compressibility (1/GPa) = 0.01966928
#
# Stress axis : x y z
#
# Youngs Moduli (GPa) = 76.34087 35.72932 40.76762
#
# Poissons Ratio (x) = 0.20225 0.27976
# Poissons Ratio (y) = 0.43215 0.42605
# Poissons Ratio (z) = 0.52387 0.37340
#
# Static dielectric constant tensor:
#      x y z
#    x 3.767450 0.000000 0.000000 
#    y 0.000000 3.300340 0.000000 
#    z 0.000000 0.000000 3.297470 
# 
# 
# High freq. dielectric constant tensor:
#      x y z
#    x 1.739500 0.000000 0.000000 
#    y 0.000000 1.701240 0.000000 
#    z 0.000000 0.000000 1.699590 
# 
# From -- ./inp_files/21933.got.cif
#   From: 2010.03.12/outbox.cif.g09.slc.cpg/sg47_11_cif.got.tgz:21933.got - 2010.04.14 03:12:58.
