data_PCOD8197044
_publ_section_title
;
Structure prediction by ZEFSAII (Michael W. Deem and Ramdas Pophale) SiO2 
 PCOD8197044
Probable space group: P M M M
;
_chemical_formula_sum "Si O2"
_cell_formula_units_Z 52
_cell_length_a 8.556683
_cell_length_b 9.321191
_cell_length_c 33.849985
_cell_angle_alpha 90.000000
_cell_angle_beta 90.000000
_cell_angle_gamma 90.000000
_cell_volume 2699.823235
_symmetry_space_group_name_H-M "P M M M"
_symmetry_group_IT_number 47
_symmetry_cell_setting 'orthorhombic'
loop_
_space_group_symop_operation_xyz
x,y,z
-x,-y,z
x,-y,-z
-x,y,-z
-x,-y,-z
x,y,-z
-x,y,z
x,-y,z
loop_
_atom_site_type_symbol
_atom_site_label
_atom_site_fract_x
_atom_site_fract_y
_atom_site_fract_z
Si Si1 0.314160 0.339107 0.456271
Si Si2 0.813130 0.839231 0.000000
Si Si3 0.814193 0.660865 0.073263
Si Si4 0.185059 0.664718 0.309901
Si Si5 0.186259 0.161609 0.233920
Si Si6 0.814076 0.338706 0.160510
Si Si7 0.314466 0.161500 0.382909
O O1 0.256593 0.291198 0.500000
O O2 0.500000 0.338850 0.455150
O O3 0.253301 0.500000 0.446953
O O4 0.247579 0.229712 0.423546
O O5 0.745304 0.762930 0.960761
O O6 0.000000 0.834991 0.000000
O O7 0.748964 0.000000 0.000000
O O8 0.753009 0.500000 0.065484
O O9 0.759118 0.713111 0.116858
O O10 0.000000 0.662363 0.071459
O O11 0.240979 0.500000 0.308165
O O12 0.246522 0.745178 0.270794
O O13 0.259669 0.741019 0.347184
O O14 0.000000 0.675178 0.313166
O O15 0.253896 0.232051 0.193715
O O16 0.000000 0.160502 0.232953
O O17 0.251804 0.000000 0.237557
O O18 0.752824 0.500000 0.168676
O O19 0.000000 0.339184 0.162506
O O20 0.500000 0.159001 0.383657
O O21 0.247746 0.000000 0.378662
#
# Coordination Sequence:
#
# PCOD8197044 Si02
#       7
#     8   4   8   8   8   8   8
#     4   8  14  26  45  68  93 121 152 184 217 255
#     4   9  15  19  23  33  49  69  97 137 184 233
#     4   8  13  20  28  36  49  73 104 139 182 232
#     4  10  20  33  49  67  88 118 154 188 223 265
#     4   9  16  25  38  56  77 100 127 164 210 255
#     4   8  13  21  32  45  61  83 114 152 193 239
#     4  10  20  32  48  72  99 124 150 183 224 267
#
# _framework density 19.26052
#
# number of rings (size 3 to 8) (size 9 to 14) (size 15 to 20)
#    0.000    3.154    0.000    3.000    0.000    5.538 
#    0.000    4.615    0.000    0.462    0.000    3.231 
#    0.000    0.000    0.000    0.000    0.000    0.000 
#
# Total GULP energy -644489.602446 kJ/mol
# GULP energy per Si atom -12394.030816 kJ/mol
# Density = 1.921668 g / cm^3
# Si number density = 19.260520 Si / 1000 Ang^3
#
#
#
# Elastic Constant Matrix: (Units=GPa)
#
#
# Indices 1 2 3 4 5 6 
#
# 1 3.0231 8.9064 8.1242 0.0000 0.0000 0.0000
# 2 8.9064 169.7695 115.4170 0.0000 0.0000 0.0000
# 3 8.1242 115.4170 199.0850 0.0000 0.0000 0.0000
# 4 0.0000 0.0000 0.0000 29.2220 0.0000 0.0000
# 5 0.0000 0.0000 0.0000 0.0000 552.8366 0.0000
# 6 0.0000 0.0000 0.0000 0.0000 0.0000 10.7913
#
#
#
# Elastic Compliance Matrix: (Units=1/GPa)
#
#
# Indices 1 2 3 4 5 6 
#
# 1 0.396765 -0.016188 -0.006806 0.000000 0.000000 0.000000
# 2 -0.016188 0.010383 -0.005359 0.000000 0.000000 0.000000
# 3 -0.006806 -0.005359 0.008407 0.000000 0.000000 0.000000
# 4 0.000000 0.000000 0.000000 0.034221 0.000000 0.000000
# 5 0.000000 0.000000 0.000000 0.000000 0.001809 0.000000
# 6 0.000000 0.000000 0.000000 0.000000 0.000000 0.092667
#
#
# Mechanical properties :
#
#
# Convention : Reuss Voigt Hill
#
# Bulk Modulus (GPa) = 2.78668 70.75254 36.76961
# Shear Modulus (GPa) = 6.93891 134.53199 70.73545
#
# Velocity S-wave (km/s) = 1.90013 8.36661 6.06674
# Velocity P-wave (km/s) = 2.50279 11.40824 8.25869
#
# Compressibility (1/GPa) = 0.35884972
#
# Stress axis : x y z
#
# Youngs Moduli (GPa) = 2.52038 96.31501 118.94412
#
# Poissons Ratio (x) = 1.55913 0.80958
# Poissons Ratio (y) = 0.04080 0.63737
# Poissons Ratio (z) = 0.01715 0.51611
#
# Static dielectric constant tensor:
#      x y z
#    x 2.710730 0.000000 0.000000 
#    y 0.000000 3.818530 0.000000 
#    z 0.000000 0.000000 3.947910 
# 
# 
# High freq. dielectric constant tensor:
#      x y z
#    x 1.665110 0.000000 0.000000 
#    y 0.000000 1.754470 0.000000 
#    z 0.000000 0.000000 1.770270 
# 
# From -- ./inp_files/34529.got.cif
#   From: 2010.03.12/outbox.cif.g09.slc.cpg/sg47_18_cif.got.tgz:34529.got - 2010.04.14 03:12:58.
