data_PCOD8197424
_publ_section_title
;
Structure prediction by ZEFSAII (Michael W. Deem and Ramdas Pophale) SiO2 
 PCOD8197424
Probable space group: P M M M
;
_chemical_formula_sum "Si O2"
_cell_formula_units_Z 40
_cell_length_a 15.154854
_cell_length_b 15.166348
_cell_length_c 9.035470
_cell_angle_alpha 90.000000
_cell_angle_beta 90.000000
_cell_angle_gamma 90.000000
_cell_volume 2076.746666
_symmetry_space_group_name_H-M "P M M M"
_symmetry_group_IT_number 47
_symmetry_cell_setting 'orthorhombic'
loop_
_space_group_symop_operation_xyz
x,y,z
-x,-y,z
x,-y,-z
-x,y,-z
-x,-y,-z
x,y,-z
-x,y,z
x,-y,z
loop_
_atom_site_type_symbol
_atom_site_label
_atom_site_fract_x
_atom_site_fract_y
_atom_site_fract_z
Si Si1 0.827195 0.648779 0.332605
Si Si2 0.898018 0.000000 0.677377
Si Si3 0.000000 0.602264 0.837717
Si Si4 0.402687 0.769489 0.673127
Si Si5 0.226227 0.152773 0.334509
Si Si6 0.344806 0.401383 0.827223
O O1 0.824575 0.612579 0.500000
O O2 0.918255 0.629455 0.258384
O O3 0.819098 0.753346 0.330270
O O4 0.752934 0.600032 0.238645
O O5 0.841425 0.916491 0.741374
O O6 0.903993 0.000000 0.500000
O O7 0.000000 0.000000 0.738314
O O8 0.000000 0.500000 0.864869
O O9 0.000000 0.648791 0.000000
O O10 0.382362 0.752674 0.500000
O O11 0.500000 0.811879 0.697017
O O12 0.325560 0.834826 0.736940
O O13 0.403501 0.673497 0.749511
O O14 0.240448 0.117242 0.500000
O O15 0.384460 0.500000 0.801415
O O16 0.340332 0.379412 0.000000
#
# Coordination Sequence:
#
# PCOD8197424 Si02
#       6
#     8   4   4   8   8   8
#     4  10  20  33  51  72  99 134 174 216 258 308
#     4   9  16  26  47  77 109 136 160 202 261 315
#     4  11  23  35  47  68  99 134 176 221 261 305
#     4   9  18  33  51  71 100 137 174 215 260 306
#     4   8  16  30  47  73 104 131 164 208 256 309
#     4  10  20  33  49  71 101 134 170 215 262 307
#
# _framework density 19.260895999999999
#
# number of rings (size 3 to 8) (size 9 to 14) (size 15 to 20)
#    0.000    2.600    0.000    3.300    1.400    5.600 
#    0.000    2.500    0.000    3.000    0.000   18.200 
#    0.000    6.400    0.000    0.000    0.000    0.000 
#
# Total GULP energy -495544.163426 kJ/mol
# GULP energy per Si atom -12388.604086 kJ/mol
# Density = 1.921706 g / cm^3
# Si number density = 19.260896 Si / 1000 Ang^3
#
#
#
# Elastic Constant Matrix: (Units=GPa)
#
#
# Indices 1 2 3 4 5 6 
#
# 1 156.6413 49.6685 25.0663 0.0000 0.0000 0.0000
# 2 49.6685 80.4905 20.9112 0.0000 0.0000 0.0000
# 3 25.0663 20.9112 57.7610 0.0000 0.0000 0.0000
# 4 0.0000 0.0000 0.0000 -3.6650 0.0000 0.0000
# 5 0.0000 0.0000 0.0000 0.0000 1.0755 0.0000
# 6 0.0000 0.0000 0.0000 0.0000 0.0000 10.8578
#
#
#
# Elastic Compliance Matrix: (Units=1/GPa)
#
#
# Indices 1 2 3 4 5 6 
#
# 1 0.008119 -0.004520 -0.001887 0.000000 0.000000 0.000000
# 2 -0.004520 0.016230 -0.003914 0.000000 0.000000 0.000000
# 3 -0.001887 -0.003914 0.019549 0.000000 0.000000 0.000000
# 4 0.000000 0.000000 0.000000 -0.272848 0.000000 0.000000
# 5 0.000000 0.000000 0.000000 0.000000 0.929837 0.000000
# 6 0.000000 0.000000 0.000000 0.000000 0.000000 0.092100
#
#
# Mechanical properties :
#
#
# Convention : Reuss Voigt Hill
#
# Bulk Modulus (GPa) = 43.00091 54.02054 48.51072
# Shear Modulus (GPa) = 6.08732 14.93677 10.51204
#
# Velocity S-wave (km/s) = 1.77970 2.78780 2.33871
# Velocity P-wave (km/s) = 5.15723 6.20242 5.70382
#
# Compressibility (1/GPa) = 0.02325532
#
# Stress axis : x y z
#
# Youngs Moduli (GPa) = 123.16531 61.61509 51.15425
#
# Poissons Ratio (x) = 0.27849 0.09653
# Poissons Ratio (y) = 0.55669 0.20023
# Poissons Ratio (z) = 0.23243 0.24117
#
# Static dielectric constant tensor:
#      x y z
#    x 3.642180 0.000000 0.000000 
#    y 0.000000 3.500980 0.000000 
#    z 0.000000 0.000000 3.392400 
# 
# 
# High freq. dielectric constant tensor:
#      x y z
#    x 1.764200 0.000000 0.000000 
#    y 0.000000 1.733170 0.000000 
#    z 0.000000 0.000000 1.717820 
# 
# From -- ./inp_files/5702.got.cif
#   From: 2010.03.12/outbox.cif.g09.slc.cpg/sg47_3_cif.got.tgz:5702.got - 2010.04.14 03:12:58.
