data_PCOD8197446
_publ_section_title
;
Structure prediction by ZEFSAII (Michael W. Deem and Ramdas Pophale) SiO2 
 PCOD8197446
Probable space group: P M M M
;
_chemical_formula_sum "Si O2"
_cell_formula_units_Z 52
_cell_length_a 14.921908
_cell_length_b 8.033971
_cell_length_c 24.090586
_cell_angle_alpha 90.000000
_cell_angle_beta 90.000000
_cell_angle_gamma 90.000000
_cell_volume 2888.031874
_symmetry_space_group_name_H-M "P M M M"
_symmetry_group_IT_number 47
_symmetry_cell_setting 'orthorhombic'
loop_
_space_group_symop_operation_xyz
x,y,z
-x,-y,z
x,-y,-z
-x,y,-z
-x,-y,-z
x,y,-z
-x,y,z
x,-y,z
loop_
_atom_site_type_symbol
_atom_site_label
_atom_site_fract_x
_atom_site_fract_y
_atom_site_fract_z
Si Si1 0.396116 0.310180 0.250484
Si Si2 0.188362 0.809150 0.936569
Si Si3 0.000000 0.315788 0.934615
Si Si4 0.342706 0.311045 0.866162
Si Si5 0.400859 0.190379 0.630818
Si Si6 0.227935 0.805718 0.434482
Si Si7 0.102208 0.500000 0.565739
Si Si8 0.500000 0.188914 0.940158
O O1 0.500000 0.291044 0.235467
O O2 0.369805 0.500000 0.263362
O O3 0.342598 0.238190 0.196760
O O4 0.370731 0.206600 0.305085
O O5 0.245816 0.701060 0.893948
O O6 0.086703 0.787436 0.916056
O O7 0.217198 0.000000 0.932079
O O8 0.201345 0.745250 0.000000
O O9 0.000000 0.500000 0.907543
O O10 0.000000 0.333795 0.000000
O O11 0.374521 0.500000 0.860881
O O12 0.411378 0.220876 0.905819
O O13 0.500000 0.276919 0.621574
O O14 0.321612 0.260322 0.591979
O O15 0.412335 0.000000 0.615356
O O16 0.240026 0.796984 0.500000
O O17 0.152018 0.672042 0.414815
O O18 0.205075 0.000000 0.416981
O O19 0.098784 0.500000 0.500000
O O20 0.000000 0.500000 0.589535
O O21 0.500000 0.000000 0.955997
O O22 0.500000 0.286120 0.000000
#
# Coordination Sequence:
#
# PCOD8197446 Si02
#       8
#     8   8   4   8   8   8   4   4
#     4   9  18  33  49  68  95 128 168 211 248 287
#     4  10  20  33  49  72  99 124 153 192 242 297
#     4   9  17  31  51  73  95 121 153 191 236 289
#     4  11  21  34  50  70  95 126 165 204 244 293
#     4   9  18  31  49  75 103 136 175 211 253 304
#     4   9  18  32  50  77 112 144 177 218 262 313
#     4   9  18  32  51  77 107 141 182 222 263 314
#     4  11  23  35  47  67  97 131 162 199 250 301
#
# _framework density 18.005341000000001
#
# number of rings (size 3 to 8) (size 9 to 14) (size 15 to 20)
#    0.000    2.385    0.769    1.846    1.077    6.154 
#    0.000    3.077    0.000    1.385    2.000    0.000 
#    0.000    0.000    0.000    0.000    0.000    0.000 
#
# Total GULP energy -644369.203508 kJ/mol
# GULP energy per Si atom -12391.715452 kJ/mol
# Density = 1.796436 g / cm^3
# Si number density = 18.005341 Si / 1000 Ang^3
#
#
#
# Elastic Constant Matrix: (Units=GPa)
#
#
# Indices 1 2 3 4 5 6 
#
# 1 122.7460 32.4377 46.0856 0.0000 0.0000 0.0000
# 2 32.4377 61.7433 19.4370 0.0000 0.0000 0.0000
# 3 46.0856 19.4370 62.0790 0.0000 0.0000 0.0000
# 4 0.0000 0.0000 0.0000 20.6359 0.0000 0.0000
# 5 0.0000 0.0000 0.0000 0.0000 9.4783 0.0000
# 6 0.0000 0.0000 0.0000 0.0000 0.0000 28.3873
#
#
#
# Elastic Compliance Matrix: (Units=1/GPa)
#
#
# Indices 1 2 3 4 5 6 
#
# 1 0.012091 -0.003912 -0.007751 0.000000 0.000000 0.000000
# 2 -0.003912 0.019233 -0.003118 0.000000 0.000000 0.000000
# 3 -0.007751 -0.003118 0.022839 0.000000 0.000000 0.000000
# 4 0.000000 0.000000 0.000000 0.048459 0.000000 0.000000
# 5 0.000000 0.000000 0.000000 0.000000 0.105504 0.000000
# 6 0.000000 0.000000 0.000000 0.000000 0.000000 0.035227
#
#
# Mechanical properties :
#
#
# Convention : Reuss Voigt Hill
#
# Bulk Modulus (GPa) = 40.64872 49.16544 44.90708
# Shear Modulus (GPa) = 17.78635 21.60749 19.69692
#
# Velocity S-wave (km/s) = 3.14640 3.46795 3.31108
# Velocity P-wave (km/s) = 5.98537 6.58793 6.29387
#
# Compressibility (1/GPa) = 0.02460102
#
# Stress axis : x y z
#
# Youngs Moduli (GPa) = 82.70667 51.99457 43.78515
#
# Poissons Ratio (x) = 0.20341 0.33938
# Poissons Ratio (y) = 0.32355 0.13650
# Poissons Ratio (z) = 0.64107 0.16210
#
# Static dielectric constant tensor:
#      x y z
#    x 3.569900 0.000000 0.000000 
#    y 0.000000 3.369690 0.000000 
#    z 0.000000 0.000000 3.213900 
# 
# 
# High freq. dielectric constant tensor:
#      x y z
#    x 1.685620 0.000000 0.000000 
#    y 0.000000 1.697060 0.000000 
#    z 0.000000 0.000000 1.672740 
# 
# From -- ./inp_files/30925.got.cif
#   From: 2010.03.12/outbox.cif.g09.slc.cpg/sg47_16_cif.got.tgz:30925.got - 2010.04.14 03:12:58.
