data_PCOD8197736
_publ_section_title
;
Structure prediction by ZEFSAII (Michael W. Deem and Ramdas Pophale) SiO2 
 PCOD8197736
Probable space group: P M M M
;
_chemical_formula_sum "Si O2"
_cell_formula_units_Z 40
_cell_length_a 9.218750
_cell_length_b 9.115167
_cell_length_c 25.745525
_cell_angle_alpha 90.000000
_cell_angle_beta 90.000000
_cell_angle_gamma 90.000000
_cell_volume 2163.407943
_symmetry_space_group_name_H-M "P M M M"
_symmetry_group_IT_number 47
_symmetry_cell_setting 'orthorhombic'
loop_
_space_group_symop_operation_xyz
x,y,z
-x,-y,z
x,-y,-z
-x,y,-z
-x,-y,-z
x,y,-z
-x,y,z
x,-y,z
loop_
_atom_site_type_symbol
_atom_site_label
_atom_site_fract_x
_atom_site_fract_y
_atom_site_fract_z
Si Si1 0.333623 0.672445 0.909249
Si Si2 0.169285 0.671336 0.602506
Si Si3 0.328010 0.167201 0.694108
Si Si4 0.172357 0.165584 0.500000
Si Si5 0.327938 0.662198 0.206322
Si Si6 0.169462 0.170193 0.000000
O O1 0.500000 0.720813 0.917415
O O2 0.317441 0.500000 0.919369
O O3 0.278517 0.712742 0.851098
O O4 0.234269 0.759653 0.948501
O O5 0.200118 0.500000 0.596201
O O6 0.255989 0.731861 0.651145
O O7 0.229448 0.751197 0.551016
O O8 0.000000 0.704075 0.610914
O O9 0.500000 0.181788 0.689006
O O10 0.273503 0.223156 0.750431
O O11 0.276549 0.000000 0.687234
O O12 0.000000 0.166678 0.500000
O O13 0.233582 0.000000 0.500000
O O14 0.500000 0.652459 0.206159
O O15 0.264993 0.500000 0.219120
O O16 0.000000 0.201102 0.000000
O O17 0.207746 0.000000 0.000000
#
# Coordination Sequence:
#
# PCOD8197736 Si02
#       6
#     8   8   8   4   8   4
#     4   9  18  34  57  81 100 124 166 213 251 295
#     4  10  20  34  53  76 101 132 172 213 251 297
#     4  10  20  33  51  77 107 137 168 204 250 302
#     4   9  17  31  52  75 100 131 166 208 258 305
#     4   8  15  30  52  76 101 129 163 205 250 296
#     4  11  24  37  48  70 106 141 170 203 248 300
#
# _framework density 18.489348
#
# number of rings (size 3 to 8) (size 9 to 14) (size 15 to 20)
#    0.000    2.600    0.000    3.300    0.000    6.800 
#    0.000    3.500    0.000    4.200    0.000    0.000 
#    0.000    0.000    0.000    0.000    0.000    0.000 
#
# Total GULP energy -495969.736925 kJ/mol
# GULP energy per Si atom -12399.243423 kJ/mol
# Density = 1.844727 g / cm^3
# Si number density = 18.489348 Si / 1000 Ang^3
#
#
#
# Elastic Constant Matrix: (Units=GPa)
#
#
# Indices 1 2 3 4 5 6 
#
# 1 31.8376 37.0361 41.7835 0.0000 0.0000 0.0000
# 2 37.0361 110.9338 75.9069 0.0000 0.0000 0.0000
# 3 41.7835 75.9069 162.3661 0.0000 0.0000 0.0000
# 4 0.0000 0.0000 0.0000 19.0150 0.0000 0.0000
# 5 0.0000 0.0000 0.0000 0.0000 59.3464 0.0000
# 6 0.0000 0.0000 0.0000 0.0000 0.0000 25.5501
#
#
#
# Elastic Compliance Matrix: (Units=1/GPa)
#
#
# Indices 1 2 3 4 5 6 
#
# 1 0.058738 -0.013626 -0.008745 0.000000 0.000000 0.000000
# 2 -0.013626 0.016415 -0.004168 0.000000 0.000000 0.000000
# 3 -0.008745 -0.004168 0.010358 0.000000 0.000000 0.000000
# 4 0.000000 0.000000 0.000000 0.052590 0.000000 0.000000
# 5 0.000000 0.000000 0.000000 0.000000 0.016850 0.000000
# 6 0.000000 0.000000 0.000000 0.000000 0.000000 0.039139
#
#
# Mechanical properties :
#
#
# Convention : Reuss Voigt Hill
#
# Bulk Modulus (GPa) = 30.83301 68.28784 49.56042
# Shear Modulus (GPa) = 19.38139 30.80969 25.09554
#
# Velocity S-wave (km/s) = 3.24118 4.08652 3.68815
# Velocity P-wave (km/s) = 5.54250 7.69935 6.70818
#
# Compressibility (1/GPa) = 0.03243278
#
# Stress axis : x y z
#
# Youngs Moduli (GPa) = 17.02478 60.91881 96.54456
#
# Poissons Ratio (x) = 0.83008 0.84433
# Poissons Ratio (y) = 0.23198 0.40237
# Poissons Ratio (z) = 0.14889 0.25389
#
# Static dielectric constant tensor:
#      x y z
#    x 3.029860 0.000000 0.000000 
#    y 0.000000 3.545190 0.000000 
#    z 0.000000 0.000000 3.705710 
# 
# 
# High freq. dielectric constant tensor:
#      x y z
#    x 1.676540 0.000000 0.000000 
#    y 0.000000 1.724160 0.000000 
#    z 0.000000 0.000000 1.735930 
# 
# From -- ./inp_files/33020.got.cif
#   From: 2010.03.12/outbox.cif.g09.slc.cpg/sg47_17_cif.got.tgz:33020.got - 2010.04.14 03:12:58.
