data_PCOD8197423
_publ_section_title
;
Structure prediction by ZEFSAII (Michael W. Deem and Ramdas Pophale) SiO2 
 PCOD8197423
Probable space group: P M M M
;
_chemical_formula_sum "Si O2"
_cell_formula_units_Z 40
_cell_length_a 27.834977
_cell_length_b 9.285586
_cell_length_c 7.722831
_cell_angle_alpha 90.000000
_cell_angle_beta 90.000000
_cell_angle_gamma 90.000000
_cell_volume 1996.074353
_symmetry_space_group_name_H-M "P M M M"
_symmetry_group_IT_number 47
_symmetry_cell_setting 'orthorhombic'
loop_
_space_group_symop_operation_xyz
x,y,z
-x,-y,z
x,-y,-z
-x,y,-z
-x,-y,-z
x,y,-z
-x,y,z
x,-y,z
loop_
_atom_site_type_symbol
_atom_site_label
_atom_site_fract_x
_atom_site_fract_y
_atom_site_fract_z
Si Si1 0.305941 0.841020 0.700377
Si Si2 0.053361 0.170362 0.000000
Si Si3 0.396777 0.338016 0.206427
Si Si4 0.217819 0.338886 0.294702
Si Si5 0.876827 0.168786 0.698574
Si Si6 0.500000 0.670449 0.811209
O O1 0.294018 0.857486 0.500000
O O2 0.357755 0.770677 0.721957
O O3 0.264254 0.742546 0.785523
O O4 0.305833 0.000000 0.786831
O O5 0.080481 0.220267 0.174894
O O6 0.000000 0.239191 0.000000
O O7 0.049415 0.000000 0.000000
O O8 0.384309 0.500000 0.269932
O O9 0.449416 0.288398 0.282205
O O10 0.398400 0.333751 0.000000
O O11 0.221935 0.346643 0.500000
O O12 0.215902 0.500000 0.216470
O O13 0.170352 0.253017 0.240129
O O14 0.891122 0.205579 0.500000
O O15 0.865920 0.000000 0.719404
O O16 0.500000 0.500000 0.835201
O O17 0.500000 0.744647 0.000000
#
# Coordination Sequence:
#
# PCOD8197423 Si02
#       6
#     8   4   8   8   8   4
#     4  10  20  33  49  71 101 134 165 201 250 306
#     4   9  18  32  51  79 111 139 173 216 257 300
#     4   9  17  31  51  73  95 122 162 208 252 300
#     4   9  17  31  52  74  96 127 167 207 248 298
#     4   9  17  31  52  76 103 137 175 214 258 307
#     4   7  12  26  48  69  90 120 158 203 250 295
#
# _framework density 20.039332000000002
#
# number of rings (size 3 to 8) (size 9 to 14) (size 15 to 20)
#    0.000    3.000    0.000    2.400    0.000    4.400 
#    1.800    3.500    0.000    6.000    0.000    2.800 
#    0.000    0.000    0.000    0.000    0.000    0.000 
#
# Total GULP energy -495671.886657 kJ/mol
# GULP energy per Si atom -12391.797166 kJ/mol
# Density = 1.999372 g / cm^3
# Si number density = 20.039332 Si / 1000 Ang^3
#
#
#
# Elastic Constant Matrix: (Units=GPa)
#
#
# Indices 1 2 3 4 5 6 
#
# 1 199.6753 79.6905 38.8898 0.0000 0.0000 0.0000
# 2 79.6905 113.2122 20.5807 0.0000 0.0000 0.0000
# 3 38.8898 20.5807 48.9976 0.0000 0.0000 0.0000
# 4 0.0000 0.0000 0.0000 10.6140 0.0000 0.0000
# 5 0.0000 0.0000 0.0000 0.0000 25.5206 0.0000
# 6 0.0000 0.0000 0.0000 0.0000 0.0000 25.3615
#
#
#
# Elastic Compliance Matrix: (Units=1/GPa)
#
#
# Indices 1 2 3 4 5 6 
#
# 1 0.007667 -0.004646 -0.004134 0.000000 0.000000 0.000000
# 2 -0.004646 0.012378 -0.001512 0.000000 0.000000 0.000000
# 3 -0.004134 -0.001512 0.024326 0.000000 0.000000 0.000000
# 4 0.000000 0.000000 0.000000 0.094215 0.000000 0.000000
# 5 0.000000 0.000000 0.000000 0.000000 0.039184 0.000000
# 6 0.000000 0.000000 0.000000 0.000000 0.000000 0.039430
#
#
# Mechanical properties :
#
#
# Convention : Reuss Voigt Hill
#
# Bulk Modulus (GPa) = 42.03929 71.13412 56.58670
# Shear Modulus (GPa) = 20.34899 27.14750 23.74825
#
# Velocity S-wave (km/s) = 3.19007 3.68463 3.44624
# Velocity P-wave (km/s) = 5.88156 7.32641 6.64338
#
# Compressibility (1/GPa) = 0.02378727
#
# Stress axis : x y z
#
# Youngs Moduli (GPa) = 130.42227 80.78966 41.10873
#
# Poissons Ratio (x) = 0.37531 0.16996
# Poissons Ratio (y) = 0.60588 0.06215
# Poissons Ratio (z) = 0.53922 0.12215
#
# Static dielectric constant tensor:
#      x y z
#    x 4.023500 0.000000 0.000000 
#    y 0.000000 3.606190 0.000000 
#    z 0.000000 0.000000 3.338850 
# 
# 
# High freq. dielectric constant tensor:
#      x y z
#    x 1.791160 0.000000 0.000000 
#    y 0.000000 1.756570 0.000000 
#    z 0.000000 0.000000 1.754710 
# 
# From -- ./inp_files/13045.got.cif
#   From: 2010.03.12/outbox.cif.g09.slc.cpg/sg47_7_cif.got.tgz:13045.got - 2010.04.14 03:12:58.
