data_PCOD8197098
_publ_section_title
;
Structure prediction by ZEFSAII (Michael W. Deem and Ramdas Pophale) SiO2 
 PCOD8197098
Probable space group: P M M M
;
_chemical_formula_sum "Si O2"
_cell_formula_units_Z 64
_cell_length_a 40.926683
_cell_length_b 9.171302
_cell_length_c 9.705025
_cell_angle_alpha 90.000000
_cell_angle_beta 90.000000
_cell_angle_gamma 90.000000
_cell_volume 3642.790544
_symmetry_space_group_name_H-M "P M M M"
_symmetry_group_IT_number 47
_symmetry_cell_setting 'orthorhombic'
loop_
_space_group_symop_operation_xyz
x,y,z
-x,-y,z
x,-y,-z
-x,y,-z
-x,-y,-z
x,y,-z
-x,y,z
x,-y,z
loop_
_atom_site_type_symbol
_atom_site_label
_atom_site_fract_x
_atom_site_fract_y
_atom_site_fract_z
Si Si1 0.152955 0.164582 0.164000
Si Si2 0.659320 0.170200 0.341656
Si Si3 0.405814 0.328785 0.341749
Si Si4 0.536102 0.673336 0.845250
Si Si5 0.088514 0.670179 0.840011
Si Si6 0.279967 0.170041 0.159292
Si Si7 0.215623 0.335567 0.836017
Si Si8 0.038020 0.833399 0.658247
O O1 0.120511 0.246446 0.215165
O O2 0.184515 0.248466 0.223933
O O3 0.152788 0.000000 0.221832
O O4 0.154341 0.164449 0.000000
O O5 0.667220 0.209271 0.500000
O O6 0.627206 0.253326 0.289213
O O7 0.689366 0.223606 0.248595
O O8 0.652877 0.000000 0.321735
O O9 0.412611 0.289820 0.500000
O O10 0.401710 0.500000 0.318127
O O11 0.436309 0.263602 0.256279
O O12 0.500000 0.729129 0.799964
O O13 0.536456 0.500000 0.839188
O O14 0.543822 0.726900 0.000000
O O15 0.094067 0.500000 0.814683
O O16 0.057399 0.723862 0.755531
O O17 0.082121 0.704565 0.000000
O O18 0.248579 0.257194 0.214149
O O19 0.272730 0.000000 0.181613
O O20 0.287457 0.204943 0.000000
O O21 0.214928 0.500000 0.778282
O O22 0.214164 0.335362 0.000000
O O23 0.047252 0.802221 0.500000
O O24 0.000000 0.803490 0.683215
O O25 0.046691 0.000000 0.696650
#
# Coordination Sequence:
#
# PCOD8197098 Si02
#       8
#     8   8   8   8   8   8   8   8
#     4   9  16  27  45  68  95 128 162 194 232 279
#     4   9  18  32  47  62  85 118 149 177 216 265
#     4   9  17  28  43  64  86 108 140 181 218 253
#     4   8  14  25  41  62  88 115 141 172 214 261
#     4  10  20  32  48  74 105 132 161 201 247 292
#     4   9  17  29  45  65  87 112 146 184 218 257
#     4   9  16  26  42  66  95 122 148 184 230 274
#     4   9  19  36  55  73  95 127 167 206 244 291
#
# _framework density 17.568949
#
# number of rings (size 3 to 8) (size 9 to 14) (size 15 to 20)
#    0.000    3.000    0.000    1.875    0.000    5.750 
#    0.000    3.125    0.000    1.125    0.000    4.375 
#    0.000    0.000    0.000    0.000    0.000    0.000 
#
# Total GULP energy -793555.063640 kJ/mol
# GULP energy per Si atom -12399.297869 kJ/mol
# Density = 1.752896 g / cm^3
# Si number density = 17.568949 Si / 1000 Ang^3
#
#
#
# Elastic Constant Matrix: (Units=GPa)
#
#
# Indices 1 2 3 4 5 6 
#
# 1 155.4412 67.3634 62.3521 0.0000 0.0000 0.0000
# 2 67.3634 83.3656 34.5776 0.0000 0.0000 0.0000
# 3 62.3521 34.5776 53.2660 0.0000 0.0000 0.0000
# 4 0.0000 0.0000 0.0000 17.2333 0.0000 0.0000
# 5 0.0000 0.0000 0.0000 0.0000 8.1889 0.0000
# 6 0.0000 0.0000 0.0000 0.0000 0.0000 30.3853
#
#
#
# Elastic Compliance Matrix: (Units=1/GPa)
#
#
# Indices 1 2 3 4 5 6 
#
# 1 0.014167 -0.006253 -0.012525 0.000000 0.000000 0.000000
# 2 -0.006253 0.019175 -0.005128 0.000000 0.000000 0.000000
# 3 -0.012525 -0.005128 0.036764 0.000000 0.000000 0.000000
# 4 0.000000 0.000000 0.000000 0.058027 0.000000 0.000000
# 5 0.000000 0.000000 0.000000 0.000000 0.122117 0.000000
# 6 0.000000 0.000000 0.000000 0.000000 0.000000 0.032911
#
#
# Mechanical properties :
#
#
# Convention : Reuss Voigt Hill
#
# Bulk Modulus (GPa) = 44.85362 68.96211 56.90786
# Shear Modulus (GPa) = 14.77529 19.68015 17.22772
#
# Velocity S-wave (km/s) = 2.90313 3.35052 3.13482
# Velocity P-wave (km/s) = 6.06820 7.36922 6.75013
#
# Compressibility (1/GPa) = 0.02229475
#
# Stress axis : x y z
#
# Youngs Moduli (GPa) = 70.58580 52.15167 27.20072
#
# Poissons Ratio (x) = 0.32610 0.34068
# Poissons Ratio (y) = 0.44136 0.13948
# Poissons Ratio (z) = 0.88407 0.26743
#
# Static dielectric constant tensor:
#      x y z
#    x 3.455950 0.000000 0.000000 
#    y 0.000000 3.177690 0.000000 
#    z 0.000000 0.000000 3.019080 
# 
# 
# High freq. dielectric constant tensor:
#      x y z
#    x 1.691340 0.000000 0.000000 
#    y 0.000000 1.668700 0.000000 
#    z 0.000000 0.000000 1.645170 
# 
# From -- ./inp_files/15727.got.cif
#   From: 2010.03.12/outbox.cif.g09.slc.cpg/sg47_8_cif.got.tgz:15727.got - 2010.04.14 03:12:58.
