data_PCOD8197676
_publ_section_title
;
Structure prediction by ZEFSAII (Michael W. Deem and Ramdas Pophale) SiO2 
 PCOD8197676
Probable space group: P M M M
;
_chemical_formula_sum "Si O2"
_cell_formula_units_Z 48
_cell_length_a 7.717135
_cell_length_b 32.927183
_cell_length_c 9.332954
_cell_angle_alpha 90.000000
_cell_angle_beta 90.000000
_cell_angle_gamma 90.000000
_cell_volume 2371.536430
_symmetry_space_group_name_H-M "P M M M"
_symmetry_group_IT_number 47
_symmetry_cell_setting 'orthorhombic'
loop_
_space_group_symop_operation_xyz
x,y,z
-x,-y,z
x,-y,-z
-x,y,-z
-x,-y,-z
x,y,-z
-x,y,z
x,-y,z
loop_
_atom_site_type_symbol
_atom_site_label
_atom_site_fract_x
_atom_site_fract_y
_atom_site_fract_z
Si Si1 0.500000 0.454878 0.330459
Si Si2 0.198734 0.604200 0.668097
Si Si3 0.205620 0.683488 0.839826
Si Si4 0.793947 0.241860 0.660665
Si Si5 0.296133 0.000000 0.338117
Si Si6 0.206193 0.847978 0.339331
Si Si7 0.798041 0.921835 0.158554
O O1 0.500000 0.500000 0.262141
O O2 0.500000 0.458128 0.500000
O O3 0.324955 0.431975 0.280668
O O4 0.218053 0.613069 0.500000
O O5 0.262175 0.644269 0.750017
O O6 0.000000 0.592467 0.706366
O O7 0.284073 0.723880 0.765540
O O8 0.000000 0.686433 0.843986
O O9 0.281963 0.680229 0.000000
O O10 0.724815 0.249852 0.500000
O O11 0.734661 0.196944 0.712694
O O12 0.000000 0.244386 0.660218
O O13 0.230659 0.039206 0.255608
O O14 0.500000 0.000000 0.342139
O O15 0.220552 0.000000 0.500000
O O16 0.275959 0.856041 0.500000
O O17 0.285966 0.882190 0.234445
O O18 0.000000 0.850573 0.340532
O O19 0.000000 0.914427 0.140940
O O20 0.714716 0.927625 0.000000
#
# Coordination Sequence:
#
# PCOD8197676 Si02
#       7
#     4   8   8   8   4   8   8
#     4   9  18  32  51  77 103 127 165 215 259 302
#     4   9  17  30  49  72  99 132 167 205 253 306
#     4   9  16  25  40  65  97 131 166 204 244 287
#     4   8  13  22  38  63  96 131 166 202 239 284
#     4  11  24  39  54  72  92 121 164 207 248 298
#     4   8  14  25  42  66  97 131 163 196 237 285
#     4  10  20  33  51  76 103 129 159 198 246 299
#
# _framework density 20.240044000000001
#
# number of rings (size 3 to 8) (size 9 to 14) (size 15 to 20)
#    0.000    3.000    0.000    2.500    0.000    5.667 
#    0.000    5.417    0.000    1.000    2.167    2.333 
#    0.000    0.000    0.000    0.000    0.000    0.000 
#
# Total GULP energy -594931.656580 kJ/mol
# GULP energy per Si atom -12394.409512 kJ/mol
# Density = 2.019398 g / cm^3
# Si number density = 20.240044 Si / 1000 Ang^3
#
#
#
# Elastic Constant Matrix: (Units=GPa)
#
#
# Indices 1 2 3 4 5 6 
#
# 1 42.3528 33.5274 19.5554 0.0000 0.0000 0.0000
# 2 33.5274 208.3344 96.9759 0.0000 0.0000 0.0000
# 3 19.5554 96.9759 132.5252 0.0000 0.0000 0.0000
# 4 0.0000 0.0000 0.0000 9.9221 0.0000 0.0000
# 5 0.0000 0.0000 0.0000 0.0000 4.4306 0.0000
# 6 0.0000 0.0000 0.0000 0.0000 0.0000 -20.2036
#
#
#
# Elastic Compliance Matrix: (Units=1/GPa)
#
#
# Indices 1 2 3 4 5 6 
#
# 1 0.027190 -0.003804 -0.001229 0.000000 0.000000 0.000000
# 2 -0.003804 0.007812 -0.005155 0.000000 0.000000 0.000000
# 3 -0.001229 -0.005155 0.011499 0.000000 0.000000 0.000000
# 4 0.000000 0.000000 0.000000 0.100785 0.000000 0.000000
# 5 0.000000 0.000000 0.000000 0.000000 0.225701 0.000000
# 6 0.000000 0.000000 0.000000 0.000000 0.000000 -0.049496
#
#
# Mechanical properties :
#
#
# Convention : Reuss Voigt Hill
#
# Bulk Modulus (GPa) = 38.27639 75.92552 57.10096
# Shear Modulus (GPa) = 14.18141 14.37340 14.27741
#
# Velocity S-wave (km/s) = 2.64987 2.66775 2.65883
# Velocity P-wave (km/s) = 5.32116 6.86172 6.13994
#
# Compressibility (1/GPa) = 0.02612576
#
# Stress axis : x y z
#
# Youngs Moduli (GPa) = 36.77870 128.01425 86.96277
#
# Poissons Ratio (x) = 0.48693 0.10685
# Poissons Ratio (y) = 0.13990 0.44829
# Poissons Ratio (z) = 0.04519 0.65990
#
# Static dielectric constant tensor:
#      x y z
#    x 3.261210 0.000000 0.000000 
#    y 0.000000 3.957380 0.000000 
#    z 0.000000 0.000000 3.920160 
# 
# 
# High freq. dielectric constant tensor:
#      x y z
#    x 1.755050 0.000000 0.000000 
#    y 0.000000 1.796590 0.000000 
#    z 0.000000 0.000000 1.778450 
# 
# From -- ./inp_files/2530.got.cif
#   From: 2010.03.12/outbox.cif.g09.slc.cpg/sg47_2_cif.got.tgz:2530.got - 2010.04.14 03:12:58.
