data_PCOD8197083
_publ_section_title
;
Structure prediction by ZEFSAII (Michael W. Deem and Ramdas Pophale) SiO2 
 PCOD8197083
Probable space group: P M M M
;
_chemical_formula_sum "Si O2"
_cell_formula_units_Z 56
_cell_length_a 18.155995
_cell_length_b 18.817811
_cell_length_c 9.284496
_cell_angle_alpha 90.000000
_cell_angle_beta 90.000000
_cell_angle_gamma 90.000000
_cell_volume 3172.104531
_symmetry_space_group_name_H-M "P M M M"
_symmetry_group_IT_number 47
_symmetry_cell_setting 'orthorhombic'
loop_
_space_group_symop_operation_xyz
x,y,z
-x,-y,z
x,-y,-z
-x,y,-z
-x,-y,-z
x,y,-z
-x,y,z
x,-y,z
loop_
_atom_site_type_symbol
_atom_site_label
_atom_site_fract_x
_atom_site_fract_y
_atom_site_fract_z
Si Si1 0.350352 0.792204 0.831687
Si Si2 0.585180 0.081731 0.333441
Si Si3 0.797084 0.710404 0.164123
Si Si4 0.087403 0.077863 0.839013
Si Si5 0.584541 0.664679 0.335161
Si Si6 0.300978 0.419313 0.834124
Si Si7 0.914805 0.212811 0.668310
O O1 0.362549 0.870311 0.766336
O O2 0.266204 0.768637 0.805935
O O3 0.404120 0.737588 0.751248
O O4 0.370105 0.792200 0.000000
O O5 0.600325 0.099768 0.500000
O O6 0.500000 0.096792 0.296167
O O7 0.604743 0.000000 0.300813
O O8 0.767561 0.631829 0.202308
O O9 0.867359 0.723610 0.264809
O O10 0.823954 0.714561 0.000000
O O11 0.115763 0.138299 0.731256
O O12 0.000000 0.076152 0.838127
O O13 0.117037 0.000000 0.790343
O O14 0.116004 0.095447 0.000000
O O15 0.609764 0.676114 0.500000
O O16 0.500000 0.642078 0.326560
O O17 0.630069 0.600224 0.265446
O O18 0.276574 0.500000 0.804008
O O19 0.324840 0.407524 0.000000
O O20 0.902162 0.210738 0.500000
O O21 0.000000 0.225498 0.708738
#
# Coordination Sequence:
#
# PCOD8197083 Si02
#       7
#     8   8   8   8   8   8   8
#     4  10  20  33  50  72  97 127 168 214 253 292
#     4   9  18  32  49  70  98 133 172 213 257 302
#     4   9  19  35  53  73  97 127 161 196 240 295
#     4   8  14  26  45  68  94 125 158 190 229 279
#     4  10  20  32  48  73 104 136 168 200 237 287
#     4   9  19  36  56  77 101 129 162 201 243 286
#     4  10  20  32  49  75 102 127 160 203 246 289
#
# _framework density 17.653894999999999
#
# number of rings (size 3 to 8) (size 9 to 14) (size 15 to 20)
#    0.000    2.714    0.000    3.429    0.000    8.000 
#    0.000    4.286    0.000    1.286    0.000    3.000 
#    0.000    0.000    0.000    0.000    0.000    0.000 
#
# Total GULP energy -694370.637546 kJ/mol
# GULP energy per Si atom -12399.475670 kJ/mol
# Density = 1.761371 g / cm^3
# Si number density = 17.653895 Si / 1000 Ang^3
#
#
#
# Elastic Constant Matrix: (Units=GPa)
#
#
# Indices 1 2 3 4 5 6 
#
# 1 69.8258 54.1968 57.0518 0.0000 0.0000 0.0000
# 2 54.1968 130.0548 67.5591 0.0000 0.0000 0.0000
# 3 57.0518 67.5591 110.0452 0.0000 0.0000 0.0000
# 4 0.0000 0.0000 0.0000 24.9000 0.0000 0.0000
# 5 0.0000 0.0000 0.0000 0.0000 29.0828 0.0000
# 6 0.0000 0.0000 0.0000 0.0000 0.0000 19.1331
#
#
#
# Elastic Compliance Matrix: (Units=1/GPa)
#
#
# Indices 1 2 3 4 5 6 
#
# 1 0.027702 -0.005996 -0.010681 0.000000 0.000000 0.000000
# 2 -0.005996 0.012587 -0.004619 0.000000 0.000000 0.000000
# 3 -0.010681 -0.004619 0.017460 0.000000 0.000000 0.000000
# 4 0.000000 0.000000 0.000000 0.040161 0.000000 0.000000
# 5 0.000000 0.000000 0.000000 0.000000 0.034385 0.000000
# 6 0.000000 0.000000 0.000000 0.000000 0.000000 0.052265
#
#
# Mechanical properties :
#
#
# Convention : Reuss Voigt Hill
#
# Bulk Modulus (GPa) = 65.97164 74.17124 70.07144
# Shear Modulus (GPa) = 21.53280 23.36441 22.44861
#
# Velocity S-wave (km/s) = 3.49624 3.64190 3.56981
# Velocity P-wave (km/s) = 7.33136 7.73239 7.53454
#
# Compressibility (1/GPa) = 0.01515803
#
# Stress axis : x y z
#
# Youngs Moduli (GPa) = 36.09851 79.44682 57.27262
#
# Poissons Ratio (x) = 0.47633 0.61173
# Poissons Ratio (y) = 0.21643 0.26455
# Poissons Ratio (z) = 0.38557 0.36697
#
# Static dielectric constant tensor:
#      x y z
#    x 2.995430 0.000000 0.000000 
#    y 0.000000 3.340970 0.000000 
#    z 0.000000 0.000000 3.337390 
# 
# 
# High freq. dielectric constant tensor:
#      x y z
#    x 1.655050 0.000000 0.000000 
#    y 0.000000 1.679160 0.000000 
#    z 0.000000 0.000000 1.687880 
# 
# From -- ./inp_files/9873.got.cif
#   From: 2010.03.12/outbox.cif.g09.slc.cpg/sg47_5_cif.got.tgz:9873.got - 2010.04.14 03:12:58.
