data_PCOD8197487
_publ_section_title
;
Structure prediction by ZEFSAII (Michael W. Deem and Ramdas Pophale) SiO2 
 PCOD8197487
Probable space group: P M M M
;
_chemical_formula_sum "Si O2"
_cell_formula_units_Z 52
_cell_length_a 16.105650
_cell_length_b 18.853457
_cell_length_c 8.697368
_cell_angle_alpha 90.000000
_cell_angle_beta 90.000000
_cell_angle_gamma 90.000000
_cell_volume 2640.931264
_symmetry_space_group_name_H-M "P M M M"
_symmetry_group_IT_number 47
_symmetry_cell_setting 'orthorhombic'
loop_
_space_group_symop_operation_xyz
x,y,z
-x,-y,z
x,-y,-z
-x,y,-z
-x,-y,-z
x,y,-z
-x,y,z
x,-y,z
loop_
_atom_site_type_symbol
_atom_site_label
_atom_site_fract_x
_atom_site_fract_y
_atom_site_fract_z
Si Si1 0.668923 0.576939 0.680982
Si Si2 0.410593 0.082146 0.167931
Si Si3 0.838560 0.645899 0.679616
Si Si4 0.246759 0.079836 0.676733
Si Si5 0.405269 0.278490 0.681765
Si Si6 0.000000 0.420479 0.180852
Si Si7 0.243642 0.220452 0.821061
O O1 0.658401 0.572453 0.500000
O O2 0.644279 0.500000 0.753323
O O3 0.764482 0.592450 0.723751
O O4 0.610737 0.640734 0.741445
O O5 0.500000 0.116849 0.212995
O O6 0.345253 0.093534 0.304406
O O7 0.424772 0.000000 0.144582
O O8 0.379314 0.112551 0.000000
O O9 0.857739 0.645482 0.500000
O O10 0.919818 0.622489 0.768045
O O11 0.812398 0.724754 0.727914
O O12 0.221770 0.089029 0.500000
O O13 0.206066 0.142280 0.779131
O O14 0.222104 0.000000 0.734066
O O15 0.386688 0.273434 0.500000
O O16 0.500000 0.257858 0.721071
O O17 0.341363 0.226352 0.770293
O O18 0.000000 0.500000 0.252379
O O19 0.000000 0.425387 0.000000
O O20 0.234107 0.235613 0.000000
#
# Coordination Sequence:
#
# PCOD8197487 Si02
#       7
#     8   8   8   8   8   4   8
#     4   8  14  26  47  75 103 131 169 219 267 307
#     4   8  14  25  40  59  86 119 155 200 257 317
#     4  10  20  36  57  81 111 147 186 220 258 314
#     4  10  20  33  50  72  96 124 164 214 265 320
#     4   9  18  32  49  70  98 135 181 229 273 322
#     4  11  23  37  57  91 130 157 180 215 259 309
#     4  11  22  36  54  74 102 140 179 223 277 329
#
# _framework density 19.690024000000001
#
# number of rings (size 3 to 8) (size 9 to 14) (size 15 to 20)
#    0.000    2.538    0.000    4.385    0.000    3.692 
#    0.000    3.077    0.000    4.154    0.000    4.846 
#    0.000    4.308    0.000    0.000    0.000    0.000 
#
# Total GULP energy -644276.696022 kJ/mol
# GULP energy per Si atom -12389.936462 kJ/mol
# Density = 1.964521 g / cm^3
# Si number density = 19.690024 Si / 1000 Ang^3
#
#
#
# Elastic Constant Matrix: (Units=GPa)
#
#
# Indices 1 2 3 4 5 6 
#
# 1 59.0180 14.5061 13.8416 0.0000 0.0000 0.0000
# 2 14.5061 126.4323 16.9443 0.0000 0.0000 0.0000
# 3 13.8416 16.9443 50.6317 0.0000 0.0000 0.0000
# 4 0.0000 0.0000 0.0000 22.6855 0.0000 0.0000
# 5 0.0000 0.0000 0.0000 0.0000 21.2747 0.0000
# 6 0.0000 0.0000 0.0000 0.0000 0.0000 10.5056
#
#
#
# Elastic Compliance Matrix: (Units=1/GPa)
#
#
# Indices 1 2 3 4 5 6 
#
# 1 0.018373 -0.001502 -0.004520 0.000000 0.000000 0.000000
# 2 -0.001502 0.008404 -0.002402 0.000000 0.000000 0.000000
# 3 -0.004520 -0.002402 0.021790 0.000000 0.000000 0.000000
# 4 0.000000 0.000000 0.000000 0.044081 0.000000 0.000000
# 5 0.000000 0.000000 0.000000 0.000000 0.047004 0.000000
# 6 0.000000 0.000000 0.000000 0.000000 0.000000 0.095187
#
#
# Mechanical properties :
#
#
# Convention : Reuss Voigt Hill
#
# Bulk Modulus (GPa) = 31.52709 36.29624 33.91166
# Shear Modulus (GPa) = 19.06503 23.61251 21.33877
#
# Velocity S-wave (km/s) = 3.11506 3.46672 3.29558
# Velocity P-wave (km/s) = 5.38374 5.87350 5.63394
#
# Compressibility (1/GPa) = 0.03171875
#
# Stress axis : x y z
#
# Youngs Moduli (GPa) = 54.42667 118.99671 45.89283
#
# Poissons Ratio (x) = 0.17876 0.20744
# Poissons Ratio (y) = 0.08176 0.11022
# Poissons Ratio (z) = 0.24602 0.28579
#
# Static dielectric constant tensor:
#      x y z
#    x 3.337690 0.000000 0.000000 
#    y 0.000000 4.074510 0.000000 
#    z 0.000000 0.000000 3.370080 
# 
# 
# High freq. dielectric constant tensor:
#      x y z
#    x 1.719690 0.000000 0.000000 
#    y 0.000000 1.790030 0.000000 
#    z 0.000000 0.000000 1.749700 
# 
# From -- ./inp_files/9523.got.cif
#   From: 2010.03.12/outbox.cif.g09.slc.cpg/sg47_5_cif.got.tgz:9523.got - 2010.04.14 03:12:58.
