data_PCOD8197505
_publ_section_title
;
Structure prediction by ZEFSAII (Michael W. Deem and Ramdas Pophale) SiO2 
 PCOD8197505
Probable space group: P M M M
;
_chemical_formula_sum "Si O2"
_cell_formula_units_Z 48
_cell_length_a 9.068087
_cell_length_b 30.734627
_cell_length_c 9.309284
_cell_angle_alpha 90.000000
_cell_angle_beta 90.000000
_cell_angle_gamma 90.000000
_cell_volume 2594.537216
_symmetry_space_group_name_H-M "P M M M"
_symmetry_group_IT_number 47
_symmetry_cell_setting 'orthorhombic'
loop_
_space_group_symop_operation_xyz
x,y,z
-x,-y,z
x,-y,-z
-x,y,-z
-x,-y,-z
x,y,-z
-x,y,z
x,-y,z
loop_
_atom_site_type_symbol
_atom_site_label
_atom_site_fract_x
_atom_site_fract_y
_atom_site_fract_z
Si Si1 0.167002 0.450368 0.668016
Si Si2 0.675521 0.128831 0.161423
Si Si3 0.669700 0.622557 0.833768
Si Si4 0.675421 0.951873 0.338704
Si Si5 0.672398 0.213382 0.667750
Si Si6 0.173936 0.289655 0.835136
O O1 0.183502 0.442012 0.500000
O O2 0.207212 0.500000 0.706057
O O3 0.280878 0.419848 0.748854
O O4 0.000000 0.440063 0.717387
O O5 0.500000 0.126960 0.159734
O O6 0.740421 0.084753 0.232480
O O7 0.729363 0.169852 0.254021
O O8 0.738242 0.132857 0.000000
O O9 0.500000 0.632385 0.799734
O O10 0.763064 0.664163 0.783315
O O11 0.697184 0.612869 0.000000
O O12 0.733366 0.942893 0.500000
O O13 0.500000 0.949523 0.338856
O O14 0.726735 0.000000 0.287226
O O15 0.707262 0.208725 0.500000
O O16 0.500000 0.221005 0.696306
O O17 0.760789 0.253454 0.731709
O O18 0.000000 0.290708 0.817296
O O19 0.220745 0.280103 0.000000
#
# Coordination Sequence:
#
# PCOD8197505 Si02
#       6
#     8   8   8   8   8   8
#     4   9  19  36  56  78 106 141 179 216 254 297
#     4   9  16  25  39  60  87 121 160 202 247 294
#     4  10  21  36  55  80 108 137 170 209 253 302
#     4   8  13  21  33  51  80 119 159 198 242 293
#     4  10  20  33  50  72  98 129 165 204 248 300
#     4  10  21  37  56  76  99 129 165 205 251 302
#
# _framework density 18.500409000000001
#
# number of rings (size 3 to 8) (size 9 to 14) (size 15 to 20)
#    0.000    2.667    0.000    3.000    0.000    7.000 
#    0.000    4.167    0.000    0.000    0.000    0.000 
#    0.000    0.667    0.000    7.000    0.000    9.667 
#
# Total GULP energy -595197.144798 kJ/mol
# GULP energy per Si atom -12399.940517 kJ/mol
# Density = 1.845830 g / cm^3
# Si number density = 18.500409 Si / 1000 Ang^3
#
#
#
# Elastic Constant Matrix: (Units=GPa)
#
#
# Indices 1 2 3 4 5 6 
#
# 1 46.4863 45.0896 39.3193 0.0000 0.0000 0.0000
# 2 45.0896 154.3204 83.8140 0.0000 0.0000 0.0000
# 3 39.3193 83.8140 106.9933 0.0000 0.0000 0.0000
# 4 0.0000 0.0000 0.0000 41.6055 0.0000 0.0000
# 5 0.0000 0.0000 0.0000 0.0000 22.4314 0.0000
# 6 0.0000 0.0000 0.0000 0.0000 0.0000 -2.6439
#
#
#
# Elastic Compliance Matrix: (Units=1/GPa)
#
#
# Indices 1 2 3 4 5 6 
#
# 1 0.033631 -0.005420 -0.008114 0.000000 0.000000 0.000000
# 2 -0.005420 0.012152 -0.007528 0.000000 0.000000 0.000000
# 3 -0.008114 -0.007528 0.018225 0.000000 0.000000 0.000000
# 4 0.000000 0.000000 0.000000 0.024035 0.000000 0.000000
# 5 0.000000 0.000000 0.000000 0.000000 0.044580 0.000000
# 6 0.000000 0.000000 0.000000 0.000000 0.000000 -0.378224
#
#
# Mechanical properties :
#
#
# Convention : Reuss Voigt Hill
#
# Bulk Modulus (GPa) = 45.69101 71.58285 58.63693
# Shear Modulus (GPa) = -25.48651 21.58374 -1.95139
#
# Velocity S-wave (km/s) = -3.71566 3.41935 -1.02814
# Velocity P-wave (km/s) = 2.51849 7.37332 5.50948
#
# Compressibility (1/GPa) = 0.02188614
#
# Stress axis : x y z
#
# Youngs Moduli (GPa) = 29.73412 82.29136 54.87008
#
# Poissons Ratio (x) = 0.44600 0.44520
# Poissons Ratio (y) = 0.16115 0.41304
# Poissons Ratio (z) = 0.24125 0.61945
#
# Static dielectric constant tensor:
#      x y z
#    x 3.024550 0.000000 0.000000 
#    y 0.000000 3.595220 0.000000 
#    z 0.000000 0.000000 3.466310 
# 
# 
# High freq. dielectric constant tensor:
#      x y z
#    x 1.677590 0.000000 0.000000 
#    y 0.000000 1.732590 0.000000 
#    z 0.000000 0.000000 1.718210 
# 
# From -- ./inp_files/2430.got.cif
#   From: 2010.03.12/outbox.cif.g09.slc.cpg/sg47_2_cif.got.tgz:2430.got - 2010.04.14 03:12:58.
