data_PCOD8197951
_publ_section_title
;
Structure prediction by ZEFSAII (Michael W. Deem and Ramdas Pophale) SiO2 
 PCOD8197951
Probable space group: P M M M
;
_chemical_formula_sum "Si O2"
_cell_formula_units_Z 52
_cell_length_a 15.206201
_cell_length_b 9.338618
_cell_length_c 22.325662
_cell_angle_alpha 90.000000
_cell_angle_beta 90.000000
_cell_angle_gamma 90.000000
_cell_volume 3170.353453
_symmetry_space_group_name_H-M "P M M M"
_symmetry_group_IT_number 47
_symmetry_cell_setting 'orthorhombic'
loop_
_space_group_symop_operation_xyz
x,y,z
-x,-y,z
x,-y,-z
-x,y,-z
-x,-y,-z
x,y,-z
-x,y,z
x,-y,z
loop_
_atom_site_type_symbol
_atom_site_label
_atom_site_fract_x
_atom_site_fract_y
_atom_site_fract_z
Si Si1 0.673226 0.666442 0.137657
Si Si2 0.500000 0.668561 0.068045
Si Si3 0.160768 0.834608 0.107082
Si Si4 0.900541 0.834683 0.760335
Si Si5 0.097716 0.653125 0.000000
Si Si6 0.598973 0.671676 0.628864
Si Si7 0.603865 0.344055 0.500000
Si Si8 0.730816 0.666591 0.729885
O O1 0.693339 0.500000 0.123756
O O2 0.582542 0.717376 0.107903
O O3 0.742673 0.769008 0.106904
O O4 0.676637 0.693651 0.208994
O O5 0.500000 0.500000 0.061214
O O6 0.500000 0.734575 0.000000
O O7 0.109965 0.811292 0.169017
O O8 0.109089 0.749155 0.057811
O O9 0.167044 0.000000 0.089531
O O10 0.825511 0.744215 0.726501
O O11 0.000000 0.785782 0.742306
O O12 0.886314 0.000000 0.743327
O O13 0.152279 0.500000 0.000000
O O14 0.000000 0.600529 0.000000
O O15 0.500000 0.724747 0.645061
O O16 0.599053 0.500000 0.626992
O O17 0.628871 0.733554 0.563031
O O18 0.668299 0.728864 0.677626
O O19 0.649701 0.500000 0.500000
O O20 0.500000 0.364976 0.500000
O O21 0.750699 0.500000 0.720770
#
# Coordination Sequence:
#
# PCOD8197951 Si02
#       8
#     8   4   8   8   4   8   4   8
#     4   9  18  31  46  65  89 116 149 186 225 265
#     4   9  18  30  45  63  83 116 155 185 214 260
#     4  10  20  34  51  68  88 113 143 179 223 271
#     4   9  18  33  50  65  86 118 151 183 223 273
#     4  11  23  35  49  70  91 110 135 171 220 277
#     4   8  13  21  37  62  95 128 155 184 220 265
#     4   7  10  18  32  56  90 127 158 182 215 261
#     4   9  17  27  43  70  95 116 146 188 231 266
#
# _framework density 16.401955999999998
#
# number of rings (size 3 to 8) (size 9 to 14) (size 15 to 20)
#    0.000    3.000    0.000    2.077    2.154    2.154 
#    0.000    0.385    0.000    0.923    0.000    1.077 
#    0.000    6.154    0.000    0.000    0.000    0.000 
#
# Total GULP energy -644215.670257 kJ/mol
# GULP energy per Si atom -12388.762890 kJ/mol
# Density = 1.636462 g / cm^3
# Si number density = 16.401956 Si / 1000 Ang^3
#
#
#
# Elastic Constant Matrix: (Units=GPa)
#
#
# Indices 1 2 3 4 5 6 
#
# 1 125.2609 38.0376 65.7715 0.0000 0.0000 0.0000
# 2 38.0376 55.0809 32.5004 0.0000 0.0000 0.0000
# 3 65.7715 32.5004 100.4381 0.0000 0.0000 0.0000
# 4 0.0000 0.0000 0.0000 9.9039 0.0000 0.0000
# 5 0.0000 0.0000 0.0000 0.0000 19.6040 0.0000
# 6 0.0000 0.0000 0.0000 0.0000 0.0000 -8.0860
#
#
#
# Elastic Compliance Matrix: (Units=1/GPa)
#
#
# Indices 1 2 3 4 5 6 
#
# 1 0.013177 -0.004954 -0.007026 0.000000 0.000000 0.000000
# 2 -0.004954 0.024302 -0.004620 0.000000 0.000000 0.000000
# 3 -0.007026 -0.004620 0.016052 0.000000 0.000000 0.000000
# 4 0.000000 0.000000 0.000000 0.100971 0.000000 0.000000
# 5 0.000000 0.000000 0.000000 0.000000 0.051010 0.000000
# 6 0.000000 0.000000 0.000000 0.000000 0.000000 -0.123671
#
#
# Mechanical properties :
#
#
# Convention : Reuss Voigt Hill
#
# Bulk Modulus (GPa) = 49.18356 61.48875 55.33616
# Shear Modulus (GPa) = 41.04537 13.91574 27.48055
#
# Velocity S-wave (km/s) = 5.00789 2.91592 4.09766
# Velocity P-wave (km/s) = 7.96807 6.99334 7.49657
#
# Compressibility (1/GPa) = 0.02033200
#
# Stress axis : x y z
#
# Youngs Moduli (GPa) = 75.89137 41.14872 62.29767
#
# Poissons Ratio (x) = 0.20385 0.43768
# Poissons Ratio (y) = 0.37597 0.28780
# Poissons Ratio (z) = 0.53319 0.19009
#
# Static dielectric constant tensor:
#      x y z
#    x 3.137750 0.000000 0.000000 
#    y 0.000000 2.865130 0.000000 
#    z 0.000000 0.000000 3.448210 
# 
# 
# High freq. dielectric constant tensor:
#      x y z
#    x 1.623660 0.000000 0.000000 
#    y 0.000000 1.602430 0.000000 
#    z 0.000000 0.000000 1.622090 
# 
# From -- ./inp_files/32681.got.cif
#   From: 2010.03.12/outbox.cif.g09.slc.cpg/sg47_17_cif.got.tgz:32681.got - 2010.04.14 03:12:58.
