data_PCOD8197345
_publ_section_title
;
Structure prediction by ZEFSAII (Michael W. Deem and Ramdas Pophale) SiO2 
 PCOD8197345
Probable space group: P M M M
;
_chemical_formula_sum "Si O2"
_cell_formula_units_Z 52
_cell_length_a 8.839017
_cell_length_b 34.356355
_cell_length_c 9.093322
_cell_angle_alpha 90.000000
_cell_angle_beta 90.000000
_cell_angle_gamma 90.000000
_cell_volume 2761.427343
_symmetry_space_group_name_H-M "P M M M"
_symmetry_group_IT_number 47
_symmetry_cell_setting 'orthorhombic'
loop_
_space_group_symop_operation_xyz
x,y,z
-x,-y,z
x,-y,-z
-x,y,-z
-x,-y,-z
x,y,-z
-x,y,z
x,-y,z
loop_
_atom_site_type_symbol
_atom_site_label
_atom_site_fract_x
_atom_site_fract_y
_atom_site_fract_z
Si Si1 0.819925 0.924162 0.166104
Si Si2 0.822405 0.152948 0.670605
Si Si3 0.669713 0.458795 0.174821
Si Si4 0.680303 0.300752 0.334676
Si Si5 0.681232 0.375533 0.165906
Si Si6 0.819443 0.000000 0.666388
Si Si7 0.679600 0.224939 0.166433
O O1 0.761871 0.885782 0.249340
O O2 0.000000 0.925289 0.165839
O O3 0.756393 0.961967 0.250322
O O4 0.756688 0.923959 0.000000
O O5 0.780921 0.149484 0.500000
O O6 0.738262 0.189417 0.738405
O O7 0.000000 0.158290 0.695526
O O8 0.500000 0.460624 0.237547
O O9 0.751663 0.500000 0.223193
O O10 0.744665 0.417667 0.226502
O O11 0.664173 0.456638 0.000000
O O12 0.742228 0.296226 0.500000
O O13 0.500000 0.301383 0.332651
O O14 0.744433 0.341023 0.267945
O O15 0.741102 0.264802 0.238155
O O16 0.500000 0.376859 0.168575
O O17 0.737663 0.367528 0.000000
O O18 0.757642 0.000000 0.500000
O O19 0.000000 0.000000 0.666478
O O20 0.500000 0.224316 0.168389
O O21 0.741455 0.222089 0.000000
#
# Coordination Sequence:
#
# PCOD8197345 Si02
#       7
#     8   8   8   8   8   4   8
#     4   9  16  26  41  62  89 120 152 185 221 261
#     4  10  20  33  49  70  96 124 152 183 223 270
#     4   7   9  13  22  37  56  79 111 152 195 238
#     4   9  16  25  37  53  74 100 131 170 215 259
#     4   8  12  18  29  44  62  86 119 160 203 246
#     4   9  15  23  37  59  88 119 150 185 224 263
#     4  10  20  33  49  68  89 115 150 190 228 266
#
# _framework density 18.830839999999998
#
# number of rings (size 3 to 8) (size 9 to 14) (size 15 to 20)
#    0.000    3.154    0.000    3.462    0.000    6.462 
#    0.000    0.000    0.000    0.462    0.000    3.769 
#    0.000    4.308    0.000    0.000    0.000    0.769 
#
# Total GULP energy -644278.330945 kJ/mol
# GULP energy per Si atom -12389.967903 kJ/mol
# Density = 1.878798 g / cm^3
# Si number density = 18.830840 Si / 1000 Ang^3
#
#
#
# Elastic Constant Matrix: (Units=GPa)
#
#
# Indices 1 2 3 4 5 6 
#
# 1 3.1483 9.7337 8.9200 0.0000 0.0000 0.0000
# 2 9.7337 198.3288 72.8699 0.0000 0.0000 0.0000
# 3 8.9200 72.8699 123.5663 0.0000 0.0000 0.0000
# 4 0.0000 0.0000 0.0000 20.0925 0.0000 0.0000
# 5 0.0000 0.0000 0.0000 0.0000 11.4697 0.0000
# 6 0.0000 0.0000 0.0000 0.0000 0.0000 50.8600
#
#
#
# Elastic Compliance Matrix: (Units=1/GPa)
#
#
# Indices 1 2 3 4 5 6 
#
# 1 0.420960 -0.012121 -0.023240 0.000000 0.000000 0.000000
# 2 -0.012121 0.006786 -0.003127 0.000000 0.000000 0.000000
# 3 -0.023240 -0.003127 0.011614 0.000000 0.000000 0.000000
# 4 0.000000 0.000000 0.000000 0.049770 0.000000 0.000000
# 5 0.000000 0.000000 0.000000 0.000000 0.087186 0.000000
# 6 0.000000 0.000000 0.000000 0.000000 0.000000 0.019662
#
#
# Mechanical properties :
#
#
# Convention : Reuss Voigt Hill
#
# Bulk Modulus (GPa) = 2.75950 56.45452 29.60701
# Shear Modulus (GPa) = 6.29922 32.05241 19.17581
#
# Velocity S-wave (km/s) = 1.83096 4.13016 3.19457
# Velocity P-wave (km/s) = 2.43690 7.26561 5.41884
#
# Compressibility (1/GPa) = 0.36238411
#
# Stress axis : x y z
#
# Youngs Moduli (GPa) = 2.37552 147.36523 86.09989
#
# Poissons Ratio (x) = 1.78625 2.00098
# Poissons Ratio (y) = 0.02879 0.26921
# Poissons Ratio (z) = 0.05521 0.46078
#
# Static dielectric constant tensor:
#      x y z
#    x 2.640520 0.000000 0.000000 
#    y 0.000000 3.999500 0.000000 
#    z 0.000000 0.000000 3.506250 
# 
# 
# High freq. dielectric constant tensor:
#      x y z
#    x 1.638640 0.000000 0.000000 
#    y 0.000000 1.763520 0.000000 
#    z 0.000000 0.000000 1.724280 
# 
# From -- ./inp_files/4820.got.cif
#   From: 2010.03.12/outbox.cif.g09.slc.cpg/sg47_3_cif.got.tgz:4820.got - 2010.04.14 03:12:58.
