data_PCOD8197867
_publ_section_title
;
Structure prediction by ZEFSAII (Michael W. Deem and Ramdas Pophale) SiO2 
 PCOD8197867
Probable space group: P M M M
;
_chemical_formula_sum "Si O2"
_cell_formula_units_Z 64
_cell_length_a 9.093082
_cell_length_b 25.149415
_cell_length_c 14.327150
_cell_angle_alpha 90.000000
_cell_angle_beta 90.000000
_cell_angle_gamma 90.000000
_cell_volume 3276.414224
_symmetry_space_group_name_H-M "P M M M"
_symmetry_group_IT_number 47
_symmetry_cell_setting 'orthorhombic'
loop_
_space_group_symop_operation_xyz
x,y,z
-x,-y,z
x,-y,-z
-x,y,-z
-x,-y,-z
x,y,-z
-x,y,z
x,-y,z
loop_
_atom_site_type_symbol
_atom_site_label
_atom_site_fract_x
_atom_site_fract_y
_atom_site_fract_z
Si Si1 0.835163 0.436865 0.602528
Si Si2 0.169517 0.351606 0.890730
Si Si3 0.670113 0.562439 0.783269
Si Si4 0.825657 0.894510 0.600838
Si Si5 0.829115 0.773168 0.394719
Si Si6 0.674125 0.742206 0.783022
Si Si7 0.826095 0.059863 0.792063
Si Si8 0.329042 0.846757 0.892802
O O1 0.784504 0.416039 0.500000
O O2 0.835363 0.500000 0.601640
O O3 0.724452 0.416316 0.682035
O O4 0.000000 0.415999 0.624266
O O5 0.237732 0.408537 0.863504
O O6 0.258856 0.305794 0.840233
O O7 0.000000 0.349732 0.860170
O O8 0.188116 0.343448 0.000000
O O9 0.500000 0.577101 0.793005
O O10 0.698694 0.500000 0.795124
O O11 0.765639 0.915681 0.500000
O O12 0.775489 0.833868 0.614334
O O13 0.764904 0.929060 0.687135
O O14 0.000000 0.897145 0.598340
O O15 0.801143 0.752306 0.500000
O O16 0.733422 0.738818 0.322724
O O17 0.000000 0.767761 0.368319
O O18 0.500000 0.736446 0.783903
O O19 0.725909 0.797386 0.830553
O O20 0.756045 0.099818 0.865789
O O21 0.000000 0.068099 0.794638
O O22 0.781990 0.000000 0.820165
O O23 0.500000 0.857522 0.876376
O O24 0.294458 0.833053 0.000000
#
# Coordination Sequence:
#
# PCOD8197867 Si02
#       8
#     8   8   8   8   8   8   8   8
#     4   8  14  27  50  80 114 153 195 236 277 324
#     4  11  25  43  63  87 114 148 191 239 290 341
#     4  10  21  37  59  88 122 159 195 234 283 337
#     4   8  14  27  49  77 109 144 180 220 269 326
#     4   9  17  32  57  86 116 151 188 226 273 335
#     4  11  22  38  62  88 115 145 182 235 289 341
#     4  10  20  33  52  80 111 142 183 236 283 327
#     4  10  22  39  57  77 103 142 187 228 281 346
#
# _framework density 19.533548
#
# number of rings (size 3 to 8) (size 9 to 14) (size 15 to 20)
#    0.000    2.375    1.250    2.625    0.000    4.500 
#    0.000    5.625    0.000    4.125    0.000    0.875 
#    0.000    0.000    0.000    0.000    0.000    0.000 
#
# Total GULP energy -793505.308429 kJ/mol
# GULP energy per Si atom -12398.520444 kJ/mol
# Density = 1.948909 g / cm^3
# Si number density = 19.533548 Si / 1000 Ang^3
#
#
#
# Elastic Constant Matrix: (Units=GPa)
#
#
# Indices 1 2 3 4 5 6 
#
# 1 82.1663 45.1439 52.0306 0.0000 0.0000 0.0000
# 2 45.1439 78.5973 44.9710 0.0000 0.0000 0.0000
# 3 52.0306 44.9710 107.6498 0.0000 0.0000 0.0000
# 4 0.0000 0.0000 0.0000 29.1348 0.0000 0.0000
# 5 0.0000 0.0000 0.0000 0.0000 25.0029 0.0000
# 6 0.0000 0.0000 0.0000 0.0000 0.0000 27.6615
#
#
#
# Elastic Compliance Matrix: (Units=1/GPa)
#
#
# Indices 1 2 3 4 5 6 
#
# 1 0.020896 -0.008178 -0.006683 0.000000 0.000000 0.000000
# 2 -0.008178 0.019920 -0.004369 0.000000 0.000000 0.000000
# 3 -0.006683 -0.004369 0.014345 0.000000 0.000000 0.000000
# 4 0.000000 0.000000 0.000000 0.034323 0.000000 0.000000
# 5 0.000000 0.000000 0.000000 0.000000 0.039995 0.000000
# 6 0.000000 0.000000 0.000000 0.000000 0.000000 0.036151
#
#
# Mechanical properties :
#
#
# Convention : Reuss Voigt Hill
#
# Bulk Modulus (GPa) = 59.87949 61.41161 60.64555
# Shear Modulus (GPa) = 23.84846 24.77769 24.31308
#
# Velocity S-wave (km/s) = 3.49793 3.56542 3.53183
# Velocity P-wave (km/s) = 6.85822 6.96110 6.90985
#
# Compressibility (1/GPa) = 0.01670021
#
# Stress axis : x y z
#
# Youngs Moduli (GPa) = 47.85706 50.20075 69.71200
#
# Poissons Ratio (x) = 0.41054 0.46590
# Poissons Ratio (y) = 0.39137 0.30457
# Poissons Ratio (z) = 0.31984 0.21933
#
# Static dielectric constant tensor:
#      x y z
#    x 3.396750 0.000000 0.000000 
#    y 0.000000 3.413950 0.000000 
#    z 0.000000 0.000000 3.895530 
# 
# 
# High freq. dielectric constant tensor:
#      x y z
#    x 1.742190 0.000000 0.000000 
#    y 0.000000 1.745400 0.000000 
#    z 0.000000 0.000000 1.773530 
# 
# From -- ./inp_files/7952.got.cif
#   From: 2010.03.12/outbox.cif.g09.slc.cpg/sg47_4_cif.got.tgz:7952.got - 2010.04.14 03:12:58.
