data_PCOD8197616
_publ_section_title
;
Structure prediction by ZEFSAII (Michael W. Deem and Ramdas Pophale) SiO2 
 PCOD8197616
Probable space group: P M M M
;
_chemical_formula_sum "Si O2"
_cell_formula_units_Z 44
_cell_length_a 30.025812
_cell_length_b 9.351583
_cell_length_c 7.942556
_cell_angle_alpha 90.000000
_cell_angle_beta 90.000000
_cell_angle_gamma 90.000000
_cell_volume 2230.181348
_symmetry_space_group_name_H-M "P M M M"
_symmetry_group_IT_number 47
_symmetry_cell_setting 'orthorhombic'
loop_
_space_group_symop_operation_xyz
x,y,z
-x,-y,z
x,-y,-z
-x,y,-z
-x,-y,-z
x,y,-z
-x,y,z
x,-y,z
loop_
_atom_site_type_symbol
_atom_site_label
_atom_site_fract_x
_atom_site_fract_y
_atom_site_fract_z
Si Si1 0.797614 0.663212 0.698827
Si Si2 0.893066 0.669820 0.813288
Si Si3 0.550327 0.838566 0.801853
Si Si4 0.631198 0.657884 0.305569
Si Si5 0.712787 0.160893 0.700877
Si Si6 0.050380 0.670818 0.500000
O O1 0.803886 0.674439 0.500000
O O2 0.787745 0.500000 0.752308
O O3 0.842627 0.722639 0.783580
O O4 0.757126 0.759897 0.764966
O O5 0.893622 0.500000 0.800242
O O6 0.925554 0.731670 0.668338
O O7 0.908894 0.719929 0.000000
O O8 0.500000 0.798108 0.749714
O O9 0.583101 0.729381 0.712022
O O10 0.561137 0.000000 0.742446
O O11 0.556485 0.825753 0.000000
O O12 0.642470 0.640115 0.500000
O O13 0.630974 0.500000 0.220893
O O14 0.669816 0.756120 0.223880
O O15 0.711423 0.158927 0.500000
O O16 0.712268 0.000000 0.772868
O O17 0.051625 0.500000 0.500000
O O18 0.000000 0.728155 0.500000
#
# Coordination Sequence:
#
# PCOD8197616 Si02
#       6
#     8   8   8   8   8   4
#     4   9  15  26  45  65  89 124 163 201 245 299
#     4   9  16  26  41  63  92 127 167 209 253 302
#     4   9  19  36  55  73  95 127 167 209 256 309
#     4  10  20  33  50  75 105 134 167 207 251 301
#     4   9  17  29  47  71  97 127 164 204 247 297
#     4   9  16  26  40  62  95 133 171 209 252 303
#
# _framework density 19.729336
#
# number of rings (size 3 to 8) (size 9 to 14) (size 15 to 20)
#    0.000    2.818    0.909    1.636    0.000    4.727 
#    0.000    5.455    0.000    3.818    0.000    0.000 
#    0.000    1.455    0.000    1.636    0.000    1.818 
#
# Total GULP energy -545453.511370 kJ/mol
# GULP energy per Si atom -12396.670713 kJ/mol
# Density = 1.968443 g / cm^3
# Si number density = 19.729336 Si / 1000 Ang^3
#
#
#
# Elastic Constant Matrix: (Units=GPa)
#
#
# Indices 1 2 3 4 5 6 
#
# 1 165.5511 71.6717 47.7418 0.0000 0.0000 0.0000
# 2 71.6717 107.8163 22.4292 0.0000 0.0000 0.0000
# 3 47.7418 22.4292 62.7682 0.0000 0.0000 0.0000
# 4 0.0000 0.0000 0.0000 9.4305 0.0000 0.0000
# 5 0.0000 0.0000 0.0000 0.0000 8.0307 0.0000
# 6 0.0000 0.0000 0.0000 0.0000 0.0000 11.9141
#
#
#
# Elastic Compliance Matrix: (Units=1/GPa)
#
#
# Indices 1 2 3 4 5 6 
#
# 1 0.010065 -0.005508 -0.005687 0.000000 0.000000 0.000000
# 2 -0.005508 0.013034 -0.000468 0.000000 0.000000 0.000000
# 3 -0.005687 -0.000468 0.020425 0.000000 0.000000 0.000000
# 4 0.000000 0.000000 0.000000 0.106039 0.000000 0.000000
# 5 0.000000 0.000000 0.000000 0.000000 0.124522 0.000000
# 6 0.000000 0.000000 0.000000 0.000000 0.000000 0.083934
#
#
# Mechanical properties :
#
#
# Convention : Reuss Voigt Hill
#
# Bulk Modulus (GPa) = 49.51248 68.86900 59.19074
# Shear Modulus (GPa) = 12.88402 18.82792 15.85597
#
# Velocity S-wave (km/s) = 2.55823 3.09254 2.83799
# Velocity P-wave (km/s) = 5.82035 6.90901 6.38791
#
# Compressibility (1/GPa) = 0.02019693
#
# Stress axis : x y z
#
# Youngs Moduli (GPa) = 99.35444 76.72436 48.96001
#
# Poissons Ratio (x) = 0.42257 0.27846
# Poissons Ratio (y) = 0.54721 0.02293
# Poissons Ratio (z) = 0.56507 0.03593
#
# Static dielectric constant tensor:
#      x y z
#    x 3.731610 0.000000 0.000000 
#    y 0.000000 3.434860 0.000000 
#    z 0.000000 0.000000 3.371450 
# 
# 
# High freq. dielectric constant tensor:
#      x y z
#    x 1.774930 0.000000 0.000000 
#    y 0.000000 1.731830 0.000000 
#    z 0.000000 0.000000 1.748300 
# 
# From -- ./inp_files/2130.got.cif
#   From: 2010.03.12/outbox.cif.g09.slc.cpg/sg47_2_cif.got.tgz:2130.got - 2010.04.14 03:12:58.
