data_PCOD8197823
_publ_section_title
;
Structure prediction by ZEFSAII (Michael W. Deem and Ramdas Pophale) SiO2 
 PCOD8197823
Probable space group: P M M M
;
_chemical_formula_sum "Si O2"
_cell_formula_units_Z 48
_cell_length_a 31.142558
_cell_length_b 8.697494
_cell_length_c 9.160921
_cell_angle_alpha 90.000000
_cell_angle_beta 90.000000
_cell_angle_gamma 90.000000
_cell_volume 2481.347320
_symmetry_space_group_name_H-M "P M M M"
_symmetry_group_IT_number 47
_symmetry_cell_setting 'orthorhombic'
loop_
_space_group_symop_operation_xyz
x,y,z
-x,-y,z
x,-y,-z
-x,y,-z
-x,-y,-z
x,y,-z
-x,y,z
x,-y,z
loop_
_atom_site_type_symbol
_atom_site_label
_atom_site_fract_x
_atom_site_fract_y
_atom_site_fract_z
Si Si1 0.128215 0.817148 0.336659
Si Si2 0.547382 0.182835 0.663853
Si Si3 0.628522 0.817447 0.163674
Si Si4 0.952659 0.182895 0.836012
Si Si5 0.212976 0.179579 0.829160
Si Si6 0.707423 0.320221 0.332234
O O1 0.133466 0.751380 0.500000
O O2 0.084273 0.748668 0.268416
O O3 0.168238 0.763228 0.239308
O O4 0.125911 0.000000 0.339151
O O5 0.556335 0.243604 0.500000
O O6 0.500000 0.238138 0.716183
O O7 0.583833 0.248914 0.771443
O O8 0.548936 0.000000 0.663711
O O9 0.667181 0.767084 0.265520
O O10 0.627504 0.000000 0.160413
O O11 0.634471 0.751853 0.000000
O O12 0.000000 0.235398 0.780615
O O13 0.950104 0.000000 0.836504
O O14 0.944874 0.244080 0.000000
O O15 0.250260 0.276529 0.755610
O O16 0.221003 0.000000 0.798298
O O17 0.211935 0.215149 0.000000
O O18 0.712950 0.269290 0.500000
O O19 0.699150 0.500000 0.317793
#
# Coordination Sequence:
#
# PCOD8197823 Si02
#       6
#     8   8   8   8   8   8
#     4   9  16  25  39  61  89 121 157 197 240 286
#     4   8  14  26  46  73 104 136 168 202 241 284
#     4  10  20  33  52  79 107 135 168 204 244 291
#     4   8  13  21  33  51  80 119 158 194 235 284
#     4  10  20  34  53  75  98 126 162 203 247 296
#     4  11  24  39  54  73  98 129 165 205 250 298
#
# _framework density 19.344331
#
# number of rings (size 3 to 8) (size 9 to 14) (size 15 to 20)
#    0.000    2.667    0.000    3.500    0.000    8.000 
#    0.000    3.333    0.000    0.500    0.000    3.500 
#    0.000    0.667    0.000    7.000    0.000    9.667 
#
# Total GULP energy -595065.469856 kJ/mol
# GULP energy per Si atom -12397.197289 kJ/mol
# Density = 1.930030 g / cm^3
# Si number density = 19.344331 Si / 1000 Ang^3
#
#
#
# Elastic Constant Matrix: (Units=GPa)
#
#
# Indices 1 2 3 4 5 6 
#
# 1 160.0773 9.1568 74.9683 0.0000 0.0000 0.0000
# 2 9.1568 8.8716 13.8848 0.0000 0.0000 0.0000
# 3 74.9683 13.8848 135.5277 0.0000 0.0000 0.0000
# 4 0.0000 0.0000 0.0000 14.5376 0.0000 0.0000
# 5 0.0000 0.0000 0.0000 0.0000 45.0717 0.0000
# 6 0.0000 0.0000 0.0000 0.0000 0.0000 -5.6038
#
#
#
# Elastic Compliance Matrix: (Units=1/GPa)
#
#
# Indices 1 2 3 4 5 6 
#
# 1 0.008452 -0.001675 -0.004504 0.000000 0.000000 0.000000
# 2 -0.001675 0.134576 -0.012861 0.000000 0.000000 0.000000
# 3 -0.004504 -0.012861 0.011187 0.000000 0.000000 0.000000
# 4 0.000000 0.000000 0.000000 0.068787 0.000000 0.000000
# 5 0.000000 0.000000 0.000000 0.000000 0.022187 0.000000
# 6 0.000000 0.000000 0.000000 0.000000 0.000000 -0.178451
#
#
# Mechanical properties :
#
#
# Convention : Reuss Voigt Hill
#
# Bulk Modulus (GPa) = 8.61053 55.61069 32.11061
# Shear Modulus (GPa) = 34.83596 24.56555 29.70076
#
# Velocity S-wave (km/s) = 4.24823 3.56745 3.92263
# Velocity P-wave (km/s) = 5.34080 6.76603 6.09521
#
# Compressibility (1/GPa) = 0.11613684
#
# Stress axis : x y z
#
# Youngs Moduli (GPa) = 118.31534 7.43072 89.38633
#
# Poissons Ratio (x) = 0.01245 0.40257
# Poissons Ratio (y) = 0.19819 1.14957
# Poissons Ratio (z) = 0.53285 0.09556
#
# Static dielectric constant tensor:
#      x y z
#    x 3.908410 0.000000 0.000000 
#    y 0.000000 2.899150 0.000000 
#    z 0.000000 0.000000 3.825070 
# 
# 
# High freq. dielectric constant tensor:
#      x y z
#    x 1.773500 0.000000 0.000000 
#    y 0.000000 1.686540 0.000000 
#    z 0.000000 0.000000 1.762140 
# 
# From -- ./inp_files/2492.got.cif
#   From: 2010.03.12/outbox.cif.g09.slc.cpg/sg47_2_cif.got.tgz:2492.got - 2010.04.14 03:12:58.
