data_PCOD8197878
_publ_section_title
;
Structure prediction by ZEFSAII (Michael W. Deem and Ramdas Pophale) SiO2 
 PCOD8197878
Probable space group: P M M M
;
_chemical_formula_sum "Si O2"
_cell_formula_units_Z 48
_cell_length_a 8.889997
_cell_length_b 9.547730
_cell_length_c 29.406816
_cell_angle_alpha 90.000000
_cell_angle_beta 90.000000
_cell_angle_gamma 90.000000
_cell_volume 2496.029694
_symmetry_space_group_name_H-M "P M M M"
_symmetry_group_IT_number 47
_symmetry_cell_setting 'orthorhombic'
loop_
_space_group_symop_operation_xyz
x,y,z
-x,-y,z
x,-y,-z
-x,y,-z
-x,-y,-z
x,y,-z
-x,y,z
x,-y,z
loop_
_atom_site_type_symbol
_atom_site_label
_atom_site_fract_x
_atom_site_fract_y
_atom_site_fract_z
Si Si1 0.321227 0.843233 0.050580
Si Si2 0.825266 0.662803 0.302167
Si Si3 0.822810 0.000000 0.448360
Si Si4 0.322977 0.500000 0.450360
Si Si5 0.175147 0.162999 0.787900
Si Si6 0.677254 0.758451 0.607553
Si Si7 0.678809 0.340497 0.133094
O O1 0.500000 0.842810 0.051077
O O2 0.259818 0.728636 0.086276
O O3 0.264305 0.000000 0.063657
O O4 0.263076 0.803316 0.000000
O O5 0.778427 0.500000 0.294676
O O6 0.788101 0.753622 0.257972
O O7 0.726344 0.735892 0.340782
O O8 0.000000 0.673217 0.315270
O O9 0.767891 0.125488 0.418139
O O10 0.754741 0.000000 0.500000
O O11 0.000000 0.000000 0.451941
O O12 0.500000 0.500000 0.456483
O O13 0.245340 0.500000 0.500000
O O14 0.268223 0.628384 0.421341
O O15 0.266754 0.241598 0.826625
O O16 0.000000 0.172387 0.799785
O O17 0.225649 0.000000 0.783635
O O18 0.500000 0.788550 0.606168
O O19 0.500000 0.342940 0.133866
O O20 0.741403 0.500000 0.137306
#
# Coordination Sequence:
#
# PCOD8197878 Si02
#       7
#     8   8   4   4   8   8   8
#     4   8  14  26  46  73 107 147 188 230 280 337
#     4  10  21  38  59  83 114 149 185 228 280 340
#     4  11  25  43  61  85 119 157 195 235 278 327
#     4   9  18  34  57  85 117 149 181 221 272 329
#     4  10  22  39  59  82 108 146 191 232 280 337
#     4  11  22  38  61  89 119 151 188 232 282 334
#     4  10  20  33  52  81 114 147 185 233 285 335
#
# _framework density 19.230540999999999
#
# number of rings (size 3 to 8) (size 9 to 14) (size 15 to 20)
#    0.000    2.167    0.833    2.750    1.167    4.333 
#    0.000    1.667    0.000    2.500    0.000    3.500 
#    0.000    0.000    0.000    0.000    0.000    0.000 
#
# Total GULP energy -594944.442107 kJ/mol
# GULP energy per Si atom -12394.675877 kJ/mol
# Density = 1.918677 g / cm^3
# Si number density = 19.230541 Si / 1000 Ang^3
#
#
#
# Elastic Constant Matrix: (Units=GPa)
#
#
# Indices 1 2 3 4 5 6 
#
# 1 35.8294 31.5745 32.2956 0.0000 0.0000 0.0000
# 2 31.5745 164.8249 81.7633 0.0000 0.0000 0.0000
# 3 32.2956 81.7633 143.0649 0.0000 0.0000 0.0000
# 4 0.0000 0.0000 0.0000 37.3666 0.0000 0.0000
# 5 0.0000 0.0000 0.0000 0.0000 20.3487 0.0000
# 6 0.0000 0.0000 0.0000 0.0000 0.0000 60.3915
#
#
#
# Elastic Compliance Matrix: (Units=1/GPa)
#
#
# Indices 1 2 3 4 5 6 
#
# 1 0.036925 -0.004101 -0.005991 0.000000 0.000000 0.000000
# 2 -0.004101 0.008923 -0.004174 0.000000 0.000000 0.000000
# 3 -0.005991 -0.004174 0.010728 0.000000 0.000000 0.000000
# 4 0.000000 0.000000 0.000000 0.026762 0.000000 0.000000
# 5 0.000000 0.000000 0.000000 0.000000 0.049143 0.000000
# 6 0.000000 0.000000 0.000000 0.000000 0.000000 0.016559
#
#
# Mechanical properties :
#
#
# Convention : Reuss Voigt Hill
#
# Bulk Modulus (GPa) = 35.66020 70.55402 53.10711
# Shear Modulus (GPa) = 26.74935 36.82709 31.78822
#
# Velocity S-wave (km/s) = 3.73363 4.38085 4.07013
# Velocity P-wave (km/s) = 6.09676 7.89667 7.05435
#
# Compressibility (1/GPa) = 0.02804247
#
# Stress axis : x y z
#
# Youngs Moduli (GPa) = 27.08200 112.06723 93.21589
#
# Poissons Ratio (x) = 0.45962 0.55850
# Poissons Ratio (y) = 0.11107 0.38907
# Poissons Ratio (z) = 0.16226 0.46776
#
# Static dielectric constant tensor:
#      x y z
#    x 3.202120 0.000000 0.000000 
#    y 0.000000 3.749960 0.000000 
#    z 0.000000 0.000000 3.818680 
# 
# 
# High freq. dielectric constant tensor:
#      x y z
#    x 1.715990 0.000000 0.000000 
#    y 0.000000 1.764620 0.000000 
#    z 0.000000 0.000000 1.764230 
# 
# From -- ./inp_files/34163.got.cif
#   From: 2010.03.12/outbox.cif.g09.slc.cpg/sg47_18_cif.got.tgz:34163.got - 2010.04.14 03:12:58.
