data_PCOD8197690
_publ_section_title
;
Structure prediction by ZEFSAII (Michael W. Deem and Ramdas Pophale) SiO2 
 PCOD8197690
Probable space group: P M M M
;
_chemical_formula_sum "Si O2"
_cell_formula_units_Z 44
_cell_length_a 29.500995
_cell_length_b 7.831183
_cell_length_c 9.315377
_cell_angle_alpha 90.000000
_cell_angle_beta 90.000000
_cell_angle_gamma 90.000000
_cell_volume 2152.110035
_symmetry_space_group_name_H-M "P M M M"
_symmetry_group_IT_number 47
_symmetry_cell_setting 'orthorhombic'
loop_
_space_group_symop_operation_xyz
x,y,z
-x,-y,z
x,-y,-z
-x,y,-z
-x,-y,-z
x,y,-z
-x,y,z
x,-y,z
loop_
_atom_site_type_symbol
_atom_site_label
_atom_site_fract_x
_atom_site_fract_y
_atom_site_fract_z
Si Si1 0.901461 0.693463 0.665853
Si Si2 0.631744 0.196412 0.657312
Si Si3 0.053400 0.000000 0.834107
Si Si4 0.801670 0.198692 0.663049
Si Si5 0.550013 0.203121 0.160655
Si Si6 0.284397 0.302068 0.837571
O O1 0.911259 0.738937 0.500000
O O2 0.917559 0.500000 0.701439
O O3 0.927965 0.827649 0.762968
O O4 0.847971 0.703097 0.696578
O O5 0.637704 0.282604 0.500000
O O6 0.589219 0.284082 0.739128
O O7 0.677793 0.206330 0.746462
O O8 0.619891 0.000000 0.636125
O O9 0.000000 0.000000 0.814756
O O10 0.068011 0.000000 0.000000
O O11 0.785431 0.233408 0.500000
O O12 0.764572 0.268627 0.771458
O O13 0.810439 0.000000 0.689407
O O14 0.500000 0.257921 0.217047
O O15 0.553758 0.000000 0.157410
O O16 0.557419 0.274351 0.000000
O O17 0.295920 0.500000 0.834203
O O18 0.284894 0.231369 0.000000
#
# Coordination Sequence:
#
# PCOD8197690 Si02
#       6
#     8   8   4   8   8   8
#     4  10  21  40  67  96 126 164 211 262 314 369
#     4  10  20  33  51  76 104 136 176 222 274 330
#     4  11  25  43  63  91 131 175 215 261 316 371
#     4  10  20  37  62  89 117 149 188 236 291 351
#     4   8  14  26  46  72 101 133 169 212 266 328
#     4  11  24  38  52  75 108 146 187 229 277 336
#
# _framework density 20.445049999999998
#
# number of rings (size 3 to 8) (size 9 to 14) (size 15 to 20)
#    0.000    2.091    0.909    3.000    0.000    8.364 
#    0.000    3.636    0.000    0.545    0.000    3.818 
#    0.000    0.000    0.000    0.000    0.000    0.000 
#
# Total GULP energy -545565.446327 kJ/mol
# GULP energy per Si atom -12399.214689 kJ/mol
# Density = 2.039852 g / cm^3
# Si number density = 20.445050 Si / 1000 Ang^3
#
#
#
# Elastic Constant Matrix: (Units=GPa)
#
#
# Indices 1 2 3 4 5 6 
#
# 1 114.5436 34.3595 83.7496 0.0000 0.0000 0.0000
# 2 34.3595 70.6430 42.8281 0.0000 0.0000 0.0000
# 3 83.7496 42.8281 160.8968 0.0000 0.0000 0.0000
# 4 0.0000 0.0000 0.0000 20.0536 0.0000 0.0000
# 5 0.0000 0.0000 0.0000 0.0000 41.6544 0.0000
# 6 0.0000 0.0000 0.0000 0.0000 0.0000 -9.3226
#
#
#
# Elastic Compliance Matrix: (Units=1/GPa)
#
#
# Indices 1 2 3 4 5 6 
#
# 1 0.014600 -0.002974 -0.006808 0.000000 0.000000 0.000000
# 2 -0.002974 0.017485 -0.003106 0.000000 0.000000 0.000000
# 3 -0.006808 -0.003106 0.010586 0.000000 0.000000 0.000000
# 4 0.000000 0.000000 0.000000 0.049866 0.000000 0.000000
# 5 0.000000 0.000000 0.000000 0.000000 0.024007 0.000000
# 6 0.000000 0.000000 0.000000 0.000000 0.000000 -0.107266
#
#
# Mechanical properties :
#
#
# Convention : Reuss Voigt Hill
#
# Bulk Modulus (GPa) = 59.19000 74.21753 66.70376
# Shear Modulus (GPa) = 122.89195 22.82017 72.85606
#
# Velocity S-wave (km/s) = 7.76137 3.34454 5.97599
# Velocity P-wave (km/s) = 10.45620 7.16201 8.96177
#
# Compressibility (1/GPa) = 0.01689475
#
# Stress axis : x y z
#
# Youngs Moduli (GPa) = 68.49274 57.19070 94.46680
#
# Poissons Ratio (x) = 0.17007 0.64313
# Poissons Ratio (y) = 0.20368 0.29345
# Poissons Ratio (z) = 0.46630 0.17766
#
# Static dielectric constant tensor:
#      x y z
#    x 3.709960 0.000000 0.000000 
#    y 0.000000 3.583410 0.000000 
#    z 0.000000 0.000000 4.112930 
# 
# 
# High freq. dielectric constant tensor:
#      x y z
#    x 1.802430 0.000000 0.000000 
#    y 0.000000 1.785650 0.000000 
#    z 0.000000 0.000000 1.800270 
# 
# From -- ./inp_files/13681.got.cif
#   From: 2010.03.12/outbox.cif.g09.slc.cpg/sg47_7_cif.got.tgz:13681.got - 2010.04.14 03:12:58.
