data_PCOD8197961
_publ_section_title
;
Structure prediction by ZEFSAII (Michael W. Deem and Ramdas Pophale) SiO2 
 PCOD8197961
Probable space group: P M M M
;
_chemical_formula_sum "Si O2"
_cell_formula_units_Z 64
_cell_length_a 14.090436
_cell_length_b 9.042641
_cell_length_c 30.910528
_cell_angle_alpha 90.000000
_cell_angle_beta 90.000000
_cell_angle_gamma 90.000000
_cell_volume 3938.457330
_symmetry_space_group_name_H-M "P M M M"
_symmetry_group_IT_number 47
_symmetry_cell_setting 'orthorhombic'
loop_
_space_group_symop_operation_xyz
x,y,z
-x,-y,z
x,-y,-z
-x,y,-z
-x,-y,-z
x,y,-z
-x,y,z
x,-y,z
loop_
_atom_site_type_symbol
_atom_site_label
_atom_site_fract_x
_atom_site_fract_y
_atom_site_fract_z
Si Si1 0.217901 0.175439 0.715625
Si Si2 0.775541 0.327555 0.121128
Si Si3 0.889724 0.328677 0.792839
Si Si4 0.607686 0.672747 0.749021
Si Si5 0.887268 0.667379 0.452853
Si Si6 0.392034 0.828717 0.839621
Si Si7 0.107658 0.174158 0.631116
Si Si8 0.109493 0.168985 0.049834
O O1 0.156543 0.228803 0.756086
O O2 0.322485 0.247517 0.715395
O O3 0.168076 0.230458 0.671751
O O4 0.226862 0.000000 0.717488
O O5 0.751954 0.500000 0.118782
O O6 0.842536 0.288313 0.161553
O O7 0.677075 0.237236 0.124046
O O8 0.827142 0.279754 0.077455
O O9 0.873673 0.500000 0.781049
O O10 0.000000 0.288717 0.796311
O O11 0.500000 0.702642 0.733904
O O12 0.631081 0.500000 0.751262
O O13 0.627378 0.738870 0.796022
O O14 0.850653 0.725141 0.500000
O O15 0.853083 0.500000 0.446036
O O16 0.846311 0.763418 0.413233
O O17 0.000000 0.677371 0.452525
O O18 0.500000 0.807361 0.855548
O O19 0.369193 0.000000 0.830831
O O20 0.000000 0.231682 0.637501
O O21 0.109859 0.000000 0.627662
O O22 0.000000 0.210198 0.057169
O O23 0.128294 0.000000 0.064045
O O24 0.137532 0.191137 0.000000
#
# Coordination Sequence:
#
# PCOD8197961 Si02
#       8
#     8   8   8   8   8   8   8   8
#     4  11  21  32  47  67  94 128 164 199 237 283
#     4  11  21  33  52  77 103 130 162 199 241 287
#     4  10  21  34  46  65  96 132 166 197 231 276
#     4  10  20  34  51  70  93 122 158 200 244 287
#     4   8  14  25  41  61  84 113 154 200 240 278
#     4  10  20  34  53  76  99 125 160 199 240 286
#     4   9  18  30  42  61  91 126 162 196 233 279
#     4   9  19  36  56  77 102 133 167 201 239 284
#
# _framework density 16.250018000000001
#
# number of rings (size 3 to 8) (size 9 to 14) (size 15 to 20)
#    0.000    2.250    1.250    3.000    0.000    5.000 
#    0.000    3.125    0.000    0.375    0.000    2.625 
#    0.000    0.500    0.000    5.500    0.000    4.250 
#
# Total GULP energy -793616.680615 kJ/mol
# GULP energy per Si atom -12400.260635 kJ/mol
# Density = 1.621303 g / cm^3
# Si number density = 16.250018 Si / 1000 Ang^3
#
#
#
# Elastic Constant Matrix: (Units=GPa)
#
#
# Indices 1 2 3 4 5 6 
#
# 1 91.4149 42.6281 48.6017 0.0000 0.0000 0.0000
# 2 42.6281 70.5978 44.6003 0.0000 0.0000 0.0000
# 3 48.6017 44.6003 103.2299 0.0000 0.0000 0.0000
# 4 0.0000 0.0000 0.0000 27.3037 0.0000 0.0000
# 5 0.0000 0.0000 0.0000 0.0000 10.2074 0.0000
# 6 0.0000 0.0000 0.0000 0.0000 0.0000 25.9267
#
#
#
# Elastic Compliance Matrix: (Units=1/GPa)
#
#
# Indices 1 2 3 4 5 6 
#
# 1 0.016830 -0.007092 -0.004860 0.000000 0.000000 0.000000
# 2 -0.007092 0.022471 -0.006370 0.000000 0.000000 0.000000
# 3 -0.004860 -0.006370 0.014727 0.000000 0.000000 0.000000
# 4 0.000000 0.000000 0.000000 0.036625 0.000000 0.000000
# 5 0.000000 0.000000 0.000000 0.000000 0.097968 0.000000
# 6 0.000000 0.000000 0.000000 0.000000 0.000000 0.038570
#
#
# Mechanical properties :
#
#
# Convention : Reuss Voigt Hill
#
# Bulk Modulus (GPa) = 57.51914 59.65588 58.58751
# Shear Modulus (GPa) = 18.54399 21.31506 19.92952
#
# Velocity S-wave (km/s) = 3.38178 3.62566 3.50584
# Velocity P-wave (km/s) = 7.12192 7.37009 7.24707
#
# Compressibility (1/GPa) = 0.01738552
#
# Stress axis : x y z
#
# Youngs Moduli (GPa) = 59.41790 44.50162 67.90255
#
# Poissons Ratio (x) = 0.31561 0.32998
# Poissons Ratio (y) = 0.42140 0.43251
# Poissons Ratio (z) = 0.28874 0.28345
#
# Static dielectric constant tensor:
#      x y z
#    x 3.079510 0.000000 0.000000 
#    y 0.000000 3.102630 0.000000 
#    z 0.000000 0.000000 3.140680 
# 
# 
# High freq. dielectric constant tensor:
#      x y z
#    x 1.607540 0.000000 0.000000 
#    y 0.000000 1.633430 0.000000 
#    z 0.000000 0.000000 1.612170 
# 
# From -- ./inp_files/8288.got.cif
#   From: 2010.03.12/outbox.cif.g09.slc.cpg/sg47_5_cif.got.tgz:8288.got - 2010.04.14 03:12:58.
