data_PCOD8197213
_publ_section_title
;
Structure prediction by ZEFSAII (Michael W. Deem and Ramdas Pophale) SiO2 
 PCOD8197213
Probable space group: P M M M
;
_chemical_formula_sum "Si O2"
_cell_formula_units_Z 36
_cell_length_a 24.504295
_cell_length_b 7.732923
_cell_length_c 9.056878
_cell_angle_alpha 90.000000
_cell_angle_beta 90.000000
_cell_angle_gamma 90.000000
_cell_volume 1716.186240
_symmetry_space_group_name_H-M "P M M M"
_symmetry_group_IT_number 47
_symmetry_cell_setting 'orthorhombic'
loop_
_space_group_symop_operation_xyz
x,y,z
-x,-y,z
x,-y,-z
-x,y,-z
-x,-y,-z
x,y,-z
-x,y,z
x,-y,z
loop_
_atom_site_type_symbol
_atom_site_label
_atom_site_fract_x
_atom_site_fract_y
_atom_site_fract_z
Si Si1 0.940017 0.705428 0.834300
Si Si2 0.564351 0.000000 0.170091
Si Si3 0.374843 0.305472 0.329692
Si Si4 0.728346 0.802389 0.167069
Si Si5 0.834893 0.294787 0.332325
O O1 0.939335 0.500000 0.833333
O O2 0.893135 0.776053 0.725915
O O3 0.000000 0.770746 0.781500
O O4 0.928419 0.772827 0.000000
O O5 0.586315 0.825946 0.244312
O O6 0.500000 0.000000 0.188232
O O7 0.582767 0.000000 0.000000
O O8 0.371776 0.249167 0.500000
O O9 0.398483 0.500000 0.313608
O O10 0.313901 0.306825 0.263949
O O11 0.788337 0.789984 0.233910
O O12 0.708383 0.000000 0.169484
O O13 0.729293 0.730541 0.000000
O O14 0.827864 0.232768 0.500000
O O15 0.831070 0.500000 0.318403
#
# Coordination Sequence:
#
# PCOD8197213 Si02
#       5
#     8   4   8   8   8
#     4   8  14  26  45  69  99 137 181 231 289 353
#     4  11  25  45  69  99 135 175 218 261 306 359
#     4  11  24  42  67  98 131 169 212 260 316 373
#     4  11  23  38  58  84 115 154 200 249 305 367
#     4  10  20  32  49  77 110 144 186 236 294 361
#
# _framework density 20.976742999999999
#
# number of rings (size 3 to 8) (size 9 to 14) (size 15 to 20)
#    0.000    1.889    1.111    3.667    0.000    8.889 
#    0.000    4.444    0.000    0.667    0.000    4.667 
#    0.000    0.000    0.000    0.000    0.000    0.000 
#
# Total GULP energy -446443.632349 kJ/mol
# GULP energy per Si atom -12401.212010 kJ/mol
# Density = 2.092900 g / cm^3
# Si number density = 20.976743 Si / 1000 Ang^3
#
#
#
# Elastic Constant Matrix: (Units=GPa)
#
#
# Indices 1 2 3 4 5 6 
#
# 1 115.8218 34.4067 75.1520 0.0000 0.0000 0.0000
# 2 34.4067 74.1857 48.3354 0.0000 0.0000 0.0000
# 3 75.1520 48.3354 177.1124 0.0000 0.0000 0.0000
# 4 0.0000 0.0000 0.0000 23.1056 0.0000 0.0000
# 5 0.0000 0.0000 0.0000 0.0000 24.5481 0.0000
# 6 0.0000 0.0000 0.0000 0.0000 0.0000 21.0695
#
#
#
# Elastic Compliance Matrix: (Units=1/GPa)
#
#
# Indices 1 2 3 4 5 6 
#
# 1 0.012381 -0.002821 -0.004484 0.000000 0.000000 0.000000
# 2 -0.002821 0.017038 -0.003453 0.000000 0.000000 0.000000
# 3 -0.004484 -0.003453 0.008491 0.000000 0.000000 0.000000
# 4 0.000000 0.000000 0.000000 0.043280 0.000000 0.000000
# 5 0.000000 0.000000 0.000000 0.000000 0.040736 0.000000
# 6 0.000000 0.000000 0.000000 0.000000 0.000000 0.047462
#
#
# Mechanical properties :
#
#
# Convention : Reuss Voigt Hill
#
# Bulk Modulus (GPa) = 60.99424 75.87869 68.43647
# Shear Modulus (GPa) = 25.46244 27.69302 26.57773
#
# Velocity S-wave (km/s) = 3.48780 3.63737 3.56337
# Velocity P-wave (km/s) = 6.73498 7.34111 7.04456
#
# Compressibility (1/GPa) = 0.01639499
#
# Stress axis : x y z
#
# Youngs Moduli (GPa) = 80.76712 58.69363 117.77271
#
# Poissons Ratio (x) = 0.16557 0.52806
# Poissons Ratio (y) = 0.22784 0.40664
# Poissons Ratio (z) = 0.36214 0.20265
#
# Static dielectric constant tensor:
#      x y z
#    x 3.878090 0.000000 0.000000 
#    y 0.000000 3.548620 0.000000 
#    z 0.000000 0.000000 3.953760 
# 
# 
# High freq. dielectric constant tensor:
#      x y z
#    x 1.825990 0.000000 0.000000 
#    y 0.000000 1.806580 0.000000 
#    z 0.000000 0.000000 1.828650 
# 
# From -- ./inp_files/12052.got.cif
#   From: 2010.03.12/outbox.cif.g09.slc.cpg/sg47_7_cif.got.tgz:12052.got - 2010.04.14 03:12:58.
