data_PCOD8197376
_publ_section_title
;
Structure prediction by ZEFSAII (Michael W. Deem and Ramdas Pophale) SiO2 
 PCOD8197376
Probable space group: P M M M
;
_chemical_formula_sum "Si O2"
_cell_formula_units_Z 48
_cell_length_a 9.490015
_cell_length_b 9.084912
_cell_length_c 31.201067
_cell_angle_alpha 90.000000
_cell_angle_beta 90.000000
_cell_angle_gamma 90.000000
_cell_volume 2690.029668
_symmetry_space_group_name_H-M "P M M M"
_symmetry_group_IT_number 47
_symmetry_cell_setting 'orthorhombic'
loop_
_space_group_symop_operation_xyz
x,y,z
-x,-y,z
x,-y,-z
-x,y,-z
-x,-y,-z
x,y,-z
-x,y,z
x,-y,z
loop_
_atom_site_type_symbol
_atom_site_label
_atom_site_fract_x
_atom_site_fract_y
_atom_site_fract_z
Si Si1 0.163548 0.171207 0.880726
Si Si2 0.662946 0.674982 0.638044
Si Si3 0.165613 0.829139 0.711866
Si Si4 0.667108 0.335290 0.545290
Si Si5 0.832424 0.333835 0.796459
Si Si6 0.336920 0.332013 0.950574
O O1 0.224755 0.256305 0.839385
O O2 0.244716 0.221544 0.922863
O O3 0.000000 0.207509 0.887738
O O4 0.189137 0.000000 0.872804
O O5 0.500000 0.714656 0.646539
O O6 0.685810 0.500000 0.641142
O O7 0.758601 0.757411 0.671758
O O8 0.713811 0.735511 0.590779
O O9 0.223707 0.753029 0.755022
O O10 0.000000 0.802495 0.706488
O O11 0.203420 0.000000 0.714551
O O12 0.714646 0.255192 0.500000
O O13 0.500000 0.342940 0.546752
O O14 0.728143 0.500000 0.543710
O O15 0.774273 0.500000 0.794844
O O16 0.000000 0.330219 0.796787
O O17 0.500000 0.304226 0.940354
O O18 0.295972 0.500000 0.939673
O O19 0.304579 0.297836 0.000000
#
# Coordination Sequence:
#
# PCOD8197376 Si02
#       6
#     8   8   8   8   8   8
#     4  10  20  33  51  77 106 131 158 197 243 289
#     4   9  17  29  47  72  98 122 153 196 242 285
#     4  10  20  33  49  69  95 128 163 196 234 284
#     4   7  10  19  38  64  91 117 147 187 235 282
#     4   9  17  31  52  74  95 123 160 200 241 284
#     4   9  19  36  55  74  99 133 171 207 242 282
#
# _framework density 17.843668000000001
#
# number of rings (size 3 to 8) (size 9 to 14) (size 15 to 20)
#    0.000    3.000    0.000    3.500    0.000    5.333 
#    0.000    3.333    0.000    6.000    0.000    5.833 
#    0.000    0.000    0.000    0.000    0.000    0.000 
#
# Total GULP energy -594788.707175 kJ/mol
# GULP energy per Si atom -12391.431399 kJ/mol
# Density = 1.780306 g / cm^3
# Si number density = 17.843668 Si / 1000 Ang^3
#
#
#
# Elastic Constant Matrix: (Units=GPa)
#
#
# Indices 1 2 3 4 5 6 
#
# 1 32.9200 33.1105 45.7755 0.0000 0.0000 0.0000
# 2 33.1105 87.2011 68.3877 0.0000 0.0000 0.0000
# 3 45.7755 68.3877 163.0068 0.0000 0.0000 0.0000
# 4 0.0000 0.0000 0.0000 6.8390 0.0000 0.0000
# 5 0.0000 0.0000 0.0000 0.0000 29.3125 0.0000
# 6 0.0000 0.0000 0.0000 0.0000 0.0000 23.1317
#
#
#
# Elastic Compliance Matrix: (Units=1/GPa)
#
#
# Indices 1 2 3 4 5 6 
#
# 1 0.059664 -0.014180 -0.010806 0.000000 0.000000 0.000000
# 2 -0.014180 0.020461 -0.004602 0.000000 0.000000 0.000000
# 3 -0.010806 -0.004602 0.011100 0.000000 0.000000 0.000000
# 4 0.000000 0.000000 0.000000 0.146220 0.000000 0.000000
# 5 0.000000 0.000000 0.000000 0.000000 0.034115 0.000000
# 6 0.000000 0.000000 0.000000 0.000000 0.000000 0.043231
#
#
# Mechanical properties :
#
#
# Convention : Reuss Voigt Hill
#
# Bulk Modulus (GPa) = 31.20199 64.18616 47.69407
# Shear Modulus (GPa) = 12.99879 20.91359 16.95619
#
# Velocity S-wave (km/s) = 2.70197 3.42723 3.08598
# Velocity P-wave (km/s) = 5.22096 7.19101 6.28367
#
# Compressibility (1/GPa) = 0.03204924
#
# Stress axis : x y z
#
# Youngs Moduli (GPa) = 16.76039 48.87268 90.09006
#
# Poissons Ratio (x) = 0.69303 0.97349
# Poissons Ratio (y) = 0.23767 0.41461
# Poissons Ratio (z) = 0.18111 0.22492
#
# Static dielectric constant tensor:
#      x y z
#    x 2.889730 0.000000 0.000000 
#    y 0.000000 3.171950 0.000000 
#    z 0.000000 0.000000 3.751930 
# 
# 
# High freq. dielectric constant tensor:
#      x y z
#    x 1.646030 0.000000 0.000000 
#    y 0.000000 1.674210 0.000000 
#    z 0.000000 0.000000 1.715990 
# 
# From -- ./inp_files/2454.got.cif
#   From: 2010.03.12/outbox.cif.g09.slc.cpg/sg47_2_cif.got.tgz:2454.got - 2010.04.14 03:12:58.
