data_PCOD8197904
_publ_section_title
;
Structure prediction by ZEFSAII (Michael W. Deem and Ramdas Pophale) SiO2 
 PCOD8197904
Probable space group: P M M M
;
_chemical_formula_sum "Si O2"
_cell_formula_units_Z 64
_cell_length_a 19.312640
_cell_length_b 9.057015
_cell_length_c 20.682509
_cell_angle_alpha 90.000000
_cell_angle_beta 90.000000
_cell_angle_gamma 90.000000
_cell_volume 3617.678377
_symmetry_space_group_name_H-M "P M M M"
_symmetry_group_IT_number 47
_symmetry_cell_setting 'orthorhombic'
loop_
_space_group_symop_operation_xyz
x,y,z
-x,-y,z
x,-y,-z
-x,y,-z
-x,-y,-z
x,y,-z
-x,y,z
x,-y,z
loop_
_atom_site_type_symbol
_atom_site_label
_atom_site_fract_x
_atom_site_fract_y
_atom_site_fract_z
Si Si1 0.790894 0.173671 0.317059
Si Si2 0.703054 0.826256 0.809726
Si Si3 0.922945 0.672967 0.878309
Si Si4 0.921406 0.671975 0.730214
Si Si5 0.705367 0.330128 0.572808
Si Si6 0.578482 0.828173 0.378569
Si Si7 0.205670 0.829548 0.071948
Si Si8 0.578196 0.329161 0.756996
O O1 0.748742 0.216866 0.252588
O O2 0.869132 0.233132 0.312998
O O3 0.756191 0.245994 0.379262
O O4 0.792741 0.000000 0.327429
O O5 0.741436 0.768648 0.874291
O O6 0.630864 0.737401 0.809393
O O7 0.687599 0.000000 0.812341
O O8 0.912224 0.500000 0.884974
O O9 0.912043 0.721788 0.804269
O O10 0.868356 0.751802 0.924104
O O11 0.000000 0.717899 0.901117
O O12 0.903824 0.500000 0.721998
O O13 0.000000 0.703951 0.707329
O O14 0.734539 0.316580 0.500000
O O15 0.699430 0.500000 0.594267
O O16 0.629193 0.256933 0.573207
O O17 0.500000 0.804850 0.402950
O O18 0.589395 0.763620 0.307623
O O19 0.598456 0.000000 0.376159
O O20 0.192215 0.000000 0.086041
O O21 0.236320 0.802891 0.000000
O O22 0.500000 0.310019 0.783233
O O23 0.594896 0.500000 0.743030
#
# Coordination Sequence:
#
# PCOD8197904 Si02
#       8
#     8   8   8   8   8   8   8   8
#     4  11  21  34  56  83 108 138 177 223 269 312
#     4  10  20  34  53  79 106 137 177 219 266 314
#     4   9  18  32  50  74 105 141 179 216 256 307
#     4   9  18  33  54  80 109 141 177 218 265 315
#     4  11  24  39  55  77 107 144 182 219 262 314
#     4  10  20  34  53  78 109 144 179 215 258 309
#     4  10  21  36  52  73 105 142 179 219 262 312
#     4  10  20  33  53  81 108 136 173 217 265 315
#
# _framework density 17.690902999999999
#
# number of rings (size 3 to 8) (size 9 to 14) (size 15 to 20)
#    0.000    2.000    2.500    2.250    0.000    4.750 
#    0.000    3.750    0.000    0.750    0.000    5.250 
#    0.000    0.000    0.000    0.000    0.000    0.000 
#
# Total GULP energy -793683.287433 kJ/mol
# GULP energy per Si atom -12401.301366 kJ/mol
# Density = 1.765064 g / cm^3
# Si number density = 17.690903 Si / 1000 Ang^3
#
#
#
# Elastic Constant Matrix: (Units=GPa)
#
#
# Indices 1 2 3 4 5 6 
#
# 1 107.7359 51.4784 52.9021 0.0000 0.0000 0.0000
# 2 51.4784 81.3017 42.7058 0.0000 0.0000 0.0000
# 3 52.9021 42.7058 93.5811 0.0000 0.0000 0.0000
# 4 0.0000 0.0000 0.0000 23.2776 0.0000 0.0000
# 5 0.0000 0.0000 0.0000 0.0000 25.1919 0.0000
# 6 0.0000 0.0000 0.0000 0.0000 0.0000 35.2315
#
#
#
# Elastic Compliance Matrix: (Units=1/GPa)
#
#
# Indices 1 2 3 4 5 6 
#
# 1 0.015211 -0.006727 -0.005529 0.000000 0.000000 0.000000
# 2 -0.006727 0.019153 -0.004938 0.000000 0.000000 0.000000
# 3 -0.005529 -0.004938 0.016065 0.000000 0.000000 0.000000
# 4 0.000000 0.000000 0.000000 0.042960 0.000000 0.000000
# 5 0.000000 0.000000 0.000000 0.000000 0.039695 0.000000
# 6 0.000000 0.000000 0.000000 0.000000 0.000000 0.028384
#
#
# Mechanical properties :
#
#
# Convention : Reuss Voigt Hill
#
# Bulk Modulus (GPa) = 62.33860 64.08791 63.21325
# Shear Modulus (GPa) = 24.85058 25.77570 25.31314
#
# Velocity S-wave (km/s) = 3.75201 3.82121 3.78677
# Velocity P-wave (km/s) = 7.35420 7.46820 7.41142
#
# Compressibility (1/GPa) = 0.01604143
#
# Stress axis : x y z
#
# Youngs Moduli (GPa) = 65.74044 52.21142 62.24779
#
# Poissons Ratio (x) = 0.35123 0.34418
# Poissons Ratio (y) = 0.44225 0.30735
# Poissons Ratio (z) = 0.36349 0.25780
#
# Static dielectric constant tensor:
#      x y z
#    x 3.385210 0.000000 0.000000 
#    y 0.000000 3.283270 0.000000 
#    z 0.000000 0.000000 3.088850 
# 
# 
# High freq. dielectric constant tensor:
#      x y z
#    x 1.685030 0.000000 0.000000 
#    y 0.000000 1.690540 0.000000 
#    z 0.000000 0.000000 1.659270 
# 
# From -- ./inp_files/10029.got.cif
#   From: 2010.03.12/outbox.cif.g09.slc.cpg/sg47_6_cif.got.tgz:10029.got - 2010.04.14 03:12:58.
