data_PCOD8197382
_publ_section_title
;
Structure prediction by ZEFSAII (Michael W. Deem and Ramdas Pophale) SiO2 
 PCOD8197382
Probable space group: P M M M
;
_chemical_formula_sum "Si O2"
_cell_formula_units_Z 44
_cell_length_a 8.849380
_cell_length_b 14.182198
_cell_length_c 19.299621
_cell_angle_alpha 90.000000
_cell_angle_beta 90.000000
_cell_angle_gamma 90.000000
_cell_volume 2422.173059
_symmetry_space_group_name_H-M "P M M M"
_symmetry_group_IT_number 47
_symmetry_cell_setting 'orthorhombic'
loop_
_space_group_symop_operation_xyz
x,y,z
-x,-y,z
x,-y,-z
-x,y,-z
-x,-y,-z
x,y,-z
-x,y,z
x,-y,z
loop_
_atom_site_type_symbol
_atom_site_label
_atom_site_fract_x
_atom_site_fract_y
_atom_site_fract_z
Si Si1 0.821115 0.771072 0.579566
Si Si2 0.821738 0.257368 0.207638
Si Si3 0.168180 0.000000 0.918248
Si Si4 0.322933 0.109706 0.306880
Si Si5 0.178267 0.396007 0.674848
Si Si6 0.678463 0.808015 0.078622
O O1 0.771407 0.772796 0.500000
O O2 0.738467 0.856383 0.618543
O O3 0.767213 0.671206 0.612208
O O4 0.000000 0.783897 0.589052
O O5 0.761102 0.164057 0.245399
O O6 0.775182 0.349378 0.251871
O O7 0.747165 0.268882 0.131448
O O8 0.000000 0.248254 0.199544
O O9 0.259590 0.908260 0.894575
O O10 0.000000 0.000000 0.885276
O O11 0.155620 0.000000 0.000000
O O12 0.500000 0.130627 0.302146
O O13 0.285916 0.000000 0.298569
O O14 0.253298 0.500000 0.668395
O O15 0.000000 0.406222 0.671088
O O16 0.500000 0.809622 0.083696
O O17 0.730837 0.784879 0.000000
#
# Coordination Sequence:
#
# PCOD8197382 Si02
#       6
#     8   8   4   8   8   8
#     4   9  18  32  51  77 105 131 163 205 251 298
#     4  10  20  33  52  76 100 129 167 212 256 300
#     4   9  17  29  45  67  95 127 164 203 242 285
#     4  10  21  35  50  69  97 136 176 209 245 293
#     4   8  15  30  52  77 102 127 160 205 257 307
#     4  10  20  33  49  70 100 136 170 206 250 299
#
# _framework density 18.165505
#
# number of rings (size 3 to 8) (size 9 to 14) (size 15 to 20)
#    0.000    2.636    0.000    3.000    1.273    4.727 
#    0.000    3.636    0.000   14.182    0.000    8.909 
#    0.000    0.000    0.000    0.000    0.000    0.000 
#
# Total GULP energy -545488.616704 kJ/mol
# GULP energy per Si atom -12397.468561 kJ/mol
# Density = 1.812416 g / cm^3
# Si number density = 18.165505 Si / 1000 Ang^3
#
#
#
# Elastic Constant Matrix: (Units=GPa)
#
#
# Indices 1 2 3 4 5 6 
#
# 1 61.2875 22.1261 32.3619 0.0000 0.0000 0.0000
# 2 22.1261 71.6953 23.1531 0.0000 0.0000 0.0000
# 3 32.3619 23.1531 112.1184 0.0000 0.0000 0.0000
# 4 0.0000 0.0000 0.0000 17.5475 0.0000 0.0000
# 5 0.0000 0.0000 0.0000 0.0000 26.9432 0.0000
# 6 0.0000 0.0000 0.0000 0.0000 0.0000 4.7886
#
#
#
# Elastic Compliance Matrix: (Units=1/GPa)
#
#
# Indices 1 2 3 4 5 6 
#
# 1 0.020669 -0.004770 -0.004981 0.000000 0.000000 0.000000
# 2 -0.004770 0.016045 -0.001937 0.000000 0.000000 0.000000
# 3 -0.004981 -0.001937 0.010757 0.000000 0.000000 0.000000
# 4 0.000000 0.000000 0.000000 0.056988 0.000000 0.000000
# 5 0.000000 0.000000 0.000000 0.000000 0.037115 0.000000
# 6 0.000000 0.000000 0.000000 0.000000 0.000000 0.208827
#
#
# Mechanical properties :
#
#
# Convention : Reuss Voigt Hill
#
# Bulk Modulus (GPa) = 41.50100 44.48703 42.99402
# Shear Modulus (GPa) = 13.09557 21.01988 17.05773
#
# Velocity S-wave (km/s) = 2.68788 3.40535 3.06766
# Velocity P-wave (km/s) = 5.70338 6.32494 6.02219
#
# Compressibility (1/GPa) = 0.02409580
#
# Stress axis : x y z
#
# Youngs Moduli (GPa) = 48.38238 62.32294 92.96524
#
# Poissons Ratio (x) = 0.29729 0.46304
# Poissons Ratio (y) = 0.23079 0.18004
# Poissons Ratio (z) = 0.24098 0.12070
#
# Static dielectric constant tensor:
#      x y z
#    x 3.242360 0.000000 0.000000 
#    y 0.000000 3.455030 0.000000 
#    z 0.000000 0.000000 3.512760 
# 
# 
# High freq. dielectric constant tensor:
#      x y z
#    x 1.694560 0.000000 0.000000 
#    y 0.000000 1.681060 0.000000 
#    z 0.000000 0.000000 1.710090 
# 
# From -- ./inp_files/26371.got.cif
#   From: 2010.03.12/outbox.cif.g09.slc.cpg/sg47_14_cif.got.tgz:26371.got - 2010.04.14 03:12:58.
