data_PCOD8197722
_publ_section_title
;
Structure prediction by ZEFSAII (Michael W. Deem and Ramdas Pophale) SiO2 
 PCOD8197722
Probable space group: P M M M
;
_chemical_formula_sum "Si O2"
_cell_formula_units_Z 44
_cell_length_a 9.001286
_cell_length_b 28.206082
_cell_length_c 9.413446
_cell_angle_alpha 90.000000
_cell_angle_beta 90.000000
_cell_angle_gamma 90.000000
_cell_volume 2389.989322
_symmetry_space_group_name_H-M "P M M M"
_symmetry_group_IT_number 47
_symmetry_cell_setting 'orthorhombic'
loop_
_space_group_symop_operation_xyz
x,y,z
-x,-y,z
x,-y,-z
-x,y,-z
-x,-y,-z
x,y,-z
-x,y,z
x,-y,z
loop_
_atom_site_type_symbol
_atom_site_label
_atom_site_fract_x
_atom_site_fract_y
_atom_site_fract_z
Si Si1 0.667359 0.000000 0.668681
Si Si2 0.174212 0.094760 0.665337
Si Si3 0.830590 0.554391 0.334918
Si Si4 0.167366 0.273000 0.168831
Si Si5 0.672520 0.633408 0.835551
Si Si6 0.672179 0.821533 0.832532
O O1 0.751842 0.953414 0.723912
O O2 0.500000 0.000000 0.729372
O O3 0.667450 0.000000 0.500000
O O4 0.211174 0.102731 0.500000
O O5 0.239540 0.137692 0.753702
O O6 0.000000 0.091072 0.692385
O O7 0.804233 0.564361 0.500000
O O8 0.794523 0.500000 0.298502
O O9 0.719045 0.586309 0.246042
O O10 0.000000 0.566351 0.293003
O O11 0.239713 0.321361 0.227411
O O12 0.263041 0.228429 0.222420
O O13 0.000000 0.268625 0.228008
O O14 0.168978 0.274205 0.000000
O O15 0.500000 0.643302 0.811854
O O16 0.710860 0.625631 0.000000
O O17 0.500000 0.823939 0.791051
O O18 0.696621 0.827641 0.000000
#
# Coordination Sequence:
#
# PCOD8197722 Si02
#       6
#     4   8   8   8   8   8
#     4   9  17  31  52  75 100 133 170 208 254 305
#     4  10  20  34  53  77 104 134 170 211 253 299
#     4   9  19  36  55  74  99 133 171 209 251 300
#     4   9  17  31  52  75 100 133 170 206 248 299
#     4  10  20  33  51  77 106 133 165 207 251 296
#     4  10  20  34  53  77 105 136 169 207 253 303
#
# _framework density 18.410124
#
# number of rings (size 3 to 8) (size 9 to 14) (size 15 to 20)
#    0.000    2.455    0.000    3.000    0.000    7.636 
#    0.000    4.091    0.000    8.182    0.000    0.000 
#    0.000    0.000    0.000    0.000    0.000    0.000 
#
# Total GULP energy -545685.141477 kJ/mol
# GULP energy per Si atom -12401.935034 kJ/mol
# Density = 1.836822 g / cm^3
# Si number density = 18.410124 Si / 1000 Ang^3
#
#
#
# Elastic Constant Matrix: (Units=GPa)
#
#
# Indices 1 2 3 4 5 6 
#
# 1 104.2524 57.3062 31.1222 0.0000 0.0000 0.0000
# 2 57.3062 137.1668 38.7676 0.0000 0.0000 0.0000
# 3 31.1222 38.7676 32.1395 0.0000 0.0000 0.0000
# 4 0.0000 0.0000 0.0000 40.3284 0.0000 0.0000
# 5 0.0000 0.0000 0.0000 0.0000 26.6648 0.0000
# 6 0.0000 0.0000 0.0000 0.0000 0.0000 41.3794
#
#
#
# Elastic Compliance Matrix: (Units=1/GPa)
#
#
# Indices 1 2 3 4 5 6 
#
# 1 0.014328 -0.003133 -0.010096 0.000000 0.000000 0.000000
# 2 -0.003133 0.011746 -0.011135 0.000000 0.000000 0.000000
# 3 -0.010096 -0.011135 0.054322 0.000000 0.000000 0.000000
# 4 0.000000 0.000000 0.000000 0.024796 0.000000 0.000000
# 5 0.000000 0.000000 0.000000 0.000000 0.037503 0.000000
# 6 0.000000 0.000000 0.000000 0.000000 0.000000 0.024167
#
#
# Mechanical properties :
#
#
# Convention : Reuss Voigt Hill
#
# Bulk Modulus (GPa) = 31.57643 58.66117 45.11880
# Shear Modulus (GPa) = 22.10961 31.43202 26.77081
#
# Velocity S-wave (km/s) = 3.46923 4.13646 3.81745
# Velocity P-wave (km/s) = 5.76509 7.39908 6.63260
#
# Compressibility (1/GPa) = 0.03166919
#
# Stress axis : x y z
#
# Youngs Moduli (GPa) = 69.79380 85.13298 18.40865
#
# Poissons Ratio (x) = 0.26669 0.18585
# Poissons Ratio (y) = 0.21864 0.20499
# Poissons Ratio (z) = 0.70462 0.94798
#
# Static dielectric constant tensor:
#      x y z
#    x 3.536550 0.000000 0.000000 
#    y 0.000000 3.550100 0.000000 
#    z 0.000000 0.000000 3.030550 
# 
# 
# High freq. dielectric constant tensor:
#      x y z
#    x 1.729070 0.000000 0.000000 
#    y 0.000000 1.729580 0.000000 
#    z 0.000000 0.000000 1.675030 
# 
# From -- ./inp_files/2271.got.cif
#   From: 2010.03.12/outbox.cif.g09.slc.cpg/sg47_2_cif.got.tgz:2271.got - 2010.04.14 03:12:58.
