data_PCOD8197039
_publ_section_title
;
Structure prediction by ZEFSAII (Michael W. Deem and Ramdas Pophale) SiO2 
 PCOD8197039
Probable space group: P M M M
;
_chemical_formula_sum "Si O2"
_cell_formula_units_Z 44
_cell_length_a 9.800020
_cell_length_b 9.351751
_cell_length_c 28.376864
_cell_angle_alpha 90.000000
_cell_angle_beta 90.000000
_cell_angle_gamma 90.000000
_cell_volume 2600.664297
_symmetry_space_group_name_H-M "P M M M"
_symmetry_group_IT_number 47
_symmetry_cell_setting 'orthorhombic'
loop_
_space_group_symop_operation_xyz
x,y,z
-x,-y,z
x,-y,-z
-x,y,-z
-x,-y,-z
x,y,-z
-x,y,z
x,-y,z
loop_
_atom_site_type_symbol
_atom_site_label
_atom_site_fract_x
_atom_site_fract_y
_atom_site_fract_z
Si Si1 0.344219 0.163809 0.444979
Si Si2 0.162158 0.841120 0.285586
Si Si3 0.661897 0.843582 0.000000
Si Si4 0.653359 0.171534 0.101172
Si Si5 0.847830 0.829568 0.182324
Si Si6 0.159463 0.666918 0.625042
O O1 0.322487 0.191487 0.500000
O O2 0.500000 0.198783 0.430742
O O3 0.241767 0.267373 0.418143
O O4 0.309565 0.000000 0.432313
O O5 0.209627 0.784584 0.234016
O O6 0.214001 0.734966 0.326173
O O7 0.000000 0.848599 0.284694
O O8 0.221304 0.000000 0.295712
O O9 0.702846 0.767158 0.950375
O O10 0.500000 0.861347 0.000000
O O11 0.730926 0.000000 0.000000
O O12 0.500000 0.223332 0.112392
O O13 0.750666 0.234497 0.141797
O O14 0.658369 0.000000 0.099558
O O15 0.000000 0.768283 0.174097
O O16 0.851124 0.000000 0.180091
O O17 0.189124 0.500000 0.627425
O O18 0.000000 0.700155 0.617274
#
# Coordination Sequence:
#
# PCOD8197039 Si02
#       6
#     8   8   4   8   8   8
#     4   9  19  36  55  73  94 122 155 187 220 262
#     4   8  14  26  43  60  81 112 145 176 215 260
#     4   7  10  16  25  37  57  89 122 149 188 244
#     4   8  12  18  28  42  62  89 122 159 197 239
#     4   8  13  21  33  48  66  92 128 166 202 242
#     4  10  20  32  48  72  98 122 151 187 224 264
#
# _framework density 16.918754
#
# number of rings (size 3 to 8) (size 9 to 14) (size 15 to 20)
#    0.000    3.545    0.000    3.273    0.000    2.182 
#    0.000    4.091    0.000    6.000    0.000    0.000 
#    0.000    0.000    0.000    0.818    0.000   19.818 
#
# Total GULP energy -545135.688739 kJ/mol
# GULP energy per Si atom -12389.447471 kJ/mol
# Density = 1.688025 g / cm^3
# Si number density = 16.918754 Si / 1000 Ang^3
#
#
#
# Elastic Constant Matrix: (Units=GPa)
#
#
# Indices 1 2 3 4 5 6 
#
# 1 64.1768 33.5758 63.4370 0.0000 0.0000 0.0000
# 2 33.5758 54.8541 52.7254 0.0000 0.0000 0.0000
# 3 63.4370 52.7254 143.9153 0.0000 0.0000 0.0000
# 4 0.0000 0.0000 0.0000 1.5376 0.0000 0.0000
# 5 0.0000 0.0000 0.0000 0.0000 22.2082 0.0000
# 6 0.0000 0.0000 0.0000 0.0000 0.0000 14.0322
#
#
#
# Elastic Compliance Matrix: (Units=1/GPa)
#
#
# Indices 1 2 3 4 5 6 
#
# 1 0.030113 -0.008757 -0.010065 0.000000 0.000000 0.000000
# 2 -0.008757 0.030686 -0.007382 0.000000 0.000000 0.000000
# 3 -0.010065 -0.007382 0.014090 0.000000 0.000000 0.000000
# 4 0.000000 0.000000 0.000000 0.650383 0.000000 0.000000
# 5 0.000000 0.000000 0.000000 0.000000 0.045028 0.000000
# 6 0.000000 0.000000 0.000000 0.000000 0.000000 0.071265
#
#
# Mechanical properties :
#
#
# Convention : Reuss Voigt Hill
#
# Bulk Modulus (GPa) = 44.48499 62.49141 53.48820
# Shear Modulus (GPa) = 5.54651 15.10278 10.32464
#
# Velocity S-wave (km/s) = 1.81258 2.99099 2.47300
# Velocity P-wave (km/s) = 5.54355 6.99603 6.31171
#
# Compressibility (1/GPa) = 0.02247949
#
# Stress axis : x y z
#
# Youngs Moduli (GPa) = 33.20868 32.58808 70.97341
#
# Poissons Ratio (x) = 0.28538 0.71436
# Poissons Ratio (y) = 0.29081 0.52394
# Poissons Ratio (z) = 0.33425 0.24057
#
# Static dielectric constant tensor:
#      x y z
#    x 3.001880 0.000000 0.000000 
#    y 0.000000 2.707900 0.000000 
#    z 0.000000 0.000000 3.632990 
# 
# 
# High freq. dielectric constant tensor:
#      x y z
#    x 1.622440 0.000000 0.000000 
#    y 0.000000 1.595760 0.000000 
#    z 0.000000 0.000000 1.673240 
# 
# From -- ./inp_files/2034.got.cif
#   From: 2010.03.12/outbox.cif.g09.slc.cpg/sg47_2_cif.got.tgz:2034.got - 2010.04.14 03:12:58.
