data_PCOD8197265
_publ_section_title
;
Structure prediction by ZEFSAII (Michael W. Deem and Ramdas Pophale) SiO2 
 PCOD8197265
Probable space group: P M M M
;
_chemical_formula_sum "Si O2"
_cell_formula_units_Z 64
_cell_length_a 9.323317
_cell_length_b 15.045700
_cell_length_c 24.708416
_cell_angle_alpha 90.000000
_cell_angle_beta 90.000000
_cell_angle_gamma 90.000000
_cell_volume 3465.993577
_symmetry_space_group_name_H-M "P M M M"
_symmetry_group_IT_number 47
_symmetry_cell_setting 'orthorhombic'
loop_
_space_group_symop_operation_xyz
x,y,z
-x,-y,z
x,-y,-z
-x,y,-z
-x,-y,-z
x,y,-z
-x,y,z
x,-y,z
loop_
_atom_site_type_symbol
_atom_site_label
_atom_site_fract_x
_atom_site_fract_y
_atom_site_fract_z
Si Si1 0.664754 0.398480 0.937018
Si Si2 0.834521 0.095746 0.180399
Si Si3 0.333499 0.900665 0.596408
Si Si4 0.169873 0.712405 0.148248
Si Si5 0.660871 0.869005 0.282753
Si Si6 0.661172 0.668991 0.251774
Si Si7 0.665758 0.600018 0.364023
Si Si8 0.834990 0.735062 0.438843
O O1 0.500000 0.377565 0.922744
O O2 0.701411 0.500000 0.921348
O O3 0.766974 0.331716 0.905200
O O4 0.693979 0.382571 0.000000
O O5 0.781277 0.183000 0.147466
O O6 0.758452 0.086568 0.237705
O O7 0.000000 0.110561 0.193065
O O8 0.809416 0.000000 0.149671
O O9 0.500000 0.872891 0.591546
O O10 0.284285 0.899495 0.658852
O O11 0.239042 0.831436 0.563047
O O12 0.308712 0.000000 0.573136
O O13 0.231352 0.662270 0.201116
O O14 0.000000 0.701109 0.147834
O O15 0.500000 0.903213 0.272664
O O16 0.669986 0.763606 0.280380
O O17 0.500000 0.649105 0.230307
O O18 0.705713 0.602113 0.299927
O O19 0.500000 0.628708 0.371175
O O20 0.691959 0.500000 0.384754
O O21 0.762411 0.665430 0.398775
O O22 0.821089 0.698914 0.500000
O O23 0.000000 0.745402 0.421564
#
# Coordination Sequence:
#
# PCOD8197265 Si02
#       8
#     8   8   8   8   8   8   8   8
#     4   9  19  37  59  80 104 139 183 228 275 326
#     4   9  18  31  46  70 109 151 184 214 253 306
#     4  10  20  35  57  83 108 136 175 223 271 320
#     4  10  20  32  51  82 115 146 182 222 264 313
#     4   9  16  29  50  75 104 136 172 215 259 306
#     4   9  17  32  53  78 111 145 175 211 260 317
#     4  10  21  39  63  86 106 135 178 224 271 326
#     4  11  25  42  58  77 106 142 177 220 273 331
#
# _framework density 18.465123999999999
#
# number of rings (size 3 to 8) (size 9 to 14) (size 15 to 20)
#    0.000    2.375    1.250    1.500    0.000    5.250 
#    0.000    4.375    0.000    0.375    0.000    2.625 
#    0.000    0.000    0.000    0.000    0.000    0.000 
#
# Total GULP energy -793385.231907 kJ/mol
# GULP energy per Si atom -12396.644249 kJ/mol
# Density = 1.842310 g / cm^3
# Si number density = 18.465124 Si / 1000 Ang^3
#
#
#
# Elastic Constant Matrix: (Units=GPa)
#
#
# Indices 1 2 3 4 5 6 
#
# 1 88.6890 52.4973 51.8123 0.0000 0.0000 0.0000
# 2 52.4973 97.5958 47.5753 0.0000 0.0000 0.0000
# 3 51.8123 47.5753 80.1585 0.0000 0.0000 0.0000
# 4 0.0000 0.0000 0.0000 8.1821 0.0000 0.0000
# 5 0.0000 0.0000 0.0000 0.0000 12.9108 0.0000
# 6 0.0000 0.0000 0.0000 0.0000 0.0000 22.1110
#
#
#
# Elastic Compliance Matrix: (Units=1/GPa)
#
#
# Indices 1 2 3 4 5 6 
#
# 1 0.020669 -0.006480 -0.009514 0.000000 0.000000 0.000000
# 2 -0.006480 0.016449 -0.005574 0.000000 0.000000 0.000000
# 3 -0.009514 -0.005574 0.021933 0.000000 0.000000 0.000000
# 4 0.000000 0.000000 0.000000 0.122218 0.000000 0.000000
# 5 0.000000 0.000000 0.000000 0.000000 0.077455 0.000000
# 6 0.000000 0.000000 0.000000 0.000000 0.000000 0.045226
#
#
# Mechanical properties :
#
#
# Convention : Reuss Voigt Hill
#
# Bulk Modulus (GPa) = 62.83407 63.35702 63.09554
# Shear Modulus (GPa) = 14.18873 16.27802 15.23337
#
# Velocity S-wave (km/s) = 2.77502 2.97232 2.87536
# Velocity P-wave (km/s) = 6.66108 6.79454 6.72814
#
# Compressibility (1/GPa) = 0.01591493
#
# Stress axis : x y z
#
# Youngs Moduli (GPa) = 48.38096 60.79226 45.59296
#
# Poissons Ratio (x) = 0.39396 0.43377
# Poissons Ratio (y) = 0.31353 0.25415
# Poissons Ratio (z) = 0.46029 0.33887
#
# Static dielectric constant tensor:
#      x y z
#    x 3.360470 0.000000 0.000000 
#    y 0.000000 3.586710 0.000000 
#    z 0.000000 0.000000 3.162290 
# 
# 
# High freq. dielectric constant tensor:
#      x y z
#    x 1.710800 0.000000 0.000000 
#    y 0.000000 1.725030 0.000000 
#    z 0.000000 0.000000 1.693650 
# 
# From -- ./inp_files/7947.got.cif
#   From: 2010.03.12/outbox.cif.g09.slc.cpg/sg47_4_cif.got.tgz:7947.got - 2010.04.14 03:12:58.
