data_PCOD8197988
_publ_section_title
;
Structure prediction by ZEFSAII (Michael W. Deem and Ramdas Pophale) SiO2 
 PCOD8197988
Probable space group: P M M M
;
_chemical_formula_sum "Si O2"
_cell_formula_units_Z 52
_cell_length_a 9.043096
_cell_length_b 23.601458
_cell_length_c 14.567324
_cell_angle_alpha 90.000000
_cell_angle_beta 90.000000
_cell_angle_gamma 90.000000
_cell_volume 3109.107609
_symmetry_space_group_name_H-M "P M M M"
_symmetry_group_IT_number 47
_symmetry_cell_setting 'orthorhombic'
loop_
_space_group_symop_operation_xyz
x,y,z
-x,-y,z
x,-y,-z
-x,y,-z
-x,-y,-z
x,y,-z
-x,y,z
x,-y,z
loop_
_atom_site_type_symbol
_atom_site_label
_atom_site_fract_x
_atom_site_fract_y
_atom_site_fract_z
Si Si1 0.327857 0.399479 0.603609
Si Si2 0.322779 0.878577 0.103410
Si Si3 0.675397 0.730089 0.400943
Si Si4 0.676357 0.770870 0.789555
Si Si5 0.337717 0.000000 0.890895
Si Si6 0.675074 0.659253 0.894549
Si Si7 0.169446 0.436078 0.778115
O O1 0.297102 0.421043 0.500000
O O2 0.500000 0.406063 0.627969
O O3 0.276609 0.334557 0.614116
O O4 0.233701 0.435648 0.675019
O O5 0.500000 0.880903 0.106277
O O6 0.259164 0.828902 0.167968
O O7 0.258767 0.940332 0.137282
O O8 0.269831 0.865409 0.000000
O O9 0.736996 0.752238 0.500000
O O10 0.500000 0.732749 0.403197
O O11 0.735384 0.767046 0.315547
O O12 0.500000 0.771965 0.793126
O O13 0.733482 0.716811 0.846901
O O14 0.500000 0.000000 0.845421
O O15 0.353954 0.000000 0.000000
O O16 0.500000 0.654743 0.885106
O O17 0.742792 0.604763 0.845892
O O18 0.725931 0.660402 0.000000
O O19 0.184544 0.500000 0.815964
O O20 0.000000 0.416568 0.775112
#
# Coordination Sequence:
#
# PCOD8197988 Si02
#       7
#     8   8   8   8   4   8   8
#     4   9  17  32  54  75  93 114 143 182 225 268
#     4   8  12  17  27  47  76 109 141 172 210 256
#     4   8  13  22  39  62  84 104 129 167 215 261
#     4   9  14  22  39  62  84 104 133 179 227 264
#     4   7  10  16  24  38  69 111 146 170 198 249
#     4  10  20  34  52  71  88 109 145 194 237 269
#     4  11  24  38  50  66  91 122 151 179 218 274
#
# _framework density 16.725055999999999
#
# number of rings (size 3 to 8) (size 9 to 14) (size 15 to 20)
#    0.000    3.000    1.538    2.769    0.000    4.308 
#    0.000    3.077    0.000    0.000    0.000    0.538 
#    0.000    4.308    0.000    0.692    0.000    8.692 
#
# Total GULP energy -644283.390387 kJ/mol
# GULP energy per Si atom -12390.065200 kJ/mol
# Density = 1.668699 g / cm^3
# Si number density = 16.725056 Si / 1000 Ang^3
#
#
#
# Elastic Constant Matrix: (Units=GPa)
#
#
# Indices 1 2 3 4 5 6 
#
# 1 15.5668 14.8319 17.5511 0.0000 0.0000 0.0000
# 2 14.8319 123.8124 66.1554 0.0000 0.0000 0.0000
# 3 17.5511 66.1554 122.8165 0.0000 0.0000 0.0000
# 4 0.0000 0.0000 0.0000 22.8304 0.0000 0.0000
# 5 0.0000 0.0000 0.0000 0.0000 6.4973 0.0000
# 6 0.0000 0.0000 0.0000 0.0000 0.0000 -0.7058
#
#
#
# Elastic Compliance Matrix: (Units=1/GPa)
#
#
# Indices 1 2 3 4 5 6 
#
# 1 0.078550 -0.004791 -0.008645 0.000000 0.000000 0.000000
# 2 -0.004791 0.011633 -0.005581 0.000000 0.000000 0.000000
# 3 -0.008645 -0.005581 0.012384 0.000000 0.000000 0.000000
# 4 0.000000 0.000000 0.000000 0.043801 0.000000 0.000000
# 5 0.000000 0.000000 0.000000 0.000000 0.153910 0.000000
# 6 0.000000 0.000000 0.000000 0.000000 0.000000 -1.416877
#
#
# Mechanical properties :
#
#
# Convention : Reuss Voigt Hill
#
# Bulk Modulus (GPa) = 15.49581 51.03027 33.26304
# Shear Modulus (GPa) = -4.73013 16.63486 5.95237
#
# Velocity S-wave (km/s) = -1.68354 3.15716 1.88857
# Velocity P-wave (km/s) = 2.34650 6.62327 4.96859
#
# Compressibility (1/GPa) = 0.06453356
#
# Stress axis : x y z
#
# Youngs Moduli (GPa) = 12.73067 85.96282 80.74882
#
# Poissons Ratio (x) = 0.41183 0.69805
# Poissons Ratio (y) = 0.06099 0.45070
# Poissons Ratio (z) = 0.11005 0.47980
#
# Static dielectric constant tensor:
#      x y z
#    x 2.586490 0.000000 0.000000 
#    y 0.000000 3.359940 0.000000 
#    z 0.000000 0.000000 3.417310 
# 
# 
# High freq. dielectric constant tensor:
#      x y z
#    x 1.583870 0.000000 0.000000 
#    y 0.000000 1.639650 0.000000 
#    z 0.000000 0.000000 1.641580 
# 
# From -- ./inp_files/21798.got.cif
#   From: 2010.03.12/outbox.cif.g09.slc.cpg/sg47_11_cif.got.tgz:21798.got - 2010.04.14 03:12:58.
