data_PCOD8197420
_publ_section_title
;
Structure prediction by ZEFSAII (Michael W. Deem and Ramdas Pophale) SiO2 
 PCOD8197420
Probable space group: P M M M
;
_chemical_formula_sum "Si O2"
_cell_formula_units_Z 48
_cell_length_a 9.031466
_cell_length_b 8.958769
_cell_length_c 31.116239
_cell_angle_alpha 90.000000
_cell_angle_beta 90.000000
_cell_angle_gamma 90.000000
_cell_volume 2517.640339
_symmetry_space_group_name_H-M "P M M M"
_symmetry_group_IT_number 47
_symmetry_cell_setting 'orthorhombic'
loop_
_space_group_symop_operation_xyz
x,y,z
-x,-y,z
x,-y,-z
-x,y,-z
-x,-y,-z
x,y,-z
-x,y,z
x,-y,z
loop_
_atom_site_type_symbol
_atom_site_label
_atom_site_fract_x
_atom_site_fract_y
_atom_site_fract_z
Si Si1 0.167222 0.321789 0.000000
Si Si2 0.825412 0.672109 0.500000
Si Si3 0.324125 0.331960 0.665927
Si Si4 0.673358 0.825700 0.420121
Si Si5 0.329599 0.175271 0.751972
Si Si6 0.173906 0.672084 0.169910
Si Si7 0.666759 0.677535 0.083958
O O1 0.249785 0.258760 0.957875
O O2 0.168659 0.500000 0.000000
O O3 0.000000 0.261102 0.000000
O O4 0.777614 0.500000 0.500000
O O5 0.761113 0.749335 0.458144
O O6 0.000000 0.692286 0.500000
O O7 0.500000 0.330856 0.666077
O O8 0.261349 0.500000 0.664294
O O9 0.266627 0.242433 0.624486
O O10 0.266302 0.252756 0.709050
O O11 0.500000 0.793573 0.426515
O O12 0.707919 0.000000 0.420010
O O13 0.500000 0.220821 0.760516
O O14 0.230541 0.228201 0.791258
O O15 0.313076 0.000000 0.745700
O O16 0.216663 0.500000 0.178622
O O17 0.249747 0.732709 0.126571
O O18 0.000000 0.692349 0.164454
O O19 0.500000 0.740500 0.084471
O O20 0.666781 0.500000 0.082201
#
# Coordination Sequence:
#
# PCOD8197420 Si02
#       7
#     4   4   8   8   8   8   8
#     4   9  15  23  37  61  96 133 166 205 256 311
#     4  11  24  39  54  76 108 145 184 225 268 314
#     4   9  17  31  54  82 109 137 170 211 259 309
#     4  10  20  35  57  84 111 140 177 220 265 315
#     4  10  20  34  53  77 104 134 169 210 256 307
#     4  10  20  33  49  71 100 134 172 214 260 309
#     4   9  16  26  42  65  94 129 169 212 258 308
#
# _framework density 19.065472
#
# number of rings (size 3 to 8) (size 9 to 14) (size 15 to 20)
#    0.000    2.333    0.000    3.250    0.000    9.667 
#    0.000    0.833    0.000    5.000    0.000    0.583 
#    0.000    4.667    0.000    0.000    0.000    0.000 
#
# Total GULP energy -595306.629531 kJ/mol
# GULP energy per Si atom -12402.221449 kJ/mol
# Density = 1.902208 g / cm^3
# Si number density = 19.065472 Si / 1000 Ang^3
#
#
#
# Elastic Constant Matrix: (Units=GPa)
#
#
# Indices 1 2 3 4 5 6 
#
# 1 88.1227 38.5107 64.9140 0.0000 0.0000 0.0000
# 2 38.5107 87.2779 61.4655 0.0000 0.0000 0.0000
# 3 64.9140 61.4655 191.4928 0.0000 0.0000 0.0000
# 4 0.0000 0.0000 0.0000 -13.6757 0.0000 0.0000
# 5 0.0000 0.0000 0.0000 0.0000 9.9011 0.0000
# 6 0.0000 0.0000 0.0000 0.0000 0.0000 19.4579
#
#
#
# Elastic Compliance Matrix: (Units=1/GPa)
#
#
# Indices 1 2 3 4 5 6 
#
# 1 0.016262 -0.004255 -0.004147 0.000000 0.000000 0.000000
# 2 -0.004255 0.015917 -0.003667 0.000000 0.000000 0.000000
# 3 -0.004147 -0.003667 0.007805 0.000000 0.000000 0.000000
# 4 0.000000 0.000000 0.000000 -0.073122 0.000000 0.000000
# 5 0.000000 0.000000 0.000000 0.000000 0.100999 0.000000
# 6 0.000000 0.000000 0.000000 0.000000 0.000000 0.051393
#
#
# Mechanical properties :
#
#
# Convention : Reuss Voigt Hill
#
# Bulk Modulus (GPa) = 63.10364 77.40820 70.25592
# Shear Modulus (GPa) = 33.63063 16.60354 25.11708
#
# Velocity S-wave (km/s) = 4.20450 2.95425 3.63355
# Velocity P-wave (km/s) = 7.53264 7.23368 7.38468
#
# Compressibility (1/GPa) = 0.01584695
#
# Stress axis : x y z
#
# Youngs Moduli (GPa) = 61.49290 62.82399 128.12569
#
# Poissons Ratio (x) = 0.26732 0.53132
# Poissons Ratio (y) = 0.26166 0.46981
# Poissons Ratio (z) = 0.25500 0.23036
#
# Static dielectric constant tensor:
#      x y z
#    x 3.360790 0.000000 0.000000 
#    y 0.000000 3.303250 0.000000 
#    z 0.000000 0.000000 3.757620 
# 
# 
# High freq. dielectric constant tensor:
#      x y z
#    x 1.724860 0.000000 0.000000 
#    y 0.000000 1.718290 0.000000 
#    z 0.000000 0.000000 1.761610 
# 
# From -- ./inp_files/34182.got.cif
#   From: 2010.03.12/outbox.cif.g09.slc.cpg/sg47_18_cif.got.tgz:34182.got - 2010.04.14 03:12:58.
