data_PCOD8197053
_publ_section_title
;
Structure prediction by ZEFSAII (Michael W. Deem and Ramdas Pophale) SiO2 
 PCOD8197053
Probable space group: P M M M
;
_chemical_formula_sum "Si O2"
_cell_formula_units_Z 64
_cell_length_a 9.767462
_cell_length_b 13.808151
_cell_length_c 24.688244
_cell_angle_alpha 90.000000
_cell_angle_beta 90.000000
_cell_angle_gamma 90.000000
_cell_volume 3329.718039
_symmetry_space_group_name_H-M "P M M M"
_symmetry_group_IT_number 47
_symmetry_cell_setting 'orthorhombic'
loop_
_space_group_symop_operation_xyz
x,y,z
-x,-y,z
x,-y,-z
-x,y,-z
-x,-y,-z
x,y,-z
-x,y,z
x,-y,z
loop_
_atom_site_type_symbol
_atom_site_label
_atom_site_fract_x
_atom_site_fract_y
_atom_site_fract_z
Si Si1 0.349235 0.615296 0.060126
Si Si2 0.845611 0.114956 0.939618
Si Si3 0.660221 0.277359 0.438402
Si Si4 0.339242 0.393811 0.337676
Si Si5 0.151461 0.106280 0.435821
Si Si6 0.848056 0.613972 0.149858
Si Si7 0.341444 0.110717 0.840748
Si Si8 0.341028 0.288655 0.768097
O O1 0.500000 0.649993 0.080164
O O2 0.345549 0.500000 0.061152
O O3 0.229950 0.659038 0.097695
O O4 0.320989 0.654201 0.000000
O O5 0.743612 0.151787 0.892240
O O6 0.000000 0.150951 0.926913
O O7 0.841398 0.000000 0.939487
O O8 0.800249 0.151292 0.000000
O O9 0.702380 0.305219 0.500000
O O10 0.500000 0.255395 0.434487
O O11 0.706655 0.362980 0.398177
O O12 0.735705 0.181958 0.416199
O O13 0.500000 0.406457 0.337035
O O14 0.273233 0.500000 0.324742
O O15 0.300561 0.309127 0.294560
O O16 0.152284 0.101315 0.500000
O O17 0.000000 0.137688 0.415605
O O18 0.188306 0.000000 0.412290
O O19 0.861245 0.500000 0.143798
O O20 0.755665 0.636264 0.201270
O O21 0.000000 0.660211 0.154208
O O22 0.500000 0.116368 0.857228
O O23 0.310752 0.178580 0.788128
O O24 0.300430 0.000000 0.825604
O O25 0.500000 0.314853 0.778778
#
# Coordination Sequence:
#
# PCOD8197053 Si02
#       8
#     8   8   8   8   8   8   8   8
#     4   8  14  26  45  68  94 126 163 200 240 290
#     4   8  14  26  46  72 100 130 163 197 239 296
#     4   9  17  29  48  77 108 134 166 212 262 308
#     4   9  18  33  53  76 101 131 168 208 252 306
#     4   8  14  26  45  69 100 140 178 205 235 283
#     4  10  20  32  48  72  99 125 157 202 252 294
#     4   9  18  32  50  73  99 126 161 208 255 293
#     4  10  20  35  54  72  93 127 169 206 242 294
#
# _framework density 19.220845000000001
#
# number of rings (size 3 to 8) (size 9 to 14) (size 15 to 20)
#    0.000    3.125    0.000    1.875    0.000    2.750 
#    0.000    6.875    0.000    4.125    0.000    3.500 
#    0.000    0.000    0.000    0.000    0.000    0.000 
#
# Total GULP energy -792940.260224 kJ/mol
# GULP energy per Si atom -12389.691566 kJ/mol
# Density = 1.917710 g / cm^3
# Si number density = 19.220845 Si / 1000 Ang^3
#
#
#
# Elastic Constant Matrix: (Units=GPa)
#
#
# Indices 1 2 3 4 5 6 
#
# 1 81.4264 31.5633 47.3308 0.0000 0.0000 0.0000
# 2 31.5633 82.9991 53.2472 0.0000 0.0000 0.0000
# 3 47.3308 53.2472 122.4803 0.0000 0.0000 0.0000
# 4 0.0000 0.0000 0.0000 10.9393 0.0000 0.0000
# 5 0.0000 0.0000 0.0000 0.0000 8.0420 0.0000
# 6 0.0000 0.0000 0.0000 0.0000 0.0000 16.3040
#
#
#
# Elastic Compliance Matrix: (Units=1/GPa)
#
#
# Indices 1 2 3 4 5 6 
#
# 1 0.016361 -0.003003 -0.005017 0.000000 0.000000 0.000000
# 2 -0.003003 0.017260 -0.006343 0.000000 0.000000 0.000000
# 3 -0.005017 -0.006343 0.012861 0.000000 0.000000 0.000000
# 4 0.000000 0.000000 0.000000 0.091414 0.000000 0.000000
# 5 0.000000 0.000000 0.000000 0.000000 0.124347 0.000000
# 6 0.000000 0.000000 0.000000 0.000000 0.000000 0.061335
#
#
# Mechanical properties :
#
#
# Convention : Reuss Voigt Hill
#
# Bulk Modulus (GPa) = 56.32069 61.24316 58.78193
# Shear Modulus (GPa) = 13.95781 17.37468 15.66624
#
# Velocity S-wave (km/s) = 2.69770 3.00984 2.85803
# Velocity P-wave (km/s) = 6.25051 6.63407 6.44515
#
# Compressibility (1/GPa) = 0.01775546
#
# Stress axis : x y z
#
# Youngs Moduli (GPa) = 61.11917 57.93858 77.75568
#
# Poissons Ratio (x) = 0.17402 0.39010
# Poissons Ratio (y) = 0.18357 0.49319
# Poissons Ratio (z) = 0.30663 0.36749
#
# Static dielectric constant tensor:
#      x y z
#    x 3.624710 0.000000 0.000000 
#    y 0.000000 3.602100 0.000000 
#    z 0.000000 0.000000 3.539900 
# 
# 
# High freq. dielectric constant tensor:
#      x y z
#    x 1.733030 0.000000 0.000000 
#    y 0.000000 1.740980 0.000000 
#    z 0.000000 0.000000 1.726180 
# 
# From -- ./inp_files/32143.got.cif
#   From: 2010.03.12/outbox.cif.g09.slc.cpg/sg47_17_cif.got.tgz:32143.got - 2010.04.14 03:12:58.
