data_PCOD8197205
_publ_section_title
;
Structure prediction by ZEFSAII (Michael W. Deem and Ramdas Pophale) SiO2 
 PCOD8197205
Probable space group: P M M M
;
_chemical_formula_sum "Si O2"
_cell_formula_units_Z 48
_cell_length_a 9.380118
_cell_length_b 30.499311
_cell_length_c 8.786067
_cell_angle_alpha 90.000000
_cell_angle_beta 90.000000
_cell_angle_gamma 90.000000
_cell_volume 2513.580746
_symmetry_space_group_name_H-M "P M M M"
_symmetry_group_IT_number 47
_symmetry_cell_setting 'orthorhombic'
loop_
_space_group_symop_operation_xyz
x,y,z
-x,-y,z
x,-y,-z
-x,y,-z
-x,-y,-z
x,y,-z
-x,y,z
x,-y,z
loop_
_atom_site_type_symbol
_atom_site_label
_atom_site_fract_x
_atom_site_fract_y
_atom_site_fract_z
Si Si1 0.836655 0.702495 0.323321
Si Si2 0.660365 0.129178 0.680738
Si Si3 0.840025 0.951561 0.681016
Si Si4 0.666085 0.374785 0.176158
Si Si5 0.835554 0.206660 0.177566
Si Si6 0.163865 0.449327 0.675305
O O1 0.815985 0.713265 0.500000
O O2 0.737367 0.662434 0.277896
O O3 0.788865 0.744912 0.228299
O O4 0.000000 0.689830 0.286563
O O5 0.661621 0.127890 0.500000
O O6 0.500000 0.130145 0.744565
O O7 0.736255 0.085650 0.748401
O O8 0.741162 0.172239 0.732980
O O9 0.839010 0.949852 0.500000
O O10 0.000000 0.942379 0.740810
O O11 0.789306 0.000000 0.735416
O O12 0.500000 0.376639 0.215397
O O13 0.734275 0.421513 0.216349
O O14 0.693440 0.364278 0.000000
O O15 0.000000 0.198363 0.220415
O O16 0.807049 0.201484 0.000000
O O17 0.194048 0.437253 0.500000
O O18 0.198028 0.500000 0.706064
O O19 0.000000 0.438854 0.715133
#
# Coordination Sequence:
#
# PCOD8197205 Si02
#       6
#     8   8   8   8   8   8
#     4  10  21  38  61  85 106 133 174 222 268 315
#     4  10  20  32  49  76 108 141 175 212 259 314
#     4   8  14  26  46  72 101 134 173 217 262 306
#     4  11  24  38  53  79 115 150 181 216 262 316
#     4  10  21  37  57  79 103 135 175 217 263 314
#     4   9  19  37  60  84 109 140 182 229 272 315
#
# _framework density 19.096264000000001
#
# number of rings (size 3 to 8) (size 9 to 14) (size 15 to 20)
#    0.000    2.333    0.000    3.500    0.000    8.333 
#    0.000    4.167    0.000    0.500    0.000    3.500 
#    0.000    0.000    0.000    0.000    0.000    0.000 
#
# Total GULP energy -595291.632137 kJ/mol
# GULP energy per Si atom -12401.909003 kJ/mol
# Density = 1.905280 g / cm^3
# Si number density = 19.096264 Si / 1000 Ang^3
#
#
#
# Elastic Constant Matrix: (Units=GPa)
#
#
# Indices 1 2 3 4 5 6 
#
# 1 104.0201 66.2601 23.4425 0.0000 0.0000 0.0000
# 2 66.2601 112.7190 11.7945 0.0000 0.0000 0.0000
# 3 23.4425 11.7945 24.8172 0.0000 0.0000 0.0000
# 4 0.0000 0.0000 0.0000 -0.3664 0.0000 0.0000
# 5 0.0000 0.0000 0.0000 0.0000 25.7060 0.0000
# 6 0.0000 0.0000 0.0000 0.0000 0.0000 3.3856
#
#
#
# Elastic Compliance Matrix: (Units=1/GPa)
#
#
# Indices 1 2 3 4 5 6 
#
# 1 0.018687 -0.009616 -0.013082 0.000000 0.000000 0.000000
# 2 -0.009616 0.014284 0.002295 0.000000 0.000000 0.000000
# 3 -0.013082 0.002295 0.051561 0.000000 0.000000 0.000000
# 4 0.000000 0.000000 0.000000 -2.729586 0.000000 0.000000
# 5 0.000000 0.000000 0.000000 0.000000 0.038901 0.000000
# 6 0.000000 0.000000 0.000000 0.000000 0.000000 0.295368
#
#
# Mechanical properties :
#
#
# Convention : Reuss Voigt Hill
#
# Bulk Modulus (GPa) = 22.86961 49.39451 36.13206
# Shear Modulus (GPa) = -2.21690 15.08234 6.43272
#
# Velocity S-wave (km/s) = -1.07862 2.81340 1.83736
# Velocity P-wave (km/s) = 3.23276 6.03952 4.84389
#
# Compressibility (1/GPa) = 0.04372615
#
# Stress axis : x y z
#
# Youngs Moduli (GPa) = 53.51287 70.00759 19.39445
#
# Poissons Ratio (x) = 0.67320 0.25372
# Poissons Ratio (y) = 0.51458 -0.04451
# Poissons Ratio (z) = 0.70005 -0.16065
#
# Static dielectric constant tensor:
#      x y z
#    x 3.576220 0.000000 0.000000 
#    y 0.000000 3.630780 0.000000 
#    z 0.000000 0.000000 3.299620 
# 
# 
# High freq. dielectric constant tensor:
#      x y z
#    x 1.739540 0.000000 0.000000 
#    y 0.000000 1.756700 0.000000 
#    z 0.000000 0.000000 1.722950 
# 
# From -- ./inp_files/2435.got.cif
#   From: 2010.03.12/outbox.cif.g09.slc.cpg/sg47_2_cif.got.tgz:2435.got - 2010.04.14 03:12:58.
