data_PCOD8197861
_publ_section_title
;
Structure prediction by ZEFSAII (Michael W. Deem and Ramdas Pophale) SiO2 
 PCOD8197861
Probable space group: P M M M
;
_chemical_formula_sum "Si O2"
_cell_formula_units_Z 40
_cell_length_a 16.967805
_cell_length_b 13.392311
_cell_length_c 9.130377
_cell_angle_alpha 90.000000
_cell_angle_beta 90.000000
_cell_angle_gamma 90.000000
_cell_volume 2074.769718
_symmetry_space_group_name_H-M "P M M M"
_symmetry_group_IT_number 47
_symmetry_cell_setting 'orthorhombic'
loop_
_space_group_symop_operation_xyz
x,y,z
-x,-y,z
x,-y,-z
-x,y,-z
-x,-y,-z
x,y,-z
-x,y,z
x,-y,z
loop_
_atom_site_type_symbol
_atom_site_label
_atom_site_fract_x
_atom_site_fract_y
_atom_site_fract_z
Si Si1 0.587540 0.500000 0.673564
Si Si2 0.841763 0.717881 0.172546
Si Si3 0.000000 0.388710 0.174006
Si Si4 0.682264 0.305902 0.325780
Si Si5 0.090110 0.886183 0.664564
Si Si6 0.410978 0.111488 0.326149
O O1 0.500000 0.500000 0.740563
O O2 0.584204 0.500000 0.500000
O O3 0.629552 0.601161 0.727300
O O4 0.920437 0.663068 0.231706
O O5 0.766078 0.672952 0.251782
O O6 0.852086 0.832390 0.221536
O O7 0.830694 0.708209 0.000000
O O8 0.000000 0.500000 0.236379
O O9 0.000000 0.386249 0.000000
O O10 0.692280 0.303656 0.500000
O O11 0.644995 0.200926 0.267410
O O12 0.101035 0.843492 0.500000
O O13 0.000000 0.873984 0.716110
O O14 0.116297 0.000000 0.666824
O O15 0.411633 0.116268 0.500000
O O16 0.500000 0.129531 0.268111
O O17 0.381944 0.000000 0.275879
#
# Coordination Sequence:
#
# PCOD8197861 Si02
#       6
#     4   8   4   8   8   8
#     4   9  18  34  57  82 109 142 180 226 278 329
#     4  11  22  36  55  79 107 142 184 227 271 322
#     4   9  20  38  56  71  94 138 189 229 268 319
#     4  10  20  33  52  80 111 139 175 223 275 327
#     4   9  18  34  56  79 105 139 177 220 271 322
#     4   8  14  27  50  78 104 133 172 214 256 310
#
# _framework density 19.279247999999999
#
# number of rings (size 3 to 8) (size 9 to 14) (size 15 to 20)
#    0.000    2.600    1.000    2.400    1.400    3.600 
#    0.000    3.000    0.000    5.400    0.000    1.400 
#    0.000    0.000    0.000    0.000    0.000    0.000 
#
# Total GULP energy -495811.035949 kJ/mol
# GULP energy per Si atom -12395.275899 kJ/mol
# Density = 1.923537 g / cm^3
# Si number density = 19.279248 Si / 1000 Ang^3
#
#
#
# Elastic Constant Matrix: (Units=GPa)
#
#
# Indices 1 2 3 4 5 6 
#
# 1 151.7629 78.9587 34.2933 0.0000 0.0000 0.0000
# 2 78.9587 141.2490 28.8575 0.0000 0.0000 0.0000
# 3 34.2933 28.8575 33.0254 0.0000 0.0000 0.0000
# 4 0.0000 0.0000 0.0000 14.9504 0.0000 0.0000
# 5 0.0000 0.0000 0.0000 0.0000 18.6141 0.0000
# 6 0.0000 0.0000 0.0000 0.0000 0.0000 28.4058
#
#
#
# Elastic Compliance Matrix: (Units=1/GPa)
#
#
# Indices 1 2 3 4 5 6 
#
# 1 0.010475 -0.004423 -0.007012 0.000000 0.000000 0.000000
# 2 -0.004423 0.010486 -0.004570 0.000000 0.000000 0.000000
# 3 -0.007012 -0.004570 0.041554 0.000000 0.000000 0.000000
# 4 0.000000 0.000000 0.000000 0.066888 0.000000 0.000000
# 5 0.000000 0.000000 0.000000 0.000000 0.053723 0.000000
# 6 0.000000 0.000000 0.000000 0.000000 0.000000 0.035204
#
#
# Mechanical properties :
#
#
# Convention : Reuss Voigt Hill
#
# Bulk Modulus (GPa) = 32.78150 67.80625 50.29387
# Shear Modulus (GPa) = 19.19331 24.65593 21.92462
#
# Velocity S-wave (km/s) = 3.15864 3.58003 3.37592
# Velocity P-wave (km/s) = 5.50846 7.23435 6.42958
#
# Compressibility (1/GPa) = 0.03050501
#
# Stress axis : x y z
#
# Youngs Moduli (GPa) = 95.46647 95.36801 24.06492
#
# Poissons Ratio (x) = 0.42180 0.16875
# Poissons Ratio (y) = 0.42223 0.10997
# Poissons Ratio (z) = 0.66944 0.43581
#
# Static dielectric constant tensor:
#      x y z
#    x 3.624510 0.000000 0.000000 
#    y 0.000000 3.775820 0.000000 
#    z 0.000000 0.000000 3.004980 
# 
# 
# High freq. dielectric constant tensor:
#      x y z
#    x 1.753020 0.000000 0.000000 
#    y 0.000000 1.761110 0.000000 
#    z 0.000000 0.000000 1.696820 
# 
# From -- ./inp_files/5799.got.cif
#   From: 2010.03.12/outbox.cif.g09.slc.cpg/sg47_3_cif.got.tgz:5799.got - 2010.04.14 03:12:58.
