data_PCOD8197399
_publ_section_title
;
Structure prediction by ZEFSAII (Michael W. Deem and Ramdas Pophale) SiO2 
 PCOD8197399
Probable space group: P M M M
;
_chemical_formula_sum "Si O2"
_cell_formula_units_Z 52
_cell_length_a 9.333850
_cell_length_b 30.617497
_cell_length_c 10.503798
_cell_angle_alpha 90.000000
_cell_angle_beta 90.000000
_cell_angle_gamma 90.000000
_cell_volume 3001.766195
_symmetry_space_group_name_H-M "P M M M"
_symmetry_group_IT_number 47
_symmetry_cell_setting 'orthorhombic'
loop_
_space_group_symop_operation_xyz
x,y,z
-x,-y,z
x,-y,-z
-x,y,-z
-x,-y,-z
x,y,-z
-x,y,z
x,-y,z
loop_
_atom_site_type_symbol
_atom_site_label
_atom_site_fract_x
_atom_site_fract_y
_atom_site_fract_z
Si Si1 0.839247 0.548353 0.848584
Si Si2 0.844456 0.878576 0.645090
Si Si3 0.340068 0.628581 0.150607
Si Si4 0.830002 0.783579 0.644016
Si Si5 0.169229 0.714683 0.853460
Si Si6 0.667761 0.050220 0.756000
Si Si7 0.159334 0.051644 0.000000
O O1 0.786615 0.500000 0.806035
O O2 0.733878 0.585114 0.791113
O O3 0.000000 0.556840 0.797464
O O4 0.840590 0.551383 0.000000
O O5 0.875335 0.868843 0.500000
O O6 0.784938 0.832038 0.696315
O O7 0.727897 0.917540 0.649352
O O8 0.000000 0.891608 0.707758
O O9 0.500000 0.633001 0.207836
O O10 0.246351 0.670317 0.188329
O O11 0.348036 0.624272 0.000000
O O12 0.769361 0.773557 0.500000
O O13 0.772878 0.750422 0.752131
O O14 0.000000 0.781171 0.638521
O O15 0.000000 0.707431 0.841142
O O16 0.208123 0.728016 0.000000
O O17 0.500000 0.056220 0.777132
O O18 0.751191 0.067401 0.879471
O O19 0.703640 0.000000 0.721051
O O20 0.000000 0.072224 0.000000
O O21 0.149673 0.000000 0.000000
#
# Coordination Sequence:
#
# PCOD8197399 Si02
#       7
#     8   8   8   8   8   8   4
#     4   8  13  21  33  50  75 110 151 189 223 264
#     4   9  18  33  51  70  93 121 154 192 232 274
#     4   9  16  24  35  54  83 117 148 182 227 272
#     4   8  15  30  50  69  91 119 151 190 235 277
#     4   9  16  27  45  67  89 114 148 188 228 273
#     4  10  20  33  49  70  98 127 153 185 227 275
#     4   9  17  31  51  71  91 119 155 189 221 261
#
# _framework density 17.323132999999999
#
# number of rings (size 3 to 8) (size 9 to 14) (size 15 to 20)
#    0.000    3.154    0.000    2.538    0.000    4.615 
#    1.385    3.846    0.000    1.385    0.000    0.000 
#    0.000    0.615    0.000    7.077    0.000    9.077 
#
# Total GULP energy -644207.822711 kJ/mol
# GULP energy per Si atom -12388.611975 kJ/mol
# Density = 1.728371 g / cm^3
# Si number density = 17.323133 Si / 1000 Ang^3
#
#
#
# Elastic Constant Matrix: (Units=GPa)
#
#
# Indices 1 2 3 4 5 6 
#
# 1 83.0464 62.2939 21.6553 0.0000 0.0000 0.0000
# 2 62.2939 140.0290 41.9373 0.0000 0.0000 0.0000
# 3 21.6553 41.9373 45.1889 0.0000 0.0000 0.0000
# 4 0.0000 0.0000 0.0000 10.8485 0.0000 0.0000
# 5 0.0000 0.0000 0.0000 0.0000 10.7628 0.0000
# 6 0.0000 0.0000 0.0000 0.0000 0.0000 14.5568
#
#
#
# Elastic Compliance Matrix: (Units=1/GPa)
#
#
# Indices 1 2 3 4 5 6 
#
# 1 0.018163 -0.007580 -0.001669 0.000000 0.000000 0.000000
# 2 -0.007580 0.013054 -0.008482 0.000000 0.000000 0.000000
# 3 -0.001669 -0.008482 0.030801 0.000000 0.000000 0.000000
# 4 0.000000 0.000000 0.000000 0.092178 0.000000 0.000000
# 5 0.000000 0.000000 0.000000 0.000000 0.092913 0.000000
# 6 0.000000 0.000000 0.000000 0.000000 0.000000 0.068697
#
#
# Mechanical properties :
#
#
# Convention : Reuss Voigt Hill
#
# Bulk Modulus (GPa) = 37.65798 57.78192 47.71995
# Shear Modulus (GPa) = 13.88431 16.72547 15.30489
#
# Velocity S-wave (km/s) = 2.83413 3.11062 2.97559
# Velocity P-wave (km/s) = 5.70048 6.80654 6.27792
#
# Compressibility (1/GPa) = 0.02655479
#
# Stress axis : x y z
#
# Youngs Moduli (GPa) = 55.05843 76.60669 32.46651
#
# Poissons Ratio (x) = 0.58067 0.05420
# Poissons Ratio (y) = 0.41734 0.27538
# Poissons Ratio (z) = 0.09191 0.64978
#
# Static dielectric constant tensor:
#      x y z
#    x 3.194620 0.000000 0.000000 
#    y 0.000000 3.391710 0.000000 
#    z 0.000000 0.000000 2.980400 
# 
# 
# High freq. dielectric constant tensor:
#      x y z
#    x 1.656280 0.000000 0.000000 
#    y 0.000000 1.672370 0.000000 
#    z 0.000000 0.000000 1.621730 
# 
# From -- ./inp_files/13251.got.cif
#   From: 2010.03.12/outbox.cif.g09.slc.cpg/sg47_7_cif.got.tgz:13251.got - 2010.04.14 03:12:58.
