data_PCOD8197414
_publ_section_title
;
Structure prediction by ZEFSAII (Michael W. Deem and Ramdas Pophale) SiO2 
 PCOD8197414
Probable space group: P M M M
;
_chemical_formula_sum "Si O2"
_cell_formula_units_Z 40
_cell_length_a 26.209730
_cell_length_b 9.097402
_cell_length_c 9.152177
_cell_angle_alpha 90.000000
_cell_angle_beta 90.000000
_cell_angle_gamma 90.000000
_cell_volume 2182.249203
_symmetry_space_group_name_H-M "P M M M"
_symmetry_group_IT_number 47
_symmetry_cell_setting 'orthorhombic'
loop_
_space_group_symop_operation_xyz
x,y,z
-x,-y,z
x,-y,-z
-x,y,-z
-x,-y,-z
x,y,-z
-x,y,z
x,-y,z
loop_
_atom_site_type_symbol
_atom_site_label
_atom_site_fract_x
_atom_site_fract_y
_atom_site_fract_z
Si Si1 0.900183 0.329135 0.670209
Si Si2 0.299292 0.159997 0.172451
Si Si3 0.409607 0.175137 0.167704
Si Si4 0.500000 0.332353 0.672506
Si Si5 0.000000 0.674822 0.165067
Si Si6 0.810805 0.175544 0.165976
O O1 0.908709 0.301065 0.500000
O O2 0.891926 0.500000 0.705504
O O3 0.850952 0.241979 0.722748
O O4 0.949730 0.265997 0.753434
O O5 0.353064 0.237800 0.214477
O O6 0.245553 0.239078 0.213388
O O7 0.299219 0.000000 0.248139
O O8 0.299485 0.137337 0.000000
O O9 0.449826 0.252445 0.270653
O O10 0.411848 0.000000 0.189160
O O11 0.421958 0.215432 0.000000
O O12 0.500000 0.500000 0.727150
O O13 0.500000 0.321803 0.500000
O O14 0.000000 0.500000 0.169425
O O15 0.000000 0.735312 0.000000
O O16 0.810748 0.000000 0.177509
O O17 0.824042 0.224136 0.000000
#
# Coordination Sequence:
#
# PCOD8197414 Si02
#       6
#     8   8   8   4   4   8
#     4  10  20  33  49  71 100 132 164 199 241 289
#     4   7  12  26  49  75  99 121 151 196 244 285
#     4   9  17  32  56  80  96 117 158 207 247 286
#     4  11  24  37  46  64 100 139 166 193 238 292
#     4   9  17  31  52  73  92 121 164 210 250 287
#     4   9  17  31  52  76 101 129 160 196 240 288
#
# _framework density 18.329712000000001
#
# number of rings (size 3 to 8) (size 9 to 14) (size 15 to 20)
#    0.000    3.000    0.000    3.900    0.000    5.200 
#    0.000    2.500    0.000   12.600    0.000    0.000 
#    0.000    0.000    0.000    0.000    0.000    0.000 
#
# Total GULP energy -495575.923558 kJ/mol
# GULP energy per Si atom -12389.398089 kJ/mol
# Density = 1.828799 g / cm^3
# Si number density = 18.329712 Si / 1000 Ang^3
#
#
#
# Elastic Constant Matrix: (Units=GPa)
#
#
# Indices 1 2 3 4 5 6 
#
# 1 184.8666 37.9802 58.7362 0.0000 0.0000 0.0000
# 2 37.9802 33.4118 25.7964 0.0000 0.0000 0.0000
# 3 58.7362 25.7964 72.9376 0.0000 0.0000 0.0000
# 4 0.0000 0.0000 0.0000 23.8904 0.0000 0.0000
# 5 0.0000 0.0000 0.0000 0.0000 5.3791 0.0000
# 6 0.0000 0.0000 0.0000 0.0000 0.0000 45.9556
#
#
#
# Elastic Compliance Matrix: (Units=1/GPa)
#
#
# Indices 1 2 3 4 5 6 
#
# 1 0.007976 -0.005650 -0.004425 0.000000 0.000000 0.000000
# 2 -0.005650 0.045175 -0.011427 0.000000 0.000000 0.000000
# 3 -0.004425 -0.011427 0.021315 0.000000 0.000000 0.000000
# 4 0.000000 0.000000 0.000000 0.041858 0.000000 0.000000
# 5 0.000000 0.000000 0.000000 0.000000 0.185903 0.000000
# 6 0.000000 0.000000 0.000000 0.000000 0.000000 0.021760
#
#
# Mechanical properties :
#
#
# Convention : Reuss Voigt Hill
#
# Bulk Modulus (GPa) = 31.78461 59.58237 45.68349
# Shear Modulus (GPa) = 13.24577 26.29191 19.76884
#
# Velocity S-wave (km/s) = 2.69111 3.79144 3.28764
# Velocity P-wave (km/s) = 5.19945 7.19327 6.27604
#
# Compressibility (1/GPa) = 0.03146177
#
# Stress axis : x y z
#
# Youngs Moduli (GPa) = 125.37708 22.13601 46.91537
#
# Poissons Ratio (x) = 0.12508 0.20758
# Poissons Ratio (y) = 0.70843 0.53611
# Poissons Ratio (z) = 0.55474 0.25295
#
# Static dielectric constant tensor:
#      x y z
#    x 3.899790 0.000000 0.000000 
#    y 0.000000 2.981560 0.000000 
#    z 0.000000 0.000000 3.155010 
# 
# 
# High freq. dielectric constant tensor:
#      x y z
#    x 1.739640 0.000000 0.000000 
#    y 0.000000 1.664700 0.000000 
#    z 0.000000 0.000000 1.688630 
# 
# From -- ./inp_files/13018.got.cif
#   From: 2010.03.12/outbox.cif.g09.slc.cpg/sg47_7_cif.got.tgz:13018.got - 2010.04.14 03:12:58.
