data_PCOD8197694
_publ_section_title
;
Structure prediction by ZEFSAII (Michael W. Deem and Ramdas Pophale) SiO2 
 PCOD8197694
Probable space group: P M M M
;
_chemical_formula_sum "Si O2"
_cell_formula_units_Z 44
_cell_length_a 9.023795
_cell_length_b 7.821325
_cell_length_c 29.836834
_cell_angle_alpha 90.000000
_cell_angle_beta 90.000000
_cell_angle_gamma 90.000000
_cell_volume 2105.825067
_symmetry_space_group_name_H-M "P M M M"
_symmetry_group_IT_number 47
_symmetry_cell_setting 'orthorhombic'
loop_
_space_group_symop_operation_xyz
x,y,z
-x,-y,z
x,-y,-z
-x,y,-z
-x,-y,-z
x,y,-z
-x,y,z
x,-y,z
loop_
_atom_site_type_symbol
_atom_site_label
_atom_site_fract_x
_atom_site_fract_y
_atom_site_fract_z
Si Si1 0.169191 0.699072 0.303354
Si Si2 0.334389 0.805967 0.783155
Si Si3 0.324691 0.697585 0.395873
Si Si4 0.161239 0.304031 0.132612
Si Si5 0.829552 0.000000 0.552955
Si Si6 0.334147 0.296690 0.950897
O O1 0.177275 0.500000 0.292374
O O2 0.239433 0.797541 0.261938
O O3 0.262906 0.745471 0.347167
O O4 0.000000 0.759115 0.310547
O O5 0.500000 0.733188 0.774528
O O6 0.259528 0.702194 0.822951
O O7 0.341553 0.000000 0.799148
O O8 0.500000 0.726116 0.396104
O O9 0.285052 0.500000 0.408277
O O10 0.250122 0.826694 0.430776
O O11 0.138185 0.500000 0.120452
O O12 0.237231 0.215052 0.089327
O O13 0.000000 0.217934 0.141063
O O14 0.818843 0.000000 0.500000
O O15 0.000000 0.000000 0.569289
O O16 0.500000 0.224325 0.945625
O O17 0.338306 0.500000 0.946897
O O18 0.270482 0.243459 0.000000
#
# Coordination Sequence:
#
# PCOD8197694 Si02
#       6
#     8   8   8   8   4   8
#     4  10  21  38  61  88 117 150 190 236 289 349
#     4  11  24  38  53  76 107 145 187 230 278 334
#     4  10  22  41  66  95 128 167 211 261 314 370
#     4  10  20  33  51  76 105 137 174 219 273 331
#     4  11  25  43  65  95 131 173 217 263 316 371
#     4   8  14  26  46  72 100 131 169 213 263 321
#
# _framework density 20.894424999999998
#
# number of rings (size 3 to 8) (size 9 to 14) (size 15 to 20)
#    0.000    2.091    0.000    3.545    1.273    8.364 
#    0.000    3.636    0.000    0.545    0.000    3.818 
#    0.000    0.000    0.000    0.000    0.000    0.000 
#
# Total GULP energy -545511.206533 kJ/mol
# GULP energy per Si atom -12397.981967 kJ/mol
# Density = 2.084687 g / cm^3
# Si number density = 20.894425 Si / 1000 Ang^3
#
#
#
# Elastic Constant Matrix: (Units=GPa)
#
#
# Indices 1 2 3 4 5 6 
#
# 1 154.6925 39.1839 68.9307 0.0000 0.0000 0.0000
# 2 39.1839 55.4968 35.6579 0.0000 0.0000 0.0000
# 3 68.9307 35.6579 133.2013 0.0000 0.0000 0.0000
# 4 0.0000 0.0000 0.0000 -31.5962 0.0000 0.0000
# 5 0.0000 0.0000 0.0000 0.0000 41.3272 0.0000
# 6 0.0000 0.0000 0.0000 0.0000 0.0000 21.3948
#
#
#
# Elastic Compliance Matrix: (Units=1/GPa)
#
#
# Indices 1 2 3 4 5 6 
#
# 1 0.009118 -0.004114 -0.003617 0.000000 0.000000 0.000000
# 2 -0.004114 0.023618 -0.004194 0.000000 0.000000 0.000000
# 3 -0.003617 -0.004194 0.010502 0.000000 0.000000 0.000000
# 4 0.000000 0.000000 0.000000 -0.031649 0.000000 0.000000
# 5 0.000000 0.000000 0.000000 0.000000 0.024197 0.000000
# 6 0.000000 0.000000 0.000000 0.000000 0.000000 0.046740
#
#
# Mechanical properties :
#
#
# Convention : Reuss Voigt Hill
#
# Bulk Modulus (GPa) = 51.57632 70.10398 60.84015
# Shear Modulus (GPa) = 44.31063 19.53302 31.92182
#
# Velocity S-wave (km/s) = 4.61009 3.06084 3.91291
# Velocity P-wave (km/s) = 7.28527 6.79088 7.04241
#
# Compressibility (1/GPa) = 0.01938874
#
# Stress axis : x y z
#
# Youngs Moduli (GPa) = 109.66832 42.34022 95.21923
#
# Poissons Ratio (x) = 0.17418 0.34445
# Poissons Ratio (y) = 0.45116 0.39932
# Poissons Ratio (z) = 0.39672 0.17756
#
# Static dielectric constant tensor:
#      x y z
#    x 4.178360 0.000000 0.000000 
#    y 0.000000 3.524840 0.000000 
#    z 0.000000 0.000000 3.739270 
# 
# 
# High freq. dielectric constant tensor:
#      x y z
#    x 1.830480 0.000000 0.000000 
#    y 0.000000 1.796970 0.000000 
#    z 0.000000 0.000000 1.821510 
# 
# From -- ./inp_files/13679.got.cif
#   From: 2010.03.12/outbox.cif.g09.slc.cpg/sg47_7_cif.got.tgz:13679.got - 2010.04.14 03:12:58.
