data_PCOD8197167
_publ_section_title
;
Structure prediction by ZEFSAII (Michael W. Deem and Ramdas Pophale) SiO2 
 PCOD8197167
Probable space group: P M M M
;
_chemical_formula_sum "Si O2"
_cell_formula_units_Z 44
_cell_length_a 9.423318
_cell_length_b 9.146423
_cell_length_c 28.297826
_cell_angle_alpha 90.000000
_cell_angle_beta 90.000000
_cell_angle_gamma 90.000000
_cell_volume 2438.979789
_symmetry_space_group_name_H-M "P M M M"
_symmetry_group_IT_number 47
_symmetry_cell_setting 'orthorhombic'
loop_
_space_group_symop_operation_xyz
x,y,z
-x,-y,z
x,-y,-z
-x,y,-z
-x,-y,-z
x,y,-z
-x,y,z
x,-y,z
loop_
_atom_site_type_symbol
_atom_site_label
_atom_site_fract_x
_atom_site_fract_y
_atom_site_fract_z
Si Si1 0.831142 0.334973 0.000000
Si Si2 0.336293 0.328178 0.721881
Si Si3 0.164566 0.170142 0.907924
Si Si4 0.335728 0.168205 0.183029
Si Si5 0.340974 0.826407 0.552150
Si Si6 0.835173 0.172208 0.640489
O O1 0.773421 0.255212 0.046824
O O2 0.774545 0.500000 0.000000
O O3 0.000000 0.326909 0.000000
O O4 0.500000 0.288758 0.711094
O O5 0.309985 0.500000 0.721832
O O6 0.290435 0.265657 0.772549
O O7 0.237850 0.254488 0.683279
O O8 0.247345 0.224757 0.861743
O O9 0.000000 0.205444 0.899685
O O10 0.190992 0.000000 0.917331
O O11 0.500000 0.188604 0.170647
O O12 0.299483 0.000000 0.194864
O O13 0.295329 0.768711 0.500000
O O14 0.500000 0.770901 0.564182
O O15 0.232515 0.768037 0.591612
O O16 0.339068 0.000000 0.551690
O O17 0.000000 0.211822 0.639641
O O18 0.809099 0.000000 0.646649
#
# Coordination Sequence:
#
# PCOD8197167 Si02
#       6
#     4   8   8   8   8   8
#     4   9  17  29  46  69  96 126 160 195 232 278
#     4  10  21  36  53  72  96 130 169 206 247 297
#     4   9  17  30  49  71  94 122 157 196 236 281
#     4   9  18  33  52  73  97 125 158 199 247 295
#     4   8  14  26  46  72 100 130 165 204 245 290
#     4  10  20  32  49  75 104 133 165 203 248 296
#
# _framework density 18.040329
#
# number of rings (size 3 to 8) (size 9 to 14) (size 15 to 20)
#    0.000    2.818    0.000    1.909    0.000    5.091 
#    0.000    4.091    0.000    3.273    0.000    3.818 
#    0.000    0.000    0.000    0.000    0.000    0.000 
#
# Total GULP energy -545584.785622 kJ/mol
# GULP energy per Si atom -12399.654219 kJ/mol
# Density = 1.799927 g / cm^3
# Si number density = 18.040329 Si / 1000 Ang^3
#
#
#
# Elastic Constant Matrix: (Units=GPa)
#
#
# Indices 1 2 3 4 5 6 
#
# 1 91.4484 47.0091 96.7328 0.0000 0.0000 0.0000
# 2 47.0091 59.2483 67.1041 0.0000 0.0000 0.0000
# 3 96.7328 67.1041 193.1916 0.0000 0.0000 0.0000
# 4 0.0000 0.0000 0.0000 -2.2748 0.0000 0.0000
# 5 0.0000 0.0000 0.0000 0.0000 32.4147 0.0000
# 6 0.0000 0.0000 0.0000 0.0000 0.0000 17.8864
#
#
#
# Elastic Compliance Matrix: (Units=1/GPa)
#
#
# Indices 1 2 3 4 5 6 
#
# 1 0.026309 -0.009816 -0.009763 0.000000 0.000000 0.000000
# 2 -0.009816 0.031486 -0.006022 0.000000 0.000000 0.000000
# 3 -0.009763 -0.006022 0.012156 0.000000 0.000000 0.000000
# 4 0.000000 0.000000 0.000000 -0.439609 0.000000 0.000000
# 5 0.000000 0.000000 0.000000 0.000000 0.030850 0.000000
# 6 0.000000 0.000000 0.000000 0.000000 0.000000 0.055908
#
#
# Mechanical properties :
#
#
# Convention : Reuss Voigt Hill
#
# Bulk Modulus (GPa) = 53.33517 85.06448 69.19982
# Shear Modulus (GPa) = -22.17821 18.47477 -1.85172
#
# Velocity S-wave (km/s) = -3.51004 3.20360 -1.01423
# Velocity P-wave (km/s) = 3.63338 7.80633 6.08852
#
# Compressibility (1/GPa) = 0.01874935
#
# Stress axis : x y z
#
# Youngs Moduli (GPa) = 38.01028 31.75967 82.26056
#
# Poissons Ratio (x) = 0.31175 0.80315
# Poissons Ratio (y) = 0.37311 0.49535
# Poissons Ratio (z) = 0.37111 0.19125
#
# Static dielectric constant tensor:
#      x y z
#    x 3.265370 0.000000 0.000000 
#    y 0.000000 3.117560 0.000000 
#    z 0.000000 0.000000 3.627890 
# 
# 
# High freq. dielectric constant tensor:
#      x y z
#    x 1.684510 0.000000 0.000000 
#    y 0.000000 1.673610 0.000000 
#    z 0.000000 0.000000 1.713900 
# 
# From -- ./inp_files/2268.got.cif
#   From: 2010.03.12/outbox.cif.g09.slc.cpg/sg47_2_cif.got.tgz:2268.got - 2010.04.14 03:12:58.
