data_PCOD8197960
_publ_section_title
;
Structure prediction by ZEFSAII (Michael W. Deem and Ramdas Pophale) SiO2 
 PCOD8197960
Probable space group: P M M M
;
_chemical_formula_sum "Si O2"
_cell_formula_units_Z 64
_cell_length_a 20.675767
_cell_length_b 9.149645
_cell_length_c 19.971148
_cell_angle_alpha 90.000000
_cell_angle_beta 90.000000
_cell_angle_gamma 90.000000
_cell_volume 3778.060459
_symmetry_space_group_name_H-M "P M M M"
_symmetry_group_IT_number 47
_symmetry_cell_setting 'orthorhombic'
loop_
_space_group_symop_operation_xyz
x,y,z
-x,-y,z
x,-y,-z
-x,y,-z
-x,-y,-z
x,y,-z
-x,y,z
x,-y,z
loop_
_atom_site_type_symbol
_atom_site_label
_atom_site_fract_x
_atom_site_fract_y
_atom_site_fract_z
Si Si1 0.376914 0.332264 0.298660
Si Si2 0.428571 0.326369 0.159165
Si Si3 0.693544 0.327538 0.077351
Si Si4 0.223845 0.335110 0.285857
Si Si5 0.071320 0.173504 0.074896
Si Si6 0.192810 0.826590 0.157350
Si Si7 0.237123 0.666302 0.428538
Si Si8 0.630933 0.170141 0.573235
O O1 0.395731 0.500000 0.307297
O O2 0.410904 0.265000 0.232809
O O3 0.300510 0.309713 0.289498
O O4 0.404251 0.251317 0.365030
O O5 0.500000 0.269529 0.138346
O O6 0.427302 0.500000 0.162307
O O7 0.376281 0.274001 0.104406
O O8 0.702780 0.500000 0.088386
O O9 0.747992 0.244772 0.118498
O O10 0.698606 0.283462 0.000000
O O11 0.208486 0.500000 0.261935
O O12 0.191759 0.222554 0.234554
O O13 0.194789 0.304930 0.361127
O O14 0.126180 0.232187 0.124861
O O15 0.000000 0.228359 0.098112
O O16 0.072297 0.000000 0.074120
O O17 0.086054 0.231985 0.000000
O O18 0.199230 0.000000 0.152945
O O19 0.198476 0.682200 0.500000
O O20 0.264865 0.500000 0.422230
O O21 0.295296 0.779139 0.429970
O O22 0.598532 0.202677 0.500000
O O23 0.629285 0.000000 0.589153
#
# Coordination Sequence:
#
# PCOD8197960 Si02
#       8
#     8   8   8   8   8   8   8   8
#     4   9  16  28  45  62  84 114 147 184 224 268
#     4   9  17  31  50  69  87 110 148 194 232 269
#     4  10  20  34  51  70  93 119 146 183 234 281
#     4   9  16  27  43  64  93 123 150 184 228 272
#     4   8  15  29  47  66  90 121 157 194 226 257
#     4  11  20  29  47  73  98 123 153 187 223 269
#     4   8  14  25  40  58  83 118 155 186 219 261
#     4   9  16  24  37  60  87 112 141 180 223 267
#
# _framework density 16.939909
#
# number of rings (size 3 to 8) (size 9 to 14) (size 15 to 20)
#    0.000    2.875    1.250    2.250    0.000    3.750 
#    0.000    1.250    0.000    3.375    0.000    7.875 
#    0.000    0.500    0.000    6.250    0.000    0.125 
#
# Total GULP energy -792900.809539 kJ/mol
# GULP energy per Si atom -12389.075149 kJ/mol
# Density = 1.690135 g / cm^3
# Si number density = 16.939909 Si / 1000 Ang^3
#
#
#
# Elastic Constant Matrix: (Units=GPa)
#
#
# Indices 1 2 3 4 5 6 
#
# 1 78.3582 17.7812 51.5006 0.0000 0.0000 0.0000
# 2 17.7812 38.6148 34.2766 0.0000 0.0000 0.0000
# 3 51.5006 34.2766 147.3715 0.0000 0.0000 0.0000
# 4 0.0000 0.0000 0.0000 25.3499 0.0000 0.0000
# 5 0.0000 0.0000 0.0000 0.0000 16.0107 0.0000
# 6 0.0000 0.0000 0.0000 0.0000 0.0000 11.9678
#
#
#
# Elastic Compliance Matrix: (Units=1/GPa)
#
#
# Indices 1 2 3 4 5 6 
#
# 1 0.016874 -0.003196 -0.005154 0.000000 0.000000 0.000000
# 2 -0.003196 0.033240 -0.006614 0.000000 0.000000 0.000000
# 3 -0.005154 -0.006614 0.010125 0.000000 0.000000 0.000000
# 4 0.000000 0.000000 0.000000 0.039448 0.000000 0.000000
# 5 0.000000 0.000000 0.000000 0.000000 0.062458 0.000000
# 6 0.000000 0.000000 0.000000 0.000000 0.000000 0.083558
#
#
# Mechanical properties :
#
#
# Convention : Reuss Voigt Hill
#
# Bulk Modulus (GPa) = 32.99055 52.38459 42.68757
# Shear Modulus (GPa) = 17.49883 21.38476 19.44180
#
# Velocity S-wave (km/s) = 3.21751 3.55687 3.39144
# Velocity P-wave (km/s) = 5.77239 6.91804 6.37102
#
# Compressibility (1/GPa) = 0.03031171
#
# Stress axis : x y z
#
# Youngs Moduli (GPa) = 59.26183 30.08468 98.76556
#
# Poissons Ratio (x) = 0.09614 0.50900
# Poissons Ratio (y) = 0.18937 0.65327
# Poissons Ratio (z) = 0.30542 0.19899
#
# Static dielectric constant tensor:
#      x y z
#    x 2.966590 0.000000 0.000000 
#    y 0.000000 2.953440 0.000000 
#    z 0.000000 0.000000 3.762060 
# 
# 
# High freq. dielectric constant tensor:
#      x y z
#    x 1.600430 0.000000 0.000000 
#    y 0.000000 1.628570 0.000000 
#    z 0.000000 0.000000 1.676020 
# 
# From -- ./inp_files/9983.got.cif
#   From: 2010.03.12/outbox.cif.g09.slc.cpg/sg47_5_cif.got.tgz:9983.got - 2010.04.14 03:12:58.
