data_PCOD8197817
_publ_section_title
;
Structure prediction by ZEFSAII (Michael W. Deem and Ramdas Pophale) SiO2 
 PCOD8197817
Probable space group: P M M M
;
_chemical_formula_sum "Si O2"
_cell_formula_units_Z 44
_cell_length_a 28.702100
_cell_length_b 9.234482
_cell_length_c 9.334951
_cell_angle_alpha 90.000000
_cell_angle_beta 90.000000
_cell_angle_gamma 90.000000
_cell_volume 2474.219669
_symmetry_space_group_name_H-M "P M M M"
_symmetry_group_IT_number 47
_symmetry_cell_setting 'orthorhombic'
loop_
_space_group_symop_operation_xyz
x,y,z
-x,-y,z
x,-y,-z
-x,y,-z
-x,-y,-z
x,y,-z
-x,y,z
x,-y,z
loop_
_atom_site_type_symbol
_atom_site_label
_atom_site_fract_x
_atom_site_fract_y
_atom_site_fract_z
Si Si1 0.948895 0.672211 0.838670
Si Si2 0.500000 0.170537 0.168795
Si Si3 0.581509 0.669015 0.668471
Si Si4 0.226455 0.164560 0.330743
Si Si5 0.671332 0.838233 0.330121
Si Si6 0.138234 0.330389 0.334453
O O1 0.947511 0.500000 0.833100
O O2 0.907624 0.736128 0.740977
O O3 0.000000 0.725043 0.783971
O O4 0.940827 0.727066 0.000000
O O5 0.544957 0.241405 0.239958
O O6 0.500000 0.000000 0.200790
O O7 0.500000 0.202958 0.000000
O O8 0.572982 0.698006 0.500000
O O9 0.576891 0.500000 0.704269
O O10 0.632418 0.723550 0.718693
O O11 0.226461 0.184633 0.500000
O O12 0.277683 0.211356 0.271653
O O13 0.185015 0.261724 0.265372
O O14 0.216529 0.000000 0.286794
O O15 0.673677 0.844691 0.500000
O O16 0.659187 0.000000 0.272562
O O17 0.133462 0.289598 0.500000
O O18 0.142132 0.500000 0.308704
#
# Coordination Sequence:
#
# PCOD8197817 Si02
#       6
#     8   4   8   8   8   8
#     4   8  14  25  40  57  79 109 142 174 213 264
#     4  11  24  39  54  72  96 131 170 201 234 280
#     4  10  20  33  52  79 105 127 156 197 242 283
#     4   8  14  25  41  62  90 122 150 176 214 265
#     4   8  14  26  45  68  93 122 155 188 222 264
#     4   9  16  24  38  63  88 107 135 180 224 256
#
# _framework density 17.783386
#
# number of rings (size 3 to 8) (size 9 to 14) (size 15 to 20)
#    0.000    3.182    0.000    2.727    0.000    4.000 
#    0.000    5.455    0.000    2.182    0.000    8.909 
#    0.000    0.000    0.000    0.000    0.000    0.000 
#
# Total GULP energy -545235.783500 kJ/mol
# GULP energy per Si atom -12391.722352 kJ/mol
# Density = 1.774291 g / cm^3
# Si number density = 17.783386 Si / 1000 Ang^3
#
#
#
# Elastic Constant Matrix: (Units=GPa)
#
#
# Indices 1 2 3 4 5 6 
#
# 1 192.7104 71.2426 58.1037 0.0000 0.0000 0.0000
# 2 71.2426 72.2509 37.1456 0.0000 0.0000 0.0000
# 3 58.1037 37.1456 44.9864 0.0000 0.0000 0.0000
# 4 0.0000 0.0000 0.0000 12.9300 0.0000 0.0000
# 5 0.0000 0.0000 0.0000 0.0000 0.4796 0.0000
# 6 0.0000 0.0000 0.0000 0.0000 0.0000 20.9558
#
#
#
# Elastic Compliance Matrix: (Units=1/GPa)
#
#
# Indices 1 2 3 4 5 6 
#
# 1 0.009556 -0.005347 -0.007927 0.000000 0.000000 0.000000
# 2 -0.005347 0.027042 -0.015423 0.000000 0.000000 0.000000
# 3 -0.007927 -0.015423 0.045202 0.000000 0.000000 0.000000
# 4 0.000000 0.000000 0.000000 0.077339 0.000000 0.000000
# 5 0.000000 0.000000 0.000000 0.000000 2.085106 0.000000
# 6 0.000000 0.000000 0.000000 0.000000 0.000000 0.047719
#
#
# Mechanical properties :
#
#
# Convention : Reuss Voigt Hill
#
# Bulk Modulus (GPa) = 40.97292 71.43684 56.20488
# Shear Modulus (GPa) = 2.12089 16.43681 9.27885
#
# Velocity S-wave (km/s) = 1.09326 3.04349 2.28671
# Velocity P-wave (km/s) = 4.96826 7.25315 6.21659
#
# Compressibility (1/GPa) = 0.02440636
#
# Stress axis : x y z
#
# Youngs Moduli (GPa) = 104.64610 36.97916 22.12274
#
# Poissons Ratio (x) = 0.19773 0.17537
# Poissons Ratio (y) = 0.55955 0.34119
# Poissons Ratio (z) = 0.82956 0.57032
#
# Static dielectric constant tensor:
#      x y z
#    x 4.150120 0.000000 0.000000 
#    y 0.000000 3.136310 0.000000 
#    z 0.000000 0.000000 2.943980 
# 
# 
# High freq. dielectric constant tensor:
#      x y z
#    x 1.712320 0.000000 0.000000 
#    y 0.000000 1.665500 0.000000 
#    z 0.000000 0.000000 1.638270 
# 
# From -- ./inp_files/2319.got.cif
#   From: 2010.03.12/outbox.cif.g09.slc.cpg/sg47_2_cif.got.tgz:2319.got - 2010.04.14 03:12:58.
