data_PCOD8197065
_publ_section_title
;
Structure prediction by ZEFSAII (Michael W. Deem and Ramdas Pophale) SiO2 
 PCOD8197065
Probable space group: P M M M
;
_chemical_formula_sum "Si O2"
_cell_formula_units_Z 52
_cell_length_a 33.821747
_cell_length_b 9.533540
_cell_length_c 9.146812
_cell_angle_alpha 90.000000
_cell_angle_beta 90.000000
_cell_angle_gamma 90.000000
_cell_volume 2949.307006
_symmetry_space_group_name_H-M "P M M M"
_symmetry_group_IT_number 47
_symmetry_cell_setting 'orthorhombic'
loop_
_space_group_symop_operation_xyz
x,y,z
-x,-y,z
x,-y,-z
-x,y,-z
-x,-y,-z
x,y,-z
-x,y,z
x,-y,z
loop_
_atom_site_type_symbol
_atom_site_label
_atom_site_fract_x
_atom_site_fract_y
_atom_site_fract_z
Si Si1 0.191218 0.165947 0.665815
Si Si2 0.645543 0.834428 0.169032
Si Si3 0.043584 0.342393 0.826118
Si Si4 0.500000 0.333681 0.164846
Si Si5 0.722094 0.833499 0.663673
Si Si6 0.115398 0.160693 0.827686
Si Si7 0.578297 0.336218 0.671530
O O1 0.183123 0.211393 0.500000
O O2 0.234629 0.222952 0.714918
O O3 0.155872 0.228028 0.764310
O O4 0.191266 0.000000 0.682929
O O5 0.688725 0.783326 0.222950
O O6 0.614042 0.752751 0.265204
O O7 0.639811 0.000000 0.193701
O O8 0.640813 0.793295 0.000000
O O9 0.051510 0.500000 0.770358
O O10 0.077605 0.242214 0.761612
O O11 0.000000 0.291870 0.772942
O O12 0.044838 0.338164 0.000000
O O13 0.500000 0.500000 0.161084
O O14 0.461374 0.280637 0.250312
O O15 0.500000 0.272213 0.000000
O O16 0.712345 0.777539 0.500000
O O17 0.723573 0.000000 0.658793
O O18 0.110471 0.000000 0.778960
O O19 0.117774 0.176696 0.000000
O O20 0.574063 0.307925 0.500000
O O21 0.585691 0.500000 0.704367
#
# Coordination Sequence:
#
# PCOD8197065 Si02
#       7
#     8   8   8   4   8   8   8
#     4   8  14  25  41  61  86 116 146 175 213 262
#     4  10  20  32  48  73 102 129 158 195 239 282
#     4   8  14  25  40  57  79 109 141 169 203 254
#     4   9  17  31  52  75  98 125 158 198 242 285
#     4   8  14  26  44  64  87 118 154 187 219 262
#     4   9  16  24  38  63  87 103 129 176 222 251
#     4  10  20  34  53  75  98 127 163 199 235 280
#
# _framework density 17.631259
#
# number of rings (size 3 to 8) (size 9 to 14) (size 15 to 20)
#    0.000    3.154    0.000    2.538    0.000    3.692 
#    0.000    5.000    0.000    4.154    0.000    7.538 
#    0.000    0.000    0.000    0.000    0.000    0.000 
#
# Total GULP energy -644453.864092 kJ/mol
# GULP energy per Si atom -12393.343540 kJ/mol
# Density = 1.759113 g / cm^3
# Si number density = 17.631259 Si / 1000 Ang^3
#
#
#
# Elastic Constant Matrix: (Units=GPa)
#
#
# Indices 1 2 3 4 5 6 
#
# 1 176.4866 48.0907 61.7099 0.0000 0.0000 0.0000
# 2 48.0907 35.0953 27.1013 0.0000 0.0000 0.0000
# 3 61.7099 27.1013 74.8404 0.0000 0.0000 0.0000
# 4 0.0000 0.0000 0.0000 15.0805 0.0000 0.0000
# 5 0.0000 0.0000 0.0000 0.0000 26.2427 0.0000
# 6 0.0000 0.0000 0.0000 0.0000 0.0000 0.7606
#
#
#
# Elastic Compliance Matrix: (Units=1/GPa)
#
#
# Indices 1 2 3 4 5 6 
#
# 1 0.010062 -0.010246 -0.004586 0.000000 0.000000 0.000000
# 2 -0.010246 0.049988 -0.009654 0.000000 0.000000 0.000000
# 3 -0.004586 -0.009654 0.020639 0.000000 0.000000 0.000000
# 4 0.000000 0.000000 0.000000 0.066311 0.000000 0.000000
# 5 0.000000 0.000000 0.000000 0.000000 0.038106 0.000000
# 6 0.000000 0.000000 0.000000 0.000000 0.000000 1.314725
#
#
# Mechanical properties :
#
#
# Convention : Reuss Voigt Hill
#
# Bulk Modulus (GPa) = 31.52800 62.24732 46.88766
# Shear Modulus (GPa) = 3.20642 18.38479 10.79561
#
# Velocity S-wave (km/s) = 1.35002 3.23265 2.47715
# Velocity P-wave (km/s) = 4.51118 7.02247 5.90194
#
# Compressibility (1/GPa) = 0.03171784
#
# Stress axis : x y z
#
# Youngs Moduli (GPa) = 99.38800 20.00475 48.45198
#
# Poissons Ratio (x) = 0.20496 0.22221
# Poissons Ratio (y) = 1.01831 0.46773
# Poissons Ratio (z) = 0.45580 0.19312
#
# Static dielectric constant tensor:
#      x y z
#    x 3.924090 0.000000 0.000000 
#    y 0.000000 2.919370 0.000000 
#    z 0.000000 0.000000 3.192260 
# 
# 
# High freq. dielectric constant tensor:
#      x y z
#    x 1.702990 0.000000 0.000000 
#    y 0.000000 1.631070 0.000000 
#    z 0.000000 0.000000 1.666780 
# 
# From -- ./inp_files/13275.got.cif
#   From: 2010.03.12/outbox.cif.g09.slc.cpg/sg47_7_cif.got.tgz:13275.got - 2010.04.14 03:12:58.
