data_PCOD8197061
_publ_section_title
;
Structure prediction by ZEFSAII (Michael W. Deem and Ramdas Pophale) SiO2 
 PCOD8197061
Probable space group: P M M M
;
_chemical_formula_sum "Si O2"
_cell_formula_units_Z 52
_cell_length_a 9.247232
_cell_length_b 33.445826
_cell_length_c 9.662719
_cell_angle_alpha 90.000000
_cell_angle_beta 90.000000
_cell_angle_gamma 90.000000
_cell_volume 2988.498414
_symmetry_space_group_name_H-M "P M M M"
_symmetry_group_IT_number 47
_symmetry_cell_setting 'orthorhombic'
loop_
_space_group_symop_operation_xyz
x,y,z
-x,-y,z
x,-y,-z
-x,y,-z
-x,-y,-z
x,y,-z
-x,y,z
x,-y,z
loop_
_atom_site_type_symbol
_atom_site_label
_atom_site_fract_x
_atom_site_fract_y
_atom_site_fract_z
Si Si1 0.172175 0.772346 0.845712
Si Si2 0.663667 0.076798 0.335353
Si Si3 0.831201 0.845036 0.339196
Si Si4 0.839232 0.314987 0.835426
Si Si5 0.331671 0.608652 0.161405
Si Si6 0.835856 0.000000 0.334860
Si Si7 0.166032 0.546354 0.658520
O O1 0.228593 0.806581 0.742883
O O2 0.222726 0.728606 0.790028
O O3 0.000000 0.771963 0.850400
O O4 0.233396 0.780733 0.000000
O O5 0.662744 0.075435 0.500000
O O6 0.500000 0.075689 0.277532
O O7 0.743015 0.116835 0.283906
O O8 0.752213 0.038873 0.277514
O O9 0.801818 0.837045 0.500000
O O10 0.000000 0.853014 0.310617
O O11 0.736778 0.350240 0.780267
O O12 0.000000 0.322133 0.774350
O O13 0.846179 0.315171 0.000000
O O14 0.500000 0.610992 0.191038
O O15 0.268161 0.571046 0.241185
O O16 0.296496 0.602970 0.000000
O O17 0.837139 0.000000 0.500000
O O18 0.000000 0.000000 0.278146
O O19 0.200265 0.557495 0.500000
O O20 0.198669 0.500000 0.685276
O O21 0.000000 0.556211 0.693440
#
# Coordination Sequence:
#
# PCOD8197061 Si02
#       7
#     8   8   8   8   8   4   8
#     4   8  14  26  45  66  86 113 151 189 222 260
#     4   9  16  25  37  55  82 114 143 172 212 262
#     4   9  16  26  41  62  87 112 140 178 221 260
#     4   8  14  27  47  67  88 118 155 192 229 268
#     4  10  20  32  48  73 102 128 155 190 233 280
#     4   9  15  23  37  57  80 107 142 181 216 252
#     4   9  19  36  55  73  94 123 160 198 234 275
#
# _framework density 17.400044000000001
#
# number of rings (size 3 to 8) (size 9 to 14) (size 15 to 20)
#    0.000    3.154    0.000    2.538    0.000    4.615 
#    0.000    3.846    0.000    4.154    0.000    0.538 
#    0.000    4.308    0.000    0.000    0.000    0.000 
#
# Total GULP energy -644612.700030 kJ/mol
# GULP energy per Si atom -12396.398077 kJ/mol
# Density = 1.736044 g / cm^3
# Si number density = 17.400044 Si / 1000 Ang^3
#
#
#
# Elastic Constant Matrix: (Units=GPa)
#
#
# Indices 1 2 3 4 5 6 
#
# 1 100.0251 77.4958 36.2336 0.0000 0.0000 0.0000
# 2 77.4958 159.4164 51.9629 0.0000 0.0000 0.0000
# 3 36.2336 51.9629 40.8584 0.0000 0.0000 0.0000
# 4 0.0000 0.0000 0.0000 20.3454 0.0000 0.0000
# 5 0.0000 0.0000 0.0000 0.0000 14.9340 0.0000
# 6 0.0000 0.0000 0.0000 0.0000 0.0000 10.6634
#
#
#
# Elastic Compliance Matrix: (Units=1/GPa)
#
#
# Indices 1 2 3 4 5 6 
#
# 1 0.017446 -0.005872 -0.008003 0.000000 0.000000 0.000000
# 2 -0.005872 0.012691 -0.010933 0.000000 0.000000 0.000000
# 3 -0.008003 -0.010933 0.045476 0.000000 0.000000 0.000000
# 4 0.000000 0.000000 0.000000 0.049151 0.000000 0.000000
# 5 0.000000 0.000000 0.000000 0.000000 0.066961 0.000000
# 6 0.000000 0.000000 0.000000 0.000000 0.000000 0.093779
#
#
# Mechanical properties :
#
#
# Convention : Reuss Voigt Hill
#
# Bulk Modulus (GPa) = 38.46590 70.18717 54.32653
# Shear Modulus (GPa) = 14.54387 18.16239 16.35313
#
# Velocity S-wave (km/s) = 2.89425 3.23431 3.06899
# Velocity P-wave (km/s) = 5.77267 7.37378 6.62179
#
# Compressibility (1/GPa) = 0.02599705
#
# Stress axis : x y z
#
# Youngs Moduli (GPa) = 57.31895 78.79515 21.98952
#
# Poissons Ratio (x) = 0.46271 0.17599
# Poissons Ratio (y) = 0.33659 0.24041
# Poissons Ratio (z) = 0.45874 0.86145
#
# Static dielectric constant tensor:
#      x y z
#    x 3.166170 0.000000 0.000000 
#    y 0.000000 3.563510 0.000000 
#    z 0.000000 0.000000 2.864170 
# 
# 
# High freq. dielectric constant tensor:
#      x y z
#    x 1.658380 0.000000 0.000000 
#    y 0.000000 1.689110 0.000000 
#    z 0.000000 0.000000 1.622830 
# 
# From -- ./inp_files/15650.got.cif
#   From: 2010.03.12/outbox.cif.g09.slc.cpg/sg47_8_cif.got.tgz:15650.got - 2010.04.14 03:12:58.
