data_PCOD8197100
_publ_section_title
;
Structure prediction by ZEFSAII (Michael W. Deem and Ramdas Pophale) SiO2 
 PCOD8197100
Probable space group: P M M M
;
_chemical_formula_sum "Si O2"
_cell_formula_units_Z 44
_cell_length_a 28.258569
_cell_length_b 9.362337
_cell_length_c 9.164048
_cell_angle_alpha 90.000000
_cell_angle_beta 90.000000
_cell_angle_gamma 90.000000
_cell_volume 2424.497779
_symmetry_space_group_name_H-M "P M M M"
_symmetry_group_IT_number 47
_symmetry_cell_setting 'orthorhombic'
loop_
_space_group_symop_operation_xyz
x,y,z
-x,-y,z
x,-y,-z
-x,y,-z
-x,-y,-z
x,y,-z
-x,y,z
x,-y,z
loop_
_atom_site_type_symbol
_atom_site_label
_atom_site_fract_x
_atom_site_fract_y
_atom_site_fract_z
Si Si1 0.409359 0.165691 0.329300
Si Si2 0.054474 0.665817 0.333949
Si Si3 0.500000 0.661444 0.326516
Si Si4 0.316009 0.169997 0.164598
Si Si5 0.774978 0.170216 0.335116
Si Si6 0.132447 0.166899 0.831204
O O1 0.400352 0.190439 0.500000
O O2 0.453614 0.256328 0.269672
O O3 0.363388 0.222570 0.244688
O O4 0.419751 0.000000 0.296226
O O5 0.066410 0.710076 0.500000
O O6 0.065350 0.500000 0.309962
O O7 0.085449 0.755978 0.222704
O O8 0.000000 0.699463 0.298988
O O9 0.500000 0.500000 0.265585
O O10 0.500000 0.663046 0.500000
O O11 0.270605 0.231693 0.250176
O O12 0.314161 0.000000 0.165025
O O13 0.315426 0.229678 0.000000
O O14 0.774262 0.228942 0.500000
O O15 0.822234 0.226256 0.256262
O O16 0.773728 0.000000 0.333141
O O17 0.125519 0.000000 0.802987
O O18 0.140844 0.201143 0.000000
#
# Coordination Sequence:
#
# PCOD8197100 Si02
#       6
#     8   8   4   8   8   8
#     4   9  16  27  45  68  91 116 150 190 228 268
#     4   9  19  36  55  73  95 127 168 210 249 291
#     4   9  17  29  46  67  90 118 152 189 228 270
#     4   9  16  26  42  66  95 123 151 188 234 279
#     4   9  16  27  45  69  97 128 160 194 235 283
#     4  10  20  32  48  74 106 135 163 199 244 293
#
# _framework density 18.148088999999999
#
# number of rings (size 3 to 8) (size 9 to 14) (size 15 to 20)
#    0.000    2.818    0.000    2.455    0.000    7.636 
#    0.000    3.182    0.000    4.364    0.000    2.545 
#    0.000    0.000    0.000    0.000    0.000    0.000 
#
# Total GULP energy -545617.542840 kJ/mol
# GULP energy per Si atom -12400.398701 kJ/mol
# Density = 1.810678 g / cm^3
# Si number density = 18.148089 Si / 1000 Ang^3
#
#
#
# Elastic Constant Matrix: (Units=GPa)
#
#
# Indices 1 2 3 4 5 6 
#
# 1 160.6318 47.9899 82.4804 0.0000 0.0000 0.0000
# 2 47.9899 41.5598 35.6451 0.0000 0.0000 0.0000
# 3 82.4804 35.6451 117.8594 0.0000 0.0000 0.0000
# 4 0.0000 0.0000 0.0000 16.0885 0.0000 0.0000
# 5 0.0000 0.0000 0.0000 0.0000 21.2534 0.0000
# 6 0.0000 0.0000 0.0000 0.0000 0.0000 1.4377
#
#
#
# Elastic Compliance Matrix: (Units=1/GPa)
#
#
# Indices 1 2 3 4 5 6 
#
# 1 0.011675 -0.008741 -0.005527 0.000000 0.000000 0.000000
# 2 -0.008741 0.039034 -0.005688 0.000000 0.000000 0.000000
# 3 -0.005527 -0.005688 0.014073 0.000000 0.000000 0.000000
# 4 0.000000 0.000000 0.000000 0.062156 0.000000 0.000000
# 5 0.000000 0.000000 0.000000 0.000000 0.047051 0.000000
# 6 0.000000 0.000000 0.000000 0.000000 0.000000 0.695535
#
#
# Mechanical properties :
#
#
# Convention : Reuss Voigt Hill
#
# Bulk Modulus (GPa) = 40.20978 72.47577 56.34277
# Shear Modulus (GPa) = 5.44826 18.01830 11.73328
#
# Velocity S-wave (km/s) = 1.73454 3.15437 2.54545
# Velocity P-wave (km/s) = 5.12016 7.29994 6.30497
#
# Compressibility (1/GPa) = 0.02486957
#
# Stress axis : x y z
#
# Youngs Moduli (GPa) = 85.65657 25.61902 71.06010
#
# Poissons Ratio (x) = 0.22393 0.39272
# Poissons Ratio (y) = 0.74871 0.40420
# Poissons Ratio (z) = 0.47338 0.14573
#
# Static dielectric constant tensor:
#      x y z
#    x 3.505180 0.000000 0.000000 
#    y 0.000000 2.914160 0.000000 
#    z 0.000000 0.000000 3.348660 
# 
# 
# High freq. dielectric constant tensor:
#      x y z
#    x 1.719120 0.000000 0.000000 
#    y 0.000000 1.652990 0.000000 
#    z 0.000000 0.000000 1.700500 
# 
# From -- ./inp_files/13604.got.cif
#   From: 2010.03.12/outbox.cif.g09.slc.cpg/sg47_7_cif.got.tgz:13604.got - 2010.04.14 03:12:58.
