data_PCOD8197881
_publ_section_title
;
Structure prediction by ZEFSAII (Michael W. Deem and Ramdas Pophale) SiO2 
 PCOD8197881
Probable space group: P M M M
;
_chemical_formula_sum "Si O2"
_cell_formula_units_Z 48
_cell_length_a 29.169043
_cell_length_b 9.144284
_cell_length_c 9.679285
_cell_angle_alpha 90.000000
_cell_angle_beta 90.000000
_cell_angle_gamma 90.000000
_cell_volume 2581.755816
_symmetry_space_group_name_H-M "P M M M"
_symmetry_group_IT_number 47
_symmetry_cell_setting 'orthorhombic'
loop_
_space_group_symop_operation_xyz
x,y,z
-x,-y,z
x,-y,-z
-x,y,-z
-x,-y,-z
x,y,-z
-x,y,z
x,-y,z
loop_
_atom_site_type_symbol
_atom_site_label
_atom_site_fract_x
_atom_site_fract_y
_atom_site_fract_z
Si Si1 0.553546 0.661976 0.000000
Si Si2 0.696292 0.669119 0.840140
Si Si3 0.784506 0.670895 0.338738
Si Si4 0.050267 0.336536 0.836394
Si Si5 0.448487 0.172254 0.500000
Si Si6 0.603759 0.173085 0.230942
Si Si7 0.139470 0.172465 0.159588
O O1 0.568264 0.754914 0.129149
O O2 0.576683 0.500000 0.000000
O O3 0.500000 0.643558 0.000000
O O4 0.682906 0.500000 0.822496
O O5 0.737965 0.711952 0.740507
O O6 0.654580 0.767893 0.790648
O O7 0.708864 0.703461 0.000000
O O8 0.780660 0.716630 0.500000
O O9 0.795308 0.500000 0.324236
O O10 0.824268 0.758766 0.263324
O O11 0.061696 0.500000 0.781991
O O12 0.089569 0.225262 0.787589
O O13 0.000000 0.286955 0.779871
O O14 0.048390 0.338274 0.000000
O O15 0.500000 0.242651 0.500000
O O16 0.417145 0.224283 0.625193
O O17 0.454926 0.000000 0.500000
O O18 0.604738 0.000000 0.210687
O O19 0.141746 0.000000 0.173110
O O20 0.148677 0.221269 0.000000
#
# Coordination Sequence:
#
# PCOD8197881 Si02
#       7
#     4   8   8   8   4   8   8
#     4  11  23  39  59  85 117 149 185 229 274 321
#     4  10  21  38  59  83 114 146 179 226 279 332
#     4  10  22  39  59  82 107 144 190 231 277 334
#     4   8  14  26  47  76 109 146 188 232 277 328
#     4   9  20  38  57  81 115 151 187 225 266 319
#     4  11  22  37  60  87 114 148 186 226 273 327
#     4  10  20  33  52  81 115 150 187 231 282 333
#
# _framework density 18.591999000000001
#
# number of rings (size 3 to 8) (size 9 to 14) (size 15 to 20)
#    0.000    2.167    0.833    2.750    1.167    4.333 
#    0.000    2.917    0.000    3.500    0.000    3.500 
#    0.000    0.000    0.000    0.000    0.000    0.000 
#
# Total GULP energy -595004.736753 kJ/mol
# GULP energy per Si atom -12395.932016 kJ/mol
# Density = 1.854968 g / cm^3
# Si number density = 18.591999 Si / 1000 Ang^3
#
#
#
# Elastic Constant Matrix: (Units=GPa)
#
#
# Indices 1 2 3 4 5 6 
#
# 1 139.2142 65.1092 74.8123 0.0000 0.0000 0.0000
# 2 65.1092 78.6290 56.1316 0.0000 0.0000 0.0000
# 3 74.8123 56.1316 139.0453 0.0000 0.0000 0.0000
# 4 0.0000 0.0000 0.0000 10.4897 0.0000 0.0000
# 5 0.0000 0.0000 0.0000 0.0000 24.6337 0.0000
# 6 0.0000 0.0000 0.0000 0.0000 0.0000 -278.3713
#
#
#
# Elastic Compliance Matrix: (Units=1/GPa)
#
#
# Indices 1 2 3 4 5 6 
#
# 1 0.012955 -0.008080 -0.003709 0.000000 0.000000 0.000000
# 2 -0.008080 0.022907 -0.004900 0.000000 0.000000 0.000000
# 3 -0.003709 -0.004900 0.011165 0.000000 0.000000 0.000000
# 4 0.000000 0.000000 0.000000 0.095331 0.000000 0.000000
# 5 0.000000 0.000000 0.000000 0.000000 0.040595 0.000000
# 6 0.000000 0.000000 0.000000 0.000000 0.000000 -0.003592
#
#
# Mechanical properties :
#
#
# Convention : Reuss Voigt Hill
#
# Bulk Modulus (GPa) = 73.25944 83.22164 78.24054
# Shear Modulus (GPa) = 23.01098 -37.92723 -7.45812
#
# Velocity S-wave (km/s) = 3.52189 -4.52151 -2.00504
# Velocity P-wave (km/s) = 7.48515 4.19530 6.06746
#
# Compressibility (1/GPa) = 0.01365012
#
# Stress axis : x y z
#
# Youngs Moduli (GPa) = 77.18972 43.65557 89.56363
#
# Poissons Ratio (x) = 0.35274 0.33215
# Poissons Ratio (y) = 0.62370 0.43884
# Poissons Ratio (z) = 0.28626 0.21390
#
# Static dielectric constant tensor:
#      x y z
#    x 3.713490 0.000000 0.000000 
#    y 0.000000 3.401400 0.000000 
#    z 0.000000 0.000000 3.345720 
# 
# 
# High freq. dielectric constant tensor:
#      x y z
#    x 1.736010 0.000000 0.000000 
#    y 0.000000 1.715540 0.000000 
#    z 0.000000 0.000000 1.708980 
# 
# From -- ./inp_files/13833.got.cif
#   From: 2010.03.12/outbox.cif.g09.slc.cpg/sg47_7_cif.got.tgz:13833.got - 2010.04.14 03:12:58.
