data_PCOD8197187
_publ_section_title
;
Structure prediction by ZEFSAII (Michael W. Deem and Ramdas Pophale) SiO2 
 PCOD8197187
Probable space group: P M M M
;
_chemical_formula_sum "Si O2"
_cell_formula_units_Z 40
_cell_length_a 25.481732
_cell_length_b 9.436585
_cell_length_c 9.134895
_cell_angle_alpha 90.000000
_cell_angle_beta 90.000000
_cell_angle_gamma 90.000000
_cell_volume 2196.581693
_symmetry_space_group_name_H-M "P M M M"
_symmetry_group_IT_number 47
_symmetry_cell_setting 'orthorhombic'
loop_
_space_group_symop_operation_xyz
x,y,z
-x,-y,z
x,-y,-z
-x,y,-z
-x,-y,-z
x,y,-z
-x,y,z
x,-y,z
loop_
_atom_site_type_symbol
_atom_site_label
_atom_site_fract_x
_atom_site_fract_y
_atom_site_fract_z
Si Si1 0.560359 0.835448 0.333627
Si Si2 0.841261 0.167808 0.831944
Si Si3 0.645896 0.664340 0.169075
Si Si4 0.942237 0.831776 0.335927
Si Si5 0.751205 0.663968 0.671795
O O1 0.572651 0.788748 0.500000
O O2 0.500000 0.804064 0.295758
O O3 0.595106 0.747961 0.221470
O O4 0.573099 0.000000 0.313069
O O5 0.897750 0.223503 0.774764
O O6 0.796942 0.241933 0.737694
O O7 0.835724 0.000000 0.811361
O O8 0.835659 0.213162 0.000000
O O9 0.634714 0.500000 0.197020
O O10 0.696577 0.715336 0.258845
O O11 0.656434 0.697932 0.000000
O O12 0.929791 0.776552 0.500000
O O13 0.000000 0.776598 0.286004
O O14 0.942608 0.000000 0.336075
O O15 0.748274 0.690840 0.500000
O O16 0.761962 0.500000 0.709901
#
# Coordination Sequence:
#
# PCOD8197187 Si02
#       5
#     8   8   8   8   8
#     4   9  19  36  56  78 105 137 172 208 247 293
#     4  10  20  32  49  76 106 134 166 205 251 303
#     4  10  21  36  54  77 104 133 167 208 253 301
#     4   8  14  26  45  69  98 132 168 206 248 293
#     4  10  21  37  56  75  97 131 173 212 253 301
#
# _framework density 18.210113
#
# number of rings (size 3 to 8) (size 9 to 14) (size 15 to 20)
#    0.000    2.600    0.000    3.000    0.000    6.000 
#    0.000    5.000    0.000    0.600    0.000    4.200 
#    0.000    0.000    0.000    0.000    0.000    0.000 
#
# Total GULP energy -496004.491168 kJ/mol
# GULP energy per Si atom -12400.112279 kJ/mol
# Density = 1.816867 g / cm^3
# Si number density = 18.210113 Si / 1000 Ang^3
#
#
#
# Elastic Constant Matrix: (Units=GPa)
#
#
# Indices 1 2 3 4 5 6 
#
# 1 135.8048 47.3955 73.4319 0.0000 0.0000 0.0000
# 2 47.3955 37.4551 39.5319 0.0000 0.0000 0.0000
# 3 73.4319 39.5319 111.8665 0.0000 0.0000 0.0000
# 4 0.0000 0.0000 0.0000 27.8796 0.0000 0.0000
# 5 0.0000 0.0000 0.0000 0.0000 21.9480 0.0000
# 6 0.0000 0.0000 0.0000 0.0000 0.0000 2332.7997
#
#
#
# Elastic Compliance Matrix: (Units=1/GPa)
#
#
# Indices 1 2 3 4 5 6 
#
# 1 0.014702 -0.013425 -0.004906 0.000000 0.000000 0.000000
# 2 -0.013425 0.054840 -0.010567 0.000000 0.000000 0.000000
# 3 -0.004906 -0.010567 0.015894 0.000000 0.000000 0.000000
# 4 0.000000 0.000000 0.000000 0.035868 0.000000 0.000000
# 5 0.000000 0.000000 0.000000 0.000000 0.045562 0.000000
# 6 0.000000 0.000000 0.000000 0.000000 0.000000 0.000429
#
#
# Mechanical properties :
#
#
# Convention : Reuss Voigt Hill
#
# Bulk Modulus (GPa) = 36.18122 67.31611 51.74866
# Shear Modulus (GPa) = 21.33973 484.84326 253.09149
#
# Velocity S-wave (km/s) = 3.42696 16.33485 11.80194
# Velocity P-wave (km/s) = 5.96411 19.81960 14.63535
#
# Compressibility (1/GPa) = 0.02763865
#
# Stress axis : x y z
#
# Youngs Moduli (GPa) = 68.01871 18.23498 62.91654
#
# Poissons Ratio (x) = 0.24481 0.30869
# Poissons Ratio (y) = 0.91317 0.66483
# Poissons Ratio (z) = 0.33373 0.19269
#
# Static dielectric constant tensor:
#      x y z
#    x 3.583430 0.000000 0.000000 
#    y 0.000000 3.065410 0.000000 
#    z 0.000000 0.000000 3.461500 
# 
# 
# High freq. dielectric constant tensor:
#      x y z
#    x 1.719140 0.000000 0.000000 
#    y 0.000000 1.674640 0.000000 
#    z 0.000000 0.000000 1.713620 
# 
# From -- ./inp_files/1372.got.cif
#   From: 2010.03.12/outbox.cif.g09.slc.cpg/sg47_1_cif.got.tgz:1372.got - 2010.04.14 03:12:58.
