data_PCOD8197438
_publ_section_title
;
Structure prediction by ZEFSAII (Michael W. Deem and Ramdas Pophale) SiO2 
 PCOD8197438
Probable space group: P M M M
;
_chemical_formula_sum "Si O2"
_cell_formula_units_Z 36
_cell_length_a 13.049015
_cell_length_b 9.431234
_cell_length_c 14.660023
_cell_angle_alpha 90.000000
_cell_angle_beta 90.000000
_cell_angle_gamma 90.000000
_cell_volume 1804.184313
_symmetry_space_group_name_H-M "P M M M"
_symmetry_group_IT_number 47
_symmetry_cell_setting 'orthorhombic'
loop_
_space_group_symop_operation_xyz
x,y,z
-x,-y,z
x,-y,-z
-x,y,-z
-x,-y,-z
x,y,-z
-x,y,z
x,-y,z
loop_
_atom_site_type_symbol
_atom_site_label
_atom_site_fract_x
_atom_site_fract_y
_atom_site_fract_z
Si Si1 0.883098 0.163540 0.823576
Si Si2 0.701498 0.835615 0.308544
Si Si3 0.616554 0.655186 0.838873
Si Si4 0.377787 0.842332 0.000000
Si Si5 0.616554 0.166125 0.500000
Si Si6 0.878810 0.659898 0.000000
O O1 0.814685 0.195127 0.732954
O O2 0.843452 0.258112 0.908262
O O3 0.000000 0.200818 0.796783
O O4 0.873368 0.000000 0.853251
O O5 0.621229 0.735920 0.256737
O O6 0.686820 0.789383 0.413612
O O7 0.671419 0.000000 0.294566
O O8 0.500000 0.631573 0.866703
O O9 0.670578 0.500000 0.835593
O O10 0.667934 0.757196 0.914100
O O11 0.500000 0.852128 0.000000
O O12 0.330791 0.000000 0.000000
O O13 0.500000 0.233024 0.500000
O O14 0.600619 0.000000 0.500000
O O15 0.833146 0.500000 0.000000
O O16 0.000000 0.655133 0.000000
#
# Coordination Sequence:
#
# PCOD8197438 Si02
#       6
#     8   8   8   4   4   4
#     4   9  18  33  52  76 108 142 175 215 262 310
#     4  10  20  34  54  77 100 133 177 218 262 318
#     4  10  20  33  49  72 103 135 167 209 260 310
#     4   9  17  30  49  72 100 136 174 208 247 305
#     4   9  18  34  56  80 104 131 171 225 274 317
#     4   9  17  30  51  78 106 140 180 216 253 303
#
# _framework density 19.953614000000002
#
# number of rings (size 3 to 8) (size 9 to 14) (size 15 to 20)
#    0.000    2.556    0.000    2.000    0.000    6.667 
#    0.000    2.222    0.000    5.333    0.000    0.000 
#    0.000    5.333    0.000    0.000    0.000    0.000 
#
# Total GULP energy -446114.560553 kJ/mol
# GULP energy per Si atom -12392.071126 kJ/mol
# Density = 1.990820 g / cm^3
# Si number density = 19.953614 Si / 1000 Ang^3
#
#
#
# Elastic Constant Matrix: (Units=GPa)
#
#
# Indices 1 2 3 4 5 6 
#
# 1 87.0547 30.9645 46.6767 0.0000 0.0000 0.0000
# 2 30.9645 132.9834 74.3799 0.0000 0.0000 0.0000
# 3 46.6767 74.3799 186.6711 0.0000 0.0000 0.0000
# 4 0.0000 0.0000 0.0000 -18.0691 0.0000 0.0000
# 5 0.0000 0.0000 0.0000 0.0000 36.4738 0.0000
# 6 0.0000 0.0000 0.0000 0.0000 0.0000 16.5084
#
#
#
# Elastic Compliance Matrix: (Units=1/GPa)
#
#
# Indices 1 2 3 4 5 6 
#
# 1 0.013531 -0.001619 -0.002738 0.000000 0.000000 0.000000
# 2 -0.001619 0.009870 -0.003528 0.000000 0.000000 0.000000
# 3 -0.002738 -0.003528 0.007447 0.000000 0.000000 0.000000
# 4 0.000000 0.000000 0.000000 -0.055343 0.000000 0.000000
# 5 0.000000 0.000000 0.000000 0.000000 0.027417 0.000000
# 6 0.000000 0.000000 0.000000 0.000000 0.000000 0.060575
#
#
# Mechanical properties :
#
#
# Convention : Reuss Voigt Hill
#
# Bulk Modulus (GPa) = 66.32186 78.97237 72.64712
# Shear Modulus (GPa) = 59.31626 23.96184 41.63905
#
# Velocity S-wave (km/s) = 5.45817 3.46913 4.57310
# Velocity P-wave (km/s) = 8.54589 7.46394 8.02318
#
# Compressibility (1/GPa) = 0.01507798
#
# Stress axis : x y z
#
# Youngs Moduli (GPa) = 73.90369 101.31795 134.27483
#
# Poissons Ratio (x) = 0.16404 0.36768
# Poissons Ratio (y) = 0.11966 0.47370
# Poissons Ratio (z) = 0.20237 0.35744
#
# Static dielectric constant tensor:
#      x y z
#    x 3.547960 0.000000 0.000000 
#    y 0.000000 3.807940 0.000000 
#    z 0.000000 0.000000 3.725410 
# 
# 
# High freq. dielectric constant tensor:
#      x y z
#    x 1.782400 0.000000 0.000000 
#    y 0.000000 1.771530 0.000000 
#    z 0.000000 0.000000 1.758530 
# 
# From -- ./inp_files/23277.got.cif
#   From: 2010.03.12/outbox.cif.g09.slc.cpg/sg47_12_cif.got.tgz:23277.got - 2010.04.14 03:12:58.
