data_PCOD8197986
_publ_section_title
;
Structure prediction by ZEFSAII (Michael W. Deem and Ramdas Pophale) SiO2 
 PCOD8197986
Probable space group: P M M M
;
_chemical_formula_sum "Si O2"
_cell_formula_units_Z 52
_cell_length_a 11.805980
_cell_length_b 8.769553
_cell_length_c 28.169586
_cell_angle_alpha 90.000000
_cell_angle_beta 90.000000
_cell_angle_gamma 90.000000
_cell_volume 2916.486461
_symmetry_space_group_name_H-M "P M M M"
_symmetry_group_IT_number 47
_symmetry_cell_setting 'orthorhombic'
loop_
_space_group_symop_operation_xyz
x,y,z
-x,-y,z
x,-y,-z
-x,y,-z
-x,-y,-z
x,y,-z
-x,y,z
x,-y,z
loop_
_atom_site_type_symbol
_atom_site_label
_atom_site_fract_x
_atom_site_fract_y
_atom_site_fract_z
Si Si1 0.131319 0.679007 0.278778
Si Si2 0.126744 0.817555 0.898466
Si Si3 0.500000 0.322281 0.208616
Si Si4 0.865025 0.167771 0.000000
Si Si5 0.371277 0.677964 0.554137
Si Si6 0.500000 0.172112 0.694198
Si Si7 0.268143 0.175257 0.359482
Si Si8 0.734764 0.818880 0.808779
O O1 0.150254 0.500000 0.273476
O O2 0.173629 0.731633 0.330544
O O3 0.204017 0.762279 0.238613
O O4 0.000000 0.723936 0.273083
O O5 0.170814 0.751644 0.949963
O O6 0.202218 0.756000 0.855480
O O7 0.000000 0.758817 0.888449
O O8 0.128514 0.000000 0.900853
O O9 0.500000 0.500000 0.197220
O O10 0.500000 0.296590 0.264768
O O11 0.609229 0.244516 0.185870
O O12 0.000000 0.153396 0.000000
O O13 0.809981 0.000000 0.000000
O O14 0.336200 0.711057 0.500000
O O15 0.500000 0.736258 0.563004
O O16 0.364857 0.500000 0.565692
O O17 0.279819 0.764695 0.586786
O O18 0.609725 0.201291 0.663255
O O19 0.500000 0.000000 0.715541
O O20 0.230947 0.000000 0.359860
O O21 0.732738 0.000000 0.806536
#
# Coordination Sequence:
#
# PCOD8197986 Si02
#       8
#     8   8   4   4   8   4   8   8
#     4  11  24  39  54  75 104 139 177 213 254 309
#     4   8  14  25  45  74 105 135 165 205 260 312
#     4  12  24  36  52  72 100 140 179 213 256 309
#     4   7  10  20  40  69 103 132 162 203 254 311
#     4   9  18  32  51  77 109 142 174 209 253 307
#     4  10  20  34  51  77 105 134 170 212 261 309
#     4  11  21  34  55  79 107 138 171 214 261 308
#     4  11  21  34  53  77 106 136 171 215 261 309
#
# _framework density 17.829673
#
# number of rings (size 3 to 8) (size 9 to 14) (size 15 to 20)
#    0.000    2.077    2.308    3.923    0.000    2.769 
#    0.000    0.769    0.000    0.923    0.000    8.615 
#    0.000    8.615    0.000    0.000    0.000    0.000 
#
# Total GULP energy -644597.494550 kJ/mol
# GULP energy per Si atom -12396.105664 kJ/mol
# Density = 1.778909 g / cm^3
# Si number density = 17.829673 Si / 1000 Ang^3
#
#
#
# Elastic Constant Matrix: (Units=GPa)
#
#
# Indices 1 2 3 4 5 6 
#
# 1 98.8812 36.2778 51.6971 0.0000 0.0000 0.0000
# 2 36.2778 61.5357 32.1982 0.0000 0.0000 0.0000
# 3 51.6971 32.1982 132.7956 0.0000 0.0000 0.0000
# 4 0.0000 0.0000 0.0000 1.7754 0.0000 0.0000
# 5 0.0000 0.0000 0.0000 0.0000 32.4486 0.0000
# 6 0.0000 0.0000 0.0000 0.0000 0.0000 -16.9172
#
#
#
# Elastic Compliance Matrix: (Units=1/GPa)
#
#
# Indices 1 2 3 4 5 6 
#
# 1 0.014649 -0.006474 -0.004133 0.000000 0.000000 0.000000
# 2 -0.006474 0.021473 -0.002686 0.000000 0.000000 0.000000
# 3 -0.004133 -0.002686 0.009791 0.000000 0.000000 0.000000
# 4 0.000000 0.000000 0.000000 0.563261 0.000000 0.000000
# 5 0.000000 0.000000 0.000000 0.000000 0.030818 0.000000
# 6 0.000000 0.000000 0.000000 0.000000 0.000000 -0.059111
#
#
# Mechanical properties :
#
#
# Convention : Reuss Voigt Hill
#
# Bulk Modulus (GPa) = 51.74243 59.28430 55.51336
# Shear Modulus (GPa) = 8.14453 14.99732 11.57092
#
# Velocity S-wave (km/s) = 2.13960 2.90339 2.55025
# Velocity P-wave (km/s) = 5.93188 6.67549 6.31464
#
# Compressibility (1/GPa) = 0.01932650
#
# Stress axis : x y z
#
# Youngs Moduli (GPa) = 68.26342 46.57081 102.13705
#
# Poissons Ratio (x) = 0.30148 0.42216
# Poissons Ratio (y) = 0.44191 0.27436
# Poissons Ratio (z) = 0.28215 0.12510
#
# Static dielectric constant tensor:
#      x y z
#    x 3.227960 0.000000 0.000000 
#    y 0.000000 3.109730 0.000000 
#    z 0.000000 0.000000 3.596620 
# 
# 
# High freq. dielectric constant tensor:
#      x y z
#    x 1.666190 0.000000 0.000000 
#    y 0.000000 1.672760 0.000000 
#    z 0.000000 0.000000 1.699660 
# 
# From -- ./inp_files/19912.got.cif
#   From: 2010.03.12/outbox.cif.g09.slc.cpg/sg47_10_cif.got.tgz:19912.got - 2010.04.14 03:12:58.
