data_PCOD8197443
_publ_section_title
;
Structure prediction by ZEFSAII (Michael W. Deem and Ramdas Pophale) SiO2 
 PCOD8197443
Probable space group: P M M M
;
_chemical_formula_sum "Si O2"
_cell_formula_units_Z 64
_cell_length_a 28.091185
_cell_length_b 14.314021
_cell_length_c 8.915270
_cell_angle_alpha 90.000000
_cell_angle_beta 90.000000
_cell_angle_gamma 90.000000
_cell_volume 3584.810560
_symmetry_space_group_name_H-M "P M M M"
_symmetry_group_IT_number 47
_symmetry_cell_setting 'orthorhombic'
loop_
_space_group_symop_operation_xyz
x,y,z
-x,-y,z
x,-y,-z
-x,y,-z
-x,-y,-z
x,y,-z
-x,y,z
x,-y,z
loop_
_atom_site_type_symbol
_atom_site_label
_atom_site_fract_x
_atom_site_fract_y
_atom_site_fract_z
Si Si1 0.787040 0.391064 0.170615
Si Si2 0.554778 0.106846 0.326645
Si Si3 0.725035 0.889711 0.330337
Si Si4 0.680466 0.601486 0.822540
Si Si5 0.362195 0.209321 0.176786
Si Si6 0.133134 0.273794 0.323950
Si Si7 0.177914 0.106728 0.177138
Si Si8 0.055211 0.393453 0.827567
O O1 0.799491 0.500000 0.176940
O O2 0.733688 0.372767 0.232284
O O3 0.822414 0.337292 0.278834
O O4 0.793047 0.354000 0.000000
O O5 0.568285 0.120623 0.500000
O O6 0.500000 0.132713 0.298138
O O7 0.585817 0.176128 0.226282
O O8 0.564586 0.000000 0.278862
O O9 0.729507 0.852304 0.500000
O O10 0.677577 0.851876 0.255597
O O11 0.771236 0.856868 0.238226
O O12 0.720650 0.000000 0.327104
O O13 0.664448 0.500000 0.756588
O O14 0.643875 0.682255 0.773085
O O15 0.683083 0.593022 0.000000
O O16 0.356515 0.197611 0.000000
O O17 0.132515 0.258811 0.500000
O O18 0.136904 0.172010 0.246298
O O19 0.084321 0.322422 0.274684
O O20 0.168176 0.000000 0.227409
O O21 0.178279 0.116322 0.000000
O O22 0.065388 0.500000 0.777381
O O23 0.000000 0.369390 0.806782
O O24 0.070785 0.380570 0.000000
#
# Coordination Sequence:
#
# PCOD8197443 Si02
#       8
#     8   8   8   8   8   8   8   8
#     4   9  17  31  51  72  98 136 178 213 243 284
#     4   9  19  36  54  70  93 127 161 195 245 305
#     4  10  20  33  49  72 105 139 166 197 244 301
#     4   8  16  31  48  67  94 129 166 202 240 281
#     4  11  20  29  49  77 100 127 165 206 245 289
#     4  12  23  32  49  77 108 139 167 203 256 313
#     4  10  21  37  55  73  97 133 177 220 254 288
#     4   9  19  37  59  80 103 134 172 212 253 299
#
# _framework density 17.853103999999998
#
# number of rings (size 3 to 8) (size 9 to 14) (size 15 to 20)
#    0.000    2.250    0.000    5.250    0.000    6.750 
#    0.000    1.875    0.000    3.750    0.000    5.250 
#    0.000    0.000    0.000    0.000    0.000    0.000 
#
# Total GULP energy -793620.756800 kJ/mol
# GULP energy per Si atom -12400.324325 kJ/mol
# Density = 1.781247 g / cm^3
# Si number density = 17.853104 Si / 1000 Ang^3
#
#
#
# Elastic Constant Matrix: (Units=GPa)
#
#
# Indices 1 2 3 4 5 6 
#
# 1 83.6163 58.3368 39.3748 0.0000 0.0000 0.0000
# 2 58.3368 79.3090 40.0623 0.0000 0.0000 0.0000
# 3 39.3748 40.0623 87.6707 0.0000 0.0000 0.0000
# 4 0.0000 0.0000 0.0000 19.3568 0.0000 0.0000
# 5 0.0000 0.0000 0.0000 0.0000 21.5702 0.0000
# 6 0.0000 0.0000 0.0000 0.0000 0.0000 31.0113
#
#
#
# Elastic Compliance Matrix: (Units=1/GPa)
#
#
# Indices 1 2 3 4 5 6 
#
# 1 0.025477 -0.016850 -0.003743 0.000000 0.000000 0.000000
# 2 -0.016850 0.027536 -0.005016 0.000000 0.000000 0.000000
# 3 -0.003743 -0.005016 0.015379 0.000000 0.000000 0.000000
# 4 0.000000 0.000000 0.000000 0.051662 0.000000 0.000000
# 5 0.000000 0.000000 0.000000 0.000000 0.046360 0.000000
# 6 0.000000 0.000000 0.000000 0.000000 0.000000 0.032246
#
#
# Mechanical properties :
#
#
# Convention : Reuss Voigt Hill
#
# Bulk Modulus (GPa) = 58.21724 58.46043 58.33884
# Shear Modulus (GPa) = 19.56159 21.90911 20.73535
#
# Velocity S-wave (km/s) = 3.31372 3.50692 3.41169
# Velocity P-wave (km/s) = 6.87901 7.01529 6.94749
#
# Compressibility (1/GPa) = 0.01717704
#
# Stress axis : x y z
#
# Youngs Moduli (GPa) = 39.25053 36.31547 65.02263
#
# Poissons Ratio (x) = 0.61190 0.24337
# Poissons Ratio (y) = 0.66136 0.32613
# Poissons Ratio (z) = 0.14691 0.18215
#
# Static dielectric constant tensor:
#      x y z
#    x 3.179670 0.000000 0.000000 
#    y 0.000000 3.629950 0.000000 
#    z 0.000000 0.000000 3.217890 
# 
# 
# High freq. dielectric constant tensor:
#      x y z
#    x 1.673740 0.000000 0.000000 
#    y 0.000000 1.694440 0.000000 
#    z 0.000000 0.000000 1.682460 
# 
# From -- ./inp_files/12750.got.cif
#   From: 2010.03.12/outbox.cif.g09.slc.cpg/sg47_7_cif.got.tgz:12750.got - 2010.04.14 03:12:58.
