data_PCOD8197687
_publ_section_title
;
Structure prediction by ZEFSAII (Michael W. Deem and Ramdas Pophale) SiO2 
 PCOD8197687
Probable space group: P M M M
;
_chemical_formula_sum "Si O2"
_cell_formula_units_Z 64
_cell_length_a 20.928337
_cell_length_b 19.607783
_cell_length_c 8.946069
_cell_angle_alpha 90.000000
_cell_angle_beta 90.000000
_cell_angle_gamma 90.000000
_cell_volume 3671.093581
_symmetry_space_group_name_H-M "P M M M"
_symmetry_group_IT_number 47
_symmetry_cell_setting 'orthorhombic'
loop_
_space_group_symop_operation_xyz
x,y,z
-x,-y,z
x,-y,-z
-x,y,-z
-x,-y,-z
x,y,-z
-x,y,z
x,-y,z
loop_
_atom_site_type_symbol
_atom_site_label
_atom_site_fract_x
_atom_site_fract_y
_atom_site_fract_z
Si Si1 0.569879 0.211888 0.677810
Si Si2 0.188595 0.782770 0.173769
Si Si3 0.266561 0.422930 0.825851
Si Si4 0.071895 0.286617 0.673156
Si Si5 0.626313 0.074312 0.676829
Si Si6 0.758552 0.924510 0.171010
Si Si7 0.135075 0.424430 0.669925
Si Si8 0.692393 0.706923 0.322515
O O1 0.571232 0.213619 0.500000
O O2 0.500000 0.236419 0.736242
O O3 0.580246 0.134213 0.735583
O O4 0.626974 0.259168 0.738970
O O5 0.120121 0.758339 0.230836
O O6 0.190639 0.864473 0.203106
O O7 0.245851 0.744971 0.258296
O O8 0.195394 0.765024 0.000000
O O9 0.288135 0.500000 0.787017
O O10 0.193158 0.411189 0.781866
O O11 0.310497 0.371125 0.732762
O O12 0.273940 0.407260 0.000000
O O13 0.082853 0.269037 0.500000
O O14 0.081864 0.367477 0.701798
O O15 0.000000 0.268683 0.723323
O O16 0.626644 0.073936 0.500000
O O17 0.697921 0.090258 0.726768
O O18 0.603469 0.000000 0.737727
O O19 0.787917 0.000000 0.206171
O O20 0.735403 0.921220 0.000000
O O21 0.161075 0.417949 0.500000
O O22 0.105492 0.500000 0.696410
O O23 0.696701 0.709860 0.500000
#
# Coordination Sequence:
#
# PCOD8197687 Si02
#       8
#     8   8   8   8   8   8   8   8
#     4   9  18  31  47  72 105 137 170 211 256 299
#     4  11  21  33  53  77 101 133 172 213 257 302
#     4  10  20  33  51  76 104 131 164 210 258 301
#     4  10  21  35  51  74 105 139 172 208 252 302
#     4   9  16  27  46  72 101 134 171 206 244 296
#     4   9  18  32  50  73 101 131 166 211 258 302
#     4   9  17  30  49  73 102 136 170 201 239 292
#     4  11  20  32  53  77 102 134 171 211 254 302
#
# _framework density 17.433496999999999
#
# number of rings (size 3 to 8) (size 9 to 14) (size 15 to 20)
#    0.000    2.250    2.500    1.125    0.000    2.000 
#    0.000    2.500    0.000    4.125    0.000    9.625 
#    0.000    0.000    0.000    0.000    0.000    0.000 
#
# Total GULP energy -793280.642598 kJ/mol
# GULP energy per Si atom -12395.010041 kJ/mol
# Density = 1.739382 g / cm^3
# Si number density = 17.433497 Si / 1000 Ang^3
#
#
#
# Elastic Constant Matrix: (Units=GPa)
#
#
# Indices 1 2 3 4 5 6 
#
# 1 111.3283 65.9946 31.3823 0.0000 0.0000 0.0000
# 2 65.9946 119.4205 36.7410 0.0000 0.0000 0.0000
# 3 31.3823 36.7410 47.6746 0.0000 0.0000 0.0000
# 4 0.0000 0.0000 0.0000 23.5910 0.0000 0.0000
# 5 0.0000 0.0000 0.0000 0.0000 1.1164 0.0000
# 6 0.0000 0.0000 0.0000 0.0000 0.0000 25.0685
#
#
#
# Elastic Compliance Matrix: (Units=1/GPa)
#
#
# Indices 1 2 3 4 5 6 
#
# 1 0.013989 -0.006420 -0.004261 0.000000 0.000000 0.000000
# 2 -0.006420 0.013922 -0.006504 0.000000 0.000000 0.000000
# 3 -0.004261 -0.006504 0.028792 0.000000 0.000000 0.000000
# 4 0.000000 0.000000 0.000000 0.042389 0.000000 0.000000
# 5 0.000000 0.000000 0.000000 0.000000 0.895730 0.000000
# 6 0.000000 0.000000 0.000000 0.000000 0.000000 0.039891
#
#
# Mechanical properties :
#
#
# Convention : Reuss Voigt Hill
#
# Bulk Modulus (GPa) = 44.77227 60.73992 52.75609
# Shear Modulus (GPa) = 4.64456 19.57555 12.11005
#
# Velocity S-wave (km/s) = 1.63400 3.35456 2.63847
# Velocity P-wave (km/s) = 5.41271 7.06546 6.29357
#
# Compressibility (1/GPa) = 0.02233525
#
# Stress axis : x y z
#
# Youngs Moduli (GPa) = 71.48364 71.82670 34.73127
#
# Poissons Ratio (x) = 0.46111 0.14799
# Poissons Ratio (y) = 0.45891 0.22588
# Poissons Ratio (z) = 0.30460 0.46713
#
# Static dielectric constant tensor:
#      x y z
#    x 3.090820 0.000000 0.000000 
#    y 0.000000 3.682690 0.000000 
#    z 0.000000 0.000000 3.163530 
# 
# 
# High freq. dielectric constant tensor:
#      x y z
#    x 1.640690 0.000000 0.000000 
#    y 0.000000 1.685960 0.000000 
#    z 0.000000 0.000000 1.664080 
# 
# From -- ./inp_files/11805.got.cif
#   From: 2010.03.12/outbox.cif.g09.slc.cpg/sg47_6_cif.got.tgz:11805.got - 2010.04.14 03:12:58.
