data_PCOD8197270
_publ_section_title
;
Structure prediction by ZEFSAII (Michael W. Deem and Ramdas Pophale) SiO2 
 PCOD8197270
Probable space group: P M M M
;
_chemical_formula_sum "Si O2"
_cell_formula_units_Z 64
_cell_length_a 9.513079
_cell_length_b 24.820138
_cell_length_c 14.827417
_cell_angle_alpha 90.000000
_cell_angle_beta 90.000000
_cell_angle_gamma 90.000000
_cell_volume 3500.989408
_symmetry_space_group_name_H-M "P M M M"
_symmetry_group_IT_number 47
_symmetry_cell_setting 'orthorhombic'
loop_
_space_group_symop_operation_xyz
x,y,z
-x,-y,z
x,-y,-z
-x,y,-z
-x,-y,-z
x,y,-z
-x,y,z
x,-y,z
loop_
_atom_site_type_symbol
_atom_site_label
_atom_site_fract_x
_atom_site_fract_y
_atom_site_fract_z
Si Si1 0.831132 0.646155 0.789218
Si Si2 0.663381 0.142992 0.894951
Si Si3 0.344118 0.249605 0.791114
Si Si4 0.835083 0.062637 0.220201
Si Si5 0.744804 0.229993 0.401008
Si Si6 0.843030 0.654640 0.405268
Si Si7 0.657677 0.561064 0.106319
Si Si8 0.839507 0.111912 0.597598
O O1 0.763694 0.703061 0.817558
O O2 0.776724 0.631674 0.687118
O O3 0.776084 0.598927 0.852025
O O4 0.000000 0.650525 0.795233
O O5 0.500000 0.130520 0.877012
O O6 0.710525 0.196994 0.843259
O O7 0.754299 0.093286 0.858920
O O8 0.695493 0.150756 0.000000
O O9 0.500000 0.265778 0.825124
O O10 0.358976 0.237413 0.683845
O O11 0.771064 0.080414 0.317951
O O12 0.000000 0.076908 0.214252
O O13 0.806759 0.000000 0.206100
O O14 0.667119 0.228308 0.500000
O O15 0.850404 0.280491 0.399012
O O16 0.832594 0.175786 0.386112
O O17 0.764663 0.637360 0.500000
O O18 0.000000 0.632499 0.411121
O O19 0.500000 0.578053 0.136881
O O20 0.688065 0.500000 0.137379
O O21 0.670527 0.565850 0.000000
O O22 0.768389 0.096914 0.500000
O O23 0.000000 0.093980 0.592541
#
# Coordination Sequence:
#
# PCOD8197270 Si02
#       8
#     8   8   8   8   8   8   8   8
#     4  10  20  32  52  83 113 142 178 219 261 306
#     4  10  22  40  58  74  95 130 175 217 261 316
#     4  10  20  34  51  75 107 140 173 210 259 316
#     4  10  21  36  55  79 104 129 163 212 264 313
#     4   9  15  25  45  72  99 132 171 210 251 300
#     4   8  14  25  42  68 104 141 174 208 248 297
#     4   9  19  37  59  80 105 142 184 222 265 317
#     4   9  16  27  47  75 105 136 166 199 248 311
#
# _framework density 18.280546000000001
#
# number of rings (size 3 to 8) (size 9 to 14) (size 15 to 20)
#    0.000    2.625    1.250    1.125    0.000    4.750 
#    0.000    4.375    0.000    1.875    0.000    3.500 
#    0.000    0.000    0.000    0.000    0.000    0.000 
#
# Total GULP energy -792847.282081 kJ/mol
# GULP energy per Si atom -12388.238783 kJ/mol
# Density = 1.823894 g / cm^3
# Si number density = 18.280546 Si / 1000 Ang^3
#
#
#
# Elastic Constant Matrix: (Units=GPa)
#
#
# Indices 1 2 3 4 5 6 
#
# 1 62.3319 41.0303 33.4564 0.0000 0.0000 0.0000
# 2 41.0303 89.8051 53.1214 0.0000 0.0000 0.0000
# 3 33.4564 53.1214 100.7513 0.0000 0.0000 0.0000
# 4 0.0000 0.0000 0.0000 28.4810 0.0000 0.0000
# 5 0.0000 0.0000 0.0000 0.0000 21.0013 0.0000
# 6 0.0000 0.0000 0.0000 0.0000 0.0000 26.6110
#
#
#
# Elastic Compliance Matrix: (Units=1/GPa)
#
#
# Indices 1 2 3 4 5 6 
#
# 1 0.023602 -0.008934 -0.003127 0.000000 0.000000 0.000000
# 2 -0.008934 0.019563 -0.007348 0.000000 0.000000 0.000000
# 3 -0.003127 -0.007348 0.014838 0.000000 0.000000 0.000000
# 4 0.000000 0.000000 0.000000 0.035111 0.000000 0.000000
# 5 0.000000 0.000000 0.000000 0.000000 0.047616 0.000000
# 6 0.000000 0.000000 0.000000 0.000000 0.000000 0.037578
#
#
# Mechanical properties :
#
#
# Convention : Reuss Voigt Hill
#
# Bulk Modulus (GPa) = 52.12230 56.45603 54.28917
# Shear Modulus (GPa) = 22.36902 23.57069 22.96985
#
# Velocity S-wave (km/s) = 3.50187 3.59470 3.54859
# Velocity P-wave (km/s) = 6.70262 6.94113 6.82292
#
# Compressibility (1/GPa) = 0.01918565
#
# Stress axis : x y z
#
# Youngs Moduli (GPa) = 42.36871 51.11565 67.39297
#
# Poissons Ratio (x) = 0.45665 0.21076
# Poissons Ratio (y) = 0.37850 0.49523
# Poissons Ratio (z) = 0.13250 0.37561
#
# Static dielectric constant tensor:
#      x y z
#    x 3.049280 0.000000 0.000000 
#    y 0.000000 3.157320 0.000000 
#    z 0.000000 0.000000 3.704650 
# 
# 
# High freq. dielectric constant tensor:
#      x y z
#    x 1.676980 0.000000 0.000000 
#    y 0.000000 1.688190 0.000000 
#    z 0.000000 0.000000 1.723390 
# 
# From -- ./inp_files/21903.got.cif
#   From: 2010.03.12/outbox.cif.g09.slc.cpg/sg47_11_cif.got.tgz:21903.got - 2010.04.14 03:12:58.
