data_PCOD8197033
_publ_section_title
;
Structure prediction by ZEFSAII (Michael W. Deem and Ramdas Pophale) SiO2 
 PCOD8197033
Probable space group: P M M M
;
_chemical_formula_sum "Si O2"
_cell_formula_units_Z 44
_cell_length_a 9.249196
_cell_length_b 28.352147
_cell_length_c 9.225769
_cell_angle_alpha 90.000000
_cell_angle_beta 90.000000
_cell_angle_gamma 90.000000
_cell_volume 2419.315517
_symmetry_space_group_name_H-M "P M M M"
_symmetry_group_IT_number 47
_symmetry_cell_setting 'orthorhombic'
loop_
_space_group_symop_operation_xyz
x,y,z
-x,-y,z
x,-y,-z
-x,y,-z
-x,-y,-z
x,y,-z
-x,y,z
x,-y,z
loop_
_atom_site_type_symbol
_atom_site_label
_atom_site_fract_x
_atom_site_fract_y
_atom_site_fract_z
Si Si1 0.662163 0.051977 0.172164
Si Si2 0.166126 0.141527 0.828405
Si Si3 0.333181 0.418791 0.169921
Si Si4 0.169193 0.500000 0.668801
Si Si5 0.329133 0.775981 0.333416
Si Si6 0.671434 0.313543 0.839944
O O1 0.500000 0.063081 0.228035
O O2 0.770712 0.091875 0.230688
O O3 0.711193 0.000000 0.228061
O O4 0.663337 0.051999 0.000000
O O5 0.252464 0.183351 0.755159
O O6 0.000000 0.144106 0.781828
O O7 0.186178 0.145972 0.000000
O O8 0.500000 0.426366 0.213731
O O9 0.235232 0.453443 0.261422
O O10 0.279877 0.365802 0.208919
O O11 0.312614 0.428809 0.000000
O O12 0.206002 0.500000 0.500000
O O13 0.000000 0.500000 0.699670
O O14 0.283353 0.779242 0.500000
O O15 0.500000 0.781494 0.312137
O O16 0.273502 0.725586 0.273204
O O17 0.500000 0.313428 0.848961
O O18 0.734183 0.301782 0.000000
#
# Coordination Sequence:
#
# PCOD8197033 Si02
#       6
#     8   8   8   4   8   8
#     4   8  14  26  46  72  99 126 159 202 251 298
#     4  10  20  32  48  72 101 134 170 205 244 293
#     4   9  18  34  57  82 103 126 163 209 254 301
#     4  11  24  37  48  70 106 143 176 207 242 290
#     4  10  20  33  51  75 101 131 167 205 247 296
#     4   8  15  30  53  79 103 126 158 205 255 299
#
# _framework density 18.186962999999999
#
# number of rings (size 3 to 8) (size 9 to 14) (size 15 to 20)
#    0.000    2.818    0.000    3.273    0.000    5.455 
#    0.000    4.545    0.000    1.636    0.000    3.818 
#    0.000    0.000    0.000    0.000    0.000    0.000 
#
# Total GULP energy -545453.993526 kJ/mol
# GULP energy per Si atom -12396.681671 kJ/mol
# Density = 1.814557 g / cm^3
# Si number density = 18.186963 Si / 1000 Ang^3
#
#
#
# Elastic Constant Matrix: (Units=GPa)
#
#
# Indices 1 2 3 4 5 6 
#
# 1 58.3399 53.7814 36.7588 0.0000 0.0000 0.0000
# 2 53.7814 156.8811 51.5994 0.0000 0.0000 0.0000
# 3 36.7588 51.5994 51.6363 0.0000 0.0000 0.0000
# 4 0.0000 0.0000 0.0000 -6.6021 0.0000 0.0000
# 5 0.0000 0.0000 0.0000 0.0000 21.0415 0.0000
# 6 0.0000 0.0000 0.0000 0.0000 0.0000 -4.0372
#
#
#
# Elastic Compliance Matrix: (Units=1/GPa)
#
#
# Indices 1 2 3 4 5 6 
#
# 1 0.033999 -0.005504 -0.018704 0.000000 0.000000 0.000000
# 2 -0.005504 0.010386 -0.006460 0.000000 0.000000 0.000000
# 3 -0.018704 -0.006460 0.039137 0.000000 0.000000 0.000000
# 4 0.000000 0.000000 0.000000 -0.151468 0.000000 0.000000
# 5 0.000000 0.000000 0.000000 0.000000 0.047525 0.000000
# 6 0.000000 0.000000 0.000000 0.000000 0.000000 -0.247699
#
#
# Mechanical properties :
#
#
# Convention : Reuss Voigt Hill
#
# Bulk Modulus (GPa) = 45.07269 61.23739 53.15504
# Shear Modulus (GPa) = -25.07667 10.39496 -7.34086
#
# Velocity S-wave (km/s) = -3.71728 2.39333 -2.01124
# Velocity P-wave (km/s) = 2.53229 6.43285 4.88846
#
# Compressibility (1/GPa) = 0.02218638
#
# Stress axis : x y z
#
# Youngs Moduli (GPa) = 29.41220 96.28383 25.55138
#
# Poissons Ratio (x) = 0.52993 0.47790
# Poissons Ratio (y) = 0.16188 0.16507
# Poissons Ratio (z) = 0.55012 0.62204
#
# Static dielectric constant tensor:
#      x y z
#    x 3.185010 0.000000 0.000000 
#    y 0.000000 3.761310 0.000000 
#    z 0.000000 0.000000 3.189900 
# 
# 
# High freq. dielectric constant tensor:
#      x y z
#    x 1.680340 0.000000 0.000000 
#    y 0.000000 1.724870 0.000000 
#    z 0.000000 0.000000 1.679480 
# 
# From -- ./inp_files/2019.got.cif
#   From: 2010.03.12/outbox.cif.g09.slc.cpg/sg47_2_cif.got.tgz:2019.got - 2010.04.14 03:12:58.
