data_PCOD8197087
_publ_section_title
;
Structure prediction by ZEFSAII (Michael W. Deem and Ramdas Pophale) SiO2 
 PCOD8197087
Probable space group: P M M M
;
_chemical_formula_sum "Si O2"
_cell_formula_units_Z 44
_cell_length_a 8.920218
_cell_length_b 9.236214
_cell_length_c 28.505969
_cell_angle_alpha 90.000000
_cell_angle_beta 90.000000
_cell_angle_gamma 90.000000
_cell_volume 2348.579488
_symmetry_space_group_name_H-M "P M M M"
_symmetry_group_IT_number 47
_symmetry_cell_setting 'orthorhombic'
loop_
_space_group_symop_operation_xyz
x,y,z
-x,-y,z
x,-y,-z
-x,y,-z
-x,-y,-z
x,y,-z
-x,y,z
x,-y,z
loop_
_atom_site_type_symbol
_atom_site_label
_atom_site_fract_x
_atom_site_fract_y
_atom_site_fract_z
Si Si1 0.175914 0.166926 0.274206
Si Si2 0.675652 0.330912 0.000000
Si Si3 0.325316 0.669273 0.641337
Si Si4 0.677958 0.837573 0.448454
Si Si5 0.175887 0.831259 0.914326
Si Si6 0.331322 0.828088 0.180194
O O1 0.230812 0.259433 0.317710
O O2 0.253900 0.229919 0.227465
O O3 0.000000 0.185298 0.267630
O O4 0.220431 0.000000 0.282738
O O5 0.746071 0.260306 0.954308
O O6 0.713093 0.500000 0.000000
O O7 0.500000 0.299985 0.000000
O O8 0.500000 0.707169 0.648443
O O9 0.295640 0.500000 0.641608
O O10 0.263159 0.730432 0.591854
O O11 0.737357 0.788064 0.500000
O O12 0.500000 0.835316 0.449177
O O13 0.735184 0.000000 0.437471
O O14 0.238659 0.773882 0.864749
O O15 0.000000 0.803009 0.915697
O O16 0.213669 0.000000 0.922077
O O17 0.500000 0.766597 0.177366
O O18 0.330719 0.000000 0.181110
#
# Coordination Sequence:
#
# PCOD8197087 Si02
#       6
#     8   4   8   8   8   8
#     4  10  20  34  53  76 102 134 172 213 257 305
#     4  11  24  39  54  76 108 145 184 223 262 306
#     4  10  20  32  48  73 104 137 172 210 254 305
#     4   8  14  26  46  72 100 130 166 209 256 305
#     4  10  20  35  57  84 111 139 174 216 262 313
#     4   9  17  31  54  82 108 134 167 211 261 309
#
# _framework density 18.734728
#
# number of rings (size 3 to 8) (size 9 to 14) (size 15 to 20)
#    0.000    2.455    0.000    3.273    0.000    7.636 
#    0.000    2.727    0.000    6.000    0.000    3.818 
#    0.000    0.000    0.000    0.000    0.000    0.000 
#
# Total GULP energy -545590.851959 kJ/mol
# GULP energy per Si atom -12399.792090 kJ/mol
# Density = 1.869209 g / cm^3
# Si number density = 18.734728 Si / 1000 Ang^3
#
#
#
# Elastic Constant Matrix: (Units=GPa)
#
#
# Indices 1 2 3 4 5 6 
#
# 1 85.4765 46.0524 62.4634 0.0000 0.0000 0.0000
# 2 46.0524 70.5040 65.8441 0.0000 0.0000 0.0000
# 3 62.4634 65.8441 181.3865 0.0000 0.0000 0.0000
# 4 0.0000 0.0000 0.0000 1.3299 0.0000 0.0000
# 5 0.0000 0.0000 0.0000 0.0000 -27.7088 0.0000
# 6 0.0000 0.0000 0.0000 0.0000 0.0000 21.1819
#
#
#
# Elastic Compliance Matrix: (Units=1/GPa)
#
#
# Indices 1 2 3 4 5 6 
#
# 1 0.019143 -0.009603 -0.003106 0.000000 0.000000 0.000000
# 2 -0.009603 0.026275 -0.006231 0.000000 0.000000 0.000000
# 3 -0.003106 -0.006231 0.008845 0.000000 0.000000 0.000000
# 4 0.000000 0.000000 0.000000 0.751961 0.000000 0.000000
# 5 0.000000 0.000000 0.000000 0.000000 -0.036090 0.000000
# 6 0.000000 0.000000 0.000000 0.000000 0.000000 0.047210
#
#
# Mechanical properties :
#
#
# Convention : Reuss Voigt Hill
#
# Bulk Modulus (GPa) = 61.04149 76.23187 68.63668
# Shear Modulus (GPa) = 5.80932 9.82772 7.81852
#
# Velocity S-wave (km/s) = 1.76283 2.29284 2.04508
# Velocity P-wave (km/s) = 6.06598 6.91288 6.50323
#
# Compressibility (1/GPa) = 0.01638230
#
# Stress axis : x y z
#
# Youngs Moduli (GPa) = 52.23881 38.05829 113.06184
#
# Poissons Ratio (x) = 0.36547 0.35120
# Poissons Ratio (y) = 0.50165 0.70451
# Poissons Ratio (z) = 0.16227 0.23715
#
# Static dielectric constant tensor:
#      x y z
#    x 3.344950 0.000000 0.000000 
#    y 0.000000 3.246780 0.000000 
#    z 0.000000 0.000000 3.838710 
# 
# 
# High freq. dielectric constant tensor:
#      x y z
#    x 1.715450 0.000000 0.000000 
#    y 0.000000 1.700220 0.000000 
#    z 0.000000 0.000000 1.748780 
# 
# From -- ./inp_files/1993.got.cif
#   From: 2010.03.12/outbox.cif.g09.slc.cpg/sg47_1_cif.got.tgz:1993.got - 2010.04.14 03:12:58.
