data_PCOD8197402
_publ_section_title
;
Structure prediction by ZEFSAII (Michael W. Deem and Ramdas Pophale) SiO2 
 PCOD8197402
Probable space group: P M M M
;
_chemical_formula_sum "Si O2"
_cell_formula_units_Z 52
_cell_length_a 15.185602
_cell_length_b 23.762620
_cell_length_c 7.945440
_cell_angle_alpha 90.000000
_cell_angle_beta 90.000000
_cell_angle_gamma 90.000000
_cell_volume 2867.109559
_symmetry_space_group_name_H-M "P M M M"
_symmetry_group_IT_number 47
_symmetry_cell_setting 'orthorhombic'
loop_
_space_group_symop_operation_xyz
x,y,z
-x,-y,z
x,-y,-z
-x,y,-z
-x,-y,-z
x,y,-z
-x,y,z
x,-y,z
loop_
_atom_site_type_symbol
_atom_site_label
_atom_site_fract_x
_atom_site_fract_y
_atom_site_fract_z
Si Si1 0.000000 0.066794 0.188184
Si Si2 0.101303 0.566661 0.000000
Si Si3 0.500000 0.065812 0.198005
Si Si4 0.664136 0.136675 0.305209
Si Si5 0.401888 0.629231 0.308759
Si Si6 0.401595 0.748976 0.190802
Si Si7 0.771201 0.566454 0.303542
Si Si8 0.816849 0.062231 0.694449
O O1 0.913331 0.089091 0.281799
O O2 0.000000 0.000000 0.196037
O O3 0.000000 0.090155 0.000000
O O4 0.152161 0.586476 0.827836
O O5 0.097489 0.500000 0.000000
O O6 0.000000 0.590311 0.000000
O O7 0.583232 0.095328 0.279125
O O8 0.500000 0.000000 0.244722
O O9 0.500000 0.076153 0.000000
O O10 0.677308 0.149452 0.500000
O O11 0.659502 0.197072 0.216676
O O12 0.747402 0.104733 0.222522
O O13 0.411696 0.610998 0.500000
O O14 0.500000 0.619984 0.222830
O O15 0.373948 0.694913 0.299515
O O16 0.321535 0.592321 0.234733
O O17 0.500000 0.768561 0.240452
O O18 0.395863 0.728562 0.000000
O O19 0.792082 0.584608 0.500000
O O20 0.760673 0.500000 0.294460
O O21 0.794275 0.056030 0.500000
O O22 0.810102 0.000000 0.779587
#
# Coordination Sequence:
#
# PCOD8197402 Si02
#       8
#     4   4   4   8   8   8   8   8
#     4   9  17  29  47  71  95 119 147 185 234 287
#     4   9  18  32  51  77 109 145 184 224 265 316
#     4  11  23  35  47  67  99 133 160 197 250 299
#     4  11  21  33  51  71  94 126 165 204 242 293
#     4   9  18  32  51  75 104 139 178 215 255 307
#     4  10  20  33  49  70  98 131 170 211 250 292
#     4   9  18  32  51  79 113 145 179 221 267 317
#     4   9  18  32  49  70  94 120 152 190 236 291
#
# _framework density 18.136731999999999
#
# number of rings (size 3 to 8) (size 9 to 14) (size 15 to 20)
#    0.000    2.385    0.769    1.846    1.077    4.615 
#    0.000    4.615    0.000    1.385    2.000    0.000 
#    0.000    0.000    0.000    0.000    0.000    0.000 
#
# Total GULP energy -644345.651590 kJ/mol
# GULP energy per Si atom -12391.262531 kJ/mol
# Density = 1.809545 g / cm^3
# Si number density = 18.136732 Si / 1000 Ang^3
#
#
#
# Elastic Constant Matrix: (Units=GPa)
#
#
# Indices 1 2 3 4 5 6 
#
# 1 149.1922 47.8131 31.6063 0.0000 0.0000 0.0000
# 2 47.8131 54.6213 15.6069 0.0000 0.0000 0.0000
# 3 31.6063 15.6069 56.0093 0.0000 0.0000 0.0000
# 4 0.0000 0.0000 0.0000 18.7763 0.0000 0.0000
# 5 0.0000 0.0000 0.0000 0.0000 40.0088 0.0000
# 6 0.0000 0.0000 0.0000 0.0000 0.0000 -36.6582
#
#
#
# Elastic Compliance Matrix: (Units=1/GPa)
#
#
# Indices 1 2 3 4 5 6 
#
# 1 0.009892 -0.007675 -0.003443 0.000000 0.000000 0.000000
# 2 -0.007675 0.025847 -0.002871 0.000000 0.000000 0.000000
# 3 -0.003443 -0.002871 0.020597 0.000000 0.000000 0.000000
# 4 0.000000 0.000000 0.000000 0.053259 0.000000 0.000000
# 5 0.000000 0.000000 0.000000 0.000000 0.024994 0.000000
# 6 0.000000 0.000000 0.000000 0.000000 0.000000 -0.027279
#
#
# Mechanical properties :
#
#
# Convention : Reuss Voigt Hill
#
# Bulk Modulus (GPa) = 35.26486 49.98615 42.62551
# Shear Modulus (GPa) = 34.54438 15.41183 24.97811
#
# Velocity S-wave (km/s) = 4.36898 2.91822 3.71511
# Velocity P-wave (km/s) = 6.70349 6.24302 6.47735
#
# Compressibility (1/GPa) = 0.02835684
#
# Stress axis : x y z
#
# Youngs Moduli (GPa) = 101.09201 38.68969 48.55001
#
# Poissons Ratio (x) = 0.29695 0.16718
# Poissons Ratio (y) = 0.77589 0.13939
# Poissons Ratio (z) = 0.34810 0.11108
#
# Static dielectric constant tensor:
#      x y z
#    x 3.624650 0.000000 0.000000 
#    y 0.000000 3.158730 0.000000 
#    z 0.000000 0.000000 3.382880 
# 
# 
# High freq. dielectric constant tensor:
#      x y z
#    x 1.696280 0.000000 0.000000 
#    y 0.000000 1.673160 0.000000 
#    z 0.000000 0.000000 1.702130 
# 
# From -- ./inp_files/7153.got.cif
#   From: 2010.03.12/outbox.cif.g09.slc.cpg/sg47_4_cif.got.tgz:7153.got - 2010.04.14 03:12:58.
