data_PCOD8197144
_publ_section_title
;
Structure prediction by ZEFSAII (Michael W. Deem and Ramdas Pophale) SiO2 
 PCOD8197144
Probable space group: P M M M
;
_chemical_formula_sum "Si O2"
_cell_formula_units_Z 56
_cell_length_a 8.911239
_cell_length_b 23.477328
_cell_length_c 14.628117
_cell_angle_alpha 90.000000
_cell_angle_beta 90.000000
_cell_angle_gamma 90.000000
_cell_volume 3060.378797
_symmetry_space_group_name_H-M "P M M M"
_symmetry_group_IT_number 47
_symmetry_cell_setting 'orthorhombic'
loop_
_space_group_symop_operation_xyz
x,y,z
-x,-y,z
x,-y,-z
-x,y,-z
-x,-y,-z
x,y,-z
-x,y,z
x,-y,z
loop_
_atom_site_type_symbol
_atom_site_label
_atom_site_fract_x
_atom_site_fract_y
_atom_site_fract_z
Si Si1 0.822469 0.334589 0.725395
Si Si2 0.322173 0.157748 0.899083
Si Si3 0.323499 0.286014 0.104462
Si Si4 0.326894 0.760330 0.393959
Si Si5 0.674583 0.936120 0.240456
Si Si6 0.827364 0.878292 0.395794
Si Si7 0.178373 0.436533 0.397698
O O1 0.757859 0.330160 0.827955
O O2 0.772769 0.281584 0.665036
O O3 0.758897 0.391797 0.676700
O O4 0.000000 0.335860 0.731584
O O5 0.500000 0.153381 0.903696
O O6 0.276462 0.221467 0.867406
O O7 0.258394 0.109583 0.831461
O O8 0.255550 0.146053 0.000000
O O9 0.500000 0.294161 0.115055
O O10 0.274201 0.298646 0.000000
O O11 0.302832 0.745449 0.500000
O O12 0.500000 0.754932 0.364532
O O13 0.273083 0.823712 0.372189
O O14 0.500000 0.924575 0.260102
O O15 0.767477 0.929842 0.333971
O O16 0.699166 0.000000 0.202410
O O17 0.805730 0.897553 0.500000
O O18 0.000000 0.864059 0.374693
O O19 0.236669 0.420900 0.500000
O O20 0.234120 0.500000 0.370883
O O21 0.000000 0.434584 0.398311
#
# Coordination Sequence:
#
# PCOD8197144 Si02
#       7
#     8   8   8   8   8   8   8
#     4  11  20  29  49  79 106 132 166 210 255 298
#     4   8  15  30  51  72  94 122 157 196 238 287
#     4   9  18  33  52  72  97 133 173 210 252 304
#     4  10  20  33  50  73 102 133 162 197 247 306
#     4  10  20  32  49  74  99 124 157 197 243 299
#     4  10  21  36  52  69  92 125 165 208 251 292
#     4   8  15  29  48  71 102 139 175 209 246 290
#
# _framework density 18.298389
#
# number of rings (size 3 to 8) (size 9 to 14) (size 15 to 20)
#    0.000    2.571    0.000    3.857    0.000    4.571 
#    0.000    2.857    0.000    3.429    0.000    9.000 
#    0.000    0.000    0.000    0.000    0.000    0.000 
#
# Total GULP energy -694295.999553 kJ/mol
# GULP energy per Si atom -12398.142849 kJ/mol
# Density = 1.825674 g / cm^3
# Si number density = 18.298389 Si / 1000 Ang^3
#
#
#
# Elastic Constant Matrix: (Units=GPa)
#
#
# Indices 1 2 3 4 5 6 
#
# 1 40.2348 24.8492 36.9141 0.0000 0.0000 0.0000
# 2 24.8492 98.7586 77.6586 0.0000 0.0000 0.0000
# 3 36.9141 77.6586 118.3764 0.0000 0.0000 0.0000
# 4 0.0000 0.0000 0.0000 30.9775 0.0000 0.0000
# 5 0.0000 0.0000 0.0000 0.0000 26.7138 0.0000
# 6 0.0000 0.0000 0.0000 0.0000 0.0000 15.9725
#
#
#
# Elastic Compliance Matrix: (Units=1/GPa)
#
#
# Indices 1 2 3 4 5 6 
#
# 1 0.034825 -0.000461 -0.010557 0.000000 0.000000 0.000000
# 2 -0.000461 0.020921 -0.013581 0.000000 0.000000 0.000000
# 3 -0.010557 -0.013581 0.020650 0.000000 0.000000 0.000000
# 4 0.000000 0.000000 0.000000 0.032282 0.000000 0.000000
# 5 0.000000 0.000000 0.000000 0.000000 0.037434 0.000000
# 6 0.000000 0.000000 0.000000 0.000000 0.000000 0.062607
#
#
# Mechanical properties :
#
#
# Convention : Reuss Voigt Hill
#
# Bulk Modulus (GPa) = 36.76911 59.57930 48.17420
# Shear Modulus (GPa) = 18.72778 22.59594 20.66186
#
# Velocity S-wave (km/s) = 3.20264 3.51787 3.36395
# Velocity P-wave (km/s) = 5.81495 7.00936 6.43990
#
# Compressibility (1/GPa) = 0.02719674
#
# Stress axis : x y z
#
# Youngs Moduli (GPa) = 28.71526 47.79814 48.42698
#
# Poissons Ratio (x) = 0.02202 0.51126
# Poissons Ratio (y) = 0.01323 0.65771
# Poissons Ratio (z) = 0.30316 0.64917
#
# Static dielectric constant tensor:
#      x y z
#    x 3.075060 0.000000 0.000000 
#    y 0.000000 3.426290 0.000000 
#    z 0.000000 0.000000 3.612990 
# 
# 
# High freq. dielectric constant tensor:
#      x y z
#    x 1.682510 0.000000 0.000000 
#    y 0.000000 1.696190 0.000000 
#    z 0.000000 0.000000 1.713970 
# 
# From -- ./inp_files/7230.got.cif
#   From: 2010.03.12/outbox.cif.g09.slc.cpg/sg47_4_cif.got.tgz:7230.got - 2010.04.14 03:12:58.
