data_PCOD8197069
_publ_section_title
;
Structure prediction by ZEFSAII (Michael W. Deem and Ramdas Pophale) SiO2 
 PCOD8197069
Probable space group: P M M M
;
_chemical_formula_sum "Si O2"
_cell_formula_units_Z 44
_cell_length_a 28.247155
_cell_length_b 9.509609
_cell_length_c 9.286019
_cell_angle_alpha 90.000000
_cell_angle_beta 90.000000
_cell_angle_gamma 90.000000
_cell_volume 2494.404847
_symmetry_space_group_name_H-M "P M M M"
_symmetry_group_IT_number 47
_symmetry_cell_setting 'orthorhombic'
loop_
_space_group_symop_operation_xyz
x,y,z
-x,-y,z
x,-y,-z
-x,y,-z
-x,-y,-z
x,y,-z
-x,y,z
x,-y,z
loop_
_atom_site_type_symbol
_atom_site_label
_atom_site_fract_x
_atom_site_fract_y
_atom_site_fract_z
Si Si1 0.190401 0.832599 0.839468
Si Si2 0.554934 0.662171 0.335912
Si Si3 0.000000 0.341543 0.828029
Si Si4 0.721383 0.167494 0.661909
Si Si5 0.086266 0.157024 0.828418
Si Si6 0.629702 0.164564 0.832862
O O1 0.230931 0.771636 0.735000
O O2 0.138399 0.788899 0.780013
O O3 0.192938 0.000000 0.846360
O O4 0.198813 0.771586 0.000000
O O5 0.567386 0.703987 0.500000
O O6 0.500000 0.689884 0.305039
O O7 0.567597 0.500000 0.308648
O O8 0.583822 0.757249 0.226098
O O9 0.046550 0.262587 0.767867
O O10 0.000000 0.500000 0.768097
O O11 0.000000 0.340402 0.000000
O O12 0.718183 0.226643 0.500000
O O13 0.676048 0.221123 0.750379
O O14 0.722946 0.000000 0.662509
O O15 0.076179 0.000000 0.768204
O O16 0.084967 0.151814 0.000000
O O17 0.622255 0.000000 0.805834
O O18 0.636398 0.199227 0.000000
#
# Coordination Sequence:
#
# PCOD8197069 Si02
#       6
#     8   8   4   8   8   8
#     4   8  13  22  37  57  81 110 144 180 218 262
#     4   9  19  36  55  73  95 126 163 200 238 281
#     4   9  15  21  31  51  80 109 134 166 212 259
#     4   9  16  26  42  65  92 120 150 186 229 274
#     4   8  13  21  34  52  75 105 139 172 207 252
#     4  10  20  32  48  73 103 131 159 194 235 279
#
# _framework density 17.639478
#
# number of rings (size 3 to 8) (size 9 to 14) (size 15 to 20)
#    0.000    3.182    0.000    3.000    0.000    5.455 
#    0.000    2.727    0.000    1.091    0.000    3.182 
#    0.000    5.091    0.000    0.000    0.000    0.000 
#
# Total GULP energy -545428.065909 kJ/mol
# GULP energy per Si atom -12396.092407 kJ/mol
# Density = 1.759933 g / cm^3
# Si number density = 17.639478 Si / 1000 Ang^3
#
#
#
# Elastic Constant Matrix: (Units=GPa)
#
#
# Indices 1 2 3 4 5 6 
#
# 1 148.4102 52.9011 70.5481 0.0000 0.0000 0.0000
# 2 52.9011 52.6979 34.1249 0.0000 0.0000 0.0000
# 3 70.5481 34.1249 95.4025 0.0000 0.0000 0.0000
# 4 0.0000 0.0000 0.0000 15.0104 0.0000 0.0000
# 5 0.0000 0.0000 0.0000 0.0000 12.8259 0.0000
# 6 0.0000 0.0000 0.0000 0.0000 0.0000 3.2208
#
#
#
# Elastic Compliance Matrix: (Units=1/GPa)
#
#
# Indices 1 2 3 4 5 6 
#
# 1 0.012930 -0.008835 -0.006402 0.000000 0.000000 0.000000
# 2 -0.008835 0.030733 -0.004460 0.000000 0.000000 0.000000
# 3 -0.006402 -0.004460 0.016811 0.000000 0.000000 0.000000
# 4 0.000000 0.000000 0.000000 0.066620 0.000000 0.000000
# 5 0.000000 0.000000 0.000000 0.000000 0.077967 0.000000
# 6 0.000000 0.000000 0.000000 0.000000 0.000000 0.310479
#
#
# Mechanical properties :
#
#
# Convention : Reuss Voigt Hill
#
# Bulk Modulus (GPa) = 47.43409 67.96209 57.69809
# Shear Modulus (GPa) = 8.89742 15.47387 12.18564
#
# Velocity S-wave (km/s) = 2.24833 2.96502 2.63119
# Velocity P-wave (km/s) = 5.80424 7.09463 6.48163
#
# Compressibility (1/GPa) = 0.02108188
#
# Stress axis : x y z
#
# Youngs Moduli (GPa) = 77.33788 32.53830 59.48505
#
# Poissons Ratio (x) = 0.28747 0.38079
# Poissons Ratio (y) = 0.68327 0.26530
# Poissons Ratio (z) = 0.49508 0.14512
#
# Static dielectric constant tensor:
#      x y z
#    x 3.562270 0.000000 0.000000 
#    y 0.000000 2.914600 0.000000 
#    z 0.000000 0.000000 3.101500 
# 
# 
# High freq. dielectric constant tensor:
#      x y z
#    x 1.699720 0.000000 0.000000 
#    y 0.000000 1.634820 0.000000 
#    z 0.000000 0.000000 1.653360 
# 
# From -- ./inp_files/2015.got.cif
#   From: 2010.03.12/outbox.cif.g09.slc.cpg/sg47_2_cif.got.tgz:2015.got - 2010.04.14 03:12:58.
