data_PCOD8197991
_publ_section_title
;
Structure prediction by ZEFSAII (Michael W. Deem and Ramdas Pophale) SiO2 
 PCOD8197991
Probable space group: P M M M
;
_chemical_formula_sum "Si O2"
_cell_formula_units_Z 44
_cell_length_a 14.296960
_cell_length_b 9.580032
_cell_length_c 18.185646
_cell_angle_alpha 90.000000
_cell_angle_beta 90.000000
_cell_angle_gamma 90.000000
_cell_volume 2490.803084
_symmetry_space_group_name_H-M "P M M M"
_symmetry_group_IT_number 47
_symmetry_cell_setting 'orthorhombic'
loop_
_space_group_symop_operation_xyz
x,y,z
-x,-y,z
x,-y,-z
-x,y,-z
-x,-y,-z
x,y,-z
-x,y,z
x,-y,z
loop_
_atom_site_type_symbol
_atom_site_label
_atom_site_fract_x
_atom_site_fract_y
_atom_site_fract_z
Si Si1 0.603588 0.659431 0.655188
Si Si2 0.206862 0.661670 0.583315
Si Si3 0.204273 0.836563 0.855331
Si Si4 0.106564 0.166689 0.000000
Si Si5 0.396857 0.161365 0.798034
Si Si6 0.890311 0.838407 0.293010
O O1 0.500000 0.691857 0.622399
O O2 0.609166 0.500000 0.682065
O O3 0.682407 0.690913 0.594611
O O4 0.624657 0.753831 0.725071
O O5 0.182037 0.703202 0.500000
O O6 0.183778 0.500000 0.598396
O O7 0.143651 0.753631 0.636473
O O8 0.157439 0.769780 0.927820
O O9 0.315838 0.803881 0.857209
O O10 0.158789 0.776856 0.780412
O O11 0.183316 0.000000 0.856789
O O12 0.000000 0.218020 0.000000
O O13 0.112968 0.000000 0.000000
O O14 0.500000 0.197903 0.830627
O O15 0.391229 0.000000 0.775391
O O16 0.000000 0.817785 0.283109
O O17 0.863711 0.000000 0.305176
#
# Coordination Sequence:
#
# PCOD8197991 Si02
#       6
#     8   8   8   4   8   8
#     4   9  17  30  49  72  96 124 160 199 238 285
#     4  10  21  35  50  71  99 128 160 201 248 294
#     4   9  16  28  46  70  99 128 159 197 239 286
#     4   9  16  26  43  69 100 131 161 197 242 286
#     4   9  16  27  46  71  98 127 157 193 240 289
#     4  10  20  34  52  72  94 125 166 207 245 288
#
# _framework density 17.664985999999999
#
# number of rings (size 3 to 8) (size 9 to 14) (size 15 to 20)
#    0.000    2.636    1.818    0.545    0.000    3.636 
#    0.000    4.091    0.000    2.727    0.000    6.364 
#    0.000    7.273    0.000    0.000    0.000    0.000 
#
# Total GULP energy -545393.823711 kJ/mol
# GULP energy per Si atom -12395.314175 kJ/mol
# Density = 1.762478 g / cm^3
# Si number density = 17.664986 Si / 1000 Ang^3
#
#
#
# Elastic Constant Matrix: (Units=GPa)
#
#
# Indices 1 2 3 4 5 6 
#
# 1 120.5115 31.4564 72.1722 0.0000 0.0000 0.0000
# 2 31.4564 34.2340 34.4680 0.0000 0.0000 0.0000
# 3 72.1722 34.4680 131.3868 0.0000 0.0000 0.0000
# 4 0.0000 0.0000 0.0000 -10.6611 0.0000 0.0000
# 5 0.0000 0.0000 0.0000 0.0000 28.0253 0.0000
# 6 0.0000 0.0000 0.0000 0.0000 0.0000 21.3434
#
#
#
# Elastic Compliance Matrix: (Units=1/GPa)
#
#
# Indices 1 2 3 4 5 6 
#
# 1 0.013397 -0.006660 -0.005612 0.000000 0.000000 0.000000
# 2 -0.006660 0.043006 -0.007624 0.000000 0.000000 0.000000
# 3 -0.005612 -0.007624 0.012694 0.000000 0.000000 0.000000
# 4 0.000000 0.000000 0.000000 -0.093799 0.000000 0.000000
# 5 0.000000 0.000000 0.000000 0.000000 0.035682 0.000000
# 6 0.000000 0.000000 0.000000 0.000000 0.000000 0.046853
#
#
# Mechanical properties :
#
#
# Convention : Reuss Voigt Hill
#
# Bulk Modulus (GPa) = 34.12299 62.48060 48.30179
# Shear Modulus (GPa) = 46.55743 17.61055 32.08399
#
# Velocity S-wave (km/s) = 5.13936 3.16083 4.26637
# Velocity P-wave (km/s) = 7.38756 6.98338 7.18831
#
# Compressibility (1/GPa) = 0.02930576
#
# Stress axis : x y z
#
# Youngs Moduli (GPa) = 74.64151 23.25241 78.77720
#
# Poissons Ratio (x) = 0.15486 0.44211
# Poissons Ratio (y) = 0.49710 0.60060
# Poissons Ratio (z) = 0.41890 0.17728
#
# Static dielectric constant tensor:
#      x y z
#    x 3.569960 0.000000 0.000000 
#    y 0.000000 3.013750 0.000000 
#    z 0.000000 0.000000 3.256370 
# 
# 
# High freq. dielectric constant tensor:
#      x y z
#    x 1.704070 0.000000 0.000000 
#    y 0.000000 1.646760 0.000000 
#    z 0.000000 0.000000 1.664740 
# 
# From -- ./inp_files/6050.got.cif
#   From: 2010.03.12/outbox.cif.g09.slc.cpg/sg47_4_cif.got.tgz:6050.got - 2010.04.14 03:12:58.
