data_PCOD8197504
_publ_section_title
;
Structure prediction by ZEFSAII (Michael W. Deem and Ramdas Pophale) SiO2 
 PCOD8197504
Probable space group: P M M M
;
_chemical_formula_sum "Si O2"
_cell_formula_units_Z 52
_cell_length_a 9.194733
_cell_length_b 33.649758
_cell_length_c 9.031494
_cell_angle_alpha 90.000000
_cell_angle_beta 90.000000
_cell_angle_gamma 90.000000
_cell_volume 2794.349124
_symmetry_space_group_name_H-M "P M M M"
_symmetry_group_IT_number 47
_symmetry_cell_setting 'orthorhombic'
loop_
_space_group_symop_operation_xyz
x,y,z
-x,-y,z
x,-y,-z
-x,y,-z
-x,-y,-z
x,y,-z
-x,y,z
x,-y,z
loop_
_atom_site_type_symbol
_atom_site_label
_atom_site_fract_x
_atom_site_fract_y
_atom_site_fract_z
Si Si1 0.168996 0.849863 0.172691
Si Si2 0.672966 0.543697 0.833542
Si Si3 0.326764 0.380244 0.334306
Si Si4 0.326991 0.000000 0.832721
Si Si5 0.168398 0.768668 0.672363
Si Si6 0.327523 0.301995 0.168674
Si Si7 0.327512 0.078691 0.330421
O O1 0.217644 0.808271 0.243098
O O2 0.261508 0.883956 0.247949
O O3 0.000000 0.858188 0.203137
O O4 0.205555 0.848567 0.000000
O O5 0.500000 0.545939 0.833781
O O6 0.722762 0.500000 0.775700
O O7 0.737202 0.578398 0.729816
O O8 0.730804 0.550416 0.000000
O O9 0.266078 0.374517 0.500000
O O10 0.500000 0.381626 0.334930
O O11 0.271952 0.343940 0.233290
O O12 0.268629 0.961177 0.747951
O O13 0.500000 0.000000 0.833378
O O14 0.265671 0.000000 0.000000
O O15 0.201414 0.774672 0.500000
O O16 0.261951 0.732618 0.732795
O O17 0.000000 0.759365 0.702367
O O18 0.500000 0.298942 0.178389
O O19 0.272938 0.298351 0.000000
O O20 0.275437 0.078127 0.500000
O O21 0.500000 0.081452 0.318806
#
# Coordination Sequence:
#
# PCOD8197504 Si02
#       7
#     8   8   8   4   8   8   8
#     4  10  21  37  56  77 102 133 168 206 249 296
#     4   8  13  21  33  50  76 113 154 192 232 283
#     4   9  16  25  38  58  86 119 154 195 242 288
#     4   9  17  31  52  77 106 139 172 208 250 293
#     4  10  21  37  56  76  99 129 164 203 249 299
#     4  10  20  33  50  72  98 129 164 202 245 293
#     4  10  20  34  54  80 108 138 172 209 249 294
#
# _framework density 18.608986000000002
#
# number of rings (size 3 to 8) (size 9 to 14) (size 15 to 20)
#    0.000    2.538    0.000    3.000    0.000    7.385 
#    0.000    1.923    0.000    2.308    0.000    0.000 
#    0.000    0.615    0.000    6.462    0.000    8.923 
#
# Total GULP energy -644795.573582 kJ/mol
# GULP energy per Si atom -12399.914877 kJ/mol
# Density = 1.856663 g / cm^3
# Si number density = 18.608986 Si / 1000 Ang^3
#
#
#
# Elastic Constant Matrix: (Units=GPa)
#
#
# Indices 1 2 3 4 5 6 
#
# 1 13.9047 25.6511 22.7316 0.0000 0.0000 0.0000
# 2 25.6511 158.2629 74.4297 0.0000 0.0000 0.0000
# 3 22.7316 74.4297 135.7907 0.0000 0.0000 0.0000
# 4 0.0000 0.0000 0.0000 37.5043 0.0000 0.0000
# 5 0.0000 0.0000 0.0000 0.0000 20.1642 0.0000
# 6 0.0000 0.0000 0.0000 0.0000 0.0000 -24.4987
#
#
#
# Elastic Compliance Matrix: (Units=1/GPa)
#
#
# Indices 1 2 3 4 5 6 
#
# 1 0.116036 -0.013031 -0.012282 0.000000 0.000000 0.000000
# 2 -0.013031 0.009976 -0.003287 0.000000 0.000000 0.000000
# 3 -0.012282 -0.003287 0.011222 0.000000 0.000000 0.000000
# 4 0.000000 0.000000 0.000000 0.026664 0.000000 0.000000
# 5 0.000000 0.000000 0.000000 0.000000 0.049593 0.000000
# 6 0.000000 0.000000 0.000000 0.000000 0.000000 -0.040818
#
#
# Mechanical properties :
#
#
# Convention : Reuss Voigt Hill
#
# Bulk Modulus (GPa) = 12.49459 61.50924 37.00192
# Shear Modulus (GPa) = 19.48935 18.97702 19.23318
#
# Velocity S-wave (km/s) = 3.23973 3.19686 3.21836
# Velocity P-wave (km/s) = 4.55228 6.83753 5.80840
#
# Compressibility (1/GPa) = 0.08003462
#
# Stress axis : x y z
#
# Youngs Moduli (GPa) = 8.61801 100.23625 89.11104
#
# Poissons Ratio (x) = 1.30616 1.09448
# Poissons Ratio (y) = 0.11230 0.29290
# Poissons Ratio (z) = 0.10585 0.32947
#
# Static dielectric constant tensor:
#      x y z
#    x 2.913650 0.000000 0.000000 
#    y 0.000000 3.693920 0.000000 
#    z 0.000000 0.000000 3.687590 
# 
# 
# High freq. dielectric constant tensor:
#      x y z
#    x 1.665440 0.000000 0.000000 
#    y 0.000000 1.741420 0.000000 
#    z 0.000000 0.000000 1.739010 
# 
# From -- ./inp_files/4767.got.cif
#   From: 2010.03.12/outbox.cif.g09.slc.cpg/sg47_3_cif.got.tgz:4767.got - 2010.04.14 03:12:58.
