data_PCOD8197128
_publ_section_title
;
Structure prediction by ZEFSAII (Michael W. Deem and Ramdas Pophale) SiO2 
 PCOD8197128
Probable space group: P M M M
;
_chemical_formula_sum "Si O2"
_cell_formula_units_Z 56
_cell_length_a 23.530204
_cell_length_b 14.507771
_cell_length_c 8.888817
_cell_angle_alpha 90.000000
_cell_angle_beta 90.000000
_cell_angle_gamma 90.000000
_cell_volume 3034.382670
_symmetry_space_group_name_H-M "P M M M"
_symmetry_group_IT_number 47
_symmetry_cell_setting 'orthorhombic'
loop_
_space_group_symop_operation_xyz
x,y,z
-x,-y,z
x,-y,-z
-x,y,-z
-x,-y,-z
x,y,-z
-x,y,z
x,-y,z
loop_
_atom_site_type_symbol
_atom_site_label
_atom_site_fract_x
_atom_site_fract_y
_atom_site_fract_z
Si Si1 0.244450 0.893225 0.672184
Si Si2 0.664235 0.770486 0.822747
Si Si3 0.835605 0.608575 0.170357
Si Si4 0.719392 0.605340 0.322392
Si Si5 0.116041 0.099723 0.321987
Si Si6 0.064119 0.714399 0.677346
Si Si7 0.563449 0.103058 0.178773
O O1 0.252863 0.859613 0.500000
O O2 0.282573 0.834217 0.783557
O O3 0.180145 0.876708 0.727552
O O4 0.261111 0.000000 0.686730
O O5 0.670142 0.670249 0.745451
O O6 0.607676 0.821143 0.758926
O O7 0.660913 0.755472 0.000000
O O8 0.841258 0.500000 0.178458
O O9 0.780387 0.641164 0.262876
O O10 0.893214 0.646960 0.239987
O O11 0.828649 0.643667 0.000000
O O12 0.719576 0.614022 0.500000
O O13 0.707785 0.500000 0.270846
O O14 0.114904 0.091522 0.500000
O O15 0.074441 0.180547 0.266645
O O16 0.097084 0.000000 0.254282
O O17 0.074753 0.706369 0.500000
O O18 0.000000 0.686282 0.720136
O O19 0.500000 0.130259 0.233015
O O20 0.578803 0.000000 0.238384
O O21 0.566284 0.101690 0.000000
#
# Coordination Sequence:
#
# PCOD8197128 Si02
#       7
#     8   8   8   8   8   8   8
#     4   9  17  29  46  69  99 135 171 207 251 304
#     4  11  20  29  49  79 106 133 169 214 258 298
#     4  10  21  37  56  76  98 125 159 203 256 307
#     4  10  21  37  56  76 100 131 164 201 252 314
#     4   8  15  29  47  66  91 125 163 200 238 283
#     4  10  20  32  49  74 100 129 167 206 244 294
#     4   8  15  29  48  72 106 146 182 212 244 286
#
# _framework density 18.455154
#
# number of rings (size 3 to 8) (size 9 to 14) (size 15 to 20)
#    0.000    2.571    0.000    3.857    0.000    4.571 
#    0.000    2.857    0.000    3.429    0.000    9.000 
#    0.000    0.000    0.000    0.000    0.000    0.000 
#
# Total GULP energy -694245.984315 kJ/mol
# GULP energy per Si atom -12397.249720 kJ/mol
# Density = 1.841315 g / cm^3
# Si number density = 18.455154 Si / 1000 Ang^3
#
#
#
# Elastic Constant Matrix: (Units=GPa)
#
#
# Indices 1 2 3 4 5 6 
#
# 1 103.4289 65.8763 35.6567 0.0000 0.0000 0.0000
# 2 65.8763 84.4493 33.4701 0.0000 0.0000 0.0000
# 3 35.6567 33.4701 54.0704 0.0000 0.0000 0.0000
# 4 0.0000 0.0000 0.0000 25.3690 0.0000 0.0000
# 5 0.0000 0.0000 0.0000 0.0000 18.1114 0.0000
# 6 0.0000 0.0000 0.0000 0.0000 0.0000 34.7909
#
#
#
# Elastic Compliance Matrix: (Units=1/GPa)
#
#
# Indices 1 2 3 4 5 6 
#
# 1 0.020078 -0.013800 -0.004698 0.000000 0.000000 0.000000
# 2 -0.013800 0.025176 -0.006484 0.000000 0.000000 0.000000
# 3 -0.004698 -0.006484 0.025606 0.000000 0.000000 0.000000
# 4 0.000000 0.000000 0.000000 0.039418 0.000000 0.000000
# 5 0.000000 0.000000 0.000000 0.000000 0.055214 0.000000
# 6 0.000000 0.000000 0.000000 0.000000 0.000000 0.028743
#
#
# Mechanical properties :
#
#
# Convention : Reuss Voigt Hill
#
# Bulk Modulus (GPa) = 47.85537 56.88386 52.36962
# Shear Modulus (GPa) = 19.90734 22.78397 21.34566
#
# Velocity S-wave (km/s) = 3.28790 3.51744 3.40461
# Velocity P-wave (km/s) = 6.35615 6.88376 6.62521
#
# Compressibility (1/GPa) = 0.02089630
#
# Stress axis : x y z
#
# Youngs Moduli (GPa) = 49.80685 39.72009 39.05340
#
# Poissons Ratio (x) = 0.54814 0.18346
# Poissons Ratio (y) = 0.68733 0.25322
# Poissons Ratio (z) = 0.23398 0.25754
#
# Static dielectric constant tensor:
#      x y z
#    x 3.450380 0.000000 0.000000 
#    y 0.000000 4.109090 0.000000 
#    z 0.000000 0.000000 3.135000 
# 
# 
# High freq. dielectric constant tensor:
#      x y z
#    x 1.702380 0.000000 0.000000 
#    y 0.000000 1.723180 0.000000 
#    z 0.000000 0.000000 1.688360 
# 
# From -- ./inp_files/11256.got.cif
#   From: 2010.03.12/outbox.cif.g09.slc.cpg/sg47_6_cif.got.tgz:11256.got - 2010.04.14 03:12:58.
