data_PCOD8197114
_publ_section_title
;
Structure prediction by ZEFSAII (Michael W. Deem and Ramdas Pophale) SiO2 
 PCOD8197114
Probable space group: P M M M
;
_chemical_formula_sum "Si O2"
_cell_formula_units_Z 48
_cell_length_a 8.997947
_cell_length_b 10.157633
_cell_length_c 29.303100
_cell_angle_alpha 90.000000
_cell_angle_beta 90.000000
_cell_angle_gamma 90.000000
_cell_volume 2678.240144
_symmetry_space_group_name_H-M "P M M M"
_symmetry_group_IT_number 47
_symmetry_cell_setting 'orthorhombic'
loop_
_space_group_symop_operation_xyz
x,y,z
-x,-y,z
x,-y,-z
-x,y,-z
-x,-y,-z
x,y,-z
-x,y,z
x,-y,z
loop_
_atom_site_type_symbol
_atom_site_label
_atom_site_fract_x
_atom_site_fract_y
_atom_site_fract_z
Si Si1 0.823371 0.748774 0.096791
Si Si2 0.165433 0.656582 0.709286
Si Si3 0.171870 0.148968 0.446838
Si Si4 0.669051 0.500000 0.946031
Si Si5 0.175971 0.645972 0.807787
Si Si6 0.674996 0.650218 0.619265
Si Si7 0.675016 0.000000 0.946757
O O1 0.759206 0.625507 0.070255
O O2 0.779258 0.740419 0.150427
O O3 0.000000 0.754411 0.089966
O O4 0.747262 0.875499 0.076591
O O5 0.160530 0.500000 0.711461
O O6 0.230118 0.704625 0.758681
O O7 0.268903 0.705011 0.668049
O O8 0.000000 0.713197 0.700551
O O9 0.202784 0.170766 0.500000
O O10 0.267575 0.255940 0.420389
O O11 0.000000 0.172392 0.435332
O O12 0.217878 0.000000 0.432922
O O13 0.500000 0.500000 0.926859
O O14 0.664644 0.500000 0.000000
O O15 0.243608 0.500000 0.816885
O O16 0.000000 0.632282 0.804636
O O17 0.500000 0.655439 0.619551
O O18 0.731047 0.500000 0.610845
O O19 0.500000 0.000000 0.938281
O O20 0.713603 0.000000 0.000000
#
# Coordination Sequence:
#
# PCOD8197114 Si02
#       7
#     8   8   8   4   8   8   4
#     4  11  21  36  60  85 107 135 179 229 269 313
#     4   8  14  27  50  75 102 138 175 209 253 309
#     4   9  19  36  56  76  99 132 178 226 267 312
#     4  11  23  37  53  79 115 147 175 213 266 323
#     4   8  14  28  52  82 109 131 164 215 266 307
#     4  10  20  32  48  76 112 142 172 213 259 307
#     4  11  25  43  57  73 107 149 181 215 268 331
#
# _framework density 17.922217
#
# number of rings (size 3 to 8) (size 9 to 14) (size 15 to 20)
#    0.000    2.500    0.833    3.500    0.000    5.333 
#    0.000    4.167    1.833    0.000    0.000    0.000 
#    0.000    0.000    0.000    0.000    0.000    0.000 
#
# Total GULP energy -594963.455344 kJ/mol
# GULP energy per Si atom -12395.071986 kJ/mol
# Density = 1.788143 g / cm^3
# Si number density = 17.922217 Si / 1000 Ang^3
#
#
#
# Elastic Constant Matrix: (Units=GPa)
#
#
# Indices 1 2 3 4 5 6 
#
# 1 71.9007 47.6250 57.1695 0.0000 0.0000 0.0000
# 2 47.6250 108.9053 65.1963 0.0000 0.0000 0.0000
# 3 57.1695 65.1963 125.9494 0.0000 0.0000 0.0000
# 4 0.0000 0.0000 0.0000 24.3351 0.0000 0.0000
# 5 0.0000 0.0000 0.0000 0.0000 1.5660 0.0000
# 6 0.0000 0.0000 0.0000 0.0000 0.0000 8.3904
#
#
#
# Elastic Compliance Matrix: (Units=1/GPa)
#
#
# Indices 1 2 3 4 5 6 
#
# 1 0.024024 -0.005764 -0.007921 0.000000 0.000000 0.000000
# 2 -0.005764 0.014688 -0.004987 0.000000 0.000000 0.000000
# 3 -0.007921 -0.004987 0.014117 0.000000 0.000000 0.000000
# 4 0.000000 0.000000 0.000000 0.041093 0.000000 0.000000
# 5 0.000000 0.000000 0.000000 0.000000 0.638556 0.000000
# 6 0.000000 0.000000 0.000000 0.000000 0.000000 0.119184
#
#
# Mechanical properties :
#
#
# Convention : Reuss Voigt Hill
#
# Bulk Modulus (GPa) = 64.57832 71.85967 68.21899
# Shear Modulus (GPa) = 5.59179 15.97596 10.78387
#
# Velocity S-wave (km/s) = 1.76828 2.98888 2.45563
# Velocity P-wave (km/s) = 6.34664 7.21759 6.79608
#
# Compressibility (1/GPa) = 0.01548507
#
# Stress axis : x y z
#
# Youngs Moduli (GPa) = 41.62473 68.08121 70.83848
#
# Poissons Ratio (x) = 0.39241 0.56112
# Poissons Ratio (y) = 0.23992 0.35327
# Poissons Ratio (z) = 0.32972 0.33952
#
# Static dielectric constant tensor:
#      x y z
#    x 3.262550 0.000000 0.000000 
#    y 0.000000 3.089980 0.000000 
#    z 0.000000 0.000000 3.734480 
# 
# 
# High freq. dielectric constant tensor:
#      x y z
#    x 1.682510 0.000000 0.000000 
#    y 0.000000 1.668140 0.000000 
#    z 0.000000 0.000000 1.711090 
# 
# From -- ./inp_files/34051.got.cif
#   From: 2010.03.12/outbox.cif.g09.slc.cpg/sg47_18_cif.got.tgz:34051.got - 2010.04.14 03:12:58.
