data_PCOD8197456
_publ_section_title
;
Structure prediction by ZEFSAII (Michael W. Deem and Ramdas Pophale) SiO2 
 PCOD8197456
Probable space group: P M M M
;
_chemical_formula_sum "Si O2"
_cell_formula_units_Z 52
_cell_length_a 7.959792
_cell_length_b 14.478185
_cell_length_c 24.789706
_cell_angle_alpha 90.000000
_cell_angle_beta 90.000000
_cell_angle_gamma 90.000000
_cell_volume 2856.848545
_symmetry_space_group_name_H-M "P M M M"
_symmetry_group_IT_number 47
_symmetry_cell_setting 'orthorhombic'
loop_
_space_group_symop_operation_xyz
x,y,z
-x,-y,z
x,-y,-z
-x,y,-z
-x,-y,-z
x,y,-z
-x,y,z
x,-y,z
loop_
_atom_site_type_symbol
_atom_site_label
_atom_site_fract_x
_atom_site_fract_y
_atom_site_fract_z
Si Si1 0.000000 0.390412 0.439758
Si Si2 0.198070 0.396823 0.160513
Si Si3 0.807001 0.707493 0.265949
Si Si4 0.698076 0.283801 0.940595
Si Si5 0.311361 0.393008 0.368481
Si Si6 0.302278 0.897440 0.233434
Si Si7 0.300212 0.100142 0.111205
O O1 0.169876 0.355824 0.409975
O O2 0.000000 0.500000 0.442856
O O3 0.000000 0.348214 0.500000
O O4 0.271095 0.500000 0.168366
O O5 0.264598 0.331556 0.208915
O O6 0.254519 0.361286 0.102251
O O7 0.000000 0.398577 0.162042
O O8 0.698295 0.663275 0.313215
O O9 0.788971 0.818498 0.268242
O O10 0.000000 0.678740 0.274447
O O11 0.500000 0.274847 0.942892
O O12 0.775324 0.183884 0.923975
O O13 0.768594 0.310395 0.000000
O O14 0.500000 0.379547 0.392657
O O15 0.276889 0.500000 0.355276
O O16 0.500000 0.880847 0.236555
O O17 0.236389 0.888370 0.172322
O O18 0.256676 0.000000 0.255789
O O19 0.500000 0.103010 0.111018
O O20 0.239463 0.000000 0.088563
#
# Coordination Sequence:
#
# PCOD8197456 Si02
#       7
#     4   8   8   8   8   8   8
#     4   9  18  34  54  78 115 157 194 234 268 301
#     4  10  22  37  51  67  89 125 166 204 255 314
#     4  11  20  32  52  75 104 136 171 221 269 315
#     4  10  20  33  50  71  92 115 153 206 254 304
#     4  10  20  33  52  80 113 151 191 228 271 317
#     4   9  17  30  49  72  99 131 166 205 254 319
#     4   8  14  27  47  69  93 119 149 191 246 310
#
# _framework density 18.201874
#
# number of rings (size 3 to 8) (size 9 to 14) (size 15 to 20)
#    0.000    2.385    2.308    1.846    0.000    3.077 
#    0.000    4.615    0.000    0.462    0.000    1.077 
#    0.000    1.231    0.000    3.231    0.000    0.154 
#
# Total GULP energy -644574.335952 kJ/mol
# GULP energy per Si atom -12395.660307 kJ/mol
# Density = 1.816045 g / cm^3
# Si number density = 18.201874 Si / 1000 Ang^3
#
#
#
# Elastic Constant Matrix: (Units=GPa)
#
#
# Indices 1 2 3 4 5 6 
#
# 1 60.4084 23.0853 34.1433 0.0000 0.0000 0.0000
# 2 23.0853 102.3381 40.3647 0.0000 0.0000 0.0000
# 3 34.1433 40.3647 104.9595 0.0000 0.0000 0.0000
# 4 0.0000 0.0000 0.0000 19.2451 0.0000 0.0000
# 5 0.0000 0.0000 0.0000 0.0000 18.9527 0.0000
# 6 0.0000 0.0000 0.0000 0.0000 0.0000 19.9354
#
#
#
# Elastic Compliance Matrix: (Units=1/GPa)
#
#
# Indices 1 2 3 4 5 6 
#
# 1 0.020764 -0.002381 -0.005839 0.000000 0.000000 0.000000
# 2 -0.002381 0.011792 -0.003760 0.000000 0.000000 0.000000
# 3 -0.005839 -0.003760 0.012873 0.000000 0.000000 0.000000
# 4 0.000000 0.000000 0.000000 0.051961 0.000000 0.000000
# 5 0.000000 0.000000 0.000000 0.000000 0.052763 0.000000
# 6 0.000000 0.000000 0.000000 0.000000 0.000000 0.050162
#
#
# Mechanical properties :
#
#
# Convention : Reuss Voigt Hill
#
# Bulk Modulus (GPa) = 46.57967 51.43249 49.00608
# Shear Modulus (GPa) = 21.60466 22.96748 22.28607
#
# Velocity S-wave (km/s) = 3.44895 3.55606 3.50291
# Velocity P-wave (km/s) = 6.44255 6.72152 6.58351
#
# Compressibility (1/GPa) = 0.02146859
#
# Stress axis : x y z
#
# Youngs Moduli (GPa) = 48.16009 84.80486 77.68200
#
# Poissons Ratio (x) = 0.20191 0.45358
# Poissons Ratio (y) = 0.11467 0.29211
# Poissons Ratio (z) = 0.28120 0.31889
#
# Static dielectric constant tensor:
#      x y z
#    x 3.188100 0.000000 0.000000 
#    y 0.000000 3.516890 0.000000 
#    z 0.000000 0.000000 3.053120 
# 
# 
# High freq. dielectric constant tensor:
#      x y z
#    x 1.694850 0.000000 0.000000 
#    y 0.000000 1.698600 0.000000 
#    z 0.000000 0.000000 1.670620 
# 
# From -- ./inp_files/32008.got.cif
#   From: 2010.03.12/outbox.cif.g09.slc.cpg/sg47_17_cif.got.tgz:32008.got - 2010.04.14 03:12:58.
