data_PCOD8197785
_publ_section_title
;
Structure prediction by ZEFSAII (Michael W. Deem and Ramdas Pophale) SiO2 
 PCOD8197785
Probable space group: P M M M
;
_chemical_formula_sum "Si O2"
_cell_formula_units_Z 52
_cell_length_a 14.334477
_cell_length_b 8.065025
_cell_length_c 24.463112
_cell_angle_alpha 90.000000
_cell_angle_beta 90.000000
_cell_angle_gamma 90.000000
_cell_volume 2828.129382
_symmetry_space_group_name_H-M "P M M M"
_symmetry_group_IT_number 47
_symmetry_cell_setting 'orthorhombic'
loop_
_space_group_symop_operation_xyz
x,y,z
-x,-y,z
x,-y,-z
-x,y,-z
-x,-y,-z
x,y,-z
-x,y,z
x,-y,z
loop_
_atom_site_type_symbol
_atom_site_label
_atom_site_fract_x
_atom_site_fract_y
_atom_site_fract_z
Si Si1 0.605794 0.310598 0.335940
Si Si2 0.291462 0.811800 0.232496
Si Si3 0.896164 0.689646 0.400874
Si Si4 0.610801 0.000000 0.061221
Si Si5 0.608475 0.314222 0.130739
Si Si6 0.896725 0.808480 0.282392
Si Si7 0.708077 0.189107 0.438985
O O1 0.500000 0.245339 0.340197
O O2 0.608573 0.500000 0.316636
O O3 0.660267 0.202428 0.291532
O O4 0.653959 0.299609 0.395122
O O5 0.337782 0.692543 0.188144
O O6 0.181993 0.763154 0.237731
O O7 0.303242 0.000000 0.212027
O O8 0.885761 0.500000 0.419054
O O9 0.879584 0.699008 0.335878
O O10 0.819806 0.795785 0.432895
O O11 0.000000 0.756708 0.415255
O O12 0.646008 0.169582 0.090447
O O13 0.500000 0.000000 0.059228
O O14 0.652268 0.000000 0.000000
O O15 0.500000 0.284036 0.143241
O O16 0.624092 0.500000 0.105819
O O17 0.000000 0.773938 0.257537
O O18 0.886026 0.000000 0.299957
O O19 0.679708 0.246954 0.500000
O O20 0.678911 0.000000 0.429511
#
# Coordination Sequence:
#
# PCOD8197785 Si02
#       7
#     8   8   8   4   8   8   8
#     4  11  24  39  55  76 100 130 168 211 266 325
#     4  11  20  32  54  80 109 143 176 217 268 317
#     4  10  20  34  54  78 101 126 159 202 255 316
#     4   9  18  34  54  78 113 155 196 234 270 311
#     4  10  20  33  51  79 114 151 191 232 272 314
#     4   9  18  32  51  76 105 136 169 206 256 319
#     4  11  24  40  56  74  96 126 167 213 261 317
#
# _framework density 18.386711999999999
#
# number of rings (size 3 to 8) (size 9 to 14) (size 15 to 20)
#    0.000    1.769    2.308    2.308    0.000    6.769 
#    0.000    4.615    0.000    0.000    0.000    0.000 
#    0.000    1.231    0.000    1.385    0.000    0.154 
#
# Total GULP energy -644797.159384 kJ/mol
# GULP energy per Si atom -12399.945373 kJ/mol
# Density = 1.834486 g / cm^3
# Si number density = 18.386712 Si / 1000 Ang^3
#
#
#
# Elastic Constant Matrix: (Units=GPa)
#
#
# Indices 1 2 3 4 5 6 
#
# 1 91.2445 22.8800 33.7743 0.0000 0.0000 0.0000
# 2 22.8800 73.2795 31.3491 0.0000 0.0000 0.0000
# 3 33.7743 31.3491 92.6072 0.0000 0.0000 0.0000
# 4 0.0000 0.0000 0.0000 19.8391 0.0000 0.0000
# 5 0.0000 0.0000 0.0000 0.0000 14.6811 0.0000
# 6 0.0000 0.0000 0.0000 0.0000 0.0000 21.9681
#
#
#
# Elastic Compliance Matrix: (Units=1/GPa)
#
#
# Indices 1 2 3 4 5 6 
#
# 1 0.013015 -0.002377 -0.003942 0.000000 0.000000 0.000000
# 2 -0.002377 0.016392 -0.004682 0.000000 0.000000 0.000000
# 3 -0.003942 -0.004682 0.013821 0.000000 0.000000 0.000000
# 4 0.000000 0.000000 0.000000 0.050406 0.000000 0.000000
# 5 0.000000 0.000000 0.000000 0.000000 0.068115 0.000000
# 6 0.000000 0.000000 0.000000 0.000000 0.000000 0.045521
#
#
# Mechanical properties :
#
#
# Convention : Reuss Voigt Hill
#
# Bulk Modulus (GPa) = 47.11364 48.12645 47.62005
# Shear Modulus (GPa) = 21.15554 22.57285 21.86419
#
# Velocity S-wave (km/s) = 3.39571 3.50762 3.45212
# Velocity P-wave (km/s) = 6.40733 6.52962 6.46876
#
# Compressibility (1/GPa) = 0.02122528
#
# Stress axis : x y z
#
# Youngs Moduli (GPa) = 76.83602 61.00715 72.35496
#
# Poissons Ratio (x) = 0.14503 0.28521
# Poissons Ratio (y) = 0.18266 0.33875
# Poissons Ratio (z) = 0.30287 0.28562
#
# Static dielectric constant tensor:
#      x y z
#    x 3.486070 0.000000 0.000000 
#    y 0.000000 3.384000 0.000000 
#    z 0.000000 0.000000 3.109830 
# 
# 
# High freq. dielectric constant tensor:
#      x y z
#    x 1.703610 0.000000 0.000000 
#    y 0.000000 1.721780 0.000000 
#    z 0.000000 0.000000 1.675030 
# 
# From -- ./inp_files/30829.got.cif
#   From: 2010.03.12/outbox.cif.g09.slc.cpg/sg47_16_cif.got.tgz:30829.got - 2010.04.14 03:12:58.
