data_PCOD8197024
_publ_section_title
;
Structure prediction by ZEFSAII (Michael W. Deem and Ramdas Pophale) SiO2 
 PCOD8197024
Probable space group: P M M M
;
_chemical_formula_sum "Si O2"
_cell_formula_units_Z 44
_cell_length_a 29.827447
_cell_length_b 7.898954
_cell_length_c 9.570936
_cell_angle_alpha 90.000000
_cell_angle_beta 90.000000
_cell_angle_gamma 90.000000
_cell_volume 2254.966423
_symmetry_space_group_name_H-M "P M M M"
_symmetry_group_IT_number 47
_symmetry_cell_setting 'orthorhombic'
loop_
_space_group_symop_operation_xyz
x,y,z
-x,-y,z
x,-y,-z
-x,y,-z
-x,-y,-z
x,y,-z
-x,y,z
x,-y,z
loop_
_atom_site_type_symbol
_atom_site_label
_atom_site_fract_x
_atom_site_fract_y
_atom_site_fract_z
Si Si1 0.205764 0.693110 0.157472
Si Si2 0.950234 0.798543 0.156318
Si Si3 0.612182 0.805879 0.335798
Si Si4 0.697679 0.802984 0.842167
Si Si5 0.450024 0.500000 0.665527
Si Si6 0.872052 0.805160 0.346115
O O1 0.190537 0.500000 0.161095
O O2 0.257379 0.707305 0.205855
O O3 0.174589 0.793579 0.263866
O O4 0.200717 0.767678 0.000000
O O5 0.912867 0.719108 0.259564
O O6 0.000000 0.742204 0.205861
O O7 0.946919 0.000000 0.154294
O O8 0.940936 0.729581 0.000000
O O9 0.620810 0.789918 0.500000
O O10 0.657640 0.750104 0.259709
O O11 0.574405 0.673034 0.284904
O O12 0.598198 0.000000 0.296659
O O13 0.708047 0.000000 0.830864
O O14 0.684187 0.751427 0.000000
O O15 0.500000 0.500000 0.730271
O O16 0.452617 0.500000 0.500000
O O17 0.868121 0.719638 0.500000
O O18 0.883714 0.000000 0.365969
#
# Coordination Sequence:
#
# PCOD8197024 Si02
#       6
#     8   8   8   8   4   8
#     4  10  21  35  51  72  97 129 169 208 248 300
#     4   8  14  26  46  71  96 124 161 204 249 297
#     4   9  18  32  51  76 104 135 173 216 260 309
#     4   9  18  33  53  76 101 130 164 205 254 304
#     4   9  18  32  51  77 107 139 177 219 262 307
#     4  10  20  32  48  72 101 132 164 201 249 302
#
# _framework density 19.512484000000001
#
# number of rings (size 3 to 8) (size 9 to 14) (size 15 to 20)
#    0.000    2.818    0.000    1.636    1.273    3.636 
#    0.000    5.455    0.000    1.636    0.000    6.364 
#    0.000    0.000    0.000    0.000    0.000    0.000 
#
# Total GULP energy -545425.593828 kJ/mol
# GULP energy per Si atom -12396.036223 kJ/mol
# Density = 1.946807 g / cm^3
# Si number density = 19.512484 Si / 1000 Ang^3
#
#
#
# Elastic Constant Matrix: (Units=GPa)
#
#
# Indices 1 2 3 4 5 6 
#
# 1 157.0889 39.4561 81.0861 0.0000 0.0000 0.0000
# 2 39.4561 51.8380 24.8162 0.0000 0.0000 0.0000
# 3 81.0861 24.8162 99.4873 0.0000 0.0000 0.0000
# 4 0.0000 0.0000 0.0000 11.8915 0.0000 0.0000
# 5 0.0000 0.0000 0.0000 0.0000 29.0216 0.0000
# 6 0.0000 0.0000 0.0000 0.0000 0.0000 -3.6130
#
#
#
# Elastic Compliance Matrix: (Units=1/GPa)
#
#
# Indices 1 2 3 4 5 6 
#
# 1 0.012063 -0.005082 -0.008564 0.000000 0.000000 0.000000
# 2 -0.005082 0.024048 -0.001857 0.000000 0.000000 0.000000
# 3 -0.008564 -0.001857 0.017495 0.000000 0.000000 0.000000
# 4 0.000000 0.000000 0.000000 0.084093 0.000000 0.000000
# 5 0.000000 0.000000 0.000000 0.000000 0.034457 0.000000
# 6 0.000000 0.000000 0.000000 0.000000 0.000000 -0.276779
#
#
# Mechanical properties :
#
#
# Convention : Reuss Voigt Hill
#
# Bulk Modulus (GPa) = 44.24732 66.57011 55.40871
# Shear Modulus (GPa) = -75.65972 18.33041 -28.66465
#
# Velocity S-wave (km/s) = -6.23372 3.06832 -3.83697
# Velocity P-wave (km/s) = 5.39320 6.83692 2.97127
#
# Compressibility (1/GPa) = 0.02260024
#
# Stress axis : x y z
#
# Youngs Moduli (GPa) = 82.89961 41.58422 57.16006
#
# Poissons Ratio (x) = 0.21132 0.48952
# Poissons Ratio (y) = 0.42127 0.10613
# Poissons Ratio (z) = 0.70996 0.07721
#
# Static dielectric constant tensor:
#      x y z
#    x 3.642560 0.000000 0.000000 
#    y 0.000000 3.361380 0.000000 
#    z 0.000000 0.000000 3.666560 
# 
# 
# High freq. dielectric constant tensor:
#      x y z
#    x 1.758900 0.000000 0.000000 
#    y 0.000000 1.742120 0.000000 
#    z 0.000000 0.000000 1.743970 
# 
# From -- ./inp_files/2205.got.cif
#   From: 2010.03.12/outbox.cif.g09.slc.cpg/sg47_2_cif.got.tgz:2205.got - 2010.04.14 03:12:58.
