data_PCOD8197018
_publ_section_title
;
Structure prediction by ZEFSAII (Michael W. Deem and Ramdas Pophale) SiO2 
 PCOD8197018
Probable space group: P M M M
;
_chemical_formula_sum "Si O2"
_cell_formula_units_Z 44
_cell_length_a 7.924751
_cell_length_b 30.224248
_cell_length_c 9.313536
_cell_angle_alpha 90.000000
_cell_angle_beta 90.000000
_cell_angle_gamma 90.000000
_cell_volume 2230.774786
_symmetry_space_group_name_H-M "P M M M"
_symmetry_group_IT_number 47
_symmetry_cell_setting 'orthorhombic'
loop_
_space_group_symop_operation_xyz
x,y,z
-x,-y,z
x,-y,-z
-x,y,-z
-x,-y,-z
x,y,-z
-x,y,z
x,-y,z
loop_
_atom_site_type_symbol
_atom_site_label
_atom_site_fract_x
_atom_site_fract_y
_atom_site_fract_z
Si Si1 0.200775 0.951076 0.339042
Si Si2 0.500000 0.449978 0.828467
Si Si3 0.300152 0.213876 0.336985
Si Si4 0.802978 0.870368 0.841265
Si Si5 0.187097 0.606527 0.829500
Si Si6 0.699414 0.298609 0.836322
O O1 0.269123 0.942551 0.500000
O O2 0.278547 0.913568 0.234987
O O3 0.000000 0.948183 0.340511
O O4 0.257796 0.000000 0.286176
O O5 0.500000 0.500000 0.770537
O O6 0.668424 0.425961 0.767408
O O7 0.500000 0.448931 0.000000
O O8 0.233235 0.213074 0.500000
O O9 0.500000 0.211928 0.330900
O O10 0.227001 0.172455 0.253655
O O11 0.234200 0.258477 0.261270
O O12 0.000000 0.878238 0.857224
O O13 0.721650 0.864613 0.000000
O O14 0.216964 0.656582 0.775901
O O15 0.000000 0.590749 0.779666
O O16 0.200927 0.606239 0.000000
O O17 0.500000 0.304632 0.826289
O O18 0.754996 0.288998 0.000000
#
# Coordination Sequence:
#
# PCOD8197018 Si02
#       6
#     8   4   8   8   8   8
#     4   8  14  26  45  68  94 126 163 203 251 304
#     4   9  16  26  40  62  97 137 173 211 256 305
#     4  10  21  35  51  72  98 130 166 203 249 305
#     4  10  20  32  48  72 100 129 163 204 250 301
#     4   9  16  26  42  65  93 128 170 212 255 306
#     4   9  16  29  48  66  90 126 164 203 250 303
#
# _framework density 19.724087999999998
#
# number of rings (size 3 to 8) (size 9 to 14) (size 15 to 20)
#    0.000    2.818    0.909    1.636    0.000    3.636 
#    0.000    5.455    0.000    0.545    0.000    3.818 
#    0.000    1.455    0.000    1.636    0.000    1.818 
#
# Total GULP energy -545411.209969 kJ/mol
# GULP energy per Si atom -12395.709317 kJ/mol
# Density = 1.967920 g / cm^3
# Si number density = 19.724088 Si / 1000 Ang^3
#
#
#
# Elastic Constant Matrix: (Units=GPa)
#
#
# Indices 1 2 3 4 5 6 
#
# 1 61.8377 54.4265 23.1510 0.0000 0.0000 0.0000
# 2 54.4265 173.4861 65.2990 0.0000 0.0000 0.0000
# 3 23.1510 65.2990 99.9246 0.0000 0.0000 0.0000
# 4 0.0000 0.0000 0.0000 6.4869 0.0000 0.0000
# 5 0.0000 0.0000 0.0000 0.0000 11.6299 0.0000
# 6 0.0000 0.0000 0.0000 0.0000 0.0000 102.3795
#
#
#
# Elastic Compliance Matrix: (Units=1/GPa)
#
#
# Indices 1 2 3 4 5 6 
#
# 1 0.022387 -0.006725 -0.000792 0.000000 0.000000 0.000000
# 2 -0.006725 0.009665 -0.004758 0.000000 0.000000 0.000000
# 3 -0.000792 -0.004758 0.013300 0.000000 0.000000 0.000000
# 4 0.000000 0.000000 0.000000 0.154157 0.000000 0.000000
# 5 0.000000 0.000000 0.000000 0.000000 0.085985 0.000000
# 6 0.000000 0.000000 0.000000 0.000000 0.000000 0.009768
#
#
# Mechanical properties :
#
#
# Convention : Reuss Voigt Hill
#
# Bulk Modulus (GPa) = 48.07154 69.00014 58.53584
# Shear Modulus (GPa) = 15.30246 36.92406 26.11326
#
# Velocity S-wave (km/s) = 2.78839 4.33139 3.64253
# Velocity P-wave (km/s) = 5.89845 7.75069 6.88712
#
# Compressibility (1/GPa) = 0.02080233
#
# Stress axis : x y z
#
# Youngs Moduli (GPa) = 44.66860 103.46880 75.18779
#
# Poissons Ratio (x) = 0.69586 0.05954
# Poissons Ratio (y) = 0.30041 0.35771
# Poissons Ratio (z) = 0.03537 0.49226
#
# Static dielectric constant tensor:
#      x y z
#    x 3.413620 0.000000 0.000000 
#    y 0.000000 3.790330 0.000000 
#    z 0.000000 0.000000 3.553310 
# 
# 
# High freq. dielectric constant tensor:
#      x y z
#    x 1.749190 0.000000 0.000000 
#    y 0.000000 1.777410 0.000000 
#    z 0.000000 0.000000 1.730970 
# 
# From -- ./inp_files/2181.got.cif
#   From: 2010.03.12/outbox.cif.g09.slc.cpg/sg47_2_cif.got.tgz:2181.got - 2010.04.14 03:12:58.
