data_PCOD8197496
_publ_section_title
;
Structure prediction by ZEFSAII (Michael W. Deem and Ramdas Pophale) SiO2 
 PCOD8197496
Probable space group: P M M M
;
_chemical_formula_sum "Si O2"
_cell_formula_units_Z 44
_cell_length_a 28.959372
_cell_length_b 8.904163
_cell_length_c 9.080399
_cell_angle_alpha 90.000000
_cell_angle_beta 90.000000
_cell_angle_gamma 90.000000
_cell_volume 2341.462321
_symmetry_space_group_name_H-M "P M M M"
_symmetry_group_IT_number 47
_symmetry_cell_setting 'orthorhombic'
loop_
_space_group_symop_operation_xyz
x,y,z
-x,-y,z
x,-y,-z
-x,y,-z
-x,-y,-z
x,y,-z
-x,y,z
x,-y,z
loop_
_atom_site_type_symbol
_atom_site_label
_atom_site_fract_x
_atom_site_fract_y
_atom_site_fract_z
Si Si1 0.907359 0.676761 0.830887
Si Si2 0.738195 0.674588 0.172464
Si Si3 0.000000 0.169132 0.175009
Si Si4 0.548883 0.668283 0.675048
Si Si5 0.647455 0.679072 0.665326
Si Si6 0.822847 0.174027 0.327972
O O1 0.912188 0.500000 0.817256
O O2 0.865150 0.731318 0.733727
O O3 0.954230 0.748573 0.766253
O O4 0.898850 0.725578 0.000000
O O5 0.745996 0.500000 0.212726
O O6 0.688221 0.731927 0.227177
O O7 0.776122 0.774184 0.251561
O O8 0.741756 0.702092 0.000000
O O9 0.000000 0.000000 0.235662
O O10 0.000000 0.174807 0.000000
O O11 0.551283 0.662069 0.500000
O O12 0.500000 0.749651 0.723468
O O13 0.546782 0.500000 0.738768
O O14 0.597671 0.744309 0.725478
O O15 0.658128 0.737817 0.500000
O O16 0.643585 0.500000 0.663628
O O17 0.818267 0.205939 0.500000
O O18 0.831500 0.000000 0.293204
#
# Coordination Sequence:
#
# PCOD8197496 Si02
#       6
#     8   8   4   8   8   8
#     4  10  20  35  57  84 111 139 173 210 247 291
#     4  10  20  33  50  72  97 127 164 204 247 299
#     4   9  17  31  54  83 114 147 178 208 244 285
#     4   7   9  14  27  50  80 114 153 194 234 279
#     4   8  13  22  38  60  87 121 159 199 243 288
#     4  11  24  39  54  74 100 130 166 209 256 303
#
# _framework density 18.791677
#
# number of rings (size 3 to 8) (size 9 to 14) (size 15 to 20)
#    0.000    2.818    0.000    4.091    0.000    6.909 
#    0.000    0.455    0.000    3.273    0.000    3.818 
#    0.000    0.727    0.000    8.364    0.000    9.636 
#
# Total GULP energy -545179.938016 kJ/mol
# GULP energy per Si atom -12390.453137 kJ/mol
# Density = 1.874891 g / cm^3
# Si number density = 18.791677 Si / 1000 Ang^3
#
#
#
# Elastic Constant Matrix: (Units=GPa)
#
#
# Indices 1 2 3 4 5 6 
#
# 1 171.7504 33.7388 40.3572 0.0000 0.0000 0.0000
# 2 33.7388 45.5919 24.3100 0.0000 0.0000 0.0000
# 3 40.3572 24.3100 56.6058 0.0000 0.0000 0.0000
# 4 0.0000 0.0000 0.0000 18.2895 0.0000 0.0000
# 5 0.0000 0.0000 0.0000 0.0000 28.3507 0.0000
# 6 0.0000 0.0000 0.0000 0.0000 0.0000 -3.3467
#
#
#
# Elastic Compliance Matrix: (Units=1/GPa)
#
#
# Indices 1 2 3 4 5 6 
#
# 1 0.007390 -0.003449 -0.003787 0.000000 0.000000 0.000000
# 2 -0.003449 0.030058 -0.010450 0.000000 0.000000 0.000000
# 3 -0.003787 -0.010450 0.024854 0.000000 0.000000 0.000000
# 4 0.000000 0.000000 0.000000 0.054676 0.000000 0.000000
# 5 0.000000 0.000000 0.000000 0.000000 0.035272 0.000000
# 6 0.000000 0.000000 0.000000 0.000000 0.000000 -0.298803
#
#
# Mechanical properties :
#
#
# Convention : Reuss Voigt Hill
#
# Bulk Modulus (GPa) = 37.13400 52.30669 44.72035
# Shear Modulus (GPa) = -48.92190 20.36150 -14.28020
#
# Velocity S-wave (km/s) = -5.10787 3.29529 -2.75966
# Velocity P-wave (km/s) = 3.87083 6.50953 3.70072
#
# Compressibility (1/GPa) = 0.02692950
#
# Stress axis : x y z
#
# Youngs Moduli (GPa) = 135.31975 33.26893 40.23509
#
# Poissons Ratio (x) = 0.11475 0.15238
# Poissons Ratio (y) = 0.46675 0.42044
# Poissons Ratio (z) = 0.51250 0.34765
#
# Static dielectric constant tensor:
#      x y z
#    x 4.105350 0.000000 0.000000 
#    y 0.000000 3.101420 0.000000 
#    z 0.000000 0.000000 3.187510 
# 
# 
# High freq. dielectric constant tensor:
#      x y z
#    x 1.763090 0.000000 0.000000 
#    y 0.000000 1.685830 0.000000 
#    z 0.000000 0.000000 1.695200 
# 
# From -- ./inp_files/2147.got.cif
#   From: 2010.03.12/outbox.cif.g09.slc.cpg/sg47_2_cif.got.tgz:2147.got - 2010.04.14 03:12:58.
