data_PCOD8197119
_publ_section_title
;
Structure prediction by ZEFSAII (Michael W. Deem and Ramdas Pophale) SiO2 
 PCOD8197119
Probable space group: P M M M
;
_chemical_formula_sum "Si O2"
_cell_formula_units_Z 52
_cell_length_a 13.687488
_cell_length_b 9.054966
_cell_length_c 23.945288
_cell_angle_alpha 90.000000
_cell_angle_beta 90.000000
_cell_angle_gamma 90.000000
_cell_volume 2967.772732
_symmetry_space_group_name_H-M "P M M M"
_symmetry_group_IT_number 47
_symmetry_cell_setting 'orthorhombic'
loop_
_space_group_symop_operation_xyz
x,y,z
-x,-y,z
x,-y,-z
-x,y,-z
-x,-y,-z
x,y,-z
-x,y,z
x,-y,z
loop_
_atom_site_type_symbol
_atom_site_label
_atom_site_fract_x
_atom_site_fract_y
_atom_site_fract_z
Si Si1 0.389771 0.172091 0.257522
Si Si2 0.289424 0.328202 0.840110
Si Si3 0.197199 0.172743 0.935192
Si Si4 0.889811 0.175696 0.438479
Si Si5 0.788938 0.825683 0.670314
Si Si6 0.000000 0.334893 0.065870
Si Si7 0.891333 0.332451 0.235407
O O1 0.500000 0.202449 0.277837
O O2 0.371912 0.260222 0.200082
O O3 0.317179 0.228403 0.306911
O O4 0.371729 0.000000 0.244982
O O5 0.312143 0.500000 0.849373
O O6 0.286124 0.245135 0.899834
O O7 0.183757 0.296811 0.813537
O O8 0.096108 0.247078 0.915487
O O9 0.190039 0.000000 0.922515
O O10 0.219513 0.203560 0.000000
O O11 0.856842 0.232556 0.500000
O O12 0.813846 0.236709 0.391694
O O13 0.000000 0.231600 0.425504
O O14 0.889559 0.000000 0.437952
O O15 0.873237 0.771537 0.711713
O O16 0.792128 0.000000 0.668909
O O17 0.000000 0.500000 0.093093
O O18 0.000000 0.350524 0.000000
O O19 0.878170 0.500000 0.256148
O O20 0.000000 0.303017 0.211867
#
# Coordination Sequence:
#
# PCOD8197119 Si02
#       7
#     8   8   8   8   8   4   8
#     4   9  18  33  51  69  91 118 149 193 249 298
#     4  10  20  32  49  71  93 120 155 193 234 285
#     4  10  20  33  48  68  96 128 161 195 232 278
#     4   8  13  21  36  62  95 127 158 194 232 267
#     4   9  16  27  45  67  88 116 159 198 228 274
#     4   9  17  29  45  65  91 127 167 199 226 261
#     4   9  18  30  42  61  92 124 149 182 231 278
#
# _framework density 17.521557999999999
#
# number of rings (size 3 to 8) (size 9 to 14) (size 15 to 20)
#    0.000    2.846    0.000    2.077    1.077    3.692 
#    0.000    0.000    0.000    1.385    0.000    8.615 
#    0.000    0.000    0.000    7.692    0.000    8.308 
#
# Total GULP energy -644547.569986 kJ/mol
# GULP energy per Si atom -12395.145577 kJ/mol
# Density = 1.748168 g / cm^3
# Si number density = 17.521558 Si / 1000 Ang^3
#
#
#
# Elastic Constant Matrix: (Units=GPa)
#
#
# Indices 1 2 3 4 5 6 
#
# 1 75.8837 22.5809 37.2921 0.0000 0.0000 0.0000
# 2 22.5809 53.4576 35.2003 0.0000 0.0000 0.0000
# 3 37.2921 35.2003 100.5062 0.0000 0.0000 0.0000
# 4 0.0000 0.0000 0.0000 13.7119 0.0000 0.0000
# 5 0.0000 0.0000 0.0000 0.0000 20.7168 0.0000
# 6 0.0000 0.0000 0.0000 0.0000 0.0000 18.4177
#
#
#
# Elastic Compliance Matrix: (Units=1/GPa)
#
#
# Indices 1 2 3 4 5 6 
#
# 1 0.016710 -0.003868 -0.004846 0.000000 0.000000 0.000000
# 2 -0.003868 0.025209 -0.007394 0.000000 0.000000 0.000000
# 3 -0.004846 -0.007394 0.014337 0.000000 0.000000 0.000000
# 4 0.000000 0.000000 0.000000 0.072929 0.000000 0.000000
# 5 0.000000 0.000000 0.000000 0.000000 0.048270 0.000000
# 6 0.000000 0.000000 0.000000 0.000000 0.000000 0.054296
#
#
# Mechanical properties :
#
#
# Convention : Reuss Voigt Hill
#
# Bulk Modulus (GPa) = 41.59426 46.66601 44.13014
# Shear Modulus (GPa) = 18.38371 19.55420 18.96896
#
# Velocity S-wave (km/s) = 3.24266 3.34430 3.29387
# Velocity P-wave (km/s) = 6.14900 6.45009 6.30135
#
# Compressibility (1/GPa) = 0.02404178
#
# Stress axis : x y z
#
# Youngs Moduli (GPa) = 59.84315 39.66869 69.74919
#
# Poissons Ratio (x) = 0.15343 0.33798
# Poissons Ratio (y) = 0.23147 0.51571
# Poissons Ratio (z) = 0.28998 0.29330
#
# Static dielectric constant tensor:
#      x y z
#    x 3.148960 0.000000 0.000000 
#    y 0.000000 3.144320 0.000000 
#    z 0.000000 0.000000 3.483120 
# 
# 
# High freq. dielectric constant tensor:
#      x y z
#    x 1.648830 0.000000 0.000000 
#    y 0.000000 1.664270 0.000000 
#    z 0.000000 0.000000 1.674260 
# 
# From -- ./inp_files/21464.got.cif
#   From: 2010.03.12/outbox.cif.g09.slc.cpg/sg47_11_cif.got.tgz:21464.got - 2010.04.14 03:12:58.
