data_PCOD8197637
_publ_section_title
;
Structure prediction by ZEFSAII (Michael W. Deem and Ramdas Pophale) SiO2 
 PCOD8197637
Probable space group: P M M M
;
_chemical_formula_sum "Si O2"
_cell_formula_units_Z 56
_cell_length_a 9.708207
_cell_length_b 15.515524
_cell_length_c 20.381658
_cell_angle_alpha 90.000000
_cell_angle_beta 90.000000
_cell_angle_gamma 90.000000
_cell_volume 3070.046724
_symmetry_space_group_name_H-M "P M M M"
_symmetry_group_IT_number 47
_symmetry_cell_setting 'orthorhombic'
loop_
_space_group_symop_operation_xyz
x,y,z
-x,-y,z
x,-y,-z
-x,y,-z
-x,-y,-z
x,y,-z
-x,y,z
x,-y,z
loop_
_atom_site_type_symbol
_atom_site_label
_atom_site_fract_x
_atom_site_fract_y
_atom_site_fract_z
Si Si1 0.843368 0.095257 0.896738
Si Si2 0.340613 0.252746 0.928881
Si Si3 0.846406 0.849200 0.754852
Si Si4 0.842205 0.903943 0.612308
Si Si5 0.659429 0.304023 0.210619
Si Si6 0.661648 0.405788 0.667600
Si Si7 0.341775 0.254777 0.425521
O O1 0.743271 0.164138 0.929408
O O2 0.823601 0.091827 0.818376
O O3 0.000000 0.120384 0.915168
O O4 0.808145 0.000000 0.923874
O O5 0.500000 0.227919 0.921955
O O6 0.296575 0.313483 0.866761
O O7 0.314109 0.298836 0.000000
O O8 0.823141 0.906388 0.690713
O O9 0.738554 0.772288 0.753872
O O10 0.000000 0.808896 0.755480
O O11 0.744050 0.833125 0.580140
O O12 0.000000 0.881850 0.593451
O O13 0.803874 0.000000 0.586507
O O14 0.500000 0.280010 0.214902
O O15 0.691194 0.388127 0.254678
O O16 0.500000 0.409452 0.654178
O O17 0.726524 0.500000 0.651310
O O18 0.722182 0.330321 0.620867
O O19 0.332224 0.288300 0.500000
O O20 0.500000 0.234878 0.405900
#
# Coordination Sequence:
#
# PCOD8197637 Si02
#       7
#     8   8   8   8   8   8   8
#     4   9  17  28  42  62  89 120 158 204 247 286
#     4   9  18  30  43  62  90 125 160 194 238 289
#     4   9  16  28  47  69  94 124 160 203 248 287
#     4  10  20  33  51  74 101 136 174 208 246 293
#     4   9  16  29  50  71  94 124 159 198 240 287
#     4   9  17  31  54  81 103 125 159 203 250 300
#     4  10  21  36  53  75 104 134 165 205 249 291
#
# _framework density 18.240765
#
# number of rings (size 3 to 8) (size 9 to 14) (size 15 to 20)
#    0.000    2.714    1.429    0.429    0.000    3.714 
#    0.000    4.286    0.000    4.714    0.000    4.000 
#    0.000    0.000    0.000    7.143    0.000    7.429 
#
# Total GULP energy -693833.140912 kJ/mol
# GULP energy per Si atom -12389.877516 kJ/mol
# Density = 1.819925 g / cm^3
# Si number density = 18.240765 Si / 1000 Ang^3
#
#
#
# Elastic Constant Matrix: (Units=GPa)
#
#
# Indices 1 2 3 4 5 6 
#
# 1 42.4183 33.6373 23.3194 0.0000 0.0000 0.0000
# 2 33.6373 107.4800 44.2330 0.0000 0.0000 0.0000
# 3 23.3194 44.2330 107.2180 0.0000 0.0000 0.0000
# 4 0.0000 0.0000 0.0000 8.9775 0.0000 0.0000
# 5 0.0000 0.0000 0.0000 0.0000 18.3607 0.0000
# 6 0.0000 0.0000 0.0000 0.0000 0.0000 -5.3016
#
#
#
# Elastic Compliance Matrix: (Units=1/GPa)
#
#
# Indices 1 2 3 4 5 6 
#
# 1 0.032381 -0.008715 -0.003447 0.000000 0.000000 0.000000
# 2 -0.008715 0.013553 -0.003696 0.000000 0.000000 0.000000
# 3 -0.003447 -0.003696 0.011601 0.000000 0.000000 0.000000
# 4 0.000000 0.000000 0.000000 0.111389 0.000000 0.000000
# 5 0.000000 0.000000 0.000000 0.000000 0.054464 0.000000
# 6 0.000000 0.000000 0.000000 0.000000 0.000000 -0.188621
#
#
# Mechanical properties :
#
#
# Convention : Reuss Voigt Hill
#
# Bulk Modulus (GPa) = 38.73202 51.05509 44.89356
# Shear Modulus (GPa) = 66.58722 14.80242 40.69482
#
# Velocity S-wave (km/s) = 6.04846 2.85178 4.72845
# Velocity P-wave (km/s) = 8.37009 6.23649 7.38079
#
# Compressibility (1/GPa) = 0.02581843
#
# Stress axis : x y z
#
# Youngs Moduli (GPa) = 30.88229 73.78679 86.19835
#
# Poissons Ratio (x) = 0.64308 0.29714
# Poissons Ratio (y) = 0.26915 0.31855
# Poissons Ratio (z) = 0.10646 0.27268
#
# Static dielectric constant tensor:
#      x y z
#    x 3.244110 0.000000 0.000000 
#    y 0.000000 3.236320 0.000000 
#    z 0.000000 0.000000 3.664100 
# 
# 
# High freq. dielectric constant tensor:
#      x y z
#    x 1.685460 0.000000 0.000000 
#    y 0.000000 1.672460 0.000000 
#    z 0.000000 0.000000 1.723710 
# 
# From -- ./inp_files/7316.got.cif
#   From: 2010.03.12/outbox.cif.g09.slc.cpg/sg47_4_cif.got.tgz:7316.got - 2010.04.14 03:12:58.
