data_PCOD8197238
_publ_section_title
;
Structure prediction by ZEFSAII (Michael W. Deem and Ramdas Pophale) SiO2 
 PCOD8197238
Probable space group: P M M M
;
_chemical_formula_sum "Si O2"
_cell_formula_units_Z 56
_cell_length_a 20.188201
_cell_length_b 9.079525
_cell_length_c 15.334623
_cell_angle_alpha 90.000000
_cell_angle_beta 90.000000
_cell_angle_gamma 90.000000
_cell_volume 2810.825289
_symmetry_space_group_name_H-M "P M M M"
_symmetry_group_IT_number 47
_symmetry_cell_setting 'orthorhombic'
loop_
_space_group_symop_operation_xyz
x,y,z
-x,-y,z
x,-y,-z
-x,y,-z
-x,-y,-z
x,y,-z
-x,y,z
x,-y,z
loop_
_atom_site_type_symbol
_atom_site_label
_atom_site_fract_x
_atom_site_fract_y
_atom_site_fract_z
Si Si1 0.823354 0.174285 0.642908
Si Si2 0.386456 0.171684 0.101658
Si Si3 0.867839 0.329942 0.186484
Si Si4 0.426062 0.329968 0.268697
Si Si5 0.000000 0.324451 0.902418
Si Si6 0.262909 0.657663 0.900381
Si Si7 0.324806 0.173500 0.599876
Si Si8 0.075120 0.824734 0.500000
O O1 0.840813 0.231009 0.737043
O O2 0.750541 0.231114 0.614754
O O3 0.882745 0.233754 0.582062
O O4 0.822652 0.000000 0.640162
O O5 0.430312 0.260512 0.171037
O O6 0.310971 0.211486 0.130975
O O7 0.398073 0.000000 0.115654
O O8 0.402522 0.213771 0.000000
O O9 0.875222 0.500000 0.215248
O O10 0.814075 0.306065 0.110861
O O11 0.936488 0.266450 0.150059
O O12 0.500000 0.313608 0.308302
O O13 0.405622 0.500000 0.260266
O O14 0.374529 0.251900 0.333454
O O15 0.000000 0.500000 0.908133
O O16 0.000000 0.258446 0.000000
O O17 0.279400 0.500000 0.852921
O O18 0.277735 0.634714 0.000000
O O19 0.344856 0.210463 0.500000
O O20 0.329246 0.000000 0.617612
O O21 0.000000 0.758875 0.500000
O O22 0.070656 0.000000 0.500000
#
# Coordination Sequence:
#
# PCOD8197238 Si02
#       8
#     8   8   8   8   4   8   8   4
#     4  10  20  36  58  84 112 144 186 230 278 337
#     4  10  21  37  59  87 117 150 190 237 290 348
#     4  10  20  32  50  77 107 140 185 234 280 332
#     4  11  25  42  60  86 120 156 195 240 290 349
#     4   9  18  34  53  72 103 150 196 235 279 335
#     4   9  17  31  52  77 106 142 184 229 277 333
#     4  10  21  40  65  90 118 153 196 245 294 350
#     4   9  18  34  57  81 108 145 184 222 269 335
#
# _framework density 19.922974
#
# number of rings (size 3 to 8) (size 9 to 14) (size 15 to 20)
#    0.000    2.143    0.714    2.143    1.000    8.000 
#    0.000    3.214    0.000    2.143    0.000    0.000 
#    0.000    0.000    0.000    0.000    0.000    0.000 
#
# Total GULP energy -693939.951770 kJ/mol
# GULP energy per Si atom -12391.784853 kJ/mol
# Density = 1.987763 g / cm^3
# Si number density = 19.922974 Si / 1000 Ang^3
#
#
#
# Elastic Constant Matrix: (Units=GPa)
#
#
# Indices 1 2 3 4 5 6 
#
# 1 141.9083 40.8688 52.8093 0.0000 0.0000 0.0000
# 2 40.8688 48.4255 44.4942 0.0000 0.0000 0.0000
# 3 52.8093 44.4942 104.4692 0.0000 0.0000 0.0000
# 4 0.0000 0.0000 0.0000 11.1155 0.0000 0.0000
# 5 0.0000 0.0000 0.0000 0.0000 31.6474 0.0000
# 6 0.0000 0.0000 0.0000 0.0000 0.0000 24.0469
#
#
#
# Elastic Compliance Matrix: (Units=1/GPa)
#
#
# Indices 1 2 3 4 5 6 
#
# 1 0.009638 -0.006009 -0.002313 0.000000 0.000000 0.000000
# 2 -0.006009 0.037673 -0.013008 0.000000 0.000000 0.000000
# 3 -0.002313 -0.013008 0.016281 0.000000 0.000000 0.000000
# 4 0.000000 0.000000 0.000000 0.089965 0.000000 0.000000
# 5 0.000000 0.000000 0.000000 0.000000 0.031598 0.000000
# 6 0.000000 0.000000 0.000000 0.000000 0.000000 0.041585
#
#
# Mechanical properties :
#
#
# Convention : Reuss Voigt Hill
#
# Bulk Modulus (GPa) = 47.76993 63.46086 55.61539
# Shear Modulus (GPa) = 18.09116 23.80401 20.94759
#
# Velocity S-wave (km/s) = 3.01666 3.46034 3.24609
# Velocity P-wave (km/s) = 6.01357 6.92008 6.48269
#
# Compressibility (1/GPa) = 0.02093367
#
# Stress axis : x y z
#
# Youngs Moduli (GPa) = 103.75562 26.54394 61.41982
#
# Poissons Ratio (x) = 0.15950 0.14205
# Poissons Ratio (y) = 0.62347 0.79894
# Poissons Ratio (z) = 0.23996 0.34528
#
# Static dielectric constant tensor:
#      x y z
#    x 3.856580 0.000000 0.000000 
#    y 0.000000 3.495870 0.000000 
#    z 0.000000 0.000000 3.878130 
# 
# 
# High freq. dielectric constant tensor:
#      x y z
#    x 1.789400 0.000000 0.000000 
#    y 0.000000 1.752000 0.000000 
#    z 0.000000 0.000000 1.776940 
# 
# From -- ./inp_files/25239.got.cif
#   From: 2010.03.12/outbox.cif.g09.slc.cpg/sg47_13_cif.got.tgz:25239.got - 2010.04.14 03:12:58.
