data_PCOD8197814
_publ_section_title
;
Structure prediction by ZEFSAII (Michael W. Deem and Ramdas Pophale) SiO2 
 PCOD8197814
Probable space group: P M M M
;
_chemical_formula_sum "Si O2"
_cell_formula_units_Z 48
_cell_length_a 9.497290
_cell_length_b 7.776661
_cell_length_c 34.111884
_cell_angle_alpha 90.000000
_cell_angle_beta 90.000000
_cell_angle_gamma 90.000000
_cell_volume 2519.408401
_symmetry_space_group_name_H-M "P M M M"
_symmetry_group_IT_number 47
_symmetry_cell_setting 'orthorhombic'
loop_
_space_group_symop_operation_xyz
x,y,z
-x,-y,z
x,-y,-z
-x,y,-z
-x,-y,-z
x,y,-z
-x,y,z
x,-y,z
loop_
_atom_site_type_symbol
_atom_site_label
_atom_site_fract_x
_atom_site_fract_y
_atom_site_fract_z
Si Si1 0.667609 0.000000 0.668190
Si Si2 0.844895 0.302273 0.114741
Si Si3 0.162196 0.200193 0.455803
Si Si4 0.657465 0.796998 0.044138
Si Si5 0.664783 0.300339 0.187589
Si Si6 0.666301 0.000000 0.244530
Si Si7 0.661534 0.308966 0.385049
O O1 0.722700 0.829808 0.645708
O O2 0.500000 0.000000 0.670668
O O3 0.733003 0.000000 0.711908
O O4 0.866198 0.500000 0.123603
O O5 0.771485 0.282726 0.072881
O O6 0.747037 0.229302 0.149424
O O7 0.000000 0.212865 0.114464
O O8 0.200037 0.257524 0.500000
O O9 0.256169 0.306801 0.425893
O O10 0.000000 0.240562 0.446928
O O11 0.194374 0.000000 0.450211
O O12 0.500000 0.731548 0.054824
O O13 0.662838 0.000000 0.047730
O O14 0.695704 0.738810 0.000000
O O15 0.500000 0.278060 0.178502
O O16 0.698955 0.500000 0.198145
O O17 0.714208 0.175584 0.222809
O O18 0.500000 0.000000 0.247818
O O19 0.500000 0.264819 0.394435
O O20 0.676631 0.500000 0.366680
#
# Coordination Sequence:
#
# PCOD8197814 Si02
#       7
#     4   8   8   8   8   4   8
#     4   9  18  34  52  76 109 135 167 218 266 310
#     4  10  21  35  51  74 105 138 169 206 254 306
#     4   9  18  33  53  76 103 138 180 224 267 310
#     4   9  19  35  53  74 101 134 173 215 254 295
#     4   9  18  33  53  78 105 132 169 216 260 305
#     4   9  18  32  55  82 103 132 172 212 260 315
#     4  10  20  33  52  78 107 142 179 214 260 316
#
# _framework density 19.052091999999998
#
# number of rings (size 3 to 8) (size 9 to 14) (size 15 to 20)
#    0.000    2.667    0.833    1.500    1.167    3.667 
#    0.000    8.333    0.000    2.000    0.000    2.333 
#    0.000    0.000    0.000    0.000    0.000    0.000 
#
# Total GULP energy -595025.694053 kJ/mol
# GULP energy per Si atom -12396.368626 kJ/mol
# Density = 1.900873 g / cm^3
# Si number density = 19.052092 Si / 1000 Ang^3
#
#
#
# Elastic Constant Matrix: (Units=GPa)
#
#
# Indices 1 2 3 4 5 6 
#
# 1 74.8098 31.3829 58.3174 0.0000 0.0000 0.0000
# 2 31.3829 88.4923 56.0413 0.0000 0.0000 0.0000
# 3 58.3174 56.0413 148.1460 0.0000 0.0000 0.0000
# 4 0.0000 0.0000 0.0000 21.1684 0.0000 0.0000
# 5 0.0000 0.0000 0.0000 0.0000 5.0014 0.0000
# 6 0.0000 0.0000 0.0000 0.0000 0.0000 15.3344
#
#
#
# Elastic Compliance Matrix: (Units=1/GPa)
#
#
# Indices 1 2 3 4 5 6 
#
# 1 0.019778 -0.002740 -0.006749 0.000000 0.000000 0.000000
# 2 -0.002740 0.015240 -0.004686 0.000000 0.000000 0.000000
# 3 -0.006749 -0.004686 0.011180 0.000000 0.000000 0.000000
# 4 0.000000 0.000000 0.000000 0.047240 0.000000 0.000000
# 5 0.000000 0.000000 0.000000 0.000000 0.199943 0.000000
# 6 0.000000 0.000000 0.000000 0.000000 0.000000 0.065213
#
#
# Mechanical properties :
#
#
# Convention : Reuss Voigt Hill
#
# Bulk Modulus (GPa) = 56.03309 66.99237 61.51273
# Shear Modulus (GPa) = 12.72609 19.34795 16.03702
#
# Velocity S-wave (km/s) = 2.58730 3.19019 2.90443
# Velocity P-wave (km/s) = 6.19676 6.98633 6.60336
#
# Compressibility (1/GPa) = 0.01784660
#
# Stress axis : x y z
#
# Youngs Moduli (GPa) = 50.56183 65.61676 89.44816
#
# Poissons Ratio (x) = 0.17978 0.60369
# Poissons Ratio (y) = 0.13853 0.41920
# Poissons Ratio (z) = 0.34124 0.30751
#
# Static dielectric constant tensor:
#      x y z
#    x 3.503720 0.000000 0.000000 
#    y 0.000000 3.470750 0.000000 
#    z 0.000000 0.000000 3.656410 
# 
# 
# High freq. dielectric constant tensor:
#      x y z
#    x 1.715970 0.000000 0.000000 
#    y 0.000000 1.741810 0.000000 
#    z 0.000000 0.000000 1.735090 
# 
# From -- ./inp_files/2608.got.cif
#   From: 2010.03.12/outbox.cif.g09.slc.cpg/sg47_2_cif.got.tgz:2608.got - 2010.04.14 03:12:58.
