data_PCOD8197672
_publ_section_title
;
Structure prediction by ZEFSAII (Michael W. Deem and Ramdas Pophale) SiO2 
 PCOD8197672
Probable space group: P M M M
;
_chemical_formula_sum "Si O2"
_cell_formula_units_Z 44
_cell_length_a 9.679226
_cell_length_b 9.140611
_cell_length_c 28.369429
_cell_angle_alpha 90.000000
_cell_angle_beta 90.000000
_cell_angle_gamma 90.000000
_cell_volume 2509.957986
_symmetry_space_group_name_H-M "P M M M"
_symmetry_group_IT_number 47
_symmetry_cell_setting 'orthorhombic'
loop_
_space_group_symop_operation_xyz
x,y,z
-x,-y,z
x,-y,-z
-x,y,-z
-x,-y,-z
x,y,-z
-x,y,z
x,-y,z
loop_
_atom_site_type_symbol
_atom_site_label
_atom_site_fract_x
_atom_site_fract_y
_atom_site_fract_z
Si Si1 0.336147 0.839973 0.500000
Si Si2 0.160098 0.828696 0.686561
Si Si3 0.839641 0.829157 0.871588
Si Si4 0.655161 0.174968 0.601049
Si Si5 0.835755 0.334893 0.220965
Si Si6 0.341274 0.332682 0.054770
O O1 0.500000 0.858513 0.500000
O O2 0.295329 0.760770 0.549603
O O3 0.265841 0.000000 0.500000
O O4 0.242548 0.767503 0.641417
O O5 0.219088 0.746666 0.732476
O O6 0.000000 0.793293 0.677922
O O7 0.185320 0.000000 0.694423
O O8 0.780926 0.747693 0.825367
O O9 0.756179 0.776038 0.916818
O O10 0.000000 0.792129 0.880004
O O11 0.815875 0.000000 0.863993
O O12 0.500000 0.228555 0.612980
O O13 0.658599 0.000000 0.598047
O O14 0.778709 0.500000 0.220542
O O15 0.000000 0.330899 0.221140
O O16 0.500000 0.300658 0.067740
O O17 0.303696 0.500000 0.067195
O O18 0.314907 0.302105 0.000000
#
# Coordination Sequence:
#
# PCOD8197672 Si02
#       6
#     4   8   8   8   8   8
#     4   7  10  18  33  53  78 109 142 172 206 255
#     4   9  16  26  41  62  87 112 140 179 225 266
#     4  10  20  33  51  76 102 126 157 199 241 280
#     4   8  13  22  37  57  82 112 143 174 212 261
#     4   9  17  30  48  67  88 119 156 188 223 273
#     4   9  19  36  55  74  99 132 166 197 232 277
#
# _framework density 17.530173999999999
#
# number of rings (size 3 to 8) (size 9 to 14) (size 15 to 20)
#    0.000    3.182    0.000    2.727    0.000    4.364 
#    0.000    4.091    0.000    6.545    0.000    0.636 
#    0.000    5.091    0.000    0.000    0.000    0.000 
#
# Total GULP energy -545336.603878 kJ/mol
# GULP energy per Si atom -12394.013725 kJ/mol
# Density = 1.749027 g / cm^3
# Si number density = 17.530174 Si / 1000 Ang^3
#
#
#
# Elastic Constant Matrix: (Units=GPa)
#
#
# Indices 1 2 3 4 5 6 
#
# 1 53.9655 32.6729 57.8848 0.0000 0.0000 0.0000
# 2 32.6729 67.3735 56.4894 0.0000 0.0000 0.0000
# 3 57.8848 56.4894 149.0252 0.0000 0.0000 0.0000
# 4 0.0000 0.0000 0.0000 9.5371 0.0000 0.0000
# 5 0.0000 0.0000 0.0000 0.0000 19.6247 0.0000
# 6 0.0000 0.0000 0.0000 0.0000 0.0000 16.7410
#
#
#
# Elastic Compliance Matrix: (Units=1/GPa)
#
#
# Indices 1 2 3 4 5 6 
#
# 1 0.034511 -0.008058 -0.010351 0.000000 0.000000 0.000000
# 2 -0.008058 0.023639 -0.005831 0.000000 0.000000 0.000000
# 3 -0.010351 -0.005831 0.012941 0.000000 0.000000 0.000000
# 4 0.000000 0.000000 0.000000 0.104854 0.000000 0.000000
# 5 0.000000 0.000000 0.000000 0.000000 0.050956 0.000000
# 6 0.000000 0.000000 0.000000 0.000000 0.000000 0.059734
#
#
# Mechanical properties :
#
#
# Convention : Reuss Voigt Hill
#
# Bulk Modulus (GPa) = 44.22267 62.71761 53.47014
# Shear Modulus (GPa) = 14.59210 17.40168 15.99689
#
# Velocity S-wave (km/s) = 2.88826 3.15408 3.02410
# Velocity P-wave (km/s) = 6.03358 7.00849 6.53923
#
# Compressibility (1/GPa) = 0.02261284
#
# Stress axis : x y z
#
# Youngs Moduli (GPa) = 28.97617 42.30273 77.27454
#
# Poissons Ratio (x) = 0.34087 0.79983
# Poissons Ratio (y) = 0.23349 0.45057
# Poissons Ratio (z) = 0.29992 0.24666
#
# Static dielectric constant tensor:
#      x y z
#    x 2.981850 0.000000 0.000000 
#    y 0.000000 2.998540 0.000000 
#    z 0.000000 0.000000 3.600830 
# 
# 
# High freq. dielectric constant tensor:
#      x y z
#    x 1.643090 0.000000 0.000000 
#    y 0.000000 1.647180 0.000000 
#    z 0.000000 0.000000 1.696720 
# 
# From -- ./inp_files/2243.got.cif
#   From: 2010.03.12/outbox.cif.g09.slc.cpg/sg47_2_cif.got.tgz:2243.got - 2010.04.14 03:12:58.
