data_PCOD8197315
_publ_section_title
;
Structure prediction by ZEFSAII (Michael W. Deem and Ramdas Pophale) SiO2 
 PCOD8197315
Probable space group: P M M M
;
_chemical_formula_sum "Si O2"
_cell_formula_units_Z 40
_cell_length_a 15.434593
_cell_length_b 9.043824
_cell_length_c 19.483448
_cell_angle_alpha 90.000000
_cell_angle_beta 90.000000
_cell_angle_gamma 90.000000
_cell_volume 2719.650524
_symmetry_space_group_name_H-M "P M M M"
_symmetry_group_IT_number 47
_symmetry_cell_setting 'orthorhombic'
loop_
_space_group_symop_operation_xyz
x,y,z
-x,-y,z
x,-y,-z
-x,y,-z
-x,-y,-z
x,y,-z
-x,y,z
x,-y,z
loop_
_atom_site_type_symbol
_atom_site_label
_atom_site_fract_x
_atom_site_fract_y
_atom_site_fract_z
Si Si1 0.663065 0.325200 0.646370
Si Si2 0.173456 0.172634 0.419261
Si Si3 0.500000 0.168133 0.581181
Si Si4 0.397072 0.832298 0.925413
Si Si5 0.402187 0.672068 0.793256
Si Si6 0.000000 0.333111 0.418638
O O1 0.662207 0.500000 0.632394
O O2 0.751507 0.254971 0.621102
O O3 0.584408 0.253362 0.605793
O O4 0.654924 0.288711 0.727049
O O5 0.187329 0.197627 0.500000
O O6 0.084067 0.244360 0.393096
O O7 0.173265 0.000000 0.400884
O O8 0.500000 0.166679 0.500000
O O9 0.500000 0.000000 0.609567
O O10 0.500000 0.820088 0.923147
O O11 0.358179 0.742929 0.861020
O O12 0.366211 0.000000 0.917471
O O13 0.364856 0.770996 0.000000
O O14 0.500000 0.731957 0.780541
O O15 0.405173 0.500000 0.806946
O O16 0.000000 0.500000 0.388499
O O17 0.000000 0.339151 0.500000
#
# Coordination Sequence:
#
# PCOD8197315 Si02
#       6
#     8   8   4   8   8   4
#     4  11  21  33  46  62  85 114 148 184 219 259
#     4  10  20  33  48  67  89 111 140 180 223 266
#     4  11  23  35  45  59  80 109 148 189 225 260
#     4   8  14  24  38  57  78 101 134 173 210 250
#     4   9  17  29  41  56  80 109 143 179 214 252
#     4   9  17  31  51  71  87 107 136 171 218 271
#
# _framework density 14.707772
#
# number of rings (size 3 to 8) (size 9 to 14) (size 15 to 20)
#    0.000    2.400    1.000    3.000    0.000    7.600 
#    0.000    2.000    0.000    0.000    0.000    0.000 
#    0.000    0.000    0.000    0.900    0.000   16.800 
#
# Total GULP energy -495858.099497 kJ/mol
# GULP energy per Si atom -12396.452487 kJ/mol
# Density = 1.467430 g / cm^3
# Si number density = 14.707772 Si / 1000 Ang^3
#
#
#
# Elastic Constant Matrix: (Units=GPa)
#
#
# Indices 1 2 3 4 5 6 
#
# 1 99.0550 52.5062 46.9794 0.0000 0.0000 0.0000
# 2 52.5062 97.1160 59.0910 0.0000 0.0000 0.0000
# 3 46.9794 59.0910 94.9904 0.0000 0.0000 0.0000
# 4 0.0000 0.0000 0.0000 26.6722 0.0000 0.0000
# 5 0.0000 0.0000 0.0000 0.0000 -0.1066 0.0000
# 6 0.0000 0.0000 0.0000 0.0000 0.0000 23.3955
#
#
#
# Elastic Compliance Matrix: (Units=1/GPa)
#
#
# Indices 1 2 3 4 5 6 
#
# 1 0.014961 -0.005771 -0.003809 0.000000 0.000000 0.000000
# 2 -0.005771 0.018794 -0.008837 0.000000 0.000000 0.000000
# 3 -0.003809 -0.008837 0.017909 0.000000 0.000000 0.000000
# 4 0.000000 0.000000 0.000000 0.037492 0.000000 0.000000
# 5 0.000000 0.000000 0.000000 0.000000 -9.379942 0.000000
# 6 0.000000 0.000000 0.000000 0.000000 0.000000 0.042743
#
#
# Mechanical properties :
#
#
# Convention : Reuss Voigt Hill
#
# Bulk Modulus (GPa) = 67.43549 67.59051 67.51300
# Shear Modulus (GPa) = -0.54311 18.83120 9.14405
#
# Velocity S-wave (km/s) = -0.60833 3.58209 2.49613
# Velocity P-wave (km/s) = 6.74213 7.94757 7.36954
#
# Compressibility (1/GPa) = 0.01482899
#
# Stress axis : x y z
#
# Youngs Moduli (GPa) = 66.84002 53.20809 55.83860
#
# Poissons Ratio (x) = 0.30706 0.21271
# Poissons Ratio (y) = 0.38573 0.49346
# Poissons Ratio (z) = 0.25462 0.47021
#
# Static dielectric constant tensor:
#      x y z
#    x 2.547870 0.000000 0.000000 
#    y 0.000000 3.047070 0.000000 
#    z 0.000000 0.000000 3.069310 
# 
# 
# High freq. dielectric constant tensor:
#      x y z
#    x 1.523160 0.000000 0.000000 
#    y 0.000000 1.577330 0.000000 
#    z 0.000000 0.000000 1.553410 
# 
# From -- ./inp_files/24855.got.cif
#   From: 2010.03.12/outbox.cif.g09.slc.cpg/sg47_13_cif.got.tgz:24855.got - 2010.04.14 03:12:58.
