data_PCOD8197565
_publ_section_title
;
Structure prediction by ZEFSAII (Michael W. Deem and Ramdas Pophale) SiO2 
 PCOD8197565
Probable space group: P M M M
;
_chemical_formula_sum "Si O2"
_cell_formula_units_Z 44
_cell_length_a 9.195684
_cell_length_b 28.586007
_cell_length_c 9.055645
_cell_angle_alpha 90.000000
_cell_angle_beta 90.000000
_cell_angle_gamma 90.000000
_cell_volume 2380.438268
_symmetry_space_group_name_H-M "P M M M"
_symmetry_group_IT_number 47
_symmetry_cell_setting 'orthorhombic'
loop_
_space_group_symop_operation_xyz
x,y,z
-x,-y,z
x,-y,-z
-x,y,-z
-x,-y,-z
x,y,-z
-x,y,z
x,-y,z
loop_
_atom_site_type_symbol
_atom_site_label
_atom_site_fract_x
_atom_site_fract_y
_atom_site_fract_z
Si Si1 0.664986 0.000000 0.323763
Si Si2 0.164534 0.909654 0.324390
Si Si3 0.170039 0.359687 0.331002
Si Si4 0.664255 0.551062 0.675513
Si Si5 0.833164 0.265628 0.825846
Si Si6 0.669842 0.817400 0.672247
O O1 0.748934 0.045494 0.262501
O O2 0.500000 0.000000 0.263301
O O3 0.663784 0.000000 0.500000
O O4 0.162517 0.911457 0.500000
O O5 0.246766 0.863299 0.269629
O O6 0.000000 0.909822 0.261992
O O7 0.219414 0.351677 0.500000
O O8 0.241050 0.406297 0.260514
O O9 0.221288 0.315053 0.237756
O O10 0.000000 0.367263 0.318810
O O11 0.672734 0.551964 0.500000
O O12 0.500000 0.558345 0.729961
O O13 0.721313 0.500000 0.731068
O O14 0.728952 0.226314 0.761841
O O15 0.000000 0.255785 0.777770
O O16 0.816925 0.266893 0.000000
O O17 0.700481 0.808874 0.500000
O O18 0.500000 0.824249 0.704073
#
# Coordination Sequence:
#
# PCOD8197565 Si02
#       6
#     4   8   8   8   8   8
#     4   9  15  23  37  61  96 131 160 195 240 287
#     4   9  16  26  42  65  94 128 163 198 239 288
#     4   9  17  29  47  71  96 122 155 196 239 283
#     4   8  14  25  42  66  95 123 151 187 232 280
#     4  10  21  36  52  70  95 128 164 202 246 295
#     4  10  20  33  50  73  99 127 162 204 248 292
#
# _framework density 18.483993000000002
#
# number of rings (size 3 to 8) (size 9 to 14) (size 15 to 20)
#    0.000    2.818    0.000    2.455    0.000    6.545 
#    0.000    3.636    0.000    0.545    0.000    4.455 
#    0.000    5.091    0.000    0.000    0.000    0.000 
#
# Total GULP energy -545511.395082 kJ/mol
# GULP energy per Si atom -12397.986252 kJ/mol
# Density = 1.844192 g / cm^3
# Si number density = 18.483993 Si / 1000 Ang^3
#
#
#
# Elastic Constant Matrix: (Units=GPa)
#
#
# Indices 1 2 3 4 5 6 
#
# 1 113.3523 89.5071 28.5225 0.0000 0.0000 0.0000
# 2 89.5071 191.7469 37.0496 0.0000 0.0000 0.0000
# 3 28.5225 37.0496 31.0451 0.0000 0.0000 0.0000
# 4 0.0000 0.0000 0.0000 -2.4175 0.0000 0.0000
# 5 0.0000 0.0000 0.0000 0.0000 14.0161 0.0000
# 6 0.0000 0.0000 0.0000 0.0000 0.0000 39.8785
#
#
#
# Elastic Compliance Matrix: (Units=1/GPa)
#
#
# Indices 1 2 3 4 5 6 
#
# 1 0.015085 -0.005671 -0.007091 0.000000 0.000000 0.000000
# 2 -0.005671 0.008911 -0.005423 0.000000 0.000000 0.000000
# 3 -0.007091 -0.005423 0.045198 0.000000 0.000000 0.000000
# 4 0.000000 0.000000 0.000000 -0.413657 0.000000 0.000000
# 5 0.000000 0.000000 0.000000 0.000000 0.071347 0.000000
# 6 0.000000 0.000000 0.000000 0.000000 0.000000 0.025076
#
#
# Mechanical properties :
#
#
# Convention : Reuss Voigt Hill
#
# Bulk Modulus (GPa) = 30.46699 71.81143 51.13921
# Shear Modulus (GPa) = -24.90912 22.36643 -1.27135
#
# Velocity S-wave (km/s) = -3.67496 3.48234 -0.83024
# Velocity P-wave (km/s) = 1.21999 7.42320 5.17762
#
# Compressibility (1/GPa) = 0.03282241
#
# Stress axis : x y z
#
# Youngs Moduli (GPa) = 66.29294 112.22690 22.12491
#
# Poissons Ratio (x) = 0.63648 0.15688
# Poissons Ratio (y) = 0.37597 0.11999
# Poissons Ratio (z) = 0.47005 0.60865
#
# Static dielectric constant tensor:
#      x y z
#    x 3.499660 0.000000 0.000000 
#    y 0.000000 3.777020 0.000000 
#    z 0.000000 0.000000 2.859670 
# 
# 
# High freq. dielectric constant tensor:
#      x y z
#    x 1.719870 0.000000 0.000000 
#    y 0.000000 1.737300 0.000000 
#    z 0.000000 0.000000 1.656080 
# 
# From -- ./inp_files/1965.got.cif
#   From: 2010.03.12/outbox.cif.g09.slc.cpg/sg47_1_cif.got.tgz:1965.got - 2010.04.14 03:12:58.
