data_PCOD8197865
_publ_section_title
;
Structure prediction by ZEFSAII (Michael W. Deem and Ramdas Pophale) SiO2 
 PCOD8197865
Probable space group: P M M M
;
_chemical_formula_sum "Si O2"
_cell_formula_units_Z 48
_cell_length_a 8.992971
_cell_length_b 8.930939
_cell_length_c 31.020671
_cell_angle_alpha 90.000000
_cell_angle_beta 90.000000
_cell_angle_gamma 90.000000
_cell_volume 2491.446144
_symmetry_space_group_name_H-M "P M M M"
_symmetry_group_IT_number 47
_symmetry_cell_setting 'orthorhombic'
loop_
_space_group_symop_operation_xyz
x,y,z
-x,-y,z
x,-y,-z
-x,y,-z
-x,-y,-z
x,y,-z
-x,y,z
x,-y,z
loop_
_atom_site_type_symbol
_atom_site_label
_atom_site_fract_x
_atom_site_fract_y
_atom_site_fract_z
Si Si1 0.325962 0.673145 0.789530
Si Si2 0.823585 0.829671 0.131651
Si Si3 0.171862 0.824945 0.709891
Si Si4 0.166901 0.677914 0.547407
Si Si5 0.823409 0.667995 0.952656
Si Si6 0.331805 0.322015 0.369058
O O1 0.500000 0.702440 0.793501
O O2 0.289716 0.500000 0.780702
O O3 0.249465 0.722181 0.833570
O O4 0.264594 0.770205 0.750503
O O5 0.765180 0.779011 0.084486
O O6 0.000000 0.813445 0.135402
O O7 0.772994 0.000000 0.139496
O O8 0.225559 0.743247 0.667121
O O9 0.000000 0.786071 0.717777
O O10 0.198192 0.000000 0.704067
O O11 0.220701 0.733746 0.500000
O O12 0.166534 0.500000 0.548069
O O13 0.276493 0.738644 0.584442
O O14 0.000000 0.737007 0.556452
O O15 0.764735 0.500000 0.943398
O O16 0.000000 0.667272 0.952521
O O17 0.766796 0.721943 0.000000
O O18 0.500000 0.266073 0.361866
O O19 0.322580 0.500000 0.366710
#
# Coordination Sequence:
#
# PCOD8197865 Si02
#       6
#     8   8   8   8   8   8
#     4  11  24  40  58  80 105 135 173 215 261 314
#     4  10  20  33  52  80 111 142 177 216 261 314
#     4  11  24  40  58  80 105 135 173 215 261 314
#     4   8  14  26  46  73 105 141 180 221 264 308
#     4   8  14  26  46  73 105 141 180 221 264 308
#     4  10  20  33  52  80 111 142 177 216 261 314
#
# _framework density 19.265919
#
# number of rings (size 3 to 8) (size 9 to 14) (size 15 to 20)
#    0.000    2.333    0.000    4.000    0.000    9.333 
#    0.000    3.333    0.000    1.000    0.000    7.000 
#    0.000    0.000    0.000    0.000    0.000    0.000 
#
# Total GULP energy -595129.333940 kJ/mol
# GULP energy per Si atom -12398.527790 kJ/mol
# Density = 1.922207 g / cm^3
# Si number density = 19.265919 Si / 1000 Ang^3
#
#
#
# Elastic Constant Matrix: (Units=GPa)
#
#
# Indices 1 2 3 4 5 6 
#
# 1 41.3787 33.3290 29.3887 0.0000 0.0000 0.0000
# 2 33.3290 29.6025 22.1498 0.0000 0.0000 0.0000
# 3 29.3887 22.1498 129.7126 0.0000 0.0000 0.0000
# 4 0.0000 0.0000 0.0000 -17.0260 0.0000 0.0000
# 5 0.0000 0.0000 0.0000 0.0000 -20.9970 0.0000
# 6 0.0000 0.0000 0.0000 0.0000 0.0000 20.6496
#
#
#
# Elastic Compliance Matrix: (Units=1/GPa)
#
#
# Indices 1 2 3 4 5 6 
#
# 1 0.271803 -0.298019 -0.010692 0.000000 0.000000 0.000000
# 2 -0.298019 0.365491 0.005110 0.000000 0.000000 0.000000
# 3 -0.010692 0.005110 0.009259 0.000000 0.000000 0.000000
# 4 0.000000 0.000000 0.000000 -0.058734 0.000000 0.000000
# 5 0.000000 0.000000 0.000000 0.000000 -0.047626 0.000000
# 6 0.000000 0.000000 0.000000 0.000000 0.000000 0.048427
#
#
# Mechanical properties :
#
#
# Convention : Reuss Voigt Hill
#
# Bulk Modulus (GPa) = 25.41130 41.15875 33.28502
# Shear Modulus (GPa) = 4.13585 4.24707 4.19146
#
# Velocity S-wave (km/s) = 1.46676 1.48635 1.47659
# Velocity P-wave (km/s) = 4.01085 4.93513 4.49680
#
# Compressibility (1/GPa) = 0.03935258
#
# Stress axis : x y z
#
# Youngs Moduli (GPa) = 3.67913 2.73604 107.99997
#
# Poissons Ratio (x) = 0.81539 1.15474
# Poissons Ratio (y) = 1.09645 -0.55186
# Poissons Ratio (z) = 0.03934 -0.01398
#
# Static dielectric constant tensor:
#      x y z
#    x 3.436220 0.000000 0.000000 
#    y 0.000000 3.397860 0.000000 
#    z 0.000000 0.000000 4.056670 
# 
# 
# High freq. dielectric constant tensor:
#      x y z
#    x 1.731350 0.000000 0.000000 
#    y 0.000000 1.730320 0.000000 
#    z 0.000000 0.000000 1.770890 
# 
# From -- ./inp_files/2474.got.cif
#   From: 2010.03.12/outbox.cif.g09.slc.cpg/sg47_2_cif.got.tgz:2474.got - 2010.04.14 03:12:58.
