data_PCOD8197381
_publ_section_title
;
Structure prediction by ZEFSAII (Michael W. Deem and Ramdas Pophale) SiO2 
 PCOD8197381
Probable space group: P M M M
;
_chemical_formula_sum "Si O2"
_cell_formula_units_Z 36
_cell_length_a 16.260269
_cell_length_b 13.666070
_cell_length_c 8.782954
_cell_angle_alpha 90.000000
_cell_angle_beta 90.000000
_cell_angle_gamma 90.000000
_cell_volume 1951.695115
_symmetry_space_group_name_H-M "P M M M"
_symmetry_group_IT_number 47
_symmetry_cell_setting 'orthorhombic'
loop_
_space_group_symop_operation_xyz
x,y,z
-x,-y,z
x,-y,-z
-x,y,-z
-x,-y,-z
x,y,-z
-x,y,z
x,-y,z
loop_
_atom_site_type_symbol
_atom_site_label
_atom_site_fract_x
_atom_site_fract_y
_atom_site_fract_z
Si Si1 0.660390 0.201992 0.820504
Si Si2 0.500000 0.111344 0.320007
Si Si3 0.248687 0.392705 0.180004
Si Si4 0.092257 0.276861 0.177738
Si Si5 0.185035 0.111327 0.674808
O O1 0.578763 0.169999 0.735916
O O2 0.683930 0.312706 0.767322
O O3 0.734247 0.130202 0.775754
O O4 0.645765 0.196125 0.000000
O O5 0.500000 0.109072 0.500000
O O6 0.500000 0.000000 0.255899
O O7 0.267609 0.500000 0.251680
O O8 0.157176 0.359314 0.231461
O O9 0.250894 0.400408 0.000000
O O10 0.109221 0.177248 0.269275
O O11 0.000000 0.313744 0.213371
O O12 0.104265 0.253697 0.000000
O O13 0.206525 0.134979 0.500000
O O14 0.157135 0.000000 0.696161
#
# Coordination Sequence:
#
# PCOD8197381 Si02
#       5
#     8   4   8   8   8
#     4  10  20  34  54  79 103 129 165 207 248 290
#     4  11  23  37  54  77 106 138 167 197 240 293
#     4   8  15  30  52  76 101 129 163 205 251 296
#     4   9  18  31  48  73 101 129 167 213 254 293
#     4  10  20  33  49  69  97 135 172 205 249 304
#
# _framework density 18.445502999999999
#
# number of rings (size 3 to 8) (size 9 to 14) (size 15 to 20)
#    0.000    2.556    0.000    3.667    0.000    6.667 
#    0.000    5.000    0.000   20.000    0.000    6.222 
#    0.000    0.000    0.000    0.000    0.000    0.000 
#
# Total GULP energy -446301.365987 kJ/mol
# GULP energy per Si atom -12397.260166 kJ/mol
# Density = 1.840352 g / cm^3
# Si number density = 18.445503 Si / 1000 Ang^3
#
#
#
# Elastic Constant Matrix: (Units=GPa)
#
#
# Indices 1 2 3 4 5 6 
#
# 1 118.0579 60.9801 21.7117 0.0000 0.0000 0.0000
# 2 60.9801 148.8803 34.3488 0.0000 0.0000 0.0000
# 3 21.7117 34.3488 45.2340 0.0000 0.0000 0.0000
# 4 0.0000 0.0000 0.0000 7.5926 0.0000 0.0000
# 5 0.0000 0.0000 0.0000 0.0000 13.5465 0.0000
# 6 0.0000 0.0000 0.0000 0.0000 0.0000 12.4659
#
#
#
# Elastic Compliance Matrix: (Units=1/GPa)
#
#
# Indices 1 2 3 4 5 6 
#
# 1 0.010927 -0.003959 -0.002238 0.000000 0.000000 0.000000
# 2 -0.003959 0.009578 -0.005373 0.000000 0.000000 0.000000
# 3 -0.002238 -0.005373 0.027262 0.000000 0.000000 0.000000
# 4 0.000000 0.000000 0.000000 0.131707 0.000000 0.000000
# 5 0.000000 0.000000 0.000000 0.000000 0.073820 0.000000
# 6 0.000000 0.000000 0.000000 0.000000 0.000000 0.080219
#
#
# Mechanical properties :
#
#
# Convention : Reuss Voigt Hill
#
# Bulk Modulus (GPa) = 40.60768 60.69483 50.65125
# Shear Modulus (GPa) = 13.70383 19.72977 16.71680
#
# Velocity S-wave (km/s) = 2.72864 3.27406 3.01372
# Velocity P-wave (km/s) = 5.65598 6.87525 6.29520
#
# Compressibility (1/GPa) = 0.02462589
#
# Stress axis : x y z
#
# Youngs Moduli (GPa) = 91.51540 104.40531 36.68165
#
# Poissons Ratio (x) = 0.41336 0.08211
# Poissons Ratio (y) = 0.36233 0.19708
# Poissons Ratio (z) = 0.20485 0.56095
#
# Static dielectric constant tensor:
#      x y z
#    x 3.427200 0.000000 0.000000 
#    y 0.000000 3.765660 0.000000 
#    z 0.000000 0.000000 3.281490 
# 
# 
# High freq. dielectric constant tensor:
#      x y z
#    x 1.708970 0.000000 0.000000 
#    y 0.000000 1.716420 0.000000 
#    z 0.000000 0.000000 1.700090 
# 
# From -- ./inp_files/5503.got.cif
#   From: 2010.03.12/outbox.cif.g09.slc.cpg/sg47_3_cif.got.tgz:5503.got - 2010.04.14 03:12:58.
