data_PCOD8197966
_publ_section_title
;
Structure prediction by ZEFSAII (Michael W. Deem and Ramdas Pophale) SiO2 
 PCOD8197966
Probable space group: P M M M
;
_chemical_formula_sum "Si O2"
_cell_formula_units_Z 44
_cell_length_a 17.624783
_cell_length_b 8.756919
_cell_length_c 15.169791
_cell_angle_alpha 90.000000
_cell_angle_beta 90.000000
_cell_angle_gamma 90.000000
_cell_volume 2341.287296
_symmetry_space_group_name_H-M "P M M M"
_symmetry_group_IT_number 47
_symmetry_cell_setting 'orthorhombic'
loop_
_space_group_symop_operation_xyz
x,y,z
-x,-y,z
x,-y,-z
-x,y,-z
-x,-y,-z
x,y,-z
-x,y,z
x,-y,z
loop_
_atom_site_type_symbol
_atom_site_label
_atom_site_fract_x
_atom_site_fract_y
_atom_site_fract_z
Si Si1 0.918017 0.176919 0.000000
Si Si2 0.589001 0.676341 0.900187
Si Si3 0.149316 0.673032 0.835960
Si Si4 0.917737 0.324542 0.347613
Si Si5 0.700799 0.820393 0.232900
Si Si6 0.754801 0.320748 0.400536
O O1 0.871426 0.217717 0.914555
O O2 0.000000 0.260935 0.000000
O O3 0.931304 0.000000 0.000000
O O4 0.500000 0.703893 0.891270
O O5 0.609490 0.500000 0.882993
O O6 0.627009 0.780401 0.824823
O O7 0.615161 0.722160 0.000000
O O8 0.151746 0.500000 0.870050
O O9 0.089009 0.692672 0.757639
O O10 0.231910 0.720714 0.805633
O O11 0.920885 0.500000 0.376150
O O12 0.841747 0.254118 0.392323
O O13 0.000000 0.249505 0.375291
O O14 0.696433 0.768878 0.336055
O O15 0.716359 0.000000 0.227532
O O16 0.726088 0.294502 0.500000
O O17 0.755081 0.500000 0.374911
#
# Coordination Sequence:
#
# PCOD8197966 Si02
#       6
#     4   8   8   8   8   8
#     4  11  23  35  47  69 102 135 172 225 285 333
#     4   9  19  37  61  87 114 144 177 212 255 314
#     4  10  20  34  51  70  96 137 186 226 261 315
#     4   8  14  26  46  72  98 124 165 223 277 318
#     4  11  22  35  54  80 112 145 177 220 272 321
#     4   9  18  33  53  77 105 140 184 229 274 328
#
# _framework density 18.793081000000001
#
# number of rings (size 3 to 8) (size 9 to 14) (size 15 to 20)
#    0.000    2.455    0.000    4.636    1.273    2.909 
#    0.000    2.727    0.000    5.455    0.000    8.909 
#    0.000    0.000    0.000    0.000    0.000    0.000 
#
# Total GULP energy -545265.093985 kJ/mol
# GULP energy per Si atom -12392.388500 kJ/mol
# Density = 1.875031 g / cm^3
# Si number density = 18.793081 Si / 1000 Ang^3
#
#
#
# Elastic Constant Matrix: (Units=GPa)
#
#
# Indices 1 2 3 4 5 6 
#
# 1 58.0954 16.5573 33.4363 0.0000 0.0000 0.0000
# 2 16.5573 56.9339 29.2617 0.0000 0.0000 0.0000
# 3 33.4363 29.2617 110.0853 0.0000 0.0000 0.0000
# 4 0.0000 0.0000 0.0000 16.3286 0.0000 0.0000
# 5 0.0000 0.0000 0.0000 0.0000 21.8699 0.0000
# 6 0.0000 0.0000 0.0000 0.0000 0.0000 17.6338
#
#
#
# Elastic Compliance Matrix: (Units=1/GPa)
#
#
# Indices 1 2 3 4 5 6 
#
# 1 0.021394 -0.003338 -0.005611 0.000000 0.000000 0.000000
# 2 -0.003338 0.020864 -0.004532 0.000000 0.000000 0.000000
# 3 -0.005611 -0.004532 0.011993 0.000000 0.000000 0.000000
# 4 0.000000 0.000000 0.000000 0.061242 0.000000 0.000000
# 5 0.000000 0.000000 0.000000 0.000000 0.045725 0.000000
# 6 0.000000 0.000000 0.000000 0.000000 0.000000 0.056709
#
#
# Mechanical properties :
#
#
# Convention : Reuss Voigt Hill
#
# Bulk Modulus (GPa) = 36.64459 42.62503 39.63481
# Shear Modulus (GPa) = 19.68625 20.89042 20.28833
#
# Velocity S-wave (km/s) = 3.24006 3.33769 3.28924
# Velocity P-wave (km/s) = 5.79126 6.13058 5.96333
#
# Compressibility (1/GPa) = 0.02728916
#
# Stress axis : x y z
#
# Youngs Moduli (GPa) = 46.74305 47.92881 83.38437
#
# Poissons Ratio (x) = 0.15998 0.46784
# Poissons Ratio (y) = 0.15603 0.37790
# Poissons Ratio (z) = 0.26226 0.21722
#
# Static dielectric constant tensor:
#      x y z
#    x 3.353570 0.000000 0.000000 
#    y 0.000000 3.202620 0.000000 
#    z 0.000000 0.000000 3.659580 
# 
# 
# High freq. dielectric constant tensor:
#      x y z
#    x 1.711830 0.000000 0.000000 
#    y 0.000000 1.703930 0.000000 
#    z 0.000000 0.000000 1.732970 
# 
# From -- ./inp_files/9020.got.cif
#   From: 2010.03.12/outbox.cif.g09.slc.cpg/sg47_5_cif.got.tgz:9020.got - 2010.04.14 03:12:58.
