data_PCOD8197379
_publ_section_title
;
Structure prediction by ZEFSAII (Michael W. Deem and Ramdas Pophale) SiO2 
 PCOD8197379
Probable space group: P M M M
;
_chemical_formula_sum "Si O2"
_cell_formula_units_Z 36
_cell_length_a 8.964868
_cell_length_b 9.215425
_cell_length_c 23.354479
_cell_angle_alpha 90.000000
_cell_angle_beta 90.000000
_cell_angle_gamma 90.000000
_cell_volume 1929.431887
_symmetry_space_group_name_H-M "P M M M"
_symmetry_group_IT_number 47
_symmetry_cell_setting 'orthorhombic'
loop_
_space_group_symop_operation_xyz
x,y,z
-x,-y,z
x,-y,-z
-x,y,-z
-x,-y,-z
x,y,-z
-x,y,z
x,-y,z
loop_
_atom_site_type_symbol
_atom_site_label
_atom_site_fract_x
_atom_site_fract_y
_atom_site_fract_z
Si Si1 0.826680 0.829867 0.717170
Si Si2 0.822565 0.162994 0.063183
Si Si3 0.177471 0.662610 0.170427
Si Si4 0.167768 0.327700 0.500000
Si Si5 0.675565 0.666830 0.614619
O O1 0.769119 0.756515 0.775572
O O2 0.730927 0.765735 0.665975
O O3 0.000000 0.794708 0.706104
O O4 0.797448 0.000000 0.722272
O O5 0.756182 0.267512 0.112193
O O6 0.000000 0.162653 0.066536
O O7 0.763372 0.000000 0.073884
O O8 0.771493 0.217396 0.000000
O O9 0.241085 0.500000 0.176393
O O10 0.000000 0.661074 0.167527
O O11 0.169473 0.500000 0.500000
O O12 0.251341 0.271362 0.556549
O O13 0.000000 0.265918 0.500000
O O14 0.500000 0.681304 0.608013
O O15 0.723058 0.500000 0.625964
#
# Coordination Sequence:
#
# PCOD8197379 Si02
#       5
#     8   8   8   4   8
#     4  10  20  33  49  69  95 129 168 208 250 297
#     4   8  13  21  33  51  80 119 158 195 240 295
#     4   9  16  25  39  60  86 118 158 204 250 295
#     4   9  17  31  54  81 106 133 164 198 238 287
#     4  10  20  34  53  77 104 132 163 201 245 292
#
# _framework density 18.658341
#
# number of rings (size 3 to 8) (size 9 to 14) (size 15 to 20)
#    0.000    2.778    0.000    3.000    0.000    7.111 
#    0.000    2.778    0.000    3.333    0.000    0.000 
#    0.000    0.889    0.000    9.333    0.000   12.889 
#
# Total GULP energy -446335.287512 kJ/mol
# GULP energy per Si atom -12398.202431 kJ/mol
# Density = 1.861587 g / cm^3
# Si number density = 18.658341 Si / 1000 Ang^3
#
#
#
# Elastic Constant Matrix: (Units=GPa)
#
#
# Indices 1 2 3 4 5 6 
#
# 1 45.1622 29.2128 40.9276 0.0000 0.0000 0.0000
# 2 29.2128 104.7664 78.2167 0.0000 0.0000 0.0000
# 3 40.9276 78.2167 184.1605 0.0000 0.0000 0.0000
# 4 0.0000 0.0000 0.0000 25.4064 0.0000 0.0000
# 5 0.0000 0.0000 0.0000 0.0000 -0.8276 0.0000
# 6 0.0000 0.0000 0.0000 0.0000 0.0000 15.2011
#
#
#
# Elastic Compliance Matrix: (Units=1/GPa)
#
#
# Indices 1 2 3 4 5 6 
#
# 1 0.029317 -0.004847 -0.004456 0.000000 0.000000 0.000000
# 2 -0.004847 0.014778 -0.005199 0.000000 0.000000 0.000000
# 3 -0.004456 -0.005199 0.008629 0.000000 0.000000 0.000000
# 4 0.000000 0.000000 0.000000 0.039360 0.000000 0.000000
# 5 0.000000 0.000000 0.000000 0.000000 -1.208338 0.000000
# 6 0.000000 0.000000 0.000000 0.000000 0.000000 0.065785
#
#
# Mechanical properties :
#
#
# Convention : Reuss Voigt Hill
#
# Bulk Modulus (GPa) = 42.16365 70.08925 56.12645
# Shear Modulus (GPa) = -4.93312 20.33812 7.70250
#
# Velocity S-wave (km/s) = -1.62778 3.30514 2.03400
# Velocity P-wave (km/s) = 4.37195 7.22574 5.97182
#
# Compressibility (1/GPa) = 0.02371711
#
# Stress axis : x y z
#
# Youngs Moduli (GPa) = 34.11048 67.66590 115.89154
#
# Poissons Ratio (x) = 0.32800 0.51647
# Poissons Ratio (y) = 0.16535 0.60257
# Poissons Ratio (z) = 0.15201 0.35183
#
# Static dielectric constant tensor:
#      x y z
#    x 2.939830 0.000000 0.000000 
#    y 0.000000 3.436230 0.000000 
#    z 0.000000 0.000000 3.735150 
# 
# 
# High freq. dielectric constant tensor:
#      x y z
#    x 1.671370 0.000000 0.000000 
#    y 0.000000 1.713680 0.000000 
#    z 0.000000 0.000000 1.744540 
# 
# From -- ./inp_files/1407.got.cif
#   From: 2010.03.12/outbox.cif.g09.slc.cpg/sg47_1_cif.got.tgz:1407.got - 2010.04.14 03:12:58.
