data_PCOD8197475
_publ_section_title
;
Structure prediction by ZEFSAII (Michael W. Deem and Ramdas Pophale) SiO2 
 PCOD8197475
Probable space group: P M M M
;
_chemical_formula_sum "Si O2"
_cell_formula_units_Z 40
_cell_length_a 8.615947
_cell_length_b 18.634420
_cell_length_c 13.736930
_cell_angle_alpha 90.000000
_cell_angle_beta 90.000000
_cell_angle_gamma 90.000000
_cell_volume 2205.507728
_symmetry_space_group_name_H-M "P M M M"
_symmetry_group_IT_number 47
_symmetry_cell_setting 'orthorhombic'
loop_
_space_group_symop_operation_xyz
x,y,z
-x,-y,z
x,-y,-z
-x,y,-z
-x,-y,-z
x,y,-z
-x,y,z
x,-y,z
loop_
_atom_site_type_symbol
_atom_site_label
_atom_site_fract_x
_atom_site_fract_y
_atom_site_fract_z
Si Si1 0.818170 0.714763 0.110729
Si Si2 0.181851 0.346356 0.610756
Si Si3 0.681263 0.418484 0.789442
Si Si4 0.180600 0.081938 0.388414
Si Si5 0.319358 0.786966 0.710375
O O1 0.774870 0.633218 0.138378
O O2 0.727955 0.771577 0.178072
O O3 0.000000 0.725344 0.126708
O O4 0.768993 0.729739 0.000000
O O5 0.229912 0.361495 0.500000
O O6 0.274077 0.402386 0.677730
O O7 0.224986 0.264989 0.638398
O O8 0.000000 0.357258 0.627296
O O9 0.500000 0.404052 0.803617
O O10 0.725430 0.500000 0.815164
O O11 0.227076 0.097417 0.500000
O O12 0.280539 0.131370 0.316747
O O13 0.000000 0.098024 0.372493
O O14 0.219329 0.000000 0.361423
O O15 0.500000 0.771751 0.697221
#
# Coordination Sequence:
#
# PCOD8197475 Si02
#       5
#     8   8   8   8   8
#     4  10  21  37  57  77  96 125 167 211 253 299
#     4  10  20  33  50  71  97 133 174 211 246 290
#     4  10  21  35  51  73 101 131 162 202 254 307
#     4   9  18  33  53  77 107 143 177 206 239 283
#     4  11  21  32  51  77 105 135 165 205 254 299
#
# _framework density 18.136413999999998
#
# number of rings (size 3 to 8) (size 9 to 14) (size 15 to 20)
#    0.000    2.000    0.000    7.200    0.000    8.800 
#    0.000    5.000    0.000    0.600    0.000    4.200 
#    0.000    0.000    0.000    0.000    0.000    0.000 
#
# Total GULP energy -496100.169840 kJ/mol
# GULP energy per Si atom -12402.504246 kJ/mol
# Density = 1.809513 g / cm^3
# Si number density = 18.136414 Si / 1000 Ang^3
#
#
#
# Elastic Constant Matrix: (Units=GPa)
#
#
# Indices 1 2 3 4 5 6 
#
# 1 37.4955 19.2607 24.2057 0.0000 0.0000 0.0000
# 2 19.2607 92.9535 38.2633 0.0000 0.0000 0.0000
# 3 24.2057 38.2633 95.0221 0.0000 0.0000 0.0000
# 4 0.0000 0.0000 0.0000 17.8250 0.0000 0.0000
# 5 0.0000 0.0000 0.0000 0.0000 10.7356 0.0000
# 6 0.0000 0.0000 0.0000 0.0000 0.0000 29.0608
#
#
#
# Elastic Compliance Matrix: (Units=1/GPa)
#
#
# Indices 1 2 3 4 5 6 
#
# 1 0.033154 -0.004067 -0.006808 0.000000 0.000000 0.000000
# 2 -0.004067 0.013395 -0.004358 0.000000 0.000000 0.000000
# 3 -0.006808 -0.004358 0.014013 0.000000 0.000000 0.000000
# 4 0.000000 0.000000 0.000000 0.056101 0.000000 0.000000
# 5 0.000000 0.000000 0.000000 0.000000 0.093148 0.000000
# 6 0.000000 0.000000 0.000000 0.000000 0.000000 0.034411
#
#
# Mechanical properties :
#
#
# Convention : Reuss Voigt Hill
#
# Bulk Modulus (GPa) = 33.22709 43.21449 38.22079
# Shear Modulus (GPa) = 17.56119 21.10703 19.33411
#
# Velocity S-wave (km/s) = 3.11510 3.41514 3.26857
# Velocity P-wave (km/s) = 5.59454 6.27934 5.94681
#
# Compressibility (1/GPa) = 0.03009592
#
# Stress axis : x y z
#
# Youngs Moduli (GPa) = 30.16225 74.65678 71.36364
#
# Poissons Ratio (x) = 0.30366 0.48582
# Poissons Ratio (y) = 0.12268 0.31097
# Poissons Ratio (z) = 0.20534 0.32532
#
# Static dielectric constant tensor:
#      x y z
#    x 3.343440 0.000000 0.000000 
#    y 0.000000 3.257760 0.000000 
#    z 0.000000 0.000000 3.330940 
# 
# 
# High freq. dielectric constant tensor:
#      x y z
#    x 1.712360 0.000000 0.000000 
#    y 0.000000 1.693040 0.000000 
#    z 0.000000 0.000000 1.693870 
# 
# From -- ./inp_files/8850.got.cif
#   From: 2010.03.12/outbox.cif.g09.slc.cpg/sg47_5_cif.got.tgz:8850.got - 2010.04.14 03:12:58.
