data_PCOD8197021
_publ_section_title
;
Structure prediction by ZEFSAII (Michael W. Deem and Ramdas Pophale) SiO2 
 PCOD8197021
Probable space group: P M M M
;
_chemical_formula_sum "Si O2"
_cell_formula_units_Z 48
_cell_length_a 30.889821
_cell_length_b 9.424760
_cell_length_c 8.781164
_cell_angle_alpha 90.000000
_cell_angle_beta 90.000000
_cell_angle_gamma 90.000000
_cell_volume 2556.452806
_symmetry_space_group_name_H-M "P M M M"
_symmetry_group_IT_number 47
_symmetry_cell_setting 'orthorhombic'
loop_
_space_group_symop_operation_xyz
x,y,z
-x,-y,z
x,-y,-z
-x,y,-z
-x,-y,-z
x,y,-z
-x,y,z
x,-y,z
loop_
_atom_site_type_symbol
_atom_site_label
_atom_site_fract_x
_atom_site_fract_y
_atom_site_fract_z
Si Si1 0.000000 0.659456 0.682086
Si Si2 0.256063 0.665366 0.321353
Si Si3 0.667263 0.837831 0.822265
Si Si4 0.920595 0.159490 0.318913
Si Si5 0.500000 0.662211 0.179689
Si Si6 0.174988 0.841217 0.319183
Si Si7 0.576718 0.162645 0.678861
O O1 0.042831 0.736429 0.747827
O O2 0.000000 0.500000 0.744525
O O3 0.000000 0.662954 0.500000
O O4 0.262476 0.695230 0.500000
O O5 0.254670 0.500000 0.284212
O O6 0.294937 0.734820 0.229877
O O7 0.211311 0.732992 0.259310
O O8 0.624285 0.792398 0.732789
O O9 0.680019 0.000000 0.783110
O O10 0.658401 0.817895 0.000000
O O11 0.921898 0.163833 0.500000
O O12 0.872738 0.206970 0.261379
O O13 0.930475 0.000000 0.262457
O O14 0.500000 0.500000 0.235808
O O15 0.542652 0.737023 0.240756
O O16 0.500000 0.672882 0.000000
O O17 0.174799 0.842005 0.500000
O O18 0.185447 0.000000 0.259187
O O19 0.573116 0.184914 0.500000
O O20 0.567021 0.000000 0.724824
#
# Coordination Sequence:
#
# PCOD8197021 Si02
#       7
#     4   8   8   8   4   8   8
#     4   9  15  19  25  41  67 101 140 183 232 285
#     4  10  20  32  48  72 100 130 163 201 249 303
#     4  10  21  37  57  79 102 132 170 210 253 300
#     4   8  13  21  32  46  67 100 143 188 233 282
#     4  11  24  39  56  82 116 151 182 213 254 302
#     4   8  14  25  41  59  80 111 153 199 243 288
#     4  10  21  38  61  86 109 137 176 219 260 302
#
# _framework density 18.776015999999998
#
# number of rings (size 3 to 8) (size 9 to 14) (size 15 to 20)
#    0.000    2.667    0.000    3.250    0.000    7.000 
#    0.000    3.333    0.000    0.000    0.000    0.000 
#    0.000    0.000    0.000    0.750    0.000   15.333 
#
# Total GULP energy -595120.402000 kJ/mol
# GULP energy per Si atom -12398.341708 kJ/mol
# Density = 1.873328 g / cm^3
# Si number density = 18.776016 Si / 1000 Ang^3
#
#
#
# Elastic Constant Matrix: (Units=GPa)
#
#
# Indices 1 2 3 4 5 6 
#
# 1 152.2044 91.5943 22.0135 0.0000 0.0000 0.0000
# 2 91.5943 125.2258 26.0531 0.0000 0.0000 0.0000
# 3 22.0135 26.0531 27.3454 0.0000 0.0000 0.0000
# 4 0.0000 0.0000 0.0000 18.9900 0.0000 0.0000
# 5 0.0000 0.0000 0.0000 0.0000 -19.8179 0.0000
# 6 0.0000 0.0000 0.0000 0.0000 0.0000 -93.9919
#
#
#
# Elastic Compliance Matrix: (Units=1/GPa)
#
#
# Indices 1 2 3 4 5 6 
#
# 1 0.011791 -0.008293 -0.001590 0.000000 0.000000 0.000000
# 2 -0.008293 0.015793 -0.008370 0.000000 0.000000 0.000000
# 3 -0.001590 -0.008370 0.045824 0.000000 0.000000 0.000000
# 4 0.000000 0.000000 0.000000 0.052659 0.000000 0.000000
# 5 0.000000 0.000000 0.000000 0.000000 -0.050459 0.000000
# 6 0.000000 0.000000 0.000000 0.000000 0.000000 -0.010639
#
#
# Mechanical properties :
#
#
# Convention : Reuss Voigt Hill
#
# Bulk Modulus (GPa) = 27.10032 64.89970 46.00001
# Shear Modulus (GPa) = 43.94523 -7.95633 17.99445
#
# Velocity S-wave (km/s) = 4.84312 -2.06075 3.09912
# Velocity P-wave (km/s) = 6.76308 5.38312 6.11217
#
# Compressibility (1/GPa) = 0.03689994
#
# Stress axis : x y z
#
# Youngs Moduli (GPa) = 84.81036 63.31864 21.82244
#
# Poissons Ratio (x) = 0.52513 0.03471
# Poissons Ratio (y) = 0.70337 0.18266
# Poissons Ratio (z) = 0.13488 0.53000
#
# Static dielectric constant tensor:
#      x y z
#    x 3.793660 0.000000 0.000000 
#    y 0.000000 3.549440 0.000000 
#    z 0.000000 0.000000 3.012500 
# 
# 
# High freq. dielectric constant tensor:
#      x y z
#    x 1.747160 0.000000 0.000000 
#    y 0.000000 1.727200 0.000000 
#    z 0.000000 0.000000 1.684280 
# 
# From -- ./inp_files/13881.got.cif
#   From: 2010.03.12/outbox.cif.g09.slc.cpg/sg47_7_cif.got.tgz:13881.got - 2010.04.14 03:12:58.
