data_PCOD8197276
_publ_section_title
;
Structure prediction by ZEFSAII (Michael W. Deem and Ramdas Pophale) SiO2 
 PCOD8197276
Probable space group: P M M M
;
_chemical_formula_sum "Si O2"
_cell_formula_units_Z 48
_cell_length_a 8.815671
_cell_length_b 16.436548
_cell_length_c 22.105339
_cell_angle_alpha 90.000000
_cell_angle_beta 90.000000
_cell_angle_gamma 90.000000
_cell_volume 3203.045927
_symmetry_space_group_name_H-M "P M M M"
_symmetry_group_IT_number 47
_symmetry_cell_setting 'orthorhombic'
loop_
_space_group_symop_operation_xyz
x,y,z
-x,-y,z
x,-y,-z
-x,y,-z
-x,-y,-z
x,y,-z
-x,y,z
x,-y,z
loop_
_atom_site_type_symbol
_atom_site_label
_atom_site_fract_x
_atom_site_fract_y
_atom_site_fract_z
Si Si1 0.820975 0.406214 0.755465
Si Si2 0.668807 0.595699 0.119601
Si Si3 0.165891 0.594523 0.434315
Si Si4 0.170981 0.597248 0.000000
Si Si5 0.669332 0.000000 0.428552
Si Si6 0.820457 0.833781 0.430277
Si Si7 0.674649 0.304028 0.652203
O O1 0.769963 0.500000 0.739241
O O2 0.772725 0.383188 0.823166
O O3 0.745551 0.335782 0.714781
O O4 0.000000 0.399667 0.749200
O O5 0.500000 0.632717 0.128073
O O6 0.656428 0.500000 0.111443
O O7 0.745010 0.632522 0.059313
O O8 0.180147 0.637012 0.500000
O O9 0.174634 0.500000 0.443051
O O10 0.305607 0.620146 0.392918
O O11 0.000000 0.618878 0.406332
O O12 0.171170 0.500000 0.000000
O O13 0.000000 0.630561 0.000000
O O14 0.758167 0.079909 0.406881
O O15 0.500000 0.000000 0.400565
O O16 0.660512 0.000000 0.500000
O O17 0.766734 0.815756 0.500000
O O18 0.761127 0.769375 0.381018
O O19 0.000000 0.835574 0.427702
O O20 0.500000 0.281218 0.661967
#
# Coordination Sequence:
#
# PCOD8197276 Si02
#       7
#     8   8   8   4   4   8   8
#     4  10  20  33  46  58  77 109 146 180 215 257
#     4   9  16  26  40  58  79 102 132 173 216 251
#     4   9  18  32  46  57  72  98 132 169 209 251
#     4   9  15  23  37  57  79 103 133 168 207 250
#     4   9  17  31  51  73  93 107 123 156 203 250
#     4  10  20  34  51  68  86 109 136 165 202 252
#     4  12  23  31  42  61  83 106 135 172 211 248
#
# _framework density 14.985735999999999
#
# number of rings (size 3 to 8) (size 9 to 14) (size 15 to 20)
#    0.000    2.167    0.000    5.000    0.000   10.667 
#    0.000    0.833    0.000    0.000    0.000    0.000 
#    0.000    0.000    0.000    0.000    0.000    0.833 
#
# Total GULP energy -594742.100750 kJ/mol
# GULP energy per Si atom -12390.460432 kJ/mol
# Density = 1.495163 g / cm^3
# Si number density = 14.985736 Si / 1000 Ang^3
#
#
#
# Elastic Constant Matrix: (Units=GPa)
#
#
# Indices 1 2 3 4 5 6 
#
# 1 88.0768 27.3305 36.1808 0.0000 0.0000 0.0000
# 2 27.3305 54.6782 36.3671 0.0000 0.0000 0.0000
# 3 36.1808 36.3671 94.3010 0.0000 0.0000 0.0000
# 4 0.0000 0.0000 0.0000 8.0349 0.0000 0.0000
# 5 0.0000 0.0000 0.0000 0.0000 19.4539 0.0000
# 6 0.0000 0.0000 0.0000 0.0000 0.0000 19.8452
#
#
#
# Elastic Compliance Matrix: (Units=1/GPa)
#
#
# Indices 1 2 3 4 5 6 
#
# 1 0.014328 -0.004715 -0.003679 0.000000 0.000000 0.000000
# 2 -0.004715 0.026150 -0.008276 0.000000 0.000000 0.000000
# 3 -0.003679 -0.008276 0.015207 0.000000 0.000000 0.000000
# 4 0.000000 0.000000 0.000000 0.124457 0.000000 0.000000
# 5 0.000000 0.000000 0.000000 0.000000 0.051404 0.000000
# 6 0.000000 0.000000 0.000000 0.000000 0.000000 0.050390
#
#
# Mechanical properties :
#
#
# Convention : Reuss Voigt Hill
#
# Bulk Modulus (GPa) = 44.75041 48.53474 46.64258
# Shear Modulus (GPa) = 15.49314 18.61197 17.05256
#
# Velocity S-wave (km/s) = 3.21886 3.52800 3.37697
# Velocity P-wave (km/s) = 6.61374 7.00380 6.81156
#
# Compressibility (1/GPa) = 0.02234616
#
# Stress axis : x y z
#
# Youngs Moduli (GPa) = 69.79318 38.24127 65.75749
#
# Poissons Ratio (x) = 0.18030 0.24192
# Poissons Ratio (y) = 0.32906 0.54419
# Poissons Ratio (z) = 0.25677 0.31647
#
# Static dielectric constant tensor:
#      x y z
#    x 3.117920 0.000000 0.000000 
#    y 0.000000 2.689930 0.000000 
#    z 0.000000 0.000000 2.925970 
# 
# 
# High freq. dielectric constant tensor:
#      x y z
#    x 1.588780 0.000000 0.000000 
#    y 0.000000 1.525590 0.000000 
#    z 0.000000 0.000000 1.559860 
# 
# From -- ./inp_files/29852.got.cif
#   From: 2010.03.12/outbox.cif.g09.slc.cpg/sg47_15_cif.got.tgz:29852.got - 2010.04.14 03:12:58.
