data_PCOD8197743
_publ_section_title
;
Structure prediction by ZEFSAII (Michael W. Deem and Ramdas Pophale) SiO2 
 PCOD8197743
Probable space group: P M M M
;
_chemical_formula_sum "Si O2"
_cell_formula_units_Z 48
_cell_length_a 9.171982
_cell_length_b 30.878941
_cell_length_c 8.943902
_cell_angle_alpha 90.000000
_cell_angle_beta 90.000000
_cell_angle_gamma 90.000000
_cell_volume 2533.101683
_symmetry_space_group_name_H-M "P M M M"
_symmetry_group_IT_number 47
_symmetry_cell_setting 'orthorhombic'
loop_
_space_group_symop_operation_xyz
x,y,z
-x,-y,z
x,-y,-z
-x,y,-z
-x,-y,-z
x,y,-z
-x,y,z
x,-y,z
loop_
_atom_site_type_symbol
_atom_site_label
_atom_site_fract_x
_atom_site_fract_y
_atom_site_fract_z
Si Si1 0.667640 0.586347 0.175446
Si Si2 0.673352 0.500000 0.331249
Si Si3 0.329015 0.843961 0.673317
Si Si4 0.169519 0.920734 0.824850
Si Si5 0.170359 0.664360 0.673439
Si Si6 0.660626 0.747355 0.677196
Si Si7 0.667598 0.000000 0.676968
O O1 0.500000 0.593446 0.222416
O O2 0.732792 0.542946 0.250145
O O3 0.758467 0.626944 0.230213
O O4 0.685013 0.580967 0.000000
O O5 0.500000 0.500000 0.323461
O O6 0.732019 0.500000 0.500000
O O7 0.287705 0.851220 0.500000
O O8 0.500000 0.853333 0.697404
O O9 0.232729 0.874629 0.776450
O O10 0.289392 0.795248 0.727509
O O11 0.000000 0.923167 0.782264
O O12 0.254640 0.957632 0.737756
O O13 0.193725 0.927466 0.000000
O O14 0.211241 0.657467 0.500000
O O15 0.228292 0.710635 0.733452
O O16 0.000000 0.663473 0.700808
O O17 0.652017 0.747700 0.500000
O O18 0.500000 0.736821 0.742585
O O19 0.500000 0.000000 0.729676
O O20 0.679384 0.000000 0.500000
#
# Coordination Sequence:
#
# PCOD8197743 Si02
#       7
#     8   4   8   8   8   8   4
#     4  10  20  34  53  77 105 137 173 213 259 313
#     4   9  17  31  54  81 104 129 166 214 264 311
#     4   9  18  34  57  84 110 138 178 224 267 315
#     4  11  24  39  55  80 114 148 181 217 261 316
#     4  10  20  33  51  77 107 139 177 219 263 313
#     4   8  15  30  53  79 106 137 176 223 268 309
#     4  11  24  41  62  86 108 135 178 227 270 316
#
# _framework density 18.949102
#
# number of rings (size 3 to 8) (size 9 to 14) (size 15 to 20)
#    0.000    2.333    0.000    3.750    0.000    9.000 
#    0.000    2.917    0.000    3.500    0.000    0.000 
#    0.000    0.000    0.000    0.000    0.000    0.000 
#
# Total GULP energy -595231.178173 kJ/mol
# GULP energy per Si atom -12400.649545 kJ/mol
# Density = 1.890597 g / cm^3
# Si number density = 18.949102 Si / 1000 Ang^3
#
#
#
# Elastic Constant Matrix: (Units=GPa)
#
#
# Indices 1 2 3 4 5 6 
#
# 1 91.2294 66.6545 44.1738 0.0000 0.0000 0.0000
# 2 66.6545 158.2752 46.5107 0.0000 0.0000 0.0000
# 3 44.1738 46.5107 60.9639 0.0000 0.0000 0.0000
# 4 0.0000 0.0000 0.0000 -8.3606 0.0000 0.0000
# 5 0.0000 0.0000 0.0000 0.0000 25.7918 0.0000
# 6 0.0000 0.0000 0.0000 0.0000 0.0000 -27.7642
#
#
#
# Elastic Compliance Matrix: (Units=1/GPa)
#
#
# Indices 1 2 3 4 5 6 
#
# 1 0.019850 -0.005327 -0.010319 0.000000 0.000000 0.000000
# 2 -0.005327 0.009574 -0.003444 0.000000 0.000000 0.000000
# 3 -0.010319 -0.003444 0.026508 0.000000 0.000000 0.000000
# 4 0.000000 0.000000 0.000000 -0.119609 0.000000 0.000000
# 5 0.000000 0.000000 0.000000 0.000000 0.038772 0.000000
# 6 0.000000 0.000000 0.000000 0.000000 0.000000 -0.036018
#
#
# Mechanical properties :
#
#
# Convention : Reuss Voigt Hill
#
# Bulk Modulus (GPa) = 56.33412 69.46072 62.89742
# Shear Modulus (GPa) = -297.14935 8.14203 -144.50366
#
# Velocity S-wave (km/s) = -12.53614 2.07512 -8.74210
# Velocity P-wave (km/s) = 13.40694 6.51748 8.28458
#
# Compressibility (1/GPa) = 0.01775123
#
# Stress axis : x y z
#
# Youngs Moduli (GPa) = 50.37788 104.45450 37.72513
#
# Poissons Ratio (x) = 0.55644 0.38928
# Poissons Ratio (y) = 0.26837 0.12992
# Poissons Ratio (z) = 0.51984 0.35973
#
# Static dielectric constant tensor:
#      x y z
#    x 3.443690 0.000000 0.000000 
#    y 0.000000 3.783980 0.000000 
#    z 0.000000 0.000000 3.298130 
# 
# 
# High freq. dielectric constant tensor:
#      x y z
#    x 1.725650 0.000000 0.000000 
#    y 0.000000 1.755900 0.000000 
#    z 0.000000 0.000000 1.719840 
# 
# From -- ./inp_files/2703.got.cif
#   From: 2010.03.12/outbox.cif.g09.slc.cpg/sg47_2_cif.got.tgz:2703.got - 2010.04.14 03:12:58.
