data_PCOD8197876
_publ_section_title
;
Structure prediction by ZEFSAII (Michael W. Deem and Ramdas Pophale) SiO2 
 PCOD8197876
Probable space group: P M M M
;
_chemical_formula_sum "Si O2"
_cell_formula_units_Z 44
_cell_length_a 10.227799
_cell_length_b 8.998519
_cell_length_c 25.442183
_cell_angle_alpha 90.000000
_cell_angle_beta 90.000000
_cell_angle_gamma 90.000000
_cell_volume 2341.572422
_symmetry_space_group_name_H-M "P M M M"
_symmetry_group_IT_number 47
_symmetry_cell_setting 'orthorhombic'
loop_
_space_group_symop_operation_xyz
x,y,z
-x,-y,z
x,-y,-z
-x,y,-z
-x,-y,-z
x,y,-z
-x,y,z
x,-y,z
loop_
_atom_site_type_symbol
_atom_site_label
_atom_site_fract_x
_atom_site_fract_y
_atom_site_fract_z
Si Si1 0.353458 0.161983 0.845013
Si Si2 0.000000 0.165466 0.937974
Si Si3 0.152356 0.174211 0.661271
Si Si4 0.154501 0.334334 0.557573
Si Si5 0.260412 0.675750 0.939988
Si Si6 0.346909 0.674927 0.742553
O O1 0.500000 0.131237 0.828028
O O2 0.361899 0.251366 0.900117
O O3 0.293010 0.259068 0.797890
O O4 0.282623 0.000000 0.851010
O O5 0.876453 0.259471 0.919334
O O6 0.000000 0.000000 0.913049
O O7 0.000000 0.152779 0.000000
O O8 0.196930 0.218221 0.602308
O O9 0.251449 0.259229 0.698976
O O10 0.000000 0.219017 0.671871
O O11 0.171970 0.000000 0.668945
O O12 0.208947 0.284373 0.500000
O O13 0.207343 0.500000 0.571322
O O14 0.000000 0.339851 0.554563
O O15 0.260343 0.500000 0.935057
O O16 0.292483 0.723482 0.000000
O O17 0.500000 0.713511 0.731148
O O18 0.327204 0.500000 0.745198
#
# Coordination Sequence:
#
# PCOD8197876 Si02
#       6
#     8   4   8   8   8   8
#     4  10  21  37  56  77 102 132 168 212 260 311
#     4   9  17  31  51  73  99 131 165 201 244 297
#     4  10  20  33  52  81 114 144 178 222 268 316
#     4   8  14  26  46  73 106 144 182 219 263 314
#     4  10  20  34  53  77 105 135 168 207 252 306
#     4  10  21  38  59  79 102 138 182 224 270 325
#
# _framework density 18.790792
#
# number of rings (size 3 to 8) (size 9 to 14) (size 15 to 20)
#    0.000    2.455    0.000    3.000    0.000    6.182 
#    1.636    3.636    0.000    0.545    0.000    3.818 
#    0.000    0.000    0.000    0.000    0.000    0.000 
#
# Total GULP energy -545195.173059 kJ/mol
# GULP energy per Si atom -12390.799388 kJ/mol
# Density = 1.874802 g / cm^3
# Si number density = 18.790792 Si / 1000 Ang^3
#
#
#
# Elastic Constant Matrix: (Units=GPa)
#
#
# Indices 1 2 3 4 5 6 
#
# 1 51.7122 37.4863 41.0424 0.0000 0.0000 0.0000
# 2 37.4863 122.9113 69.6362 0.0000 0.0000 0.0000
# 3 41.0424 69.6362 138.3186 0.0000 0.0000 0.0000
# 4 0.0000 0.0000 0.0000 34.4617 0.0000 0.0000
# 5 0.0000 0.0000 0.0000 0.0000 19.6214 0.0000
# 6 0.0000 0.0000 0.0000 0.0000 0.0000 26.2312
#
#
#
# Elastic Compliance Matrix: (Units=1/GPa)
#
#
# Indices 1 2 3 4 5 6 
#
# 1 0.027539 -0.005274 -0.005516 0.000000 0.000000 0.000000
# 2 -0.005274 0.012393 -0.004674 0.000000 0.000000 0.000000
# 3 -0.005516 -0.004674 0.011220 0.000000 0.000000 0.000000
# 4 0.000000 0.000000 0.000000 0.029018 0.000000 0.000000
# 5 0.000000 0.000000 0.000000 0.000000 0.050965 0.000000
# 6 0.000000 0.000000 0.000000 0.000000 0.000000 0.038123
#
#
# Mechanical properties :
#
#
# Convention : Reuss Voigt Hill
#
# Bulk Modulus (GPa) = 49.44942 67.69688 58.57315
# Shear Modulus (GPa) = 24.16330 27.04802 25.60566
#
# Velocity S-wave (km/s) = 3.58985 3.79810 3.69544
# Velocity P-wave (km/s) = 6.59967 7.43901 7.03187
#
# Compressibility (1/GPa) = 0.02022268
#
# Stress axis : x y z
#
# Youngs Moduli (GPa) = 36.31228 80.69393 89.12856
#
# Poissons Ratio (x) = 0.42555 0.49167
# Poissons Ratio (y) = 0.19150 0.41660
# Poissons Ratio (z) = 0.20032 0.37718
#
# Static dielectric constant tensor:
#      x y z
#    x 3.254390 0.000000 0.000000 
#    y 0.000000 3.706410 0.000000 
#    z 0.000000 0.000000 3.624710 
# 
# 
# High freq. dielectric constant tensor:
#      x y z
#    x 1.694050 0.000000 0.000000 
#    y 0.000000 1.743400 0.000000 
#    z 0.000000 0.000000 1.730520 
# 
# From -- ./inp_files/32368.got.cif
#   From: 2010.03.12/outbox.cif.g09.slc.cpg/sg47_17_cif.got.tgz:32368.got - 2010.04.14 03:12:58.
