data_PCOD8197096
_publ_section_title
;
Structure prediction by ZEFSAII (Michael W. Deem and Ramdas Pophale) SiO2 
 PCOD8197096
Probable space group: P M M M
;
_chemical_formula_sum "Si O2"
_cell_formula_units_Z 48
_cell_length_a 9.736108
_cell_length_b 30.727980
_cell_length_c 9.114711
_cell_angle_alpha 90.000000
_cell_angle_beta 90.000000
_cell_angle_gamma 90.000000
_cell_volume 2726.856584
_symmetry_space_group_name_H-M "P M M M"
_symmetry_group_IT_number 47
_symmetry_cell_setting 'orthorhombic'
loop_
_space_group_symop_operation_xyz
x,y,z
-x,-y,z
x,-y,-z
-x,y,-z
-x,-y,-z
x,y,-z
-x,y,z
x,-y,z
loop_
_atom_site_type_symbol
_atom_site_label
_atom_site_fract_x
_atom_site_fract_y
_atom_site_fract_z
Si Si1 0.845938 0.048132 0.174329
Si Si2 0.341076 0.382000 0.671431
Si Si3 0.336439 0.211805 0.334462
Si Si4 0.658737 0.125646 0.827818
Si Si5 0.842332 0.550596 0.167857
Si Si6 0.336505 0.704192 0.834510
O O1 0.741820 0.084334 0.235708
O O2 0.000000 0.059069 0.228297
O O3 0.802463 0.000000 0.231345
O O4 0.840686 0.048296 0.000000
O O5 0.319228 0.374505 0.500000
O O6 0.500000 0.390669 0.709419
O O7 0.255216 0.423335 0.723269
O O8 0.285071 0.339216 0.753620
O O9 0.279581 0.212109 0.500000
O O10 0.500000 0.213346 0.333029
O O11 0.284850 0.168414 0.253322
O O12 0.276778 0.253784 0.249820
O O13 0.500000 0.117064 0.791859
O O14 0.682818 0.132665 0.000000
O O15 0.816871 0.500000 0.198483
O O16 0.000000 0.562784 0.200281
O O17 0.805123 0.562017 0.000000
O O18 0.500000 0.705927 0.833637
O O19 0.279152 0.704243 0.000000
#
# Coordination Sequence:
#
# PCOD8197096 Si02
#       6
#     8   8   8   8   8   8
#     4   8  14  25  41  61  85 113 144 178 218 263
#     4  10  20  32  48  74 105 132 160 197 241 287
#     4   9  16  26  41  62  90 121 149 180 223 273
#     4   9  16  25  40  64  89 111 141 182 222 259
#     4   9  19  36  55  73  95 127 167 206 243 286
#     4   9  16  27  45  68  94 124 157 192 230 273
#
# _framework density 17.602685000000001
#
# number of rings (size 3 to 8) (size 9 to 14) (size 15 to 20)
#    0.000    3.000    0.000    2.500    0.000    6.333 
#    0.000    4.167    0.000    2.000    0.000    5.833 
#    0.000    0.000    0.000    0.000    0.000    0.000 
#
# Total GULP energy -595118.679418 kJ/mol
# GULP energy per Si atom -12398.305821 kJ/mol
# Density = 1.756262 g / cm^3
# Si number density = 17.602685 Si / 1000 Ang^3
#
#
#
# Elastic Constant Matrix: (Units=GPa)
#
#
# Indices 1 2 3 4 5 6 
#
# 1 48.5958 55.3779 34.0333 0.0000 0.0000 0.0000
# 2 55.3779 144.8397 64.9019 0.0000 0.0000 0.0000
# 3 34.0333 64.9019 93.2175 0.0000 0.0000 0.0000
# 4 0.0000 0.0000 0.0000 13.2693 0.0000 0.0000
# 5 0.0000 0.0000 0.0000 0.0000 15.4253 0.0000
# 6 0.0000 0.0000 0.0000 0.0000 0.0000 4.4840
#
#
#
# Elastic Compliance Matrix: (Units=1/GPa)
#
#
# Indices 1 2 3 4 5 6 
#
# 1 0.038318 -0.012182 -0.005508 0.000000 0.000000 0.000000
# 2 -0.012182 0.013908 -0.005236 0.000000 0.000000 0.000000
# 3 -0.005508 -0.005236 0.016384 0.000000 0.000000 0.000000
# 4 0.000000 0.000000 0.000000 0.075362 0.000000 0.000000
# 5 0.000000 0.000000 0.000000 0.000000 0.064829 0.000000
# 6 0.000000 0.000000 0.000000 0.000000 0.000000 0.223016
#
#
# Mechanical properties :
#
#
# Convention : Reuss Voigt Hill
#
# Bulk Modulus (GPa) = 43.94059 66.14214 55.04137
# Shear Modulus (GPa) = 10.30389 15.45838 12.88113
#
# Velocity S-wave (km/s) = 2.42204 2.96663 2.70806
# Velocity P-wave (km/s) = 5.73048 7.02788 6.41208
#
# Compressibility (1/GPa) = 0.02275800
#
# Stress axis : x y z
#
# Youngs Moduli (GPa) = 26.09750 71.90077 61.03623
#
# Poissons Ratio (x) = 0.87593 0.33617
# Poissons Ratio (y) = 0.31793 0.31956
# Poissons Ratio (z) = 0.14374 0.37645
#
# Static dielectric constant tensor:
#      x y z
#    x 2.934030 0.000000 0.000000 
#    y 0.000000 3.495380 0.000000 
#    z 0.000000 0.000000 3.176580 
# 
# 
# High freq. dielectric constant tensor:
#      x y z
#    x 1.636330 0.000000 0.000000 
#    y 0.000000 1.694950 0.000000 
#    z 0.000000 0.000000 1.668980 
# 
# From -- ./inp_files/2495.got.cif
#   From: 2010.03.12/outbox.cif.g09.slc.cpg/sg47_2_cif.got.tgz:2495.got - 2010.04.14 03:12:58.
