data_PCOD8197442
_publ_section_title
;
Structure prediction by ZEFSAII (Michael W. Deem and Ramdas Pophale) SiO2 
 PCOD8197442
Probable space group: P M M M
;
_chemical_formula_sum "Si O2"
_cell_formula_units_Z 32
_cell_length_a 9.222524
_cell_length_b 14.803247
_cell_length_c 13.736539
_cell_angle_alpha 90.000000
_cell_angle_beta 90.000000
_cell_angle_gamma 90.000000
_cell_volume 1875.357645
_symmetry_space_group_name_H-M "P M M M"
_symmetry_group_IT_number 47
_symmetry_cell_setting 'orthorhombic'
loop_
_space_group_symop_operation_xyz
x,y,z
-x,-y,z
x,-y,-z
-x,y,-z
-x,-y,-z
x,y,-z
-x,y,z
x,-y,z
loop_
_atom_site_type_symbol
_atom_site_label
_atom_site_fract_x
_atom_site_fract_y
_atom_site_fract_z
Si Si1 0.329954 0.823035 0.111931
Si Si2 0.159372 0.252788 0.278121
Si Si3 0.661987 0.399216 0.614962
Si Si4 0.000000 0.893790 0.383998
Si Si5 0.839074 0.000000 0.885678
O O1 0.500000 0.835398 0.127261
O O2 0.265868 0.748884 0.184767
O O3 0.250555 0.913529 0.146811
O O4 0.294637 0.797564 0.000000
O O5 0.220055 0.329101 0.348220
O O6 0.142132 0.157471 0.338289
O O7 0.000000 0.282758 0.240778
O O8 0.669940 0.399338 0.500000
O O9 0.500000 0.370896 0.649012
O O10 0.697623 0.500000 0.654245
O O11 0.000000 0.882166 0.500000
O O12 0.000000 0.000000 0.355417
O O13 0.000000 0.000000 0.837049
O O14 0.857566 0.000000 0.000000
#
# Coordination Sequence:
#
# PCOD8197442 Si02
#       5
#     8   8   8   4   4
#     4  10  20  33  49  72 104 140 179 224 269 315
#     4  10  21  31  53  78 103 140 180 219 263 317
#     4   9  18  34  56  80 106 135 170 221 281 330
#     4   9  20  36  50  72 108 145 180 216 260 310
#     4   9  17  29  47  69  97 132 173 222 272 312
#
# _framework density 17.063413000000001
#
# number of rings (size 3 to 8) (size 9 to 14) (size 15 to 20)
#    0.750    1.750    0.000    3.375    1.750    3.500 
#    0.000    1.250    0.000    0.750    0.000   10.500 
#    0.000    0.000    0.000    0.000    0.000    0.000 
#
# Total GULP energy -396513.916840 kJ/mol
# GULP energy per Si atom -12391.059901 kJ/mol
# Density = 1.702458 g / cm^3
# Si number density = 17.063413 Si / 1000 Ang^3
#
#
#
# Elastic Constant Matrix: (Units=GPa)
#
#
# Indices 1 2 3 4 5 6 
#
# 1 113.5108 48.5500 40.9692 0.0000 0.0000 0.0000
# 2 48.5500 93.1985 32.4701 0.0000 0.0000 0.0000
# 3 40.9692 32.4701 71.2082 0.0000 0.0000 0.0000
# 4 0.0000 0.0000 0.0000 15.2064 0.0000 0.0000
# 5 0.0000 0.0000 0.0000 0.0000 31.0686 0.0000
# 6 0.0000 0.0000 0.0000 0.0000 0.0000 31.5216
#
#
#
# Elastic Compliance Matrix: (Units=1/GPa)
#
#
# Indices 1 2 3 4 5 6 
#
# 1 0.012729 -0.004850 -0.005112 0.000000 0.000000 0.000000
# 2 -0.004850 0.014604 -0.003869 0.000000 0.000000 0.000000
# 3 -0.005112 -0.003869 0.018749 0.000000 0.000000 0.000000
# 4 0.000000 0.000000 0.000000 0.065762 0.000000 0.000000
# 5 0.000000 0.000000 0.000000 0.000000 0.032187 0.000000
# 6 0.000000 0.000000 0.000000 0.000000 0.000000 0.031724
#
#
# Mechanical properties :
#
#
# Convention : Reuss Voigt Hill
#
# Bulk Modulus (GPa) = 54.28865 57.98846 56.13856
# Shear Modulus (GPa) = 23.85982 25.95452 24.90717
#
# Velocity S-wave (km/s) = 3.74345 3.90431 3.82472
# Velocity P-wave (km/s) = 7.11122 7.37446 7.24404
#
# Compressibility (1/GPa) = 0.01842006
#
# Stress axis : x y z
#
# Youngs Moduli (GPa) = 78.55911 68.47322 53.33684
#
# Poissons Ratio (x) = 0.33210 0.27267
# Poissons Ratio (y) = 0.38101 0.20636
# Poissons Ratio (z) = 0.40161 0.26492
#
# Static dielectric constant tensor:
#      x y z
#    x 3.219000 0.000000 0.000000 
#    y 0.000000 3.141150 0.000000 
#    z 0.000000 0.000000 3.051510 
# 
# 
# High freq. dielectric constant tensor:
#      x y z
#    x 1.660760 0.000000 0.000000 
#    y 0.000000 1.640490 0.000000 
#    z 0.000000 0.000000 1.652640 
# 
# From -- ./inp_files/20477.got.cif
#   From: 2010.03.12/outbox.cif.g09.slc.cpg/sg47_11_cif.got.tgz:20477.got - 2010.04.14 03:12:58.
