data_PCOD8197572
_publ_section_title
;
Structure prediction by ZEFSAII (Michael W. Deem and Ramdas Pophale) SiO2 
 PCOD8197572
Probable space group: P M M M
;
_chemical_formula_sum "Si O2"
_cell_formula_units_Z 52
_cell_length_a 16.013842
_cell_length_b 9.069695
_cell_length_c 19.614962
_cell_angle_alpha 90.000000
_cell_angle_beta 90.000000
_cell_angle_gamma 90.000000
_cell_volume 2848.890080
_symmetry_space_group_name_H-M "P M M M"
_symmetry_group_IT_number 47
_symmetry_cell_setting 'orthorhombic'
loop_
_space_group_symop_operation_xyz
x,y,z
-x,-y,z
x,-y,-z
-x,y,-z
-x,-y,-z
x,y,-z
-x,y,z
x,-y,z
loop_
_atom_site_type_symbol
_atom_site_label
_atom_site_fract_x
_atom_site_fract_y
_atom_site_fract_z
Si Si1 0.089249 0.824964 0.076489
Si Si2 0.160082 0.835102 0.580800
Si Si3 0.596302 0.162381 0.303697
Si Si4 0.729358 0.831289 0.081243
Si Si5 0.000000 0.333988 0.418490
Si Si6 0.597124 0.673300 0.170311
Si Si7 0.326727 0.673838 0.421847
O O1 0.178629 0.774861 0.109314
O O2 0.000000 0.775603 0.112673
O O3 0.092740 0.000000 0.074107
O O4 0.086014 0.762251 0.000000
O O5 0.153569 0.843138 0.500000
O O6 0.239245 0.740164 0.603169
O O7 0.079808 0.752068 0.610746
O O8 0.165420 0.000000 0.611419
O O9 0.500000 0.140713 0.290004
O O10 0.632468 0.252032 0.239489
O O11 0.604446 0.253727 0.373708
O O12 0.638892 0.000000 0.309488
O O13 0.654876 0.730281 0.109165
O O14 0.712992 0.000000 0.104031
O O15 0.728705 0.818735 0.000000
O O16 0.000000 0.500000 0.389914
O O17 0.000000 0.336510 0.500000
O O18 0.500000 0.713043 0.155333
O O19 0.608151 0.500000 0.178733
O O20 0.346766 0.716531 0.500000
O O21 0.324786 0.500000 0.412220
#
# Coordination Sequence:
#
# PCOD8197572 Si02
#       7
#     8   8   8   8   4   8   8
#     4   7  10  19  38  66  99 131 163 201 243 287
#     4   9  16  26  41  63  92 124 158 195 234 279
#     4  10  21  37  56  75  95 123 162 206 250 299
#     4   9  17  29  48  76 106 135 170 211 253 296
#     4   9  15  23  37  59  89 123 157 193 236 285
#     4  10  21  36  52  70  96 132 172 211 253 305
#     4  10  20  33  50  74 103 131 159 195 243 299
#
# _framework density 18.252723
#
# number of rings (size 3 to 8) (size 9 to 14) (size 15 to 20)
#    0.000    2.846    0.000    3.462    0.000    6.462 
#    0.000    3.077    0.000    0.462    2.000    2.154 
#    0.000    0.000    0.000    0.000    0.000    0.000 
#
# Total GULP energy -644229.673125 kJ/mol
# GULP energy per Si atom -12389.032175 kJ/mol
# Density = 1.821118 g / cm^3
# Si number density = 18.252723 Si / 1000 Ang^3
#
#
#
# Elastic Constant Matrix: (Units=GPa)
#
#
# Indices 1 2 3 4 5 6 
#
# 1 94.8235 42.3663 32.5530 0.0000 0.0000 0.0000
# 2 42.3663 103.7459 31.7628 0.0000 0.0000 0.0000
# 3 32.5530 31.7628 46.3886 0.0000 0.0000 0.0000
# 4 0.0000 0.0000 0.0000 23.4802 0.0000 0.0000
# 5 0.0000 0.0000 0.0000 0.0000 5.5727 0.0000
# 6 0.0000 0.0000 0.0000 0.0000 0.0000 27.8123
#
#
#
# Elastic Compliance Matrix: (Units=1/GPa)
#
#
# Indices 1 2 3 4 5 6 
#
# 1 0.014911 -0.003651 -0.007964 0.000000 0.000000 0.000000
# 2 -0.003651 0.013089 -0.006400 0.000000 0.000000 0.000000
# 3 -0.007964 -0.006400 0.031528 0.000000 0.000000 0.000000
# 4 0.000000 0.000000 0.000000 0.042589 0.000000 0.000000
# 5 0.000000 0.000000 0.000000 0.000000 0.179448 0.000000
# 6 0.000000 0.000000 0.000000 0.000000 0.000000 0.035955
#
#
# Mechanical properties :
#
#
# Convention : Reuss Voigt Hill
#
# Bulk Modulus (GPa) = 42.55683 50.92471 46.74077
# Shear Modulus (GPa) = 13.83568 20.59142 17.21355
#
# Velocity S-wave (km/s) = 2.75618 3.36241 3.07427
# Velocity P-wave (km/s) = 5.78746 6.56009 6.18585
#
# Compressibility (1/GPa) = 0.02349799
#
# Stress axis : x y z
#
# Youngs Moduli (GPa) = 67.06382 76.39758 31.71763
#
# Poissons Ratio (x) = 0.27892 0.25260
# Poissons Ratio (y) = 0.24485 0.20301
# Poissons Ratio (z) = 0.53410 0.48898
#
# Static dielectric constant tensor:
#      x y z
#    x 3.676810 0.000000 0.000000 
#    y 0.000000 3.392970 0.000000 
#    z 0.000000 0.000000 2.907580 
# 
# 
# High freq. dielectric constant tensor:
#      x y z
#    x 1.717780 0.000000 0.000000 
#    y 0.000000 1.703160 0.000000 
#    z 0.000000 0.000000 1.652990 
# 
# From -- ./inp_files/11005.got.cif
#   From: 2010.03.12/outbox.cif.g09.slc.cpg/sg47_6_cif.got.tgz:11005.got - 2010.04.14 03:12:58.
