data_PCOD8197263
_publ_section_title
;
Structure prediction by ZEFSAII (Michael W. Deem and Ramdas Pophale) SiO2 
 PCOD8197263
Probable space group: P M M M
;
_chemical_formula_sum "Si O2"
_cell_formula_units_Z 64
_cell_length_a 24.369946
_cell_length_b 9.371893
_cell_length_c 15.440805
_cell_angle_alpha 90.000000
_cell_angle_beta 90.000000
_cell_angle_gamma 90.000000
_cell_volume 3526.564462
_symmetry_space_group_name_H-M "P M M M"
_symmetry_group_IT_number 47
_symmetry_cell_setting 'orthorhombic'
loop_
_space_group_symop_operation_xyz
x,y,z
-x,-y,z
x,-y,-z
-x,y,-z
-x,-y,-z
x,y,-z
-x,y,z
x,-y,z
loop_
_atom_site_type_symbol
_atom_site_label
_atom_site_fract_x
_atom_site_fract_y
_atom_site_fract_z
Si Si1 0.757875 0.662380 0.301662
Si Si2 0.363563 0.669578 0.732258
Si Si3 0.101101 0.165761 0.908684
Si Si4 0.219648 0.161583 0.856993
Si Si5 0.659387 0.166447 0.096688
Si Si6 0.860934 0.335682 0.402604
Si Si7 0.062611 0.167650 0.273194
Si Si8 0.564696 0.837256 0.401728
O O1 0.756314 0.500000 0.271664
O O2 0.694846 0.713464 0.311247
O O3 0.789446 0.745750 0.227674
O O4 0.795287 0.685382 0.386682
O O5 0.371707 0.500000 0.740749
O O6 0.369325 0.738789 0.828468
O O7 0.408749 0.731522 0.667737
O O8 0.166699 0.188510 0.915639
O O9 0.074575 0.234192 0.822561
O O10 0.086238 0.000000 0.905839
O O11 0.077653 0.230048 0.000000
O O12 0.275631 0.201030 0.906665
O O13 0.222402 0.000000 0.824502
O O14 0.648483 0.000000 0.117361
O O15 0.636457 0.204217 0.000000
O O16 0.872808 0.287533 0.500000
O O17 0.876909 0.500000 0.386974
O O18 0.898352 0.240172 0.342203
O O19 0.000000 0.199654 0.298361
O O20 0.075722 0.000000 0.274214
O O21 0.581942 0.794832 0.500000
O O22 0.500000 0.822161 0.391272
O O23 0.582956 0.000000 0.382791
#
# Coordination Sequence:
#
# PCOD8197263 Si02
#       8
#     8   8   8   8   8   8   8   8
#     4   9  18  32  49  72 104 136 166 202 251 304
#     4  10  20  32  51  81 113 144 176 214 264 316
#     4   9  16  27  47  74 100 126 158 198 247 302
#     4   9  15  26  47  72  98 129 168 208 247 295
#     4   9  17  29  47  73 106 144 183 220 258 303
#     4  10  21  37  56  74  95 129 170 208 251 307
#     4  10  21  36  53  74  99 126 160 208 261 308
#     4   9  19  37  59  81 107 141 181 223 264 308
#
# _framework density 18.147974999999999
#
# number of rings (size 3 to 8) (size 9 to 14) (size 15 to 20)
#    0.000    2.625    1.250    1.125    0.000    4.250 
#    0.000    4.375    0.000    2.625    0.000    3.500 
#    0.000    0.000    0.000    0.000    0.000    0.000 
#
# Total GULP energy -793045.448668 kJ/mol
# GULP energy per Si atom -12391.335135 kJ/mol
# Density = 1.810667 g / cm^3
# Si number density = 18.147975 Si / 1000 Ang^3
#
#
#
# Elastic Constant Matrix: (Units=GPa)
#
#
# Indices 1 2 3 4 5 6 
#
# 1 57.3356 32.5816 51.6697 0.0000 0.0000 0.0000
# 2 32.5816 58.4919 52.6365 0.0000 0.0000 0.0000
# 3 51.6697 52.6365 139.5955 0.0000 0.0000 0.0000
# 4 0.0000 0.0000 0.0000 13.9233 0.0000 0.0000
# 5 0.0000 0.0000 0.0000 0.0000 19.5586 0.0000
# 6 0.0000 0.0000 0.0000 0.0000 0.0000 22.2382
#
#
#
# Elastic Compliance Matrix: (Units=1/GPa)
#
#
# Indices 1 2 3 4 5 6 
#
# 1 0.029611 -0.010037 -0.007176 0.000000 0.000000 0.000000
# 2 -0.010037 0.029279 -0.007325 0.000000 0.000000 0.000000
# 3 -0.007176 -0.007325 0.012582 0.000000 0.000000 0.000000
# 4 0.000000 0.000000 0.000000 0.071822 0.000000 0.000000
# 5 0.000000 0.000000 0.000000 0.000000 0.051128 0.000000
# 6 0.000000 0.000000 0.000000 0.000000 0.000000 0.044968
#
#
# Mechanical properties :
#
#
# Convention : Reuss Voigt Hill
#
# Bulk Modulus (GPa) = 44.64970 58.79983 51.72477
# Shear Modulus (GPa) = 16.89583 19.04636 17.97109
#
# Velocity S-wave (km/s) = 3.05454 3.24312 3.15024
# Velocity P-wave (km/s) = 6.09072 6.81867 6.46495
#
# Compressibility (1/GPa) = 0.02239657
#
# Stress axis : x y z
#
# Youngs Moduli (GPa) = 33.77067 34.15419 79.48130
#
# Poissons Ratio (x) = 0.34281 0.57034
# Poissons Ratio (y) = 0.33896 0.58220
# Poissons Ratio (z) = 0.24233 0.25018
#
# Static dielectric constant tensor:
#      x y z
#    x 3.229560 0.000000 0.000000 
#    y 0.000000 3.200630 0.000000 
#    z 0.000000 0.000000 3.758650 
# 
# 
# High freq. dielectric constant tensor:
#      x y z
#    x 1.687680 0.000000 0.000000 
#    y 0.000000 1.682340 0.000000 
#    z 0.000000 0.000000 1.707380 
# 
# From -- ./inp_files/12737.got.cif
#   From: 2010.03.12/outbox.cif.g09.slc.cpg/sg47_7_cif.got.tgz:12737.got - 2010.04.14 03:12:58.
