data_PCOD8197855
_publ_section_title
;
Structure prediction by ZEFSAII (Michael W. Deem and Ramdas Pophale) SiO2 
 PCOD8197855
Probable space group: P M M M
;
_chemical_formula_sum "Si O2"
_cell_formula_units_Z 64
_cell_length_a 24.589659
_cell_length_b 14.651465
_cell_length_c 9.133757
_cell_angle_alpha 90.000000
_cell_angle_beta 90.000000
_cell_angle_gamma 90.000000
_cell_volume 3290.659994
_symmetry_space_group_name_H-M "P M M M"
_symmetry_group_IT_number 47
_symmetry_cell_setting 'orthorhombic'
loop_
_space_group_symop_operation_xyz
x,y,z
-x,-y,z
x,-y,-z
-x,y,-z
-x,-y,-z
x,y,-z
-x,y,z
x,-y,z
loop_
_atom_site_type_symbol
_atom_site_label
_atom_site_fract_x
_atom_site_fract_y
_atom_site_fract_z
Si Si1 0.406538 0.897335 0.328343
Si Si2 0.659969 0.603309 0.174087
Si Si3 0.439985 0.723864 0.831170
Si Si4 0.061878 0.105633 0.170664
Si Si5 0.763441 0.720090 0.831136
Si Si6 0.702478 0.100839 0.835795
Si Si7 0.936002 0.600982 0.837913
Si Si8 0.127139 0.256596 0.328453
O O1 0.411266 0.882161 0.500000
O O2 0.442508 0.821270 0.249608
O O3 0.344449 0.883014 0.281183
O O4 0.426153 0.000000 0.285554
O O5 0.660317 0.500000 0.236952
O O6 0.606294 0.656316 0.233906
O O7 0.714216 0.656068 0.226619
O O8 0.657720 0.601050 0.000000
O O9 0.500000 0.678803 0.812487
O O10 0.426819 0.743374 0.000000
O O11 0.106838 0.161477 0.260206
O O12 0.000000 0.134558 0.212939
O O13 0.070830 0.000000 0.208368
O O14 0.071420 0.124439 0.000000
O O15 0.749321 0.826245 0.808666
O O16 0.816616 0.704517 0.735611
O O17 0.775972 0.697180 0.000000
O O18 0.728175 0.000000 0.817398
O O19 0.678159 0.113683 0.000000
O O20 0.911487 0.500000 0.812922
O O21 0.916692 0.666641 0.709390
O O22 0.000000 0.596231 0.829500
O O23 0.918270 0.636901 0.000000
O O24 0.133068 0.243214 0.500000
#
# Coordination Sequence:
#
# PCOD8197855 Si02
#       8
#     8   8   8   8   8   8   8   8
#     4  10  20  33  52  79 112 148 181 216 265 326
#     4   9  18  35  59  85 110 138 180 233 285 335
#     4  10  20  35  57  85 114 143 181 230 280 333
#     4   9  19  38  63  87 113 152 202 247 284 331
#     4  10  20  36  56  78 107 147 193 233 273 328
#     4   9  17  32  56  81 104 134 178 229 273 317
#     4   9  19  38  63  86 108 141 188 237 282 333
#     4  12  25  36  52  84 123 155 186 231 287 346
#
# _framework density 19.448985
#
# number of rings (size 3 to 8) (size 9 to 14) (size 15 to 20)
#    0.000    2.250    1.250    2.625    0.000    5.500 
#    0.000    6.250    0.000    1.125    0.000    0.875 
#    0.000    0.000    0.000    0.000    0.000    0.000 
#
# Total GULP energy -793420.680253 kJ/mol
# GULP energy per Si atom -12397.198129 kJ/mol
# Density = 1.940472 g / cm^3
# Si number density = 19.448985 Si / 1000 Ang^3
#
#
#
# Elastic Constant Matrix: (Units=GPa)
#
#
# Indices 1 2 3 4 5 6 
#
# 1 96.8301 51.2622 40.5373 0.0000 0.0000 0.0000
# 2 51.2622 120.2865 39.2505 0.0000 0.0000 0.0000
# 3 40.5373 39.2505 71.0236 0.0000 0.0000 0.0000
# 4 0.0000 0.0000 0.0000 9.5956 0.0000 0.0000
# 5 0.0000 0.0000 0.0000 0.0000 9.4674 0.0000
# 6 0.0000 0.0000 0.0000 0.0000 0.0000 13.1321
#
#
#
# Elastic Compliance Matrix: (Units=1/GPa)
#
#
# Indices 1 2 3 4 5 6 
#
# 1 0.015327 -0.004486 -0.006269 0.000000 0.000000 0.000000
# 2 -0.004486 0.011456 -0.003770 0.000000 0.000000 0.000000
# 3 -0.006269 -0.003770 0.019741 0.000000 0.000000 0.000000
# 4 0.000000 0.000000 0.000000 0.104215 0.000000 0.000000
# 5 0.000000 0.000000 0.000000 0.000000 0.105626 0.000000
# 6 0.000000 0.000000 0.000000 0.000000 0.000000 0.076149
#
#
# Mechanical properties :
#
#
# Convention : Reuss Voigt Hill
#
# Bulk Modulus (GPa) = 57.22975 61.13779 59.18377
# Shear Modulus (GPa) = 13.60959 16.91169 15.26064
#
# Velocity S-wave (km/s) = 2.64816 2.95200 2.80420
# Velocity P-wave (km/s) = 6.23216 6.56675 6.40164
#
# Compressibility (1/GPa) = 0.01747343
#
# Stress axis : x y z
#
# Youngs Moduli (GPa) = 65.24558 87.29306 50.65531
#
# Poissons Ratio (x) = 0.39162 0.31754
# Poissons Ratio (y) = 0.29271 0.19098
# Poissons Ratio (z) = 0.40900 0.32912
#
# Static dielectric constant tensor:
#      x y z
#    x 3.438760 0.000000 0.000000 
#    y 0.000000 3.809970 0.000000 
#    z 0.000000 0.000000 3.321950 
# 
# 
# High freq. dielectric constant tensor:
#      x y z
#    x 1.751620 0.000000 0.000000 
#    y 0.000000 1.764950 0.000000 
#    z 0.000000 0.000000 1.725520 
# 
# From -- ./inp_files/12726.got.cif
#   From: 2010.03.12/outbox.cif.g09.slc.cpg/sg47_7_cif.got.tgz:12726.got - 2010.04.14 03:12:58.
