data_PCOD8197226
_publ_section_title
;
Structure prediction by ZEFSAII (Michael W. Deem and Ramdas Pophale) SiO2 
 PCOD8197226
Probable space group: P M M M
;
_chemical_formula_sum "Si O2"
_cell_formula_units_Z 48
_cell_length_a 9.282936
_cell_length_b 32.207036
_cell_length_c 8.228916
_cell_angle_alpha 90.000000
_cell_angle_beta 90.000000
_cell_angle_gamma 90.000000
_cell_volume 2460.247188
_symmetry_space_group_name_H-M "P M M M"
_symmetry_group_IT_number 47
_symmetry_cell_setting 'orthorhombic'
loop_
_space_group_symop_operation_xyz
x,y,z
-x,-y,z
x,-y,-z
-x,y,-z
-x,-y,-z
x,y,-z
-x,y,z
x,-y,z
loop_
_atom_site_type_symbol
_atom_site_label
_atom_site_fract_x
_atom_site_fract_y
_atom_site_fract_z
Si Si1 0.337604 0.575372 0.312950
Si Si2 0.666563 0.950949 0.500000
Si Si3 0.829182 0.913490 0.812506
Si Si4 0.162591 0.181631 0.185781
Si Si5 0.331531 0.339180 0.184430
Si Si6 0.659108 0.254805 0.686586
Si Si7 0.156693 0.500000 0.812564
O O1 0.339739 0.564177 0.500000
O O2 0.500000 0.573656 0.240384
O O3 0.271549 0.621543 0.285900
O O4 0.242113 0.541430 0.226920
O O5 0.500000 0.935396 0.500000
O O6 0.744058 0.936889 0.668375
O O7 0.672890 0.000000 0.500000
O O8 0.784793 0.865506 0.793026
O O9 0.000000 0.920002 0.786957
O O10 0.789493 0.927838 0.000000
O O11 0.255651 0.212236 0.293892
O O12 0.000000 0.185139 0.247812
O O13 0.176156 0.195739 0.000000
O O14 0.500000 0.334190 0.221560
O O15 0.261204 0.294732 0.232006
O O16 0.295897 0.349426 0.000000
O O17 0.647114 0.265927 0.500000
O O18 0.500000 0.247898 0.762552
O O19 0.000000 0.500000 0.723603
O O20 0.127936 0.500000 0.000000
#
# Coordination Sequence:
#
# PCOD8197226 Si02
#       7
#     8   4   8   8   8   8   4
#     4  10  20  35  57  82 105 132 171 218 265 315
#     4  11  25  41  59  89 127 161 195 243 307 370
#     4   9  20  40  64  88 116 156 206 254 298 350
#     4   9  19  36  56  79 108 143 185 233 281 327
#     4   9  17  31  52  76 104 140 178 217 262 312
#     4  10  20  32  49  78 113 145 179 220 267 322
#     4  11  24  39  54  76 106 137 170 211 262 318
#
# _framework density 19.510235000000002
#
# number of rings (size 3 to 8) (size 9 to 14) (size 15 to 20)
#    0.000    2.333    0.000    3.250    1.167    8.000 
#    0.000    4.167    0.000    5.000    0.000    0.000 
#    0.000    0.000    0.000    0.000    0.000    0.000 
#
# Total GULP energy -594873.858110 kJ/mol
# GULP energy per Si atom -12393.205377 kJ/mol
# Density = 1.946583 g / cm^3
# Si number density = 19.510235 Si / 1000 Ang^3
#
#
#
# Elastic Constant Matrix: (Units=GPa)
#
#
# Indices 1 2 3 4 5 6 
#
# 1 73.8719 49.1714 39.5401 0.0000 0.0000 0.0000
# 2 49.1714 114.4510 42.3602 0.0000 0.0000 0.0000
# 3 39.5401 42.3602 91.7489 0.0000 0.0000 0.0000
# 4 0.0000 0.0000 0.0000 44.8036 0.0000 0.0000
# 5 0.0000 0.0000 0.0000 0.0000 22.1964 0.0000
# 6 0.0000 0.0000 0.0000 0.0000 0.0000 -3.4637
#
#
#
# Elastic Compliance Matrix: (Units=1/GPa)
#
#
# Indices 1 2 3 4 5 6 
#
# 1 0.021386 -0.006967 -0.006000 0.000000 0.000000 0.000000
# 2 -0.006967 0.012808 -0.002911 0.000000 0.000000 0.000000
# 3 -0.006000 -0.002911 0.014829 0.000000 0.000000 0.000000
# 4 0.000000 0.000000 0.000000 0.022320 0.000000 0.000000
# 5 0.000000 0.000000 0.000000 0.000000 0.045052 0.000000
# 6 0.000000 0.000000 0.000000 0.000000 0.000000 -0.288710
#
#
# Mechanical properties :
#
#
# Convention : Reuss Voigt Hill
#
# Bulk Modulus (GPa) = 57.91340 60.24615 59.07978
# Shear Modulus (GPa) = -37.09093 22.64059 -7.22517
#
# Velocity S-wave (km/s) = -4.36489 3.41023 -1.92648
# Velocity P-wave (km/s) = 2.08446 6.81561 5.03972
#
# Compressibility (1/GPa) = 0.01726716
#
# Stress axis : x y z
#
# Youngs Moduli (GPa) = 46.75938 78.07549 67.43618
#
# Poissons Ratio (x) = 0.54399 0.40460
# Poissons Ratio (y) = 0.32580 0.19629
# Poissons Ratio (z) = 0.28054 0.22726
#
# Static dielectric constant tensor:
#      x y z
#    x 3.438490 0.000000 0.000000 
#    y 0.000000 3.641570 0.000000 
#    z 0.000000 0.000000 3.568810 
# 
# 
# High freq. dielectric constant tensor:
#      x y z
#    x 1.727230 0.000000 0.000000 
#    y 0.000000 1.771390 0.000000 
#    z 0.000000 0.000000 1.767060 
# 
# From -- ./inp_files/2591.got.cif
#   From: 2010.03.12/outbox.cif.g09.slc.cpg/sg47_2_cif.got.tgz:2591.got - 2010.04.14 03:12:58.
