data_PCOD8197908
_publ_section_title
;
Structure prediction by ZEFSAII (Michael W. Deem and Ramdas Pophale) SiO2 
 PCOD8197908
Probable space group: P M M M
;
_chemical_formula_sum "Si O2"
_cell_formula_units_Z 48
_cell_length_a 12.814395
_cell_length_b 13.583519
_cell_length_c 14.631981
_cell_angle_alpha 90.000000
_cell_angle_beta 90.000000
_cell_angle_gamma 90.000000
_cell_volume 2546.909597
_symmetry_space_group_name_H-M "P M M M"
_symmetry_group_IT_number 47
_symmetry_cell_setting 'orthorhombic'
loop_
_space_group_symop_operation_xyz
x,y,z
-x,-y,z
x,-y,-z
-x,y,-z
-x,-y,-z
x,y,-z
-x,y,z
x,-y,z
loop_
_atom_site_type_symbol
_atom_site_label
_atom_site_fract_x
_atom_site_fract_y
_atom_site_fract_z
Si Si1 0.184308 0.389193 0.896283
Si Si2 0.616823 0.389691 0.785525
Si Si3 0.123782 0.890256 0.000000
Si Si4 0.887144 0.606286 0.605336
Si Si5 0.623186 0.883782 0.500000
Si Si6 0.118471 0.202631 0.812305
Si Si7 0.274207 0.764313 0.336041
O O1 0.142964 0.500000 0.884701
O O2 0.306704 0.380701 0.872195
O O3 0.119511 0.321547 0.825315
O O4 0.166792 0.352915 0.000000
O O5 0.500000 0.374155 0.822308
O O6 0.628401 0.500000 0.741549
O O7 0.638707 0.302625 0.713023
O O8 0.163904 0.840166 0.092909
O O9 0.000000 0.886304 0.000000
O O10 0.167891 0.000000 0.000000
O O11 0.901956 0.587739 0.500000
O O12 0.854078 0.500000 0.649772
O O13 0.802283 0.689188 0.615713
O O14 0.000000 0.640476 0.646287
O O15 0.500000 0.862780 0.500000
O O16 0.672852 0.836942 0.591278
O O17 0.647019 0.000000 0.500000
O O18 0.201356 0.171950 0.733881
O O19 0.000000 0.166627 0.789995
#
# Coordination Sequence:
#
# PCOD8197908 Si02
#       7
#     8   8   4   8   4   8   8
#     4   9  17  29  47  73 108 149 190 223 255 305
#     4   9  18  31  48  75 109 141 177 224 275 323
#     4   9  18  34  53  73 102 137 173 215 261 308
#     4   9  17  30  51  80 113 147 178 209 255 319
#     4  11  26  46  64  81 102 134 180 235 294 346
#     4  10  20  33  53  81 111 143 179 216 259 314
#     4  11  20  36  58  81 107 140 183 225 271 328
#
# _framework density 18.846368999999999
#
# number of rings (size 3 to 8) (size 9 to 14) (size 15 to 20)
#    0.000    2.333    1.667    2.000    0.000    2.000 
#    0.000    2.500    0.000    5.500    0.000    0.000 
#    0.000    5.333    0.000    0.000    0.000    0.000 
#
# Total GULP energy -594718.663747 kJ/mol
# GULP energy per Si atom -12389.972161 kJ/mol
# Density = 1.880347 g / cm^3
# Si number density = 18.846369 Si / 1000 Ang^3
#
#
#
# Elastic Constant Matrix: (Units=GPa)
#
#
# Indices 1 2 3 4 5 6 
#
# 1 90.2945 29.7209 30.9471 0.0000 0.0000 0.0000
# 2 29.7209 81.0123 31.5661 0.0000 0.0000 0.0000
# 3 30.9471 31.5661 89.0526 0.0000 0.0000 0.0000
# 4 0.0000 0.0000 0.0000 11.7685 0.0000 0.0000
# 5 0.0000 0.0000 0.0000 0.0000 24.3331 0.0000
# 6 0.0000 0.0000 0.0000 0.0000 0.0000 21.6562
#
#
#
# Elastic Compliance Matrix: (Units=1/GPa)
#
#
# Indices 1 2 3 4 5 6 
#
# 1 0.013422 -0.003605 -0.003387 0.000000 0.000000 0.000000
# 2 -0.003605 0.015290 -0.004167 0.000000 0.000000 0.000000
# 3 -0.003387 -0.004167 0.013883 0.000000 0.000000 0.000000
# 4 0.000000 0.000000 0.000000 0.084973 0.000000 0.000000
# 5 0.000000 0.000000 0.000000 0.000000 0.041096 0.000000
# 6 0.000000 0.000000 0.000000 0.000000 0.000000 0.046176
#
#
# Mechanical properties :
#
#
# Convention : Reuss Voigt Hill
#
# Bulk Modulus (GPa) = 49.31298 49.42529 49.36914
# Shear Modulus (GPa) = 20.49882 22.75991 21.62937
#
# Velocity S-wave (km/s) = 3.30158 3.47890 3.39140
# Velocity P-wave (km/s) = 6.38408 6.51301 6.44887
#
# Compressibility (1/GPa) = 0.02027864
#
# Stress axis : x y z
#
# Youngs Moduli (GPa) = 74.50426 65.40264 72.02874
#
# Poissons Ratio (x) = 0.23575 0.24394
# Poissons Ratio (y) = 0.26855 0.30015
# Poissons Ratio (z) = 0.25232 0.27254
#
# Static dielectric constant tensor:
#      x y z
#    x 3.376070 0.000000 0.000000 
#    y 0.000000 3.386980 0.000000 
#    z 0.000000 0.000000 3.505630 
# 
# 
# High freq. dielectric constant tensor:
#      x y z
#    x 1.722430 0.000000 0.000000 
#    y 0.000000 1.716450 0.000000 
#    z 0.000000 0.000000 1.731750 
# 
# From -- ./inp_files/22744.got.cif
#   From: 2010.03.12/outbox.cif.g09.slc.cpg/sg47_12_cif.got.tgz:22744.got - 2010.04.14 03:12:58.
