data_PCOD8197856
_publ_section_title
;
Structure prediction by ZEFSAII (Michael W. Deem and Ramdas Pophale) SiO2 
 PCOD8197856
Probable space group: P M M M
;
_chemical_formula_sum "Si O2"
_cell_formula_units_Z 52
_cell_length_a 14.676231
_cell_length_b 8.110023
_cell_length_c 20.817258
_cell_angle_alpha 90.000000
_cell_angle_beta 90.000000
_cell_angle_gamma 90.000000
_cell_volume 2477.765202
_symmetry_space_group_name_H-M "P M M M"
_symmetry_group_IT_number 47
_symmetry_cell_setting 'orthorhombic'
loop_
_space_group_symop_operation_xyz
x,y,z
-x,-y,z
x,-y,-z
-x,y,-z
-x,-y,-z
x,y,-z
-x,y,z
x,-y,z
loop_
_atom_site_type_symbol
_atom_site_label
_atom_site_fract_x
_atom_site_fract_y
_atom_site_fract_z
Si Si1 0.101774 0.188602 0.262310
Si Si2 0.277976 0.193318 0.070847
Si Si3 0.099624 0.000000 0.575154
Si Si4 0.600374 0.189446 0.185428
Si Si5 0.779090 0.310852 0.572867
Si Si6 0.710378 0.681837 0.298825
Si Si7 0.100204 0.312127 0.875155
O O1 0.180331 0.301084 0.292305
O O2 0.113831 0.192441 0.185490
O O3 0.000000 0.253308 0.280340
O O4 0.115317 0.000000 0.286282
O O5 0.342383 0.271069 0.126774
O O6 0.177788 0.272871 0.073095
O O7 0.267708 0.000000 0.081851
O O8 0.318974 0.232092 0.000000
O O9 0.148227 0.828481 0.594944
O O10 0.088162 0.000000 0.500000
O O11 0.000000 0.000000 0.608348
O O12 0.500000 0.272845 0.190154
O O13 0.652609 0.197881 0.253753
O O14 0.587395 0.000000 0.168593
O O15 0.744726 0.275448 0.500000
O O16 0.818143 0.500000 0.577102
O O17 0.694874 0.292468 0.623998
O O18 0.680402 0.500000 0.277217
O O19 0.109527 0.500000 0.851139
O O20 0.000000 0.283003 0.906247
#
# Coordination Sequence:
#
# PCOD8197856 Si02
#       7
#     8   8   4   8   8   8   8
#     4  10  20  33  52  79 112 150 190 234 282 333
#     4  10  21  37  58  83 112 149 190 231 278 334
#     4   9  18  32  52  80 115 159 206 247 291 343
#     4  10  22  40  62  87 114 145 184 233 290 352
#     4   9  20  37  55  80 115 156 200 244 293 348
#     4  11  22  36  59  86 114 151 191 236 288 343
#     4  10  20  34  53  79 113 151 190 231 277 330
#
# _framework density 20.986654000000001
#
# number of rings (size 3 to 8) (size 9 to 14) (size 15 to 20)
#    0.000    2.077    1.538    1.385    2.154    4.000 
#    0.000    6.154    0.000    0.462    0.000    5.385 
#    0.000    0.000    0.000    0.000    0.000    0.000 
#
# Total GULP energy -644328.009795 kJ/mol
# GULP energy per Si atom -12390.923265 kJ/mol
# Density = 2.093889 g / cm^3
# Si number density = 20.986654 Si / 1000 Ang^3
#
#
#
# Elastic Constant Matrix: (Units=GPa)
#
#
# Indices 1 2 3 4 5 6 
#
# 1 117.0561 18.7546 61.7551 0.0000 0.0000 0.0000
# 2 18.7546 65.6590 21.8575 0.0000 0.0000 0.0000
# 3 61.7551 21.8575 118.6484 0.0000 0.0000 0.0000
# 4 0.0000 0.0000 0.0000 22.0670 0.0000 0.0000
# 5 0.0000 0.0000 0.0000 0.0000 12.9384 0.0000
# 6 0.0000 0.0000 0.0000 0.0000 0.0000 12.7341
#
#
#
# Elastic Compliance Matrix: (Units=1/GPa)
#
#
# Indices 1 2 3 4 5 6 
#
# 1 0.011900 -0.001425 -0.005932 0.000000 0.000000 0.000000
# 2 -0.001425 0.016396 -0.002279 0.000000 0.000000 0.000000
# 3 -0.005932 -0.002279 0.011935 0.000000 0.000000 0.000000
# 4 0.000000 0.000000 0.000000 0.045316 0.000000 0.000000
# 5 0.000000 0.000000 0.000000 0.000000 0.077289 0.000000
# 6 0.000000 0.000000 0.000000 0.000000 0.000000 0.078529
#
#
# Mechanical properties :
#
#
# Convention : Reuss Voigt Hill
#
# Bulk Modulus (GPa) = 47.70688 56.23310 51.96999
# Shear Modulus (GPa) = 18.68292 22.81433 20.74863
#
# Velocity S-wave (km/s) = 2.98691 3.30068 3.14770
# Velocity P-wave (km/s) = 5.88870 6.43264 6.16667
#
# Compressibility (1/GPa) = 0.02096134
#
# Stress axis : x y z
#
# Youngs Moduli (GPa) = 84.03011 60.99128 83.78419
#
# Poissons Ratio (x) = 0.08689 0.49698
# Poissons Ratio (y) = 0.11971 0.19094
# Poissons Ratio (z) = 0.49843 0.13900
#
# Static dielectric constant tensor:
#      x y z
#    x 3.694680 0.000000 0.000000 
#    y 0.000000 3.696400 0.000000 
#    z 0.000000 0.000000 3.918920 
# 
# 
# High freq. dielectric constant tensor:
#      x y z
#    x 1.782730 0.000000 0.000000 
#    y 0.000000 1.815960 0.000000 
#    z 0.000000 0.000000 1.835610 
# 
# From -- ./inp_files/10967.got.cif
#   From: 2010.03.12/outbox.cif.g09.slc.cpg/sg47_6_cif.got.tgz:10967.got - 2010.04.14 03:12:58.
