data_PCOD8197902
_publ_section_title
;
Structure prediction by ZEFSAII (Michael W. Deem and Ramdas Pophale) SiO2 
 PCOD8197902
Probable space group: P M M M
;
_chemical_formula_sum "Si O2"
_cell_formula_units_Z 64
_cell_length_a 23.967263
_cell_length_b 14.345403
_cell_length_c 9.500865
_cell_angle_alpha 90.000000
_cell_angle_beta 90.000000
_cell_angle_gamma 90.000000
_cell_volume 3266.587846
_symmetry_space_group_name_H-M "P M M M"
_symmetry_group_IT_number 47
_symmetry_cell_setting 'orthorhombic'
loop_
_space_group_symop_operation_xyz
x,y,z
-x,-y,z
x,-y,-z
-x,y,-z
-x,-y,-z
x,y,-z
-x,y,z
x,-y,z
loop_
_atom_site_type_symbol
_atom_site_label
_atom_site_fract_x
_atom_site_fract_y
_atom_site_fract_z
Si Si1 0.565600 0.895061 0.661870
Si Si2 0.745592 0.895329 0.844126
Si Si3 0.358928 0.233598 0.842277
Si Si4 0.157510 0.111368 0.343996
Si Si5 0.061027 0.110473 0.155578
Si Si6 0.937396 0.610479 0.840905
Si Si7 0.833065 0.610387 0.339398
Si Si8 0.276428 0.392017 0.164904
O O1 0.583685 0.885799 0.500000
O O2 0.500000 0.882563 0.679591
O O3 0.592842 0.807994 0.744114
O O4 0.582489 0.000000 0.715703
O O5 0.688254 0.843299 0.840459
O O6 0.789074 0.848319 0.737079
O O7 0.732975 0.000000 0.795165
O O8 0.772334 0.893296 0.000000
O O9 0.330973 0.331053 0.789962
O O10 0.383128 0.246516 0.000000
O O11 0.159168 0.151525 0.500000
O O12 0.102813 0.152888 0.269650
O O13 0.156974 0.000000 0.339297
O O14 0.000000 0.152066 0.187846
O O15 0.059167 0.000000 0.166099
O O16 0.080555 0.140443 0.000000
O O17 0.933686 0.500000 0.841702
O O18 0.888783 0.650484 0.738014
O O19 0.000000 0.640970 0.790733
O O20 0.926916 0.647629 0.000000
O O21 0.830497 0.648966 0.500000
O O22 0.836190 0.500000 0.341408
O O23 0.777348 0.640663 0.254350
O O24 0.291087 0.500000 0.193070
O O25 0.262992 0.373727 0.000000
#
# Coordination Sequence:
#
# PCOD8197902 Si02
#       8
#     8   8   8   8   8   8   8   8
#     4   9  19  36  57  83 117 153 181 206 246 301
#     4   9  17  29  44  64  94 126 153 189 238 289
#     4  10  20  33  53  81 106 134 177 220 255 294
#     4   9  16  24  35  54  81 113 149 188 231 282
#     4   8  13  21  33  49  71 103 144 188 234 283
#     4   8  13  21  34  54  82 117 156 199 253 319
#     4   9  16  25  39  61  89 122 163 211 261 314
#     4   9  18  33  51  71 100 137 175 219 270 318
#
# _framework density 19.592310000000001
#
# number of rings (size 3 to 8) (size 9 to 14) (size 15 to 20)
#    0.000    3.125    0.000    2.250    0.000    5.500 
#    0.000    4.375    0.000    0.375    0.000    3.500 
#    0.000    7.000    0.000    0.750    0.000    0.125 
#
# Total GULP energy -792975.285438 kJ/mol
# GULP energy per Si atom -12390.238835 kJ/mol
# Density = 1.954772 g / cm^3
# Si number density = 19.592310 Si / 1000 Ang^3
#
#
#
# Elastic Constant Matrix: (Units=GPa)
#
#
# Indices 1 2 3 4 5 6 
#
# 1 84.9989 31.8785 54.3649 0.0000 0.0000 0.0000
# 2 31.8785 74.3563 23.5740 0.0000 0.0000 0.0000
# 3 54.3649 23.5740 110.4614 0.0000 0.0000 0.0000
# 4 0.0000 0.0000 0.0000 5.5564 0.0000 0.0000
# 5 0.0000 0.0000 0.0000 0.0000 14.1571 0.0000
# 6 0.0000 0.0000 0.0000 0.0000 0.0000 245.7341
#
#
#
# Elastic Compliance Matrix: (Units=1/GPa)
#
#
# Indices 1 2 3 4 5 6 
#
# 1 0.019116 -0.005591 -0.008215 0.000000 0.000000 0.000000
# 2 -0.005591 0.016060 -0.000676 0.000000 0.000000 0.000000
# 3 -0.008215 -0.000676 0.013240 0.000000 0.000000 0.000000
# 4 0.000000 0.000000 0.000000 0.179974 0.000000 0.000000
# 5 0.000000 0.000000 0.000000 0.000000 0.070636 0.000000
# 6 0.000000 0.000000 0.000000 0.000000 0.000000 0.004069
#
#
# Mechanical properties :
#
#
# Convention : Reuss Voigt Hill
#
# Bulk Modulus (GPa) = 51.40652 54.38347 52.89499
# Shear Modulus (GPa) = 14.76916 63.75613 39.26265
#
# Velocity S-wave (km/s) = 2.74857 5.71070 4.48144
# Velocity P-wave (km/s) = 6.03058 8.44397 7.33718
#
# Compressibility (1/GPa) = 0.01945279
#
# Stress axis : x y z
#
# Youngs Moduli (GPa) = 52.31219 62.26638 75.52742
#
# Poissons Ratio (x) = 0.34814 0.62045
# Poissons Ratio (y) = 0.29248 0.05104
# Poissons Ratio (z) = 0.42974 0.04207
#
# Static dielectric constant tensor:
#      x y z
#    x 3.503880 0.000000 0.000000 
#    y 0.000000 3.472370 0.000000 
#    z 0.000000 0.000000 3.806910 
# 
# 
# High freq. dielectric constant tensor:
#      x y z
#    x 1.744270 0.000000 0.000000 
#    y 0.000000 1.751760 0.000000 
#    z 0.000000 0.000000 1.756370 
# 
# From -- ./inp_files/12692.got.cif
#   From: 2010.03.12/outbox.cif.g09.slc.cpg/sg47_7_cif.got.tgz:12692.got - 2010.04.14 03:12:58.
