data_PCOD8197901
_publ_section_title
;
Structure prediction by ZEFSAII (Michael W. Deem and Ramdas Pophale) SiO2 
 PCOD8197901
Probable space group: P M M M
;
_chemical_formula_sum "Si O2"
_cell_formula_units_Z 52
_cell_length_a 15.093800
_cell_length_b 20.618040
_cell_length_c 9.052452
_cell_angle_alpha 90.000000
_cell_angle_beta 90.000000
_cell_angle_gamma 90.000000
_cell_volume 2817.164452
_symmetry_space_group_name_H-M "P M M M"
_symmetry_group_IT_number 47
_symmetry_cell_setting 'orthorhombic'
loop_
_space_group_symop_operation_xyz
x,y,z
-x,-y,z
x,-y,-z
-x,y,-z
-x,-y,-z
x,y,-z
-x,y,z
x,-y,z
loop_
_atom_site_type_symbol
_atom_site_label
_atom_site_fract_x
_atom_site_fract_y
_atom_site_fract_z
Si Si1 0.871430 0.000000 0.672220
Si Si2 0.780575 0.252182 0.174743
Si Si3 0.598306 0.248888 0.330689
Si Si4 0.598363 0.902635 0.660091
Si Si5 0.697891 0.000000 0.167266
Si Si6 0.101720 0.372338 0.826885
Si Si7 0.901838 0.866126 0.830292
Si Si8 0.105374 0.500000 0.666818
O O1 0.768910 0.000000 0.704337
O O2 0.908353 0.933577 0.742078
O O3 0.894585 0.000000 0.500000
O O4 0.683225 0.270778 0.236361
O O5 0.844196 0.309939 0.227097
O O6 0.826447 0.184313 0.231054
O O7 0.773505 0.249082 0.000000
O O8 0.612421 0.270323 0.500000
O O9 0.500000 0.274777 0.277067
O O10 0.597347 0.172697 0.313097
O O11 0.643492 0.918584 0.500000
O O12 0.500000 0.930593 0.654969
O O13 0.643920 0.934717 0.802045
O O14 0.733761 0.000000 0.000000
O O15 0.141720 0.435662 0.746831
O O16 0.000000 0.360575 0.781965
O O17 0.111697 0.384140 0.000000
O O18 0.000000 0.833515 0.819794
O O19 0.878821 0.882784 0.000000
O O20 0.140484 0.500000 0.500000
O O21 0.000000 0.500000 0.676003
#
# Coordination Sequence:
#
# PCOD8197901 Si02
#       8
#     4   8   8   8   4   8   8   4
#     4  12  25  38  51  67  91 127 172 215 254 303
#     4  10  20  33  53  81 106 132 170 212 254 302
#     4   9  19  35  52  70  95 129 166 204 251 304
#     4   9  18  33  50  66  88 119 153 194 250 312
#     4  12  23  32  45  67  91 115 151 199 252 309
#     4   9  17  31  51  76 109 146 177 205 244 297
#     4  10  21  38  57  76 101 131 164 209 263 312
#     4   9  17  29  47  75 110 145 180 213 243 282
#
# _framework density 18.458276000000001
#
# number of rings (size 3 to 8) (size 9 to 14) (size 15 to 20)
#    0.000    2.231    0.000    4.385    0.000    9.846 
#    0.000    1.538    0.000    2.769    0.000    0.538 
#    0.000    4.308    0.000    0.000    0.000    0.000 
#
# Total GULP energy -644186.347025 kJ/mol
# GULP energy per Si atom -12388.198981 kJ/mol
# Density = 1.841626 g / cm^3
# Si number density = 18.458276 Si / 1000 Ang^3
#
#
#
# Elastic Constant Matrix: (Units=GPa)
#
#
# Indices 1 2 3 4 5 6 
#
# 1 105.6483 42.3202 34.0551 0.0000 0.0000 0.0000
# 2 42.3202 100.3645 40.0542 0.0000 0.0000 0.0000
# 3 34.0551 40.0542 66.5175 0.0000 0.0000 0.0000
# 4 0.0000 0.0000 0.0000 27.1836 0.0000 0.0000
# 5 0.0000 0.0000 0.0000 0.0000 25.3423 0.0000
# 6 0.0000 0.0000 0.0000 0.0000 0.0000 -21.9752
#
#
#
# Elastic Compliance Matrix: (Units=1/GPa)
#
#
# Indices 1 2 3 4 5 6 
#
# 1 0.012199 -0.003490 -0.004144 0.000000 0.000000 0.000000
# 2 -0.003490 0.014114 -0.006712 0.000000 0.000000 0.000000
# 3 -0.004144 -0.006712 0.021197 0.000000 0.000000 0.000000
# 4 0.000000 0.000000 0.000000 0.036787 0.000000 0.000000
# 5 0.000000 0.000000 0.000000 0.000000 0.039460 0.000000
# 6 0.000000 0.000000 0.000000 0.000000 0.000000 -0.045506
#
#
# Mechanical properties :
#
#
# Convention : Reuss Voigt Hill
#
# Bulk Modulus (GPa) = 53.14121 56.15438 54.64780
# Shear Modulus (GPa) = 44.16321 16.51683 30.34002
#
# Velocity S-wave (km/s) = 4.89672 2.99460 4.05867
# Velocity P-wave (km/s) = 7.79891 6.51500 7.18569
#
# Compressibility (1/GPa) = 0.01881779
#
# Stress axis : x y z
#
# Youngs Moduli (GPa) = 81.97218 70.85129 47.17644
#
# Poissons Ratio (x) = 0.24728 0.19550
# Poissons Ratio (y) = 0.28610 0.31665
# Poissons Ratio (z) = 0.33970 0.47556
#
# Static dielectric constant tensor:
#      x y z
#    x 3.665050 0.000000 0.000000 
#    y 0.000000 3.730160 0.000000 
#    z 0.000000 0.000000 3.299830 
# 
# 
# High freq. dielectric constant tensor:
#      x y z
#    x 1.712560 0.000000 0.000000 
#    y 0.000000 1.692000 0.000000 
#    z 0.000000 0.000000 1.705540 
# 
# From -- ./inp_files/7156.got.cif
#   From: 2010.03.12/outbox.cif.g09.slc.cpg/sg47_4_cif.got.tgz:7156.got - 2010.04.14 03:12:58.
