data_PCOD8197150
_publ_section_title
;
Structure prediction by ZEFSAII (Michael W. Deem and Ramdas Pophale) SiO2 
 PCOD8197150
Probable space group: P M M M
;
_chemical_formula_sum "Si O2"
_cell_formula_units_Z 48
_cell_length_a 15.223700
_cell_length_b 19.101175
_cell_length_c 9.032079
_cell_angle_alpha 90.000000
_cell_angle_beta 90.000000
_cell_angle_gamma 90.000000
_cell_volume 2626.443291
_symmetry_space_group_name_H-M "P M M M"
_symmetry_group_IT_number 47
_symmetry_cell_setting 'orthorhombic'
loop_
_space_group_symop_operation_xyz
x,y,z
-x,-y,z
x,-y,-z
-x,y,-z
-x,-y,-z
x,y,-z
-x,y,z
x,-y,z
loop_
_atom_site_type_symbol
_atom_site_label
_atom_site_fract_x
_atom_site_fract_y
_atom_site_fract_z
Si Si1 0.097289 0.674842 0.175922
Si Si2 0.742638 0.078189 0.823819
Si Si3 0.398601 0.668944 0.673497
Si Si4 0.744282 0.580810 0.826073
Si Si5 0.600562 0.811697 0.172661
Si Si6 0.902742 0.168063 0.823910
O O1 0.170959 0.622149 0.237705
O O2 0.118854 0.753400 0.231854
O O3 0.000000 0.652345 0.232752
O O4 0.097726 0.672820 0.000000
O O5 0.658295 0.122789 0.772630
O O6 0.830809 0.114415 0.759516
O O7 0.734960 0.000000 0.757567
O O8 0.746783 0.074944 0.000000
O O9 0.381779 0.671141 0.500000
O O10 0.500000 0.654341 0.712342
O O11 0.343106 0.606604 0.744717
O O12 0.368253 0.742930 0.740906
O O13 0.758878 0.500000 0.788447
O O14 0.732150 0.593730 0.000000
O O15 0.500000 0.830677 0.208158
O O16 0.615707 0.796387 0.000000
O O17 0.000000 0.145208 0.769445
O O18 0.899516 0.167438 0.000000
#
# Coordination Sequence:
#
# PCOD8197150 Si02
#       6
#     8   8   8   8   8   8
#     4   8  14  26  45  69  97 128 161 196 233 275
#     4   9  16  24  37  62  95 126 153 185 229 279
#     4  10  21  36  53  71  92 123 163 203 242 286
#     4  10  20  32  49  75 103 129 157 192 237 287
#     4   9  17  30  49  70  91 118 154 196 238 280
#     4   8  13  21  34  54  84 123 159 187 220 265
#
# _framework density 18.275665
#
# number of rings (size 3 to 8) (size 9 to 14) (size 15 to 20)
#    0.000    3.000    0.000    2.500    0.000    5.333 
#    0.000    6.667    0.000    1.000    0.000    3.500 
#    0.000    0.000    0.000    6.000    0.000    5.333 
#
# Total GULP energy -595064.218706 kJ/mol
# GULP energy per Si atom -12397.171223 kJ/mol
# Density = 1.823407 g / cm^3
# Si number density = 18.275665 Si / 1000 Ang^3
#
#
#
# Elastic Constant Matrix: (Units=GPa)
#
#
# Indices 1 2 3 4 5 6 
#
# 1 117.4243 73.0680 23.8721 0.0000 0.0000 0.0000
# 2 73.0680 121.7821 26.1442 0.0000 0.0000 0.0000
# 3 23.8721 26.1442 23.9555 0.0000 0.0000 0.0000
# 4 0.0000 0.0000 0.0000 5.0209 0.0000 0.0000
# 5 0.0000 0.0000 0.0000 0.0000 8.9643 0.0000
# 6 0.0000 0.0000 0.0000 0.0000 0.0000 25.4652
#
#
#
# Elastic Compliance Matrix: (Units=1/GPa)
#
#
# Indices 1 2 3 4 5 6 
#
# 1 0.014300 -0.007210 -0.006382 0.000000 0.000000 0.000000
# 2 -0.007210 0.014359 -0.008486 0.000000 0.000000 0.000000
# 3 -0.006382 -0.008486 0.057365 0.000000 0.000000 0.000000
# 4 0.000000 0.000000 0.000000 0.199168 0.000000 0.000000
# 5 0.000000 0.000000 0.000000 0.000000 0.111554 0.000000
# 6 0.000000 0.000000 0.000000 0.000000 0.000000 0.039269
#
#
# Mechanical properties :
#
#
# Convention : Reuss Voigt Hill
#
# Bulk Modulus (GPa) = 23.88416 56.59227 40.23821
# Shear Modulus (GPa) = 10.11886 17.22857 13.67371
#
# Velocity S-wave (km/s) = 2.35559 3.07368 2.73828
# Velocity P-wave (km/s) = 4.52721 6.60529 5.66240
#
# Compressibility (1/GPa) = 0.04186876
#
# Stress axis : x y z
#
# Youngs Moduli (GPa) = 69.93122 69.64279 17.43219
#
# Poissons Ratio (x) = 0.50210 0.11124
# Poissons Ratio (y) = 0.50418 0.14794
# Poissons Ratio (z) = 0.44627 0.59101
#
# Static dielectric constant tensor:
#      x y z
#    x 3.700800 0.000000 0.000000 
#    y 0.000000 3.518400 0.000000 
#    z 0.000000 0.000000 2.794570 
# 
# 
# High freq. dielectric constant tensor:
#      x y z
#    x 1.724210 0.000000 0.000000 
#    y 0.000000 1.707780 0.000000 
#    z 0.000000 0.000000 1.644020 
# 
# From -- ./inp_files/6341.got.cif
#   From: 2010.03.12/outbox.cif.g09.slc.cpg/sg47_4_cif.got.tgz:6341.got - 2010.04.14 03:12:58.
