data_PCOD8197982
_publ_section_title
;
Structure prediction by ZEFSAII (Michael W. Deem and Ramdas Pophale) SiO2 
 PCOD8197982
Probable space group: P M M M
;
_chemical_formula_sum "Si O2"
_cell_formula_units_Z 36
_cell_length_a 8.369618
_cell_length_b 22.028947
_cell_length_c 9.669800
_cell_angle_alpha 90.000000
_cell_angle_beta 90.000000
_cell_angle_gamma 90.000000
_cell_volume 1782.858461
_symmetry_space_group_name_H-M "P M M M"
_symmetry_group_IT_number 47
_symmetry_cell_setting 'orthorhombic'
loop_
_space_group_symop_operation_xyz
x,y,z
-x,-y,z
x,-y,-z
-x,y,-z
-x,-y,-z
x,y,-z
-x,y,z
x,-y,z
loop_
_atom_site_type_symbol
_atom_site_label
_atom_site_fract_x
_atom_site_fract_y
_atom_site_fract_z
Si Si1 0.309759 0.500000 0.840463
Si Si2 0.809204 0.069555 0.500000
Si Si3 0.190085 0.145963 0.754440
Si Si4 0.810053 0.722435 0.159435
Si Si5 0.190802 0.066727 0.000000
Si Si6 0.688954 0.387296 0.341181
O O1 0.500000 0.500000 0.846312
O O2 0.245065 0.442264 0.753909
O O3 0.243813 0.500000 0.000000
O O4 0.742686 0.110977 0.377316
O O5 0.000000 0.065212 0.500000
O O6 0.741824 0.000000 0.500000
O O7 0.254791 0.213975 0.778578
O O8 0.000000 0.148975 0.753092
O O9 0.257761 0.103197 0.872123
O O10 0.740000 0.673341 0.263545
O O11 0.000000 0.719617 0.162338
O O12 0.750821 0.713555 0.000000
O O13 0.000000 0.063455 0.000000
O O14 0.265532 0.000000 0.000000
O O15 0.756704 0.389880 0.500000
O O16 0.500000 0.391044 0.349018
#
# Coordination Sequence:
#
# PCOD8197982 Si02
#       6
#     4   4   8   8   4   8
#     4   9  17  33  58  83 106 135 168 208 258 303
#     4   9  16  24  36  58  89 126 167 208 252 305
#     4   9  16  26  39  60  92 129 166 206 254 305
#     4  10  20  34  51  74 106 143 179 213 256 309
#     4   9  14  22  38  58  85 124 165 204 250 303
#     4  10  21  36  56  82 109 136 171 213 255 302
#
# _framework density 20.192292999999999
#
# number of rings (size 3 to 8) (size 9 to 14) (size 15 to 20)
#    0.000    2.556    1.111    1.667    1.556    5.778 
#    0.000    0.556    0.000    3.333    0.000    0.000 
#    0.000    5.333    0.000    0.000    0.000    0.000 
#
# Total GULP energy -445993.934568 kJ/mol
# GULP energy per Si atom -12388.720405 kJ/mol
# Density = 2.014633 g / cm^3
# Si number density = 20.192293 Si / 1000 Ang^3
#
#
#
# Elastic Constant Matrix: (Units=GPa)
#
#
# Indices 1 2 3 4 5 6 
#
# 1 4.8566 4.7478 7.1292 0.0000 0.0000 0.0000
# 2 4.7478 209.0315 117.3396 0.0000 0.0000 0.0000
# 3 7.1292 117.3396 224.4539 0.0000 0.0000 0.0000
# 4 0.0000 0.0000 0.0000 48.0901 0.0000 0.0000
# 5 0.0000 0.0000 0.0000 0.0000 17.8316 0.0000
# 6 0.0000 0.0000 0.0000 0.0000 0.0000 73.9283
#
#
#
# Elastic Compliance Matrix: (Units=1/GPa)
#
#
# Indices 1 2 3 4 5 6 
#
# 1 0.216305 -0.001495 -0.006089 0.000000 0.000000 0.000000
# 2 -0.001495 0.006781 -0.003498 0.000000 0.000000 0.000000
# 3 -0.006089 -0.003498 0.006477 0.000000 0.000000 0.000000
# 4 0.000000 0.000000 0.000000 0.020794 0.000000 0.000000
# 5 0.000000 0.000000 0.000000 0.000000 0.056080 0.000000
# 6 0.000000 0.000000 0.000000 0.000000 0.000000 0.013527
#
#
# Mechanical properties :
#
#
# Convention : Reuss Voigt Hill
#
# Bulk Modulus (GPa) = 4.82158 77.41948 41.12053
# Shear Modulus (GPa) = 12.15771 48.57833 30.36802
#
# Velocity S-wave (km/s) = 2.45643 4.91020 3.88228
# Velocity P-wave (km/s) = 3.23085 8.40066 6.36433
#
# Compressibility (1/GPa) = 0.20740086
#
# Stress axis : x y z
#
# Youngs Moduli (GPa) = 4.62309 147.46384 154.38895
#
# Poissons Ratio (x) = 0.22046 0.94005
# Poissons Ratio (y) = 0.00691 0.54000
# Poissons Ratio (z) = 0.02815 0.51578
#
# Static dielectric constant tensor:
#      x y z
#    x 2.915040 0.000000 0.000000 
#    y 0.000000 4.034750 0.000000 
#    z 0.000000 0.000000 4.081100 
# 
# 
# High freq. dielectric constant tensor:
#      x y z
#    x 1.715350 0.000000 0.000000 
#    y 0.000000 1.809340 0.000000 
#    z 0.000000 0.000000 1.809470 
# 
# From -- ./inp_files/3980.got.cif
#   From: 2010.03.12/outbox.cif.g09.slc.cpg/sg47_2_cif.got.tgz:3980.got - 2010.04.14 03:12:58.
