data_PCOD8197190
_publ_section_title
;
Structure prediction by ZEFSAII (Michael W. Deem and Ramdas Pophale) SiO2 
 PCOD8197190
Probable space group: P M M M
;
_chemical_formula_sum "Si O2"
_cell_formula_units_Z 48
_cell_length_a 15.284390
_cell_length_b 19.526452
_cell_length_c 9.085358
_cell_angle_alpha 90.000000
_cell_angle_beta 90.000000
_cell_angle_gamma 90.000000
_cell_volume 2711.524256
_symmetry_space_group_name_H-M "P M M M"
_symmetry_group_IT_number 47
_symmetry_cell_setting 'orthorhombic'
loop_
_space_group_symop_operation_xyz
x,y,z
-x,-y,z
x,-y,-z
-x,y,-z
-x,-y,-z
x,y,-z
-x,y,z
x,-y,z
loop_
_atom_site_type_symbol
_atom_site_label
_atom_site_fract_x
_atom_site_fract_y
_atom_site_fract_z
Si Si1 0.096326 0.918638 0.834395
Si Si2 0.397295 0.312349 0.669245
Si Si3 0.265503 0.081173 0.331835
Si Si4 0.718892 0.579248 0.825278
Si Si5 0.907703 0.581270 0.835012
Si Si6 0.601469 0.174409 0.172396
O O1 0.172340 0.890410 0.728009
O O2 0.000000 0.892803 0.781479
O O3 0.097107 0.000000 0.832323
O O4 0.114574 0.892303 0.000000
O O5 0.369296 0.306155 0.500000
O O6 0.500000 0.322502 0.687815
O O7 0.353933 0.378239 0.741717
O O8 0.365714 0.244200 0.752341
O O9 0.274728 0.104607 0.500000
O O10 0.344702 0.111363 0.237701
O O11 0.270854 0.000000 0.315063
O O12 0.702846 0.500000 0.786419
O O13 0.815102 0.604786 0.764671
O O14 0.712378 0.590943 0.000000
O O15 0.904024 0.500000 0.841568
O O16 0.000000 0.604322 0.754758
O O17 0.911314 0.610450 0.000000
O O18 0.500000 0.160539 0.207775
O O19 0.619073 0.180348 0.000000
#
# Coordination Sequence:
#
# PCOD8197190 Si02
#       6
#     8   8   8   8   8   8
#     4   8  14  26  45  69  98 132 168 204 240 280
#     4  10  21  36  52  69  93 127 163 199 244 298
#     4  10  20  32  49  76 107 135 162 197 243 292
#     4   9  17  29  48  75 102 127 159 200 241 280
#     4   7  10  19  38  65  95 124 154 189 229 273
#     4  10  21  37  56  74  93 123 164 207 249 295
#
# _framework density 17.702221000000002
#
# number of rings (size 3 to 8) (size 9 to 14) (size 15 to 20)
#    0.000    3.000    0.000    3.500    0.000    4.333 
#    0.000    5.000    0.000    1.500    0.000    4.667 
#    0.000    0.000    0.000    0.000    0.000    0.000 
#
# Total GULP energy -594725.568953 kJ/mol
# GULP energy per Si atom -12390.116020 kJ/mol
# Density = 1.766193 g / cm^3
# Si number density = 17.702221 Si / 1000 Ang^3
#
#
#
# Elastic Constant Matrix: (Units=GPa)
#
#
# Indices 1 2 3 4 5 6 
#
# 1 90.9396 41.3782 54.2983 0.0000 0.0000 0.0000
# 2 41.3782 45.5935 37.6829 0.0000 0.0000 0.0000
# 3 54.2983 37.6829 89.9457 0.0000 0.0000 0.0000
# 4 0.0000 0.0000 0.0000 23.4693 0.0000 0.0000
# 5 0.0000 0.0000 0.0000 0.0000 23.7042 0.0000
# 6 0.0000 0.0000 0.0000 0.0000 0.0000 3.9053
#
#
#
# Elastic Compliance Matrix: (Units=1/GPa)
#
#
# Indices 1 2 3 4 5 6 
#
# 1 0.021498 -0.013437 -0.007348 0.000000 0.000000 0.000000
# 2 -0.013437 0.041949 -0.009463 0.000000 0.000000 0.000000
# 3 -0.007348 -0.009463 0.019518 0.000000 0.000000 0.000000
# 4 0.000000 0.000000 0.000000 0.042609 0.000000 0.000000
# 5 0.000000 0.000000 0.000000 0.000000 0.042187 0.000000
# 6 0.000000 0.000000 0.000000 0.000000 0.000000 0.256060
#
#
# Mechanical properties :
#
#
# Convention : Reuss Voigt Hill
#
# Bulk Modulus (GPa) = 44.50670 54.79972 49.65321
# Shear Modulus (GPa) = 10.16661 16.42373 13.29517
#
# Velocity S-wave (km/s) = 2.39908 3.04925 2.74349
# Velocity P-wave (km/s) = 5.73329 6.58945 6.17622
#
# Compressibility (1/GPa) = 0.02246853
#
# Stress axis : x y z
#
# Youngs Moduli (GPa) = 46.51659 23.83873 51.23388
#
# Poissons Ratio (x) = 0.32032 0.37648
# Poissons Ratio (y) = 0.62503 0.48482
# Poissons Ratio (z) = 0.34182 0.22558
#
# Static dielectric constant tensor:
#      x y z
#    x 3.736570 0.000000 0.000000 
#    y 0.000000 2.893190 0.000000 
#    z 0.000000 0.000000 3.206820 
# 
# 
# High freq. dielectric constant tensor:
#      x y z
#    x 1.703650 0.000000 0.000000 
#    y 0.000000 1.642870 0.000000 
#    z 0.000000 0.000000 1.668610 
# 
# From -- ./inp_files/6379.got.cif
#   From: 2010.03.12/outbox.cif.g09.slc.cpg/sg47_4_cif.got.tgz:6379.got - 2010.04.14 03:12:58.
