data_PCOD8197883
_publ_section_title
;
Structure prediction by ZEFSAII (Michael W. Deem and Ramdas Pophale) SiO2 
 PCOD8197883
Probable space group: P M M M
;
_chemical_formula_sum "Si O2"
_cell_formula_units_Z 48
_cell_length_a 9.183390
_cell_length_b 9.675577
_cell_length_c 27.146865
_cell_angle_alpha 90.000000
_cell_angle_beta 90.000000
_cell_angle_gamma 90.000000
_cell_volume 2412.123751
_symmetry_space_group_name_H-M "P M M M"
_symmetry_group_IT_number 47
_symmetry_cell_setting 'orthorhombic'
loop_
_space_group_symop_operation_xyz
x,y,z
-x,-y,z
x,-y,-z
-x,y,-z
-x,-y,-z
x,y,-z
-x,y,z
x,-y,z
loop_
_atom_site_type_symbol
_atom_site_label
_atom_site_fract_x
_atom_site_fract_y
_atom_site_fract_z
Si Si1 0.670318 0.156631 0.669765
Si Si2 0.335845 0.840731 0.216532
Si Si3 0.172748 0.339737 0.407676
Si Si4 0.836899 0.649534 0.144675
Si Si5 0.161533 0.000000 0.057936
Si Si6 0.327883 0.728612 0.056288
Si Si7 0.827157 0.158705 0.500000
O O1 0.500000 0.176707 0.659493
O O2 0.707072 0.180785 0.726791
O O3 0.759252 0.273070 0.640969
O O4 0.716767 0.000000 0.654460
O O5 0.500000 0.787792 0.207235
O O6 0.226449 0.757953 0.182688
O O7 0.322749 0.000000 0.201843
O O8 0.222953 0.500000 0.414049
O O9 0.228867 0.245444 0.452990
O O10 0.000000 0.333292 0.403339
O O11 0.839714 0.500000 0.170968
O O12 0.740919 0.623717 0.095131
O O13 0.000000 0.696399 0.129862
O O14 0.255745 0.870424 0.074635
O O15 0.000000 0.000000 0.082137
O O16 0.144661 0.000000 0.000000
O O17 0.500000 0.738385 0.062026
O O18 0.286922 0.688593 0.000000
O O19 0.000000 0.152667 0.500000
O O20 0.765569 0.000000 0.500000
#
# Coordination Sequence:
#
# PCOD8197883 Si02
#       7
#     8   8   8   8   4   8   4
#     4   9  19  37  59  83 111 144 185 232 283 339
#     4   9  20  40  64  86 109 142 185 233 283 337
#     4  10  20  33  52  81 116 152 190 235 286 339
#     4  11  25  41  57  82 116 151 185 227 283 341
#     4   9  17  31  53  81 111 141 175 219 269 318
#     4  10  21  37  58  83 111 146 188 230 274 330
#     4   9  17  31  52  77 108 151 200 244 286 333
#
# _framework density 19.899477000000001
#
# number of rings (size 3 to 8) (size 9 to 14) (size 15 to 20)
#    0.000    2.333    0.000    3.000    1.167    7.667 
#    0.000    7.083    0.000    2.500    0.000    0.000 
#    0.000    0.000    0.000    0.000    0.000    0.000 
#
# Total GULP energy -594978.931323 kJ/mol
# GULP energy per Si atom -12395.394403 kJ/mol
# Density = 1.985419 g / cm^3
# Si number density = 19.899477 Si / 1000 Ang^3
#
#
#
# Elastic Constant Matrix: (Units=GPa)
#
#
# Indices 1 2 3 4 5 6 
#
# 1 88.1241 45.5170 49.7735 0.0000 0.0000 0.0000
# 2 45.5170 128.2005 62.9017 0.0000 0.0000 0.0000
# 3 49.7735 62.9017 100.7600 0.0000 0.0000 0.0000
# 4 0.0000 0.0000 0.0000 18.8009 0.0000 0.0000
# 5 0.0000 0.0000 0.0000 0.0000 29.5759 0.0000
# 6 0.0000 0.0000 0.0000 0.0000 0.0000 35.4280
#
#
#
# Elastic Compliance Matrix: (Units=1/GPa)
#
#
# Indices 1 2 3 4 5 6 
#
# 1 0.016342 -0.002654 -0.006416 0.000000 0.000000 0.000000
# 2 -0.002654 0.011676 -0.005978 0.000000 0.000000 0.000000
# 3 -0.006416 -0.005978 0.016825 0.000000 0.000000 0.000000
# 4 0.000000 0.000000 0.000000 0.053189 0.000000 0.000000
# 5 0.000000 0.000000 0.000000 0.000000 0.033811 0.000000
# 6 0.000000 0.000000 0.000000 0.000000 0.000000 0.028226
#
#
# Mechanical properties :
#
#
# Convention : Reuss Voigt Hill
#
# Bulk Modulus (GPa) = 67.80560 70.38544 69.09552
# Shear Modulus (GPa) = 25.63033 27.35377 26.49205
#
# Velocity S-wave (km/s) = 3.59275 3.71158 3.65265
# Velocity P-wave (km/s) = 7.16649 7.33587 7.25167
#
# Compressibility (1/GPa) = 0.01474804
#
# Stress axis : x y z
#
# Youngs Moduli (GPa) = 61.19076 85.64880 59.43386
#
# Poissons Ratio (x) = 0.22735 0.38131
# Poissons Ratio (y) = 0.16242 0.35527
# Poissons Ratio (z) = 0.39258 0.51197
#
# Static dielectric constant tensor:
#      x y z
#    x 3.484030 0.000000 0.000000 
#    y 0.000000 3.758100 0.000000 
#    z 0.000000 0.000000 3.565780 
# 
# 
# High freq. dielectric constant tensor:
#      x y z
#    x 1.765830 0.000000 0.000000 
#    y 0.000000 1.784270 0.000000 
#    z 0.000000 0.000000 1.773070 
# 
# From -- ./inp_files/34143.got.cif
#   From: 2010.03.12/outbox.cif.g09.slc.cpg/sg47_18_cif.got.tgz:34143.got - 2010.04.14 03:12:58.
