data_PCOD8197634
_publ_section_title
;
Structure prediction by ZEFSAII (Michael W. Deem and Ramdas Pophale) SiO2 
 PCOD8197634
Probable space group: P M M M
;
_chemical_formula_sum "Si O2"
_cell_formula_units_Z 48
_cell_length_a 16.367193
_cell_length_b 9.097944
_cell_length_c 18.178433
_cell_angle_alpha 90.000000
_cell_angle_beta 90.000000
_cell_angle_gamma 90.000000
_cell_volume 2706.910563
_symmetry_space_group_name_H-M "P M M M"
_symmetry_group_IT_number 47
_symmetry_cell_setting 'orthorhombic'
loop_
_space_group_symop_operation_xyz
x,y,z
-x,-y,z
x,-y,-z
-x,y,-z
-x,-y,-z
x,y,-z
-x,y,z
x,-y,z
loop_
_atom_site_type_symbol
_atom_site_label
_atom_site_fract_x
_atom_site_fract_y
_atom_site_fract_z
Si Si1 0.838399 0.171403 0.913970
Si Si2 0.000000 0.664854 0.087192
Si Si3 0.593237 0.171228 0.724691
Si Si4 0.000000 0.325116 0.415858
Si Si5 0.260305 0.673431 0.796008
Si Si6 0.315113 0.168026 0.418748
Si Si7 0.830528 0.327049 0.649324
O O1 0.920825 0.248533 0.885116
O O2 0.763856 0.245227 0.871018
O O3 0.844443 0.000000 0.895872
O O4 0.823918 0.199434 0.000000
O O5 0.000000 0.500000 0.120867
O O6 0.000000 0.657542 0.000000
O O7 0.500000 0.216248 0.739043
O O8 0.649289 0.270583 0.776770
O O9 0.614531 0.207291 0.639784
O O10 0.608253 0.000000 0.742489
O O11 0.079486 0.266602 0.371493
O O12 0.000000 0.500000 0.417090
O O13 0.000000 0.265517 0.500000
O O14 0.262560 0.500000 0.809195
O O15 0.195567 0.718032 0.732195
O O16 0.350818 0.199477 0.500000
O O17 0.233996 0.262893 0.407981
O O18 0.287966 0.000000 0.409548
O O19 0.827694 0.500000 0.640012
#
# Coordination Sequence:
#
# PCOD8197634 Si02
#       7
#     8   4   8   4   8   8   8
#     4  10  20  34  53  77 105 136 170 207 247 295
#     4   9  17  30  49  74 104 135 166 201 240 280
#     4   9  18  33  52  72  96 128 163 200 247 304
#     4   9  16  27  45  66  89 123 168 210 239 270
#     4  10  20  33  51  74 100 130 163 204 252 302
#     4   9  17  29  46  69  96 124 157 201 249 295
#     4   9  18  31  46  66  92 126 167 205 244 290
#
# _framework density 17.732392999999998
#
# number of rings (size 3 to 8) (size 9 to 14) (size 15 to 20)
#    0.000    2.667    0.000    1.750    0.000    5.000 
#    0.000    3.750    0.000    2.000    0.000    8.167 
#    0.000    0.000    0.000    0.000    0.000    0.000 
#
# Total GULP energy -595166.817795 kJ/mol
# GULP energy per Si atom -12399.308704 kJ/mol
# Density = 1.769203 g / cm^3
# Si number density = 17.732393 Si / 1000 Ang^3
#
#
#
# Elastic Constant Matrix: (Units=GPa)
#
#
# Indices 1 2 3 4 5 6 
#
# 1 128.2918 50.4680 56.1985 0.0000 0.0000 0.0000
# 2 50.4680 74.1933 47.5026 0.0000 0.0000 0.0000
# 3 56.1985 47.5026 78.6937 0.0000 0.0000 0.0000
# 4 0.0000 0.0000 0.0000 23.5449 0.0000 0.0000
# 5 0.0000 0.0000 0.0000 0.0000 20.3323 0.0000
# 6 0.0000 0.0000 0.0000 0.0000 0.0000 29.4040
#
#
#
# Elastic Compliance Matrix: (Units=1/GPa)
#
#
# Indices 1 2 3 4 5 6 
#
# 1 0.012174 -0.004425 -0.006023 0.000000 0.000000 0.000000
# 2 -0.004425 0.023577 -0.011072 0.000000 0.000000 0.000000
# 3 -0.006023 -0.011072 0.023692 0.000000 0.000000 0.000000
# 4 0.000000 0.000000 0.000000 0.042472 0.000000 0.000000
# 5 0.000000 0.000000 0.000000 0.000000 0.049183 0.000000
# 6 0.000000 0.000000 0.000000 0.000000 0.000000 0.034009
#
#
# Mechanical properties :
#
#
# Convention : Reuss Voigt Hill
#
# Bulk Modulus (GPa) = 60.96219 65.50190 63.23204
# Shear Modulus (GPa) = 21.40283 23.12357 22.26320
#
# Velocity S-wave (km/s) = 3.47795 3.61505 3.54716
# Velocity P-wave (km/s) = 7.11209 7.37863 7.24658
#
# Compressibility (1/GPa) = 0.01640361
#
# Stress axis : x y z
#
# Youngs Moduli (GPa) = 82.14481 42.41401 42.20788
#
# Poissons Ratio (x) = 0.18767 0.25421
# Poissons Ratio (y) = 0.36346 0.46734
# Poissons Ratio (z) = 0.49474 0.46962
#
# Static dielectric constant tensor:
#      x y z
#    x 3.288400 0.000000 0.000000 
#    y 0.000000 3.243070 0.000000 
#    z 0.000000 0.000000 3.216240 
# 
# 
# High freq. dielectric constant tensor:
#      x y z
#    x 1.676720 0.000000 0.000000 
#    y 0.000000 1.681650 0.000000 
#    z 0.000000 0.000000 1.674970 
# 
# From -- ./inp_files/28013.got.cif
#   From: 2010.03.12/outbox.cif.g09.slc.cpg/sg47_15_cif.got.tgz:28013.got - 2010.04.14 03:12:58.
