data_PCOD8197787
_publ_section_title
;
Structure prediction by ZEFSAII (Michael W. Deem and Ramdas Pophale) SiO2 
 PCOD8197787
Probable space group: P M M M
;
_chemical_formula_sum "Si O2"
_cell_formula_units_Z 48
_cell_length_a 8.785695
_cell_length_b 9.631850
_cell_length_c 29.055138
_cell_angle_alpha 90.000000
_cell_angle_beta 90.000000
_cell_angle_gamma 90.000000
_cell_volume 2458.718310
_symmetry_space_group_name_H-M "P M M M"
_symmetry_group_IT_number 47
_symmetry_cell_setting 'orthorhombic'
loop_
_space_group_symop_operation_xyz
x,y,z
-x,-y,z
x,-y,-z
-x,y,-z
-x,-y,-z
x,y,-z
-x,y,z
x,-y,z
loop_
_atom_site_type_symbol
_atom_site_label
_atom_site_fract_x
_atom_site_fract_y
_atom_site_fract_z
Si Si1 0.180843 0.156406 0.797369
Si Si2 0.670455 0.000000 0.946226
Si Si3 0.322740 0.656766 0.553313
Si Si4 0.819822 0.157987 0.371455
Si Si5 0.820748 0.246811 0.101894
Si Si6 0.818551 0.658453 0.713448
Si Si7 0.678849 0.500000 0.948135
O O1 0.235507 0.212573 0.846604
O O2 0.243084 0.262329 0.758763
O O3 0.000000 0.150651 0.795620
O O4 0.244537 0.000000 0.789168
O O5 0.774309 0.126607 0.932081
O O6 0.500000 0.000000 0.923783
O O7 0.648597 0.000000 0.000000
O O8 0.286995 0.682582 0.500000
O O9 0.500000 0.676282 0.563656
O O10 0.272236 0.500000 0.567104
O O11 0.229790 0.771728 0.581026
O O12 0.756472 0.253683 0.329984
O O13 0.000000 0.152728 0.369438
O O14 0.755570 0.000000 0.367818
O O15 0.730203 0.374627 0.082808
O O16 0.000000 0.274420 0.100404
O O17 0.755204 0.500000 0.712075
O O18 0.000000 0.654897 0.713382
O O19 0.500000 0.500000 0.953536
O O20 0.750491 0.500000 0.000000
#
# Coordination Sequence:
#
# PCOD8197787 Si02
#       7
#     8   4   8   8   8   8   4
#     4   9  17  31  51  80 114 141 171 220 278 327
#     4  11  23  39  59  83 115 155 191 225 278 345
#     4   9  19  36  56  77 104 143 189 234 282 335
#     4  10  20  33  51  80 115 148 184 228 276 326
#     4  11  22  37  60  89 115 144 188 240 284 328
#     4   9  17  29  50  79 110 145 182 222 271 328
#     4  11  25  43  59  79 113 155 191 227 284 349
#
# _framework density 19.522366000000002
#
# number of rings (size 3 to 8) (size 9 to 14) (size 15 to 20)
#    0.000    2.167    0.833    3.000    1.167    7.333 
#    0.000    2.500    0.000    2.000    0.000    0.000 
#    0.000    0.000    0.000    0.000    0.000    0.000 
#
# Total GULP energy -595043.068594 kJ/mol
# GULP energy per Si atom -12396.730596 kJ/mol
# Density = 1.947793 g / cm^3
# Si number density = 19.522366 Si / 1000 Ang^3
#
#
#
# Elastic Constant Matrix: (Units=GPa)
#
#
# Indices 1 2 3 4 5 6 
#
# 1 23.0880 18.3993 19.8621 0.0000 0.0000 0.0000
# 2 18.3993 192.0729 84.9740 0.0000 0.0000 0.0000
# 3 19.8621 84.9740 126.5912 0.0000 0.0000 0.0000
# 4 0.0000 0.0000 0.0000 40.1806 0.0000 0.0000
# 5 0.0000 0.0000 0.0000 0.0000 3.1957 0.0000
# 6 0.0000 0.0000 0.0000 0.0000 0.0000 -3.2371
#
#
#
# Elastic Compliance Matrix: (Units=1/GPa)
#
#
# Indices 1 2 3 4 5 6 
#
# 1 0.050552 -0.001897 -0.006658 0.000000 0.000000 0.000000
# 2 -0.001897 0.007477 -0.004721 0.000000 0.000000 0.000000
# 3 -0.006658 -0.004721 0.012113 0.000000 0.000000 0.000000
# 4 0.000000 0.000000 0.000000 0.024888 0.000000 0.000000
# 5 0.000000 0.000000 0.000000 0.000000 0.312923 0.000000
# 6 0.000000 0.000000 0.000000 0.000000 0.000000 -0.308915
#
#
# Mechanical properties :
#
#
# Convention : Reuss Voigt Hill
#
# Bulk Modulus (GPa) = 22.94129 65.35810 44.14970
# Shear Modulus (GPa) = 35.68338 22.59560 29.13949
#
# Velocity S-wave (km/s) = 4.27994 3.40578 3.86764
# Velocity P-wave (km/s) = 6.01670 7.00122 6.52754
#
# Compressibility (1/GPa) = 0.04358952
#
# Stress axis : x y z
#
# Youngs Moduli (GPa) = 19.78146 133.74888 82.55480
#
# Poissons Ratio (x) = 0.25371 0.54968
# Poissons Ratio (y) = 0.03752 0.38975
# Poissons Ratio (z) = 0.13171 0.63144
#
# Static dielectric constant tensor:
#      x y z
#    x 3.179190 0.000000 0.000000 
#    y 0.000000 4.210080 0.000000 
#    z 0.000000 0.000000 3.738470 
# 
# 
# High freq. dielectric constant tensor:
#      x y z
#    x 1.719220 0.000000 0.000000 
#    y 0.000000 1.777590 0.000000 
#    z 0.000000 0.000000 1.771750 
# 
# From -- ./inp_files/2802.got.cif
#   From: 2010.03.12/outbox.cif.g09.slc.cpg/sg47_2_cif.got.tgz:2802.got - 2010.04.14 03:12:58.
