data_PCOD8197027
_publ_section_title
;
Structure prediction by ZEFSAII (Michael W. Deem and Ramdas Pophale) SiO2 
 PCOD8197027
Probable space group: P M M M
;
_chemical_formula_sum "Si O2"
_cell_formula_units_Z 64
_cell_length_a 9.415807
_cell_length_b 18.470851
_cell_length_c 20.603259
_cell_angle_alpha 90.000000
_cell_angle_beta 90.000000
_cell_angle_gamma 90.000000
_cell_volume 3583.276942
_symmetry_space_group_name_H-M "P M M M"
_symmetry_group_IT_number 47
_symmetry_cell_setting 'orthorhombic'
loop_
_space_group_symop_operation_xyz
x,y,z
-x,-y,z
x,-y,-z
-x,y,-z
-x,-y,-z
x,y,-z
-x,y,z
x,-y,z
loop_
_atom_site_type_symbol
_atom_site_label
_atom_site_fract_x
_atom_site_fract_y
_atom_site_fract_z
Si Si1 0.831464 0.580886 0.428817
Si Si2 0.334280 0.414740 0.806233
Si Si3 0.841047 0.414126 0.071690
Si Si4 0.164281 0.915492 0.808629
Si Si5 0.833140 0.666593 0.305444
Si Si6 0.659951 0.913918 0.071214
Si Si7 0.334818 0.917396 0.425154
Si Si8 0.833976 0.165716 0.318653
O O1 0.775509 0.605894 0.500000
O O2 0.775428 0.500000 0.413464
O O3 0.776341 0.635118 0.373798
O O4 0.000000 0.580647 0.429550
O O5 0.500000 0.395950 0.805048
O O6 0.306946 0.500000 0.796200
O O7 0.270813 0.386769 0.874786
O O8 0.254698 0.371499 0.750557
O O9 0.840793 0.500000 0.070271
O O10 0.000000 0.386551 0.089276
O O11 0.796826 0.385037 0.000000
O O12 0.242120 0.882137 0.871704
O O13 0.222532 0.877179 0.744178
O O14 0.000000 0.898547 0.818887
O O15 0.195713 0.000000 0.800618
O O16 0.799172 0.750981 0.306393
O O17 0.000000 0.650902 0.294683
O O18 0.500000 0.887089 0.083514
O O19 0.666759 0.000000 0.072608
O O20 0.712493 0.886891 0.000000
O O21 0.300845 0.900256 0.500000
O O22 0.500000 0.905652 0.410460
O O23 0.245519 0.862132 0.382170
O O24 0.291280 0.000000 0.408859
O O25 0.000000 0.152027 0.329902
#
# Coordination Sequence:
#
# PCOD8197027 Si02
#       8
#     8   8   8   8   8   8   8   8
#     4   8  14  26  46  71  94 116 149 195 241 282
#     4  10  20  32  48  72 101 132 166 206 251 298
#     4   8  14  26  46  72  99 126 159 201 249 300
#     4   9  17  29  45  66  94 125 155 191 237 287
#     4  10  20  33  50  71  97 131 168 204 243 293
#     4   8  14  25  42  66  93 117 147 191 237 280
#     4   9  19  36  56  77 101 131 168 206 245 296
#     4  10  21  34  49  73 102 131 166 208 250 290
#
# _framework density 17.860745999999999
#
# number of rings (size 3 to 8) (size 9 to 14) (size 15 to 20)
#    0.000    3.000    0.000    2.625    0.000    4.250 
#    0.000    5.625    0.000    1.125    0.000    3.500 
#    0.000    0.000    0.000    0.000    0.000    0.000 
#
# Total GULP energy -793339.448407 kJ/mol
# GULP energy per Si atom -12395.928881 kJ/mol
# Density = 1.782009 g / cm^3
# Si number density = 17.860746 Si / 1000 Ang^3
#
#
#
# Elastic Constant Matrix: (Units=GPa)
#
#
# Indices 1 2 3 4 5 6 
#
# 1 75.1964 43.1607 74.2892 0.0000 0.0000 0.0000
# 2 43.1607 57.0302 60.3298 0.0000 0.0000 0.0000
# 3 74.2892 60.3298 168.0692 0.0000 0.0000 0.0000
# 4 0.0000 0.0000 0.0000 -0.1978 0.0000 0.0000
# 5 0.0000 0.0000 0.0000 0.0000 29.4905 0.0000
# 6 0.0000 0.0000 0.0000 0.0000 0.0000 15.7334
#
#
#
# Elastic Compliance Matrix: (Units=1/GPa)
#
#
# Indices 1 2 3 4 5 6 
#
# 1 0.028844 -0.013449 -0.007922 0.000000 0.000000 0.000000
# 2 -0.013449 0.034540 -0.006454 0.000000 0.000000 0.000000
# 3 -0.007922 -0.006454 0.011768 0.000000 0.000000 0.000000
# 4 0.000000 0.000000 0.000000 -5.056008 0.000000 0.000000
# 5 0.000000 0.000000 0.000000 0.000000 0.033909 0.000000
# 6 0.000000 0.000000 0.000000 0.000000 0.000000 0.063559
#
#
# Mechanical properties :
#
#
# Convention : Reuss Voigt Hill
#
# Bulk Modulus (GPa) = 51.27449 72.87280 62.07365
# Shear Modulus (GPa) = -1.03708 17.17298 8.06795
#
# Velocity S-wave (km/s) = -0.76283 3.10416 2.12766
# Velocity P-wave (km/s) = 5.29097 7.33054 6.39262
#
# Compressibility (1/GPa) = 0.01950287
#
# Stress axis : x y z
#
# Youngs Moduli (GPa) = 34.66872 28.95184 84.97515
#
# Poissons Ratio (x) = 0.38938 0.67317
# Poissons Ratio (y) = 0.46627 0.54840
# Poissons Ratio (z) = 0.27464 0.18685
#
# Static dielectric constant tensor:
#      x y z
#    x 3.165220 0.000000 0.000000 
#    y 0.000000 3.254830 0.000000 
#    z 0.000000 0.000000 3.755550 
# 
# 
# High freq. dielectric constant tensor:
#      x y z
#    x 1.671790 0.000000 0.000000 
#    y 0.000000 1.657620 0.000000 
#    z 0.000000 0.000000 1.709500 
# 
# From -- ./inp_files/29996.got.cif
#   From: 2010.03.12/outbox.cif.g09.slc.cpg/sg47_15_cif.got.tgz:29996.got - 2010.04.14 03:12:58.
