data_PCOD8197746
_publ_section_title
;
Structure prediction by ZEFSAII (Michael W. Deem and Ramdas Pophale) SiO2 
 PCOD8197746
Probable space group: P M M M
;
_chemical_formula_sum "Si O2"
_cell_formula_units_Z 44
_cell_length_a 9.208763
_cell_length_b 9.392363
_cell_length_c 27.633992
_cell_angle_alpha 90.000000
_cell_angle_beta 90.000000
_cell_angle_gamma 90.000000
_cell_volume 2390.120476
_symmetry_space_group_name_H-M "P M M M"
_symmetry_group_IT_number 47
_symmetry_cell_setting 'orthorhombic'
loop_
_space_group_symop_operation_xyz
x,y,z
-x,-y,z
x,-y,-z
-x,y,-z
-x,-y,-z
x,y,-z
-x,y,z
x,-y,z
loop_
_atom_site_type_symbol
_atom_site_label
_atom_site_fract_x
_atom_site_fract_y
_atom_site_fract_z
Si Si1 0.831875 0.166755 0.405967
Si Si2 0.170732 0.835554 0.135624
Si Si3 0.334749 0.334800 0.672995
Si Si4 0.332561 0.663548 0.944203
Si Si5 0.335830 0.830601 0.500000
Si Si6 0.667612 0.336862 0.215362
O O1 0.776151 0.243160 0.358057
O O2 0.745640 0.226919 0.452421
O O3 0.000000 0.201812 0.413869
O O4 0.804628 0.000000 0.399258
O O5 0.232825 0.764564 0.087479
O O6 0.233707 0.765480 0.183799
O O7 0.000000 0.813340 0.135840
O O8 0.215143 0.000000 0.135409
O O9 0.500000 0.291518 0.660380
O O10 0.309658 0.500000 0.661693
O O11 0.301675 0.301812 0.728814
O O12 0.500000 0.694183 0.931916
O O13 0.295350 0.500000 0.932320
O O14 0.299878 0.697376 0.000000
O O15 0.500000 0.771971 0.500000
O O16 0.332244 0.000000 0.500000
O O17 0.500000 0.309350 0.202539
O O18 0.708002 0.500000 0.203845
#
# Coordination Sequence:
#
# PCOD8197746 Si02
#       6
#     8   8   8   8   4   8
#     4  10  20  33  51  77 108 139 171 211 259 310
#     4  11  24  37  50  76 113 145 173 211 259 309
#     4   9  19  36  56  78 104 134 171 216 263 309
#     4   9  19  37  60  83 105 133 174 220 261 306
#     4   9  17  31  52  75 100 135 178 218 256 303
#     4   9  19  37  59  79 100 132 176 221 261 306
#
# _framework density 18.409113000000001
#
# number of rings (size 3 to 8) (size 9 to 14) (size 15 to 20)
#    0.000    2.455    0.000    3.545    0.000    9.091 
#    0.000    8.636    0.000    2.727    0.000    0.000 
#    0.000    0.000    0.000    0.000    0.000    0.000 
#
# Total GULP energy -545713.096924 kJ/mol
# GULP energy per Si atom -12402.570385 kJ/mol
# Density = 1.836721 g / cm^3
# Si number density = 18.409113 Si / 1000 Ang^3
#
#
#
# Elastic Constant Matrix: (Units=GPa)
#
#
# Indices 1 2 3 4 5 6 
#
# 1 109.8292 71.4243 74.6926 0.0000 0.0000 0.0000
# 2 71.4243 93.9864 71.0816 0.0000 0.0000 0.0000
# 3 74.6926 71.0816 125.3211 0.0000 0.0000 0.0000
# 4 0.0000 0.0000 0.0000 32.3095 0.0000 0.0000
# 5 0.0000 0.0000 0.0000 0.0000 17.9185 0.0000
# 6 0.0000 0.0000 0.0000 0.0000 0.0000 32.3605
#
#
#
# Elastic Compliance Matrix: (Units=1/GPa)
#
#
# Indices 1 2 3 4 5 6 
#
# 1 0.020170 -0.010921 -0.005827 0.000000 0.000000 0.000000
# 2 -0.010921 0.024546 -0.007413 0.000000 0.000000 0.000000
# 3 -0.005827 -0.007413 0.015657 0.000000 0.000000 0.000000
# 4 0.000000 0.000000 0.000000 0.030951 0.000000 0.000000
# 5 0.000000 0.000000 0.000000 0.000000 0.055808 0.000000
# 6 0.000000 0.000000 0.000000 0.000000 0.000000 0.030902
#
#
# Mechanical properties :
#
#
# Convention : Reuss Voigt Hill
#
# Bulk Modulus (GPa) = 82.98556 84.83706 83.91131
# Shear Modulus (GPa) = 21.70382 23.98025 22.84204
#
# Velocity S-wave (km/s) = 3.43734 3.61311 3.52632
# Velocity P-wave (km/s) = 7.80578 7.97436 7.89052
#
# Compressibility (1/GPa) = 0.01205029
#
# Stress axis : x y z
#
# Youngs Moduli (GPa) = 49.57781 40.74006 63.86774
#
# Poissons Ratio (x) = 0.44493 0.37218
# Poissons Ratio (y) = 0.54145 0.47346
# Poissons Ratio (z) = 0.28890 0.30201
#
# Static dielectric constant tensor:
#      x y z
#    x 3.364260 0.000000 0.000000 
#    y 0.000000 3.232880 0.000000 
#    z 0.000000 0.000000 3.426600 
# 
# 
# High freq. dielectric constant tensor:
#      x y z
#    x 1.715930 0.000000 0.000000 
#    y 0.000000 1.699720 0.000000 
#    z 0.000000 0.000000 1.727680 
# 
# From -- ./inp_files/13558.got.cif
#   From: 2010.03.12/outbox.cif.g09.slc.cpg/sg47_7_cif.got.tgz:13558.got - 2010.04.14 03:12:58.
