data_PCOD8197934
_publ_section_title
;
Structure prediction by ZEFSAII (Michael W. Deem and Ramdas Pophale) SiO2 
 PCOD8197934
Probable space group: P M M M
;
_chemical_formula_sum "Si O2"
_cell_formula_units_Z 52
_cell_length_a 37.239096
_cell_length_b 7.863833
_cell_length_c 9.725853
_cell_angle_alpha 90.000000
_cell_angle_beta 90.000000
_cell_angle_gamma 90.000000
_cell_volume 2848.138556
_symmetry_space_group_name_H-M "P M M M"
_symmetry_group_IT_number 47
_symmetry_cell_setting 'orthorhombic'
loop_
_space_group_symop_operation_xyz
x,y,z
-x,-y,z
x,-y,-z
-x,y,-z
-x,-y,-z
x,y,-z
-x,y,z
x,-y,z
loop_
_atom_site_type_symbol
_atom_site_label
_atom_site_fract_x
_atom_site_fract_y
_atom_site_fract_z
Si Si1 0.601141 0.201067 0.847814
Si Si2 0.074774 0.696590 0.656031
Si Si3 0.197869 0.500000 0.335621
Si Si4 0.729972 0.500000 0.163905
Si Si5 0.000000 0.199514 0.345304
Si Si6 0.319592 0.810889 0.163166
Si Si7 0.149355 0.187925 0.337383
Si Si8 0.460242 0.797784 0.346318
O O1 0.640573 0.241414 0.784457
O O2 0.570256 0.282202 0.751911
O O3 0.596343 0.000000 0.857612
O O4 0.597149 0.281367 0.000000
O O5 0.070810 0.763881 0.500000
O O6 0.083908 0.500000 0.661318
O O7 0.109132 0.788857 0.725791
O O8 0.036563 0.736484 0.730912
O O9 0.204865 0.500000 0.500000
O O10 0.234223 0.500000 0.251432
O O11 0.176498 0.332277 0.284931
O O12 0.708595 0.331188 0.211048
O O13 0.737514 0.500000 0.000000
O O14 0.000000 0.276677 0.500000
O O15 0.000000 0.000000 0.345990
O O16 0.308609 0.000000 0.218881
O O17 0.321533 0.818406 0.000000
O O18 0.145910 0.209334 0.500000
O O19 0.163749 0.000000 0.296261
O O20 0.453803 0.728006 0.500000
O O21 0.500000 0.742646 0.294702
O O22 0.457391 0.000000 0.346941
#
# Coordination Sequence:
#
# PCOD8197934 Si02
#       8
#     8   8   4   4   4   8   8   8
#     4   8  13  22  37  56  79 108 141 178 217 256
#     4   9  14  21  32  48  73 108 150 191 229 269
#     4  10  20  34  48  67  94 117 145 188 226 263
#     4  10  20  34  54  74  92 120 151 179 226 284
#     4   9  15  19  25  43  71 105 149 195 231 268
#     4   8  15  29  48  70  94 117 145 183 225 272
#     4   9  16  27  43  60  82 117 154 184 223 275
#     4   8  13  20  30  49  81 117 149 182 219 257
#
# _framework density 18.257536999999999
#
# number of rings (size 3 to 8) (size 9 to 14) (size 15 to 20)
#    0.000    3.308    0.769    2.077    0.000    3.692 
#    0.000    2.308    0.000    0.923    0.000    0.538 
#    0.000    4.308    0.000    1.846    0.000    5.077 
#
# Total GULP energy -644213.785016 kJ/mol
# GULP energy per Si atom -12388.726635 kJ/mol
# Density = 1.821598 g / cm^3
# Si number density = 18.257537 Si / 1000 Ang^3
#
#
#
# Elastic Constant Matrix: (Units=GPa)
#
#
# Indices 1 2 3 4 5 6 
#
# 1 178.8773 68.9107 45.0282 0.0000 0.0000 0.0000
# 2 68.9107 96.9689 18.1820 0.0000 0.0000 0.0000
# 3 45.0282 18.1820 32.9000 0.0000 0.0000 0.0000
# 4 0.0000 0.0000 0.0000 4.9423 0.0000 0.0000
# 5 0.0000 0.0000 0.0000 0.0000 4.0704 0.0000
# 6 0.0000 0.0000 0.0000 0.0000 0.0000 2.8249
#
#
#
# Elastic Compliance Matrix: (Units=1/GPa)
#
#
# Indices 1 2 3 4 5 6 
#
# 1 0.010532 -0.005334 -0.011466 0.000000 0.000000 0.000000
# 2 -0.005334 0.014207 -0.000550 0.000000 0.000000 0.000000
# 3 -0.011466 -0.000550 0.046392 0.000000 0.000000 0.000000
# 4 0.000000 0.000000 0.000000 0.202333 0.000000 0.000000
# 5 0.000000 0.000000 0.000000 0.000000 0.245677 0.000000
# 6 0.000000 0.000000 0.000000 0.000000 0.000000 0.353992
#
#
# Mechanical properties :
#
#
# Convention : Reuss Voigt Hill
#
# Bulk Modulus (GPa) = 27.45073 63.66535 45.55804
# Shear Modulus (GPa) = 5.43491 14.14255 9.78873
#
# Velocity S-wave (km/s) = 1.72721 2.78621 2.31800
# Velocity P-wave (km/s) = 4.36413 6.73031 5.67198
#
# Compressibility (1/GPa) = 0.03642891
#
# Stress axis : x y z
#
# Youngs Moduli (GPa) = 94.95043 70.38937 21.55529
#
# Poissons Ratio (x) = 0.37549 0.24716
# Poissons Ratio (y) = 0.50651 0.01186
# Poissons Ratio (z) = 1.08872 0.03874
#
# Static dielectric constant tensor:
#      x y z
#    x 3.647600 0.000000 0.000000 
#    y 0.000000 3.350610 0.000000 
#    z 0.000000 0.000000 2.882420 
# 
# 
# High freq. dielectric constant tensor:
#      x y z
#    x 1.721160 0.000000 0.000000 
#    y 0.000000 1.700920 0.000000 
#    z 0.000000 0.000000 1.625220 
# 
# From -- ./inp_files/19909.got.cif
#   From: 2010.03.12/outbox.cif.g09.slc.cpg/sg47_10_cif.got.tgz:19909.got - 2010.04.14 03:12:58.
