data_PCOD8197002
_publ_section_title
;
Structure prediction by ZEFSAII (Michael W. Deem and Ramdas Pophale) SiO2 
 PCOD8197002
Probable space group: P M M M
;
_chemical_formula_sum "Si O2"
_cell_formula_units_Z 52
_cell_length_a 9.505475
_cell_length_b 35.409113
_cell_length_c 8.370765
_cell_angle_alpha 90.000000
_cell_angle_beta 90.000000
_cell_angle_gamma 90.000000
_cell_volume 2817.435753
_symmetry_space_group_name_H-M "P M M M"
_symmetry_group_IT_number 47
_symmetry_cell_setting 'orthorhombic'
loop_
_space_group_symop_operation_xyz
x,y,z
-x,-y,z
x,-y,-z
-x,y,-z
-x,-y,-z
x,y,-z
-x,y,z
x,-y,z
loop_
_atom_site_type_symbol
_atom_site_label
_atom_site_fract_x
_atom_site_fract_y
_atom_site_fract_z
Si Si1 0.333115 0.337904 0.821678
Si Si2 0.166883 0.959006 0.819408
Si Si3 0.665363 0.261272 0.317878
Si Si4 0.656984 0.184042 0.815188
Si Si5 0.666800 0.456704 0.000000
Si Si6 0.332746 0.585137 0.679325
Si Si7 0.837212 0.118266 0.317091
O O1 0.500000 0.334693 0.811420
O O2 0.267775 0.297302 0.773365
O O3 0.283149 0.371490 0.704691
O O4 0.283951 0.348240 0.000000
O O5 0.222070 0.924161 0.712812
O O6 0.000000 0.960017 0.813137
O O7 0.223490 0.000000 0.756909
O O8 0.219113 0.952468 0.000000
O O9 0.702367 0.267912 0.500000
O O10 0.500000 0.259117 0.283635
O O11 0.729566 0.221161 0.262625
O O12 0.500000 0.176743 0.744451
O O13 0.751797 0.147609 0.788042
O O14 0.646559 0.192563 0.000000
O O15 0.725975 0.438782 0.167560
O O16 0.713964 0.500000 0.000000
O O17 0.500000 0.451561 0.000000
O O18 0.279248 0.572159 0.500000
O O19 0.500000 0.581968 0.681013
O O20 0.815000 0.128936 0.500000
O O21 0.000000 0.120657 0.265984
#
# Coordination Sequence:
#
# PCOD8197002 Si02
#       7
#     8   8   8   8   4   8   8
#     4   9  14  21  33  48  67  89 116 153 196 244
#     4   8  14  26  45  68  92 117 146 181 219 258
#     4   9  16  25  38  57  79 103 131 165 208 257
#     4  10  20  33  48  66  89 119 153 186 224 270
#     4   9  16  24  30  38  54  76 106 146 193 247
#     4   9  15  22  31  42  56  77 107 145 193 245
#     4  10  20  32  48  71  96 122 151 183 222 267
#
# _framework density 18.456499000000001
#
# number of rings (size 3 to 8) (size 9 to 14) (size 15 to 20)
#    0.000    2.846    0.769    2.308    0.000    6.154 
#    0.000    3.077    0.000    0.462    0.000    3.231 
#    0.000    0.000    0.000    0.000    0.000    0.000 
#
# Total GULP energy -644238.582186 kJ/mol
# GULP energy per Si atom -12389.203504 kJ/mol
# Density = 1.841449 g / cm^3
# Si number density = 18.456499 Si / 1000 Ang^3
#
#
#
# Elastic Constant Matrix: (Units=GPa)
#
#
# Indices 1 2 3 4 5 6 
#
# 1 13.3905 15.8075 7.9000 0.0000 0.0000 0.0000
# 2 15.8075 140.3449 55.2669 0.0000 0.0000 0.0000
# 3 7.9000 55.2669 73.6753 0.0000 0.0000 0.0000
# 4 0.0000 0.0000 0.0000 32.5827 0.0000 0.0000
# 5 0.0000 0.0000 0.0000 0.0000 9.6814 0.0000
# 6 0.0000 0.0000 0.0000 0.0000 0.0000 -4.5790
#
#
#
# Elastic Compliance Matrix: (Units=1/GPa)
#
#
# Indices 1 2 3 4 5 6 
#
# 1 0.086535 -0.008647 -0.002792 0.000000 0.000000 0.000000
# 2 -0.008647 0.010977 -0.007307 0.000000 0.000000 0.000000
# 3 -0.002792 -0.007307 0.019354 0.000000 0.000000 0.000000
# 4 0.000000 0.000000 0.000000 0.030691 0.000000 0.000000
# 5 0.000000 0.000000 0.000000 0.000000 0.103291 0.000000
# 6 0.000000 0.000000 0.000000 0.000000 0.000000 -0.218389
#
#
# Mechanical properties :
#
#
# Convention : Reuss Voigt Hill
#
# Bulk Modulus (GPa) = 12.59874 42.81771 27.70823
# Shear Modulus (GPa) = 51.86199 17.43276 34.64737
#
# Velocity S-wave (km/s) = 5.30665 3.07666 4.33742
# Velocity P-wave (km/s) = 6.66247 5.98922 6.33479
#
# Compressibility (1/GPa) = 0.07937299
#
# Stress axis : x y z
#
# Youngs Moduli (GPa) = 11.55598 91.10260 51.66981
#
# Poissons Ratio (x) = 0.78777 0.14428
# Poissons Ratio (y) = 0.09993 0.37754
# Poissons Ratio (z) = 0.03227 0.66567
#
# Static dielectric constant tensor:
#      x y z
#    x 2.575630 0.000000 0.000000 
#    y 0.000000 3.770330 0.000000 
#    z 0.000000 0.000000 3.555840 
# 
# 
# High freq. dielectric constant tensor:
#      x y z
#    x 1.611710 0.000000 0.000000 
#    y 0.000000 1.734820 0.000000 
#    z 0.000000 0.000000 1.727690 
# 
# From -- ./inp_files/4784.got.cif
#   From: 2010.03.12/outbox.cif.g09.slc.cpg/sg47_3_cif.got.tgz:4784.got - 2010.04.14 03:12:58.
