data_PCOD8197947
_publ_section_title
;
Structure prediction by ZEFSAII (Michael W. Deem and Ramdas Pophale) SiO2 
 PCOD8197947
Probable space group: P M M M
;
_chemical_formula_sum "Si O2"
_cell_formula_units_Z 64
_cell_length_a 9.472017
_cell_length_b 14.352498
_cell_length_c 31.151719
_cell_angle_alpha 90.000000
_cell_angle_beta 90.000000
_cell_angle_gamma 90.000000
_cell_volume 4234.986015
_symmetry_space_group_name_H-M "P M M M"
_symmetry_group_IT_number 47
_symmetry_cell_setting 'orthorhombic'
loop_
_space_group_symop_operation_xyz
x,y,z
-x,-y,z
x,-y,-z
-x,y,-z
-x,-y,-z
x,y,-z
-x,y,z
x,-y,z
loop_
_atom_site_type_symbol
_atom_site_label
_atom_site_fract_x
_atom_site_fract_y
_atom_site_fract_z
Si Si1 0.159183 0.110987 0.625791
Si Si2 0.163838 0.207356 0.951510
Si Si3 0.658429 0.889189 0.452362
Si Si4 0.336521 0.602631 0.826053
Si Si5 0.334811 0.794374 0.792193
Si Si6 0.664141 0.109040 0.878147
Si Si7 0.161776 0.396934 0.910594
Si Si8 0.663529 0.109387 0.707276
O O1 0.233914 0.151546 0.582963
O O2 0.246596 0.145693 0.666947
O O3 0.000000 0.150204 0.627999
O O4 0.158572 0.000000 0.624426
O O5 0.254402 0.144512 0.919815
O O6 0.194997 0.317709 0.945516
O O7 0.000000 0.185748 0.942927
O O8 0.206474 0.181233 0.000000
O O9 0.705927 0.856185 0.500000
O O10 0.500000 0.853168 0.442433
O O11 0.658808 0.000000 0.450272
O O12 0.500000 0.607759 0.838606
O O13 0.297676 0.500000 0.807252
O O14 0.300487 0.683506 0.791729
O O15 0.253668 0.624440 0.869107
O O16 0.500000 0.815937 0.791527
O O17 0.273272 0.841356 0.835458
O O18 0.271319 0.839546 0.749126
O O19 0.500000 0.133440 0.884465
O O20 0.689552 0.000000 0.872788
O O21 0.196889 0.500000 0.929609
O O22 0.000000 0.392338 0.895730
O O23 0.500000 0.135034 0.698962
O O24 0.681995 0.000000 0.714613
#
# Coordination Sequence:
#
# PCOD8197947 Si02
#       8
#     8   8   8   8   8   8   8   8
#     4   9  16  24  33  48  73 101 130 169 213 249
#     4  10  21  35  49  66  88 112 136 163 199 242
#     4   8  13  21  33  48  66  93 133 176 212 247
#     4   9  16  27  46  69  89 107 127 157 200 245
#     4   9  16  28  46  66  84 103 131 166 201 240
#     4  10  20  34  51  68  85 107 138 174 206 238
#     4   9  17  30  48  68  88 109 133 160 192 235
#     4   9  16  26  40  55  73 102 137 168 199 236
#
# _framework density 15.112211
#
# number of rings (size 3 to 8) (size 9 to 14) (size 15 to 20)
#    0.000    2.875    1.250    1.125    0.000    4.250 
#    0.000    5.000    0.000    1.500    0.000    2.625 
#    0.000    0.000    0.000    0.000    0.000    0.625 
#
# Total GULP energy -793258.809660 kJ/mol
# GULP energy per Si atom -12394.668901 kJ/mol
# Density = 1.507782 g / cm^3
# Si number density = 15.112211 Si / 1000 Ang^3
#
#
#
# Elastic Constant Matrix: (Units=GPa)
#
#
# Indices 1 2 3 4 5 6 
#
# 1 61.4131 26.4604 54.9517 0.0000 0.0000 0.0000
# 2 26.4604 57.8481 42.3057 0.0000 0.0000 0.0000
# 3 54.9517 42.3057 130.3017 0.0000 0.0000 0.0000
# 4 0.0000 0.0000 0.0000 7.6435 0.0000 0.0000
# 5 0.0000 0.0000 0.0000 0.0000 4.8618 0.0000
# 6 0.0000 0.0000 0.0000 0.0000 0.0000 14.2042
#
#
#
# Elastic Compliance Matrix: (Units=1/GPa)
#
#
# Indices 1 2 3 4 5 6 
#
# 1 0.027356 -0.005345 -0.009802 0.000000 0.000000 0.000000
# 2 -0.005345 0.023714 -0.005445 0.000000 0.000000 0.000000
# 3 -0.009802 -0.005445 0.013576 0.000000 0.000000 0.000000
# 4 0.000000 0.000000 0.000000 0.130829 0.000000 0.000000
# 5 0.000000 0.000000 0.000000 0.000000 0.205685 0.000000
# 6 0.000000 0.000000 0.000000 0.000000 0.000000 0.070402
#
#
# Mechanical properties :
#
#
# Convention : Reuss Voigt Hill
#
# Bulk Modulus (GPa) = 42.62083 55.22205 48.92144
# Shear Modulus (GPa) = 9.60491 13.73157 11.66824
#
# Velocity S-wave (km/s) = 2.52379 3.01764 2.78170
# Velocity P-wave (km/s) = 6.06274 6.98299 6.53908
#
# Compressibility (1/GPa) = 0.02346271
#
# Stress axis : x y z
#
# Youngs Moduli (GPa) = 36.55446 42.16976 73.65973
#
# Poissons Ratio (x) = 0.22540 0.72198
# Poissons Ratio (y) = 0.19539 0.40108
# Poissons Ratio (z) = 0.35829 0.22962
#
# Static dielectric constant tensor:
#      x y z
#    x 2.907330 0.000000 0.000000 
#    y 0.000000 2.798630 0.000000 
#    z 0.000000 0.000000 3.004740 
# 
# 
# High freq. dielectric constant tensor:
#      x y z
#    x 1.570680 0.000000 0.000000 
#    y 0.000000 1.545580 0.000000 
#    z 0.000000 0.000000 1.570180 
# 
# From -- ./inp_files/25882.got.cif
#   From: 2010.03.12/outbox.cif.g09.slc.cpg/sg47_13_cif.got.tgz:25882.got - 2010.04.14 03:12:58.
