data_PCOD8197154
_publ_section_title
;
Structure prediction by ZEFSAII (Michael W. Deem and Ramdas Pophale) SiO2 
 PCOD8197154
Probable space group: P M M M
;
_chemical_formula_sum "Si O2"
_cell_formula_units_Z 48
_cell_length_a 30.992537
_cell_length_b 9.158936
_cell_length_c 9.410947
_cell_angle_alpha 90.000000
_cell_angle_beta 90.000000
_cell_angle_gamma 90.000000
_cell_volume 2671.378832
_symmetry_space_group_name_H-M "P M M M"
_symmetry_group_IT_number 47
_symmetry_cell_setting 'orthorhombic'
loop_
_space_group_symop_operation_xyz
x,y,z
-x,-y,z
x,-y,-z
-x,y,-z
-x,-y,-z
x,y,-z
-x,y,z
x,-y,z
loop_
_atom_site_type_symbol
_atom_site_label
_atom_site_fract_x
_atom_site_fract_y
_atom_site_fract_z
Si Si1 0.547763 0.826326 0.840515
Si Si2 0.047510 0.336288 0.331264
Si Si3 0.708888 0.830988 0.164315
Si Si4 0.626816 0.826002 0.340131
Si Si5 0.795910 0.671067 0.835934
Si Si6 0.130212 0.167221 0.331526
O O1 0.500000 0.775433 0.790167
O O2 0.583948 0.761586 0.735228
O O3 0.550051 0.000000 0.840162
O O4 0.556836 0.769115 0.000000
O O5 0.047449 0.335988 0.500000
O O6 0.057570 0.500000 0.275988
O O7 0.084131 0.226638 0.274775
O O8 0.000000 0.286198 0.276449
O O9 0.668932 0.771654 0.256150
O O10 0.750393 0.738990 0.210184
O O11 0.718759 0.000000 0.196654
O O12 0.696999 0.807137 0.000000
O O13 0.628577 0.764832 0.500000
O O14 0.625310 0.000000 0.338835
O O15 0.794144 0.500000 0.806898
O O16 0.832501 0.739968 0.739508
O O17 0.805814 0.707185 0.000000
O O18 0.134220 0.185292 0.500000
O O19 0.134320 0.000000 0.284124
#
# Coordination Sequence:
#
# PCOD8197154 Si02
#       6
#     8   8   8   8   8   8
#     4   8  13  21  33  50  76 113 153 187 221 267
#     4   8  14  26  45  69  98 132 167 201 238 281
#     4   9  17  30  47  64  85 116 151 186 228 280
#     4   9  16  24  36  57  84 113 146 186 230 273
#     4  10  21  36  53  72  94 123 160 200 243 291
#     4  10  20  32  49  75 103 130 161 198 241 288
#
# _framework density 17.968250000000001
#
# number of rings (size 3 to 8) (size 9 to 14) (size 15 to 20)
#    0.000    3.000    0.000    2.500    0.000    5.333 
#    0.000    5.000    0.000    0.500    0.000    3.500 
#    0.000    0.667    0.000    7.667    0.000    9.833 
#
# Total GULP energy -595043.954940 kJ/mol
# GULP energy per Si atom -12396.749061 kJ/mol
# Density = 1.792735 g / cm^3
# Si number density = 17.968250 Si / 1000 Ang^3
#
#
#
# Elastic Constant Matrix: (Units=GPa)
#
#
# Indices 1 2 3 4 5 6 
#
# 1 175.7207 56.2548 70.5959 0.0000 0.0000 0.0000
# 2 56.2548 59.2343 28.0057 0.0000 0.0000 0.0000
# 3 70.5959 28.0057 70.5289 0.0000 0.0000 0.0000
# 4 0.0000 0.0000 0.0000 14.9025 0.0000 0.0000
# 5 0.0000 0.0000 0.0000 0.0000 24.1374 0.0000
# 6 0.0000 0.0000 0.0000 0.0000 0.0000 -1.3205
#
#
#
# Elastic Compliance Matrix: (Units=1/GPa)
#
#
# Indices 1 2 3 4 5 6 
#
# 1 0.011299 -0.006628 -0.008678 0.000000 0.000000 0.000000
# 2 -0.006628 0.024672 -0.003163 0.000000 0.000000 0.000000
# 3 -0.008678 -0.003163 0.024121 0.000000 0.000000 0.000000
# 4 0.000000 0.000000 0.000000 0.067103 0.000000 0.000000
# 5 0.000000 0.000000 0.000000 0.000000 0.041429 0.000000
# 6 0.000000 0.000000 0.000000 0.000000 0.000000 -0.757269
#
#
# Mechanical properties :
#
#
# Convention : Reuss Voigt Hill
#
# Bulk Modulus (GPa) = 43.18784 68.35519 55.77151
# Shear Modulus (GPa) = -9.19133 17.58572 4.19719
#
# Velocity S-wave (km/s) = -2.26416 3.13183 1.53002
# Velocity P-wave (km/s) = 4.15362 7.15560 5.85044
#
# Compressibility (1/GPa) = 0.02315467
#
# Stress axis : x y z
#
# Youngs Moduli (GPa) = 88.50296 40.53212 41.45824
#
# Poissons Ratio (x) = 0.26864 0.35978
# Poissons Ratio (y) = 0.58658 0.13112
# Poissons Ratio (z) = 0.76803 0.12819
#
# Static dielectric constant tensor:
#      x y z
#    x 3.678960 0.000000 0.000000 
#    y 0.000000 3.028680 0.000000 
#    z 0.000000 0.000000 3.211250 
# 
# 
# High freq. dielectric constant tensor:
#      x y z
#    x 1.713850 0.000000 0.000000 
#    y 0.000000 1.656850 0.000000 
#    z 0.000000 0.000000 1.673070 
# 
# From -- ./inp_files/13789.got.cif
#   From: 2010.03.12/outbox.cif.g09.slc.cpg/sg47_7_cif.got.tgz:13789.got - 2010.04.14 03:12:58.
