data_PCOD8197013
_publ_section_title
;
Structure prediction by ZEFSAII (Michael W. Deem and Ramdas Pophale) SiO2 
 PCOD8197013
Probable space group: P M M M
;
_chemical_formula_sum "Si O2"
_cell_formula_units_Z 48
_cell_length_a 31.160947
_cell_length_b 8.997117
_cell_length_c 9.578310
_cell_angle_alpha 90.000000
_cell_angle_beta 90.000000
_cell_angle_gamma 90.000000
_cell_volume 2685.362406
_symmetry_space_group_name_H-M "P M M M"
_symmetry_group_IT_number 47
_symmetry_cell_setting 'orthorhombic'
loop_
_space_group_symop_operation_xyz
x,y,z
-x,-y,z
x,-y,-z
-x,y,-z
-x,-y,-z
x,y,-z
-x,y,z
x,-y,z
loop_
_atom_site_type_symbol
_atom_site_label
_atom_site_fract_x
_atom_site_fract_y
_atom_site_fract_z
Si Si1 0.547301 0.323276 0.156350
Si Si2 0.198847 0.173739 0.337967
Si Si3 0.377026 0.677227 0.655269
Si Si4 0.874478 0.323273 0.840248
Si Si5 0.952379 0.676622 0.656374
Si Si6 0.283526 0.335146 0.665524
O O1 0.500000 0.275490 0.211949
O O2 0.550677 0.500000 0.156742
O O3 0.584801 0.253691 0.251671
O O4 0.553840 0.262611 0.000000
O O5 0.191125 0.217003 0.500000
O O6 0.165732 0.259581 0.241743
O O7 0.246367 0.221843 0.288404
O O8 0.193583 0.000000 0.313532
O O9 0.382838 0.742828 0.500000
O O10 0.379705 0.500000 0.650736
O O11 0.330228 0.721747 0.719061
O O12 0.872355 0.500000 0.832470
O O13 0.917791 0.261651 0.766682
O O14 0.874159 0.267525 0.000000
O O15 0.940695 0.732765 0.500000
O O16 0.952060 0.500000 0.658005
O O17 0.000000 0.734031 0.698322
O O18 0.286839 0.345008 0.500000
O O19 0.272995 0.500000 0.725259
#
# Coordination Sequence:
#
# PCOD8197013 Si02
#       6
#     8   8   8   8   8   8
#     4   8  13  20  29  44  71 105 134 161 200 250
#     4  10  20  33  50  70  91 120 158 195 233 278
#     4   8  13  21  34  52  73 100 135 171 208 253
#     4  10  20  32  48  72 100 129 159 190 228 273
#     4   8  14  26  46  72  99 125 154 189 227 266
#     4   8  14  26  44  64  86 112 143 183 228 269
#
# _framework density 17.874683000000001
#
# number of rings (size 3 to 8) (size 9 to 14) (size 15 to 20)
#    0.000    3.333    0.000    3.000    0.000    2.667 
#    0.000    4.167    0.000    3.500    0.000    3.500 
#    0.000    0.667    0.000    8.333    0.000    9.667 
#
# Total GULP energy -594805.229438 kJ/mol
# GULP energy per Si atom -12391.775613 kJ/mol
# Density = 1.783400 g / cm^3
# Si number density = 17.874683 Si / 1000 Ang^3
#
#
#
# Elastic Constant Matrix: (Units=GPa)
#
#
# Indices 1 2 3 4 5 6 
#
# 1 169.4824 16.5259 81.3057 0.0000 0.0000 0.0000
# 2 16.5259 13.7265 16.1363 0.0000 0.0000 0.0000
# 3 81.3057 16.1363 94.2260 0.0000 0.0000 0.0000
# 4 0.0000 0.0000 0.0000 10.9006 0.0000 0.0000
# 5 0.0000 0.0000 0.0000 0.0000 10.7603 0.0000
# 6 0.0000 0.0000 0.0000 0.0000 0.0000 -0.6578
#
#
#
# Elastic Compliance Matrix: (Units=1/GPa)
#
#
# Indices 1 2 3 4 5 6 
#
# 1 0.010131 -0.002405 -0.008330 0.000000 0.000000 0.000000
# 2 -0.002405 0.091786 -0.013644 0.000000 0.000000 0.000000
# 3 -0.008330 -0.013644 0.020137 0.000000 0.000000 0.000000
# 4 0.000000 0.000000 0.000000 0.091738 0.000000 0.000000
# 5 0.000000 0.000000 0.000000 0.000000 0.092934 0.000000
# 6 0.000000 0.000000 0.000000 0.000000 0.000000 -1.520263
#
#
# Mechanical properties :
#
#
# Convention : Reuss Voigt Hill
#
# Bulk Modulus (GPa) = 13.64302 56.15230 34.89766
# Shear Modulus (GPa) = -4.38462 15.09843 5.35690
#
# Velocity S-wave (km/s) = -1.56790 2.90949 1.73304
# Velocity P-wave (km/s) = 2.09079 6.53984 4.85494
#
# Compressibility (1/GPa) = 0.07329756
#
# Stress axis : x y z
#
# Youngs Moduli (GPa) = 98.70776 10.89491 49.65979
#
# Poissons Ratio (x) = 0.02620 0.41366
# Poissons Ratio (y) = 0.23736 0.67754
# Poissons Ratio (z) = 0.82223 0.14865
#
# Static dielectric constant tensor:
#      x y z
#    x 3.814320 0.000000 0.000000 
#    y 0.000000 2.744820 0.000000 
#    z 0.000000 0.000000 3.333360 
# 
# 
# High freq. dielectric constant tensor:
#      x y z
#    x 1.712870 0.000000 0.000000 
#    y 0.000000 1.629290 0.000000 
#    z 0.000000 0.000000 1.669670 
# 
# From -- ./inp_files/4443.got.cif
#   From: 2010.03.12/outbox.cif.g09.slc.cpg/sg47_3_cif.got.tgz:4443.got - 2010.04.14 03:12:58.
