data_PCOD8197658
_publ_section_title
;
Structure prediction by ZEFSAII (Michael W. Deem and Ramdas Pophale) SiO2 
 PCOD8197658
Probable space group: P M M M
;
_chemical_formula_sum "Si O2"
_cell_formula_units_Z 52
_cell_length_a 14.390213
_cell_length_b 8.087606
_cell_length_c 24.885574
_cell_angle_alpha 90.000000
_cell_angle_beta 90.000000
_cell_angle_gamma 90.000000
_cell_volume 2896.242156
_symmetry_space_group_name_H-M "P M M M"
_symmetry_group_IT_number 47
_symmetry_cell_setting 'orthorhombic'
loop_
_space_group_symop_operation_xyz
x,y,z
-x,-y,z
x,-y,-z
-x,y,-z
-x,-y,-z
x,y,-z
-x,y,z
x,-y,z
loop_
_atom_site_type_symbol
_atom_site_label
_atom_site_fract_x
_atom_site_fract_y
_atom_site_fract_z
Si Si1 0.610054 0.000000 0.439984
Si Si2 0.602362 0.191059 0.842968
Si Si3 0.278829 0.195303 0.940558
Si Si4 0.609305 0.690003 0.631058
Si Si5 0.103437 0.689333 0.886852
Si Si6 0.293213 0.687698 0.741500
Si Si7 0.896484 0.810538 0.771049
O O1 0.642872 0.828531 0.411714
O O2 0.500000 0.000000 0.442285
O O3 0.652350 0.000000 0.500000
O O4 0.500000 0.273149 0.836073
O O5 0.653883 0.272104 0.894672
O O6 0.662676 0.206308 0.789195
O O7 0.589536 0.000000 0.855435
O O8 0.175317 0.266434 0.933507
O O9 0.273558 0.000000 0.934972
O O10 0.314489 0.246943 0.000000
O O11 0.500000 0.704913 0.641775
O O12 0.633622 0.500000 0.612663
O O13 0.661611 0.739398 0.685403
O O14 0.113764 0.500000 0.868969
O O15 0.125214 0.798065 0.834332
O O16 0.000000 0.726287 0.908927
O O17 0.316775 0.500000 0.754908
O O18 0.182063 0.713986 0.737507
O O19 0.000000 0.737921 0.758717
O O20 0.892000 0.000000 0.753538
#
# Coordination Sequence:
#
# PCOD8197658 Si02
#       7
#     4   8   8   8   8   8   8
#     4   9  18  32  52  78 109 151 194 228 264 301
#     4  10  21  35  52  73  95 127 168 208 257 312
#     4  10  21  36  52  70  93 123 162 207 254 308
#     4   9  19  33  49  76 112 148 186 225 264 308
#     4  10  20  34  52  73  96 123 156 197 250 311
#     4  11  21  33  52  77 106 138 170 209 259 310
#     4  10  20  33  51  75 102 132 165 203 252 312
#
# _framework density 17.954298000000001
#
# number of rings (size 3 to 8) (size 9 to 14) (size 15 to 20)
#    0.000    2.077    1.538    1.846    2.154    4.000 
#    0.000    4.615    0.000    0.000    0.000    2.154 
#    0.000    1.231    0.000    3.385    0.000    0.154 
#
# Total GULP energy -644643.454458 kJ/mol
# GULP energy per Si atom -12396.989509 kJ/mol
# Density = 1.791343 g / cm^3
# Si number density = 17.954298 Si / 1000 Ang^3
#
#
#
# Elastic Constant Matrix: (Units=GPa)
#
#
# Indices 1 2 3 4 5 6 
#
# 1 99.9117 22.1887 52.5329 0.0000 0.0000 0.0000
# 2 22.1887 57.5617 43.6368 0.0000 0.0000 0.0000
# 3 52.5329 43.6368 118.1224 0.0000 0.0000 0.0000
# 4 0.0000 0.0000 0.0000 15.5957 0.0000 0.0000
# 5 0.0000 0.0000 0.0000 0.0000 17.0338 0.0000
# 6 0.0000 0.0000 0.0000 0.0000 0.0000 19.4251
#
#
#
# Elastic Compliance Matrix: (Units=1/GPa)
#
#
# Indices 1 2 3 4 5 6 
#
# 1 0.013096 -0.000879 -0.005499 0.000000 0.000000 0.000000
# 2 -0.000879 0.024189 -0.008545 0.000000 0.000000 0.000000
# 3 -0.005499 -0.008545 0.014068 0.000000 0.000000 0.000000
# 4 0.000000 0.000000 0.000000 0.064120 0.000000 0.000000
# 5 0.000000 0.000000 0.000000 0.000000 0.058707 0.000000
# 6 0.000000 0.000000 0.000000 0.000000 0.000000 0.051480
#
#
# Mechanical properties :
#
#
# Convention : Reuss Voigt Hill
#
# Bulk Modulus (GPa) = 46.49801 56.92362 51.71082
# Shear Modulus (GPa) = 19.03489 20.89343 19.96416
#
# Velocity S-wave (km/s) = 3.25958 3.41501 3.33820
# Velocity P-wave (km/s) = 6.33409 6.87919 6.61226
#
# Compressibility (1/GPa) = 0.02150630
#
# Stress axis : x y z
#
# Youngs Moduli (GPa) = 76.36187 41.34028 71.08217
#
# Poissons Ratio (x) = 0.03634 0.39090
# Poissons Ratio (y) = 0.06713 0.60740
# Poissons Ratio (z) = 0.41993 0.35326
#
# Static dielectric constant tensor:
#      x y z
#    x 3.499750 0.000000 0.000000 
#    y 0.000000 3.315520 0.000000 
#    z 0.000000 0.000000 3.152140 
# 
# 
# High freq. dielectric constant tensor:
#      x y z
#    x 1.688830 0.000000 0.000000 
#    y 0.000000 1.697690 0.000000 
#    z 0.000000 0.000000 1.659990 
# 
# From -- ./inp_files/6960.got.cif
#   From: 2010.03.12/outbox.cif.g09.slc.cpg/sg47_4_cif.got.tgz:6960.got - 2010.04.14 03:12:58.
