data_PCOD8197133
_publ_section_title
;
Structure prediction by ZEFSAII (Michael W. Deem and Ramdas Pophale) SiO2 
 PCOD8197133
Probable space group: P M M M
;
_chemical_formula_sum "Si O2"
_cell_formula_units_Z 64
_cell_length_a 18.130861
_cell_length_b 13.585483
_cell_length_c 14.643312
_cell_angle_alpha 90.000000
_cell_angle_beta 90.000000
_cell_angle_gamma 90.000000
_cell_volume 3606.889417
_symmetry_space_group_name_H-M "P M M M"
_symmetry_group_IT_number 47
_symmetry_cell_setting 'orthorhombic'
loop_
_space_group_symop_operation_xyz
x,y,z
-x,-y,z
x,-y,-z
-x,y,-z
-x,-y,-z
x,y,-z
-x,y,z
x,-y,z
loop_
_atom_site_type_symbol
_atom_site_label
_atom_site_fract_x
_atom_site_fract_y
_atom_site_fract_z
Si Si1 0.647313 0.110961 0.605282
Si Si2 0.807866 0.389831 0.102311
Si Si3 0.913941 0.112755 0.715497
Si Si4 0.914843 0.214787 0.101625
Si Si5 0.412348 0.109562 0.898046
Si Si6 0.206020 0.227919 0.393289
Si Si7 0.583939 0.250811 0.741622
Si Si8 0.283718 0.613211 0.723237
O O1 0.626560 0.117872 0.500000
O O2 0.729711 0.149122 0.624032
O O3 0.586696 0.175608 0.657138
O O4 0.642897 0.000000 0.641684
O O5 0.840180 0.500000 0.113267
O O6 0.873384 0.315499 0.124569
O O7 0.741539 0.373137 0.172512
O O8 0.776461 0.373333 0.000000
O O9 0.894735 0.133784 0.822008
O O10 0.868706 0.184613 0.649374
O O11 0.000000 0.132338 0.696071
O O12 0.893045 0.000000 0.694814
O O13 0.000000 0.242478 0.106040
O O14 0.894016 0.174341 0.000000
O O15 0.500000 0.108047 0.892164
O O16 0.382203 0.192090 0.828798
O O17 0.382547 0.000000 0.872922
O O18 0.386098 0.137922 0.000000
O O19 0.192961 0.248504 0.500000
O O20 0.228537 0.330067 0.344986
O O21 0.500000 0.285775 0.757241
O O22 0.633120 0.345701 0.719175
O O23 0.284896 0.500000 0.692100
#
# Coordination Sequence:
#
# PCOD8197133 Si02
#       8
#     8   8   8   8   8   8   8   8
#     4   9  18  32  51  75 101 130 164 205 256 309
#     4   9  17  31  53  78 102 131 170 216 262 303
#     4  10  20  33  52  81 114 146 178 210 247 293
#     4   9  17  30  50  78 112 146 176 207 248 299
#     4   8  14  26  45  69  98 132 166 197 235 291
#     4  10  20  36  56  76 101 136 177 219 258 303
#     4  10  20  32  49  74 101 131 166 209 260 316
#     4  10  21  37  55  75  98 130 171 216 268 320
#
# _framework density 17.743822000000002
#
# number of rings (size 3 to 8) (size 9 to 14) (size 15 to 20)
#    0.000    2.625    1.250    1.125    0.000    3.500 
#    0.000    3.750    0.000    0.375    0.000    7.875 
#    0.000    0.000    0.000    0.000    0.000    0.000 
#
# Total GULP energy -793448.063368 kJ/mol
# GULP energy per Si atom -12397.625990 kJ/mol
# Density = 1.770344 g / cm^3
# Si number density = 17.743822 Si / 1000 Ang^3
#
#
#
# Elastic Constant Matrix: (Units=GPa)
#
#
# Indices 1 2 3 4 5 6 
#
# 1 63.7064 47.3876 40.0459 0.0000 0.0000 0.0000
# 2 47.3876 120.0204 55.2653 0.0000 0.0000 0.0000
# 3 40.0459 55.2653 98.7333 0.0000 0.0000 0.0000
# 4 0.0000 0.0000 0.0000 24.7883 0.0000 0.0000
# 5 0.0000 0.0000 0.0000 0.0000 23.3266 0.0000
# 6 0.0000 0.0000 0.0000 0.0000 0.0000 18.5944
#
#
#
# Elastic Compliance Matrix: (Units=1/GPa)
#
#
# Indices 1 2 3 4 5 6 
#
# 1 0.024713 -0.006928 -0.006146 0.000000 0.000000 0.000000
# 2 -0.006928 0.013167 -0.004560 0.000000 0.000000 0.000000
# 3 -0.006146 -0.004560 0.015174 0.000000 0.000000 0.000000
# 4 0.000000 0.000000 0.000000 0.040342 0.000000 0.000000
# 5 0.000000 0.000000 0.000000 0.000000 0.042869 0.000000
# 6 0.000000 0.000000 0.000000 0.000000 0.000000 0.053780
#
#
# Mechanical properties :
#
#
# Convention : Reuss Voigt Hill
#
# Bulk Modulus (GPa) = 56.22306 63.09528 59.65917
# Shear Modulus (GPa) = 21.62242 22.65928 22.14085
#
# Velocity S-wave (km/s) = 3.49462 3.57742 3.53626
# Velocity P-wave (km/s) = 6.93094 7.25949 7.09711
#
# Compressibility (1/GPa) = 0.01778630
#
# Stress axis : x y z
#
# Youngs Moduli (GPa) = 40.46388 75.94744 65.90335
#
# Poissons Ratio (x) = 0.52613 0.40504
# Poissons Ratio (y) = 0.28031 0.30054
# Poissons Ratio (z) = 0.24869 0.34635
#
# Static dielectric constant tensor:
#      x y z
#    x 3.017750 0.000000 0.000000 
#    y 0.000000 3.277710 0.000000 
#    z 0.000000 0.000000 3.494340 
# 
# 
# High freq. dielectric constant tensor:
#      x y z
#    x 1.665720 0.000000 0.000000 
#    y 0.000000 1.679390 0.000000 
#    z 0.000000 0.000000 1.695470 
# 
# From -- ./inp_files/17900.got.cif
#   From: 2010.03.12/outbox.cif.g09.slc.cpg/sg47_9_cif.got.tgz:17900.got - 2010.04.14 03:12:58.
