data_PCOD8197246
_publ_section_title
;
Structure prediction by ZEFSAII (Michael W. Deem and Ramdas Pophale) SiO2 
 PCOD8197246
Probable space group: P M M M
;
_chemical_formula_sum "Si O2"
_cell_formula_units_Z 52
_cell_length_a 20.844790
_cell_length_b 8.136731
_cell_length_c 14.712256
_cell_angle_alpha 90.000000
_cell_angle_beta 90.000000
_cell_angle_gamma 90.000000
_cell_volume 2495.322921
_symmetry_space_group_name_H-M "P M M M"
_symmetry_group_IT_number 47
_symmetry_cell_setting 'orthorhombic'
loop_
_space_group_symop_operation_xyz
x,y,z
-x,-y,z
x,-y,-z
-x,y,-z
-x,-y,-z
x,y,-z
-x,y,z
x,-y,z
loop_
_atom_site_type_symbol
_atom_site_label
_atom_site_fract_x
_atom_site_fract_y
_atom_site_fract_z
Si Si1 0.572884 0.188960 0.779456
Si Si2 0.069302 0.808045 0.281402
Si Si3 0.700115 0.818848 0.290032
Si Si4 0.269898 0.688779 0.100519
Si Si5 0.813868 0.687691 0.399115
Si Si6 0.131389 0.809648 0.099680
Si Si7 0.575183 0.500000 0.099981
O O1 0.500000 0.225146 0.746289
O O2 0.623060 0.207241 0.694027
O O3 0.595494 0.328282 0.851946
O O4 0.577149 0.000000 0.817939
O O5 0.126775 0.771388 0.349757
O O6 0.084320 0.746840 0.179061
O O7 0.000000 0.730149 0.310909
O O8 0.060860 0.000000 0.279607
O O9 0.704518 0.804023 0.180695
O O10 0.746476 0.698017 0.344735
O O11 0.722100 0.000000 0.320086
O O12 0.293241 0.500000 0.116615
O O13 0.193114 0.693847 0.105107
O O14 0.291879 0.750944 0.000000
O O15 0.805444 0.764446 0.500000
O O16 0.832324 0.500000 0.406937
O O17 0.151631 0.000000 0.116086
O O18 0.098528 0.790737 0.000000
O O19 0.500000 0.500000 0.091150
O O20 0.607025 0.500000 0.000000
#
# Coordination Sequence:
#
# PCOD8197246 Si02
#       7
#     8   8   8   8   8   8   4
#     4   9  20  37  56  83 118 158 204 250 299 357
#     4  10  21  37  59  87 118 155 196 237 285 341
#     4  11  22  37  61  87 114 152 194 241 296 352
#     4  10  20  32  50  79 115 153 192 237 285 334
#     4  11  25  43  63  87 114 146 188 240 300 365
#     4   9  17  31  52  79 114 153 192 232 276 332
#     4   9  18  32  52  80 117 165 212 251 297 349
#
# _framework density 20.838985999999998
#
# number of rings (size 3 to 8) (size 9 to 14) (size 15 to 20)
#    0.000    2.077    1.538    1.385    2.154    4.000 
#    0.000    6.154    0.000    0.462    0.000    6.462 
#    0.000    0.000    0.000    0.000    0.000    0.000 
#
# Total GULP energy -644191.764351 kJ/mol
# GULP energy per Si atom -12388.303161 kJ/mol
# Density = 2.079156 g / cm^3
# Si number density = 20.838986 Si / 1000 Ang^3
#
#
#
# Elastic Constant Matrix: (Units=GPa)
#
#
# Indices 1 2 3 4 5 6 
#
# 1 111.2450 8.8993 49.9249 0.0000 0.0000 0.0000
# 2 8.8993 49.1611 7.3178 0.0000 0.0000 0.0000
# 3 49.9249 7.3178 106.8101 0.0000 0.0000 0.0000
# 4 0.0000 0.0000 0.0000 22.4377 0.0000 0.0000
# 5 0.0000 0.0000 0.0000 0.0000 9.9050 0.0000
# 6 0.0000 0.0000 0.0000 0.0000 0.0000 21.9691
#
#
#
# Elastic Compliance Matrix: (Units=1/GPa)
#
#
# Indices 1 2 3 4 5 6 
#
# 1 0.011456 -0.001290 -0.005266 0.000000 0.000000 0.000000
# 2 -0.001290 0.020696 -0.000815 0.000000 0.000000 0.000000
# 3 -0.005266 -0.000815 0.011880 0.000000 0.000000 0.000000
# 4 0.000000 0.000000 0.000000 0.044568 0.000000 0.000000
# 5 0.000000 0.000000 0.000000 0.000000 0.100959 0.000000
# 6 0.000000 0.000000 0.000000 0.000000 0.000000 0.045518
#
#
# Mechanical properties :
#
#
# Convention : Reuss Voigt Hill
#
# Bulk Modulus (GPa) = 34.14207 44.38890 39.26549
# Shear Modulus (GPa) = 19.26172 24.26732 21.76452
#
# Velocity S-wave (km/s) = 3.04355 3.41620 3.23524
# Velocity P-wave (km/s) = 5.36379 6.07517 5.73053
#
# Compressibility (1/GPa) = 0.02928938
#
# Stress axis : x y z
#
# Youngs Moduli (GPa) = 87.29244 48.31825 84.17665
#
# Poissons Ratio (x) = 0.06232 0.44329
# Poissons Ratio (y) = 0.11259 0.06861
# Poissons Ratio (z) = 0.45970 0.03938
#
# Static dielectric constant tensor:
#      x y z
#    x 4.108510 0.000000 0.000000 
#    y 0.000000 3.726640 0.000000 
#    z 0.000000 0.000000 3.803760 
# 
# 
# High freq. dielectric constant tensor:
#      x y z
#    x 1.834850 0.000000 0.000000 
#    y 0.000000 1.811410 0.000000 
#    z 0.000000 0.000000 1.778340 
# 
# From -- ./inp_files/24973.got.cif
#   From: 2010.03.12/outbox.cif.g09.slc.cpg/sg47_13_cif.got.tgz:24973.got - 2010.04.14 03:12:58.
