data_PCOD8197549
_publ_section_title
;
Structure prediction by ZEFSAII (Michael W. Deem and Ramdas Pophale) SiO2 
 PCOD8197549
Probable space group: P M M M
;
_chemical_formula_sum "Si O2"
_cell_formula_units_Z 52
_cell_length_a 11.732443
_cell_length_b 28.034344
_cell_length_c 8.896400
_cell_angle_alpha 90.000000
_cell_angle_beta 90.000000
_cell_angle_gamma 90.000000
_cell_volume 2926.126872
_symmetry_space_group_name_H-M "P M M M"
_symmetry_group_IT_number 47
_symmetry_cell_setting 'orthorhombic'
loop_
_space_group_symop_operation_xyz
x,y,z
-x,-y,z
x,-y,-z
-x,y,-z
-x,-y,-z
x,y,-z
-x,y,z
x,-y,z
loop_
_atom_site_type_symbol
_atom_site_label
_atom_site_fract_x
_atom_site_fract_y
_atom_site_fract_z
Si Si1 0.134886 0.366687 0.331060
Si Si2 0.256086 0.911790 0.178526
Si Si3 0.134876 0.000000 0.672200
Si Si4 0.500000 0.053532 0.177808
Si Si5 0.135126 0.727143 0.168712
Si Si6 0.867827 0.175635 0.323123
Si Si7 0.728804 0.445201 0.822985
Si Si8 0.500000 0.556663 0.668924
O O1 0.184087 0.368072 0.500000
O O2 0.185538 0.320194 0.247212
O O3 0.168402 0.414442 0.243003
O O4 0.000000 0.364099 0.334134
O O5 0.179624 0.953437 0.245365
O O6 0.387130 0.918510 0.231501
O O7 0.211736 0.861878 0.239881
O O8 0.244848 0.912973 0.000000
O O9 0.176430 0.000000 0.500000
O O10 0.000000 0.000000 0.682017
O O11 0.500000 0.000000 0.246685
O O12 0.500000 0.049281 0.000000
O O13 0.172146 0.772657 0.266291
O O14 0.000000 0.723559 0.162690
O O15 0.184987 0.731344 0.000000
O O16 0.848044 0.172234 0.500000
O O17 0.000000 0.165970 0.282132
O O18 0.749729 0.500000 0.775897
O O19 0.611415 0.424758 0.755059
O O20 0.723653 0.439447 0.000000
O O21 0.500000 0.500000 0.670189
O O22 0.500000 0.576966 0.500000
#
# Coordination Sequence:
#
# PCOD8197549 Si02
#       8
#     8   8   4   4   8   8   8   4
#     4  10  20  33  50  74 105 140 175 212 260 315
#     4  11  21  35  56  77 100 133 173 211 249 298
#     4  11  23  36  49  72 108 139 162 199 252 299
#     4   9  18  36  56  75 100 133 174 218 255 289
#     4   9  17  31  52  76 101 132 172 212 251 305
#     4  10  20  34  52  77 109 137 163 204 258 307
#     4  10  20  33  50  73 102 136 175 219 264 311
#     4   9  17  31  51  72  95 126 167 213 259 307
#
# _framework density 17.770932999999999
#
# number of rings (size 3 to 8) (size 9 to 14) (size 15 to 20)
#    0.000    2.077    0.769    3.231    0.000    8.308 
#    0.000    3.462    0.000    0.923    0.000    5.385 
#    0.000    0.000    0.000    0.000    0.000    0.000 
#
# Total GULP energy -644868.092338 kJ/mol
# GULP energy per Si atom -12401.309468 kJ/mol
# Density = 1.773049 g / cm^3
# Si number density = 17.770933 Si / 1000 Ang^3
#
#
#
# Elastic Constant Matrix: (Units=GPa)
#
#
# Indices 1 2 3 4 5 6 
#
# 1 62.6536 44.7236 37.6012 0.0000 0.0000 0.0000
# 2 44.7236 120.5459 54.2935 0.0000 0.0000 0.0000
# 3 37.6012 54.2935 109.1689 0.0000 0.0000 0.0000
# 4 0.0000 0.0000 0.0000 33.8533 0.0000 0.0000
# 5 0.0000 0.0000 0.0000 0.0000 23.6345 0.0000
# 6 0.0000 0.0000 0.0000 0.0000 0.0000 2.7157
#
#
#
# Elastic Compliance Matrix: (Units=1/GPa)
#
#
# Indices 1 2 3 4 5 6 
#
# 1 0.023550 -0.006551 -0.004853 0.000000 0.000000 0.000000
# 2 -0.006551 0.012513 -0.003967 0.000000 0.000000 0.000000
# 3 -0.004853 -0.003967 0.012804 0.000000 0.000000 0.000000
# 4 0.000000 0.000000 0.000000 0.029539 0.000000 0.000000
# 5 0.000000 0.000000 0.000000 0.000000 0.042311 0.000000
# 6 0.000000 0.000000 0.000000 0.000000 0.000000 0.368226
#
#
# Mechanical properties :
#
#
# Convention : Reuss Voigt Hill
#
# Bulk Modulus (GPa) = 55.17249 62.84499 59.00874
# Shear Modulus (GPa) = 9.51064 22.42404 15.96734
#
# Velocity S-wave (km/s) = 2.31590 3.55609 3.00077
# Velocity P-wave (km/s) = 6.18588 7.23199 6.72930
#
# Compressibility (1/GPa) = 0.01812498
#
# Stress axis : x y z
#
# Youngs Moduli (GPa) = 42.46317 79.91871 78.09849
#
# Poissons Ratio (x) = 0.52358 0.37902
# Poissons Ratio (y) = 0.27819 0.30978
# Poissons Ratio (z) = 0.20608 0.31700
#
# Static dielectric constant tensor:
#      x y z
#    x 3.184940 0.000000 0.000000 
#    y 0.000000 3.307940 0.000000 
#    z 0.000000 0.000000 3.489160 
# 
# 
# High freq. dielectric constant tensor:
#      x y z
#    x 1.661330 0.000000 0.000000 
#    y 0.000000 1.686140 0.000000 
#    z 0.000000 0.000000 1.702170 
# 
# From -- ./inp_files/4623.got.cif
#   From: 2010.03.12/outbox.cif.g09.slc.cpg/sg47_3_cif.got.tgz:4623.got - 2010.04.14 03:12:58.
