data_PCOD8197526
_publ_section_title
;
Structure prediction by ZEFSAII (Michael W. Deem and Ramdas Pophale) SiO2 
 PCOD8197526
Probable space group: P M M M
;
_chemical_formula_sum "Si O2"
_cell_formula_units_Z 40
_cell_length_a 9.033944
_cell_length_b 9.325579
_cell_length_c 25.837085
_cell_angle_alpha 90.000000
_cell_angle_beta 90.000000
_cell_angle_gamma 90.000000
_cell_volume 2176.690659
_symmetry_space_group_name_H-M "P M M M"
_symmetry_group_IT_number 47
_symmetry_cell_setting 'orthorhombic'
loop_
_space_group_symop_operation_xyz
x,y,z
-x,-y,z
x,-y,-z
-x,y,-z
-x,-y,-z
x,y,-z
-x,y,z
x,-y,z
loop_
_atom_site_type_symbol
_atom_site_label
_atom_site_fract_x
_atom_site_fract_y
_atom_site_fract_z
Si Si1 0.833033 0.829301 0.398730
Si Si2 0.671926 0.168064 0.295751
Si Si3 0.171175 0.667602 0.204365
Si Si4 0.323988 0.838120 0.000000
Si Si5 0.671474 0.333800 0.900854
Si Si6 0.667211 0.171139 0.500000
O O1 0.750133 0.773730 0.347604
O O2 0.749850 0.768710 0.449258
O O3 0.000000 0.769666 0.398367
O O4 0.832012 0.000000 0.400182
O O5 0.500000 0.204859 0.300258
O O6 0.739304 0.247074 0.246998
O O7 0.699974 0.000000 0.288588
O O8 0.195750 0.500000 0.214205
O O9 0.233730 0.712529 0.148641
O O10 0.000000 0.710879 0.207175
O O11 0.266084 0.757331 0.948943
O O12 0.500000 0.834454 0.000000
O O13 0.262735 0.000000 0.000000
O O14 0.500000 0.299595 0.889273
O O15 0.693765 0.500000 0.914637
O O16 0.500000 0.229485 0.500000
O O17 0.668452 0.000000 0.500000
#
# Coordination Sequence:
#
# PCOD8197526 Si02
#       6
#     8   8   8   4   8   4
#     4   9  16  26  41  63  93 128 164 203 250 301
#     4  10  20  33  50  73 100 130 165 206 253 303
#     4  10  21  36  53  74 100 131 168 208 250 297
#     4   9  17  29  48  75 102 126 158 201 244 287
#     4   9  17  31  51  72  95 126 163 201 242 289
#     4   9  15  23  37  59  90 127 166 207 248 293
#
# _framework density 18.376518999999998
#
# number of rings (size 3 to 8) (size 9 to 14) (size 15 to 20)
#    0.000    2.600    0.000    2.400    0.000    8.000 
#    0.000    2.500    0.000    3.000    0.000    0.700 
#    0.000    5.600    0.000    0.000    0.000    0.000 
#
# Total GULP energy -496061.688518 kJ/mol
# GULP energy per Si atom -12401.542213 kJ/mol
# Density = 1.833469 g / cm^3
# Si number density = 18.376519 Si / 1000 Ang^3
#
#
#
# Elastic Constant Matrix: (Units=GPa)
#
#
# Indices 1 2 3 4 5 6 
#
# 1 121.2601 35.9416 78.7179 0.0000 0.0000 0.0000
# 2 35.9416 43.4793 55.5883 0.0000 0.0000 0.0000
# 3 78.7179 55.5883 173.7728 0.0000 0.0000 0.0000
# 4 0.0000 0.0000 0.0000 -10.0529 0.0000 0.0000
# 5 0.0000 0.0000 0.0000 0.0000 15.8962 0.0000
# 6 0.0000 0.0000 0.0000 0.0000 0.0000 17.9684
#
#
#
# Elastic Compliance Matrix: (Units=1/GPa)
#
#
# Indices 1 2 3 4 5 6 
#
# 1 0.012331 -0.005164 -0.003934 0.000000 0.000000 0.000000
# 2 -0.005164 0.041077 -0.010801 0.000000 0.000000 0.000000
# 3 -0.003934 -0.010801 0.010992 0.000000 0.000000 0.000000
# 4 0.000000 0.000000 0.000000 -0.099474 0.000000 0.000000
# 5 0.000000 0.000000 0.000000 0.000000 0.062908 0.000000
# 6 0.000000 0.000000 0.000000 0.000000 0.000000 0.055653
#
#
# Mechanical properties :
#
#
# Convention : Reuss Voigt Hill
#
# Bulk Modulus (GPa) = 40.64621 75.44532 58.04577
# Shear Modulus (GPa) = 38.02694 15.97999 27.00346
#
# Velocity S-wave (km/s) = 4.55392 2.95208 3.83751
# Velocity P-wave (km/s) = 7.05815 7.26389 7.16176
#
# Compressibility (1/GPa) = 0.02460254
#
# Stress axis : x y z
#
# Youngs Moduli (GPa) = 81.09559 24.34444 90.97559
#
# Poissons Ratio (x) = 0.12570 0.35791
# Poissons Ratio (y) = 0.41874 0.98264
# Poissons Ratio (z) = 0.31904 0.26295
#
# Static dielectric constant tensor:
#      x y z
#    x 3.446160 0.000000 0.000000 
#    y 0.000000 3.038320 0.000000 
#    z 0.000000 0.000000 3.591060 
# 
# 
# High freq. dielectric constant tensor:
#      x y z
#    x 1.713800 0.000000 0.000000 
#    y 0.000000 1.669410 0.000000 
#    z 0.000000 0.000000 1.730380 
# 
# From -- ./inp_files/33008.got.cif
#   From: 2010.03.12/outbox.cif.g09.slc.cpg/sg47_17_cif.got.tgz:33008.got - 2010.04.14 03:12:58.
