data_PCOD8197460
_publ_section_title
;
Structure prediction by ZEFSAII (Michael W. Deem and Ramdas Pophale) SiO2 
 PCOD8197460
Probable space group: P M M M
;
_chemical_formula_sum "Si O2"
_cell_formula_units_Z 64
_cell_length_a 29.287377
_cell_length_b 14.749203
_cell_length_c 9.172578
_cell_angle_alpha 90.000000
_cell_angle_beta 90.000000
_cell_angle_gamma 90.000000
_cell_volume 3962.236955
_symmetry_space_group_name_H-M "P M M M"
_symmetry_group_IT_number 47
_symmetry_cell_setting 'orthorhombic'
loop_
_space_group_symop_operation_xyz
x,y,z
-x,-y,z
x,-y,-z
-x,y,-z
-x,-y,-z
x,y,-z
-x,y,z
x,-y,z
loop_
_atom_site_type_symbol
_atom_site_label
_atom_site_fract_x
_atom_site_fract_y
_atom_site_fract_z
Si Si1 0.648944 0.101772 0.168852
Si Si2 0.449707 0.169976 0.166678
Si Si3 0.691005 0.267203 0.671929
Si Si4 0.949707 0.607807 0.336304
Si Si5 0.550893 0.646686 0.664772
Si Si6 0.135871 0.392486 0.837603
Si Si7 0.369604 0.598332 0.835423
Si Si8 0.773400 0.604136 0.672003
O O1 0.594474 0.108312 0.203338
O O2 0.682804 0.168997 0.256731
O O3 0.663901 0.000000 0.210807
O O4 0.657806 0.122081 0.000000
O O5 0.500000 0.120947 0.184525
O O6 0.447561 0.250425 0.281158
O O7 0.445447 0.205675 0.000000
O O8 0.691001 0.254932 0.500000
O O9 0.649876 0.330259 0.721997
O O10 0.736164 0.321851 0.724546
O O11 0.942274 0.644460 0.500000
O O12 0.946510 0.500000 0.337359
O O13 0.910044 0.649038 0.234352
O O14 0.000000 0.637734 0.278812
O O15 0.570605 0.641907 0.500000
O O16 0.500000 0.607880 0.666943
O O17 0.579036 0.585006 0.777912
O O18 0.132011 0.500000 0.841922
O O19 0.179786 0.363448 0.745242
O O20 0.140453 0.352490 0.000000
O O21 0.345049 0.500000 0.829576
O O22 0.367780 0.636993 0.000000
O O23 0.780055 0.607888 0.500000
O O24 0.760366 0.500000 0.718342
#
# Coordination Sequence:
#
# PCOD8197460 Si02
#       8
#     8   8   8   8   8   8   8   8
#     4  10  21  36  54  76 100 124 149 178 218 271
#     4   9  17  31  52  74  96 121 146 173 209 258
#     4  11  22  36  54  73  93 119 151 190 232 271
#     4   8  13  21  33  49  73 110 153 193 233 274
#     4  10  20  33  50  71  94 119 146 178 216 256
#     4   9  16  24  36  57  83 111 147 192 237 276
#     4  11  23  36  51  71  94 121 151 182 219 266
#     4   9  18  32  48  65  87 117 153 192 234 279
#
# _framework density 16.152491999999999
#
# number of rings (size 3 to 8) (size 9 to 14) (size 15 to 20)
#    0.000    2.375    1.250    2.250    0.000    5.750 
#    0.000    5.000    0.000    0.000    0.000    2.625 
#    0.000    0.000    0.000    0.000    0.000    0.625 
#
# Total GULP energy -792926.736277 kJ/mol
# GULP energy per Si atom -12389.480254 kJ/mol
# Density = 1.611573 g / cm^3
# Si number density = 16.152492 Si / 1000 Ang^3
#
#
#
# Elastic Constant Matrix: (Units=GPa)
#
#
# Indices 1 2 3 4 5 6 
#
# 1 109.5752 38.6764 45.5456 0.0000 0.0000 0.0000
# 2 38.6764 69.7201 28.1394 0.0000 0.0000 0.0000
# 3 45.5456 28.1394 59.1690 0.0000 0.0000 0.0000
# 4 0.0000 0.0000 0.0000 8.0063 0.0000 0.0000
# 5 0.0000 0.0000 0.0000 0.0000 21.3061 0.0000
# 6 0.0000 0.0000 0.0000 0.0000 0.0000 4.4885
#
#
#
# Elastic Compliance Matrix: (Units=1/GPa)
#
#
# Indices 1 2 3 4 5 6 
#
# 1 0.014414 -0.004354 -0.009025 0.000000 0.000000 0.000000
# 2 -0.004354 0.019065 -0.005716 0.000000 0.000000 0.000000
# 3 -0.009025 -0.005716 0.026566 0.000000 0.000000 0.000000
# 4 0.000000 0.000000 0.000000 0.124902 0.000000 0.000000
# 5 0.000000 0.000000 0.000000 0.000000 0.046935 0.000000
# 6 0.000000 0.000000 0.000000 0.000000 0.000000 0.222794
#
#
# Mechanical properties :
#
#
# Convention : Reuss Voigt Hill
#
# Bulk Modulus (GPa) = 45.75238 51.46523 48.60881
# Shear Modulus (GPa) = 9.99701 15.16702 12.58202
#
# Velocity S-wave (km/s) = 2.49050 3.06762 2.79400
# Velocity P-wave (km/s) = 6.05449 6.66921 6.36927
#
# Compressibility (1/GPa) = 0.02185679
#
# Stress axis : x y z
#
# Youngs Moduli (GPa) = 69.37680 52.45201 37.64220
#
# Poissons Ratio (x) = 0.22835 0.33971
# Poissons Ratio (y) = 0.30204 0.21515
# Poissons Ratio (z) = 0.62611 0.29980
#
# Static dielectric constant tensor:
#      x y z
#    x 3.221110 0.000000 0.000000 
#    y 0.000000 2.695730 0.000000 
#    z 0.000000 0.000000 3.137870 
# 
# 
# High freq. dielectric constant tensor:
#      x y z
#    x 1.612390 0.000000 0.000000 
#    y 0.000000 1.566710 0.000000 
#    z 0.000000 0.000000 1.629270 
# 
# From -- ./inp_files/8208.got.cif
#   From: 2010.03.12/outbox.cif.g09.slc.cpg/sg47_5_cif.got.tgz:8208.got - 2010.04.14 03:12:58.
