data_PCOD8197726
_publ_section_title
;
Structure prediction by ZEFSAII (Michael W. Deem and Ramdas Pophale) SiO2 
 PCOD8197726
Probable space group: P M M M
;
_chemical_formula_sum "Si O2"
_cell_formula_units_Z 40
_cell_length_a 7.865915
_cell_length_b 8.100588
_cell_length_c 29.302933
_cell_angle_alpha 90.000000
_cell_angle_beta 90.000000
_cell_angle_gamma 90.000000
_cell_volume 1867.140011
_symmetry_space_group_name_H-M "P M M M"
_symmetry_group_IT_number 47
_symmetry_cell_setting 'orthorhombic'
loop_
_space_group_symop_operation_xyz
x,y,z
-x,-y,z
x,-y,-z
-x,y,-z
-x,-y,-z
x,y,-z
-x,y,z
x,-y,z
loop_
_atom_site_type_symbol
_atom_site_label
_atom_site_fract_x
_atom_site_fract_y
_atom_site_fract_z
Si Si1 0.700907 0.182172 0.294904
Si Si2 0.311282 0.689808 0.609701
Si Si3 0.202803 0.000000 0.052216
Si Si4 0.000000 0.302539 0.551854
Si Si5 0.303860 0.805269 0.195700
Si Si6 0.806073 0.319611 0.102910
O O1 0.500000 0.169724 0.290180
O O2 0.752488 0.294884 0.337876
O O3 0.765488 0.251639 0.245918
O O4 0.776692 0.000000 0.303949
O O5 0.500000 0.772685 0.603129
O O6 0.328240 0.500000 0.597201
O O7 0.169772 0.769640 0.576354
O O8 0.280688 0.165604 0.076005
O O9 0.000000 0.000000 0.057654
O O10 0.261356 0.000000 0.000000
O O11 0.000000 0.500000 0.555248
O O12 0.000000 0.240039 0.500000
O O13 0.500000 0.757835 0.189199
O O14 0.199783 0.710154 0.157155
O O15 0.275253 0.000000 0.190567
O O16 0.722224 0.500000 0.091495
O O17 0.000000 0.328150 0.087272
#
# Coordination Sequence:
#
# PCOD8197726 Si02
#       6
#     8   8   4   4   8   8
#     4   8  15  29  49  72  98 130 166 201 241 300
#     4   9  17  30  49  71  96 128 166 211 261 312
#     4   9  18  34  55  75 101 139 177 223 275 316
#     4   9  18  32  49  71  99 129 167 219 269 312
#     4   9  17  31  52  75 101 137 175 208 254 317
#     4  10  20  33  51  77 106 135 172 219 268 320
#
# _framework density 21.42314
#
# number of rings (size 3 to 8) (size 9 to 14) (size 15 to 20)
#    0.000    3.000    1.000    1.200    0.000    2.000 
#    1.800    6.500    0.000    2.400    0.000    4.200 
#    0.000    0.000    0.000    0.000    0.000    0.000 
#
# Total GULP energy -495533.449234 kJ/mol
# GULP energy per Si atom -12388.336231 kJ/mol
# Density = 2.137438 g / cm^3
# Si number density = 21.423140 Si / 1000 Ang^3
#
#
#
# Elastic Constant Matrix: (Units=GPa)
#
#
# Indices 1 2 3 4 5 6 
#
# 1 54.8384 22.3047 40.1974 0.0000 0.0000 0.0000
# 2 22.3047 89.9888 55.0445 0.0000 0.0000 0.0000
# 3 40.1974 55.0445 169.7394 0.0000 0.0000 0.0000
# 4 0.0000 0.0000 0.0000 26.2775 0.0000 0.0000
# 5 0.0000 0.0000 0.0000 0.0000 11.5731 0.0000
# 6 0.0000 0.0000 0.0000 0.0000 0.0000 8.4843
#
#
#
# Elastic Compliance Matrix: (Units=1/GPa)
#
#
# Indices 1 2 3 4 5 6 
#
# 1 0.022661 -0.002912 -0.004422 0.000000 0.000000 0.000000
# 2 -0.002912 0.014236 -0.003927 0.000000 0.000000 0.000000
# 3 -0.004422 -0.003927 0.008212 0.000000 0.000000 0.000000
# 4 0.000000 0.000000 0.000000 0.038055 0.000000 0.000000
# 5 0.000000 0.000000 0.000000 0.000000 0.086407 0.000000
# 6 0.000000 0.000000 0.000000 0.000000 0.000000 0.117865
#
#
# Mechanical properties :
#
#
# Convention : Reuss Voigt Hill
#
# Bulk Modulus (GPa) = 44.27248 61.07330 52.67289
# Shear Modulus (GPa) = 15.74858 22.40166 19.07512
#
# Velocity S-wave (km/s) = 2.71425 3.23720 2.98719
# Velocity P-wave (km/s) = 5.52571 6.52247 6.04467
#
# Compressibility (1/GPa) = 0.02258740
#
# Stress axis : x y z
#
# Youngs Moduli (GPa) = 44.12795 70.24269 121.77004
#
# Poissons Ratio (x) = 0.20453 0.53851
# Poissons Ratio (y) = 0.12849 0.47821
# Poissons Ratio (z) = 0.19515 0.27585
#
# Static dielectric constant tensor:
#      x y z
#    x 3.644690 0.000000 0.000000 
#    y 0.000000 3.796070 0.000000 
#    z 0.000000 0.000000 3.993630 
# 
# 
# High freq. dielectric constant tensor:
#      x y z
#    x 1.805020 0.000000 0.000000 
#    y 0.000000 1.815890 0.000000 
#    z 0.000000 0.000000 1.839430 
# 
# From -- ./inp_files/32998.got.cif
#   From: 2010.03.12/outbox.cif.g09.slc.cpg/sg47_17_cif.got.tgz:32998.got - 2010.04.14 03:12:58.
