data_PCOD8197882
_publ_section_title
;
Structure prediction by ZEFSAII (Michael W. Deem and Ramdas Pophale) SiO2 
 PCOD8197882
Probable space group: P M M M
;
_chemical_formula_sum "Si O2"
_cell_formula_units_Z 44
_cell_length_a 8.944099
_cell_length_b 19.052532
_cell_length_c 13.366995
_cell_angle_alpha 90.000000
_cell_angle_beta 90.000000
_cell_angle_gamma 90.000000
_cell_volume 2277.839307
_symmetry_space_group_name_H-M "P M M M"
_symmetry_group_IT_number 47
_symmetry_cell_setting 'orthorhombic'
loop_
_space_group_symop_operation_xyz
x,y,z
-x,-y,z
x,-y,-z
-x,y,-z
-x,-y,-z
x,y,-z
-x,y,z
x,-y,z
loop_
_atom_site_type_symbol
_atom_site_label
_atom_site_fract_x
_atom_site_fract_y
_atom_site_fract_z
Si Si1 0.830197 0.795818 0.114475
Si Si2 0.676470 0.336650 0.806748
Si Si3 0.824794 0.683004 0.388055
Si Si4 0.321984 0.420503 0.000000
Si Si5 0.331511 0.172283 0.611159
Si Si6 0.325882 0.920334 0.204003
O O1 0.725723 0.743902 0.178008
O O2 0.767876 0.874591 0.125147
O O3 0.000000 0.791210 0.153959
O O4 0.821225 0.772882 0.000000
O O5 0.500000 0.341935 0.801270
O O6 0.743727 0.362294 0.699707
O O7 0.739194 0.383179 0.899112
O O8 0.775546 0.657666 0.500000
O O9 0.783200 0.764310 0.373816
O O10 0.000000 0.673641 0.374151
O O11 0.262780 0.500000 0.000000
O O12 0.500000 0.417261 0.000000
O O13 0.316745 0.140786 0.500000
O O14 0.500000 0.201131 0.630141
O O15 0.292978 0.108858 0.685207
O O16 0.500000 0.915657 0.176256
O O17 0.268369 0.000000 0.198405
#
# Coordination Sequence:
#
# PCOD8197882 Si02
#       6
#     8   8   8   4   8   8
#     4  11  23  37  54  76 104 140 184 230 279 338
#     4  11  20  34  60  88 115 148 186 227 274 332
#     4  10  20  33  52  81 116 150 187 233 280 326
#     4   9  20  38  61  93 126 151 178 221 277 330
#     4   9  17  30  49  73 102 136 177 225 276 331
#     4  10  21  35  51  73 102 139 184 233 285 337
#
# _framework density 19.316552000000001
#
# number of rings (size 3 to 8) (size 9 to 14) (size 15 to 20)
#    0.000    1.909    2.727    1.636    0.000    3.273 
#    0.000    3.636    0.000    4.909    0.000    7.636 
#    0.000    0.000    0.000    0.000    0.000    0.000 
#
# Total GULP energy -545534.042868 kJ/mol
# GULP energy per Si atom -12398.500974 kJ/mol
# Density = 1.927259 g / cm^3
# Si number density = 19.316552 Si / 1000 Ang^3
#
#
#
# Elastic Constant Matrix: (Units=GPa)
#
#
# Indices 1 2 3 4 5 6 
#
# 1 68.7843 20.6095 50.0798 0.0000 0.0000 0.0000
# 2 20.6095 72.5194 44.7159 0.0000 0.0000 0.0000
# 3 50.0798 44.7159 143.7907 0.0000 0.0000 0.0000
# 4 0.0000 0.0000 0.0000 20.8767 0.0000 0.0000
# 5 0.0000 0.0000 0.0000 0.0000 32.3055 0.0000
# 6 0.0000 0.0000 0.0000 0.0000 0.0000 4.8659
#
#
#
# Elastic Compliance Matrix: (Units=1/GPa)
#
#
# Indices 1 2 3 4 5 6 
#
# 1 0.019643 -0.001688 -0.006316 0.000000 0.000000 0.000000
# 2 -0.001688 0.017206 -0.004763 0.000000 0.000000 0.000000
# 3 -0.006316 -0.004763 0.010636 0.000000 0.000000 0.000000
# 4 0.000000 0.000000 0.000000 0.047900 0.000000 0.000000
# 5 0.000000 0.000000 0.000000 0.000000 0.030954 0.000000
# 6 0.000000 0.000000 0.000000 0.000000 0.000000 0.205513
#
#
# Mechanical properties :
#
#
# Convention : Reuss Voigt Hill
#
# Bulk Modulus (GPa) = 45.55734 57.32274 51.44004
# Shear Modulus (GPa) = 13.70980 22.92223 18.31602
#
# Velocity S-wave (km/s) = 2.66699 3.44853 3.08263
# Velocity P-wave (km/s) = 5.75496 6.75251 6.27360
#
# Compressibility (1/GPa) = 0.02195036
#
# Stress axis : x y z
#
# Youngs Moduli (GPa) = 50.90972 58.11975 94.02375
#
# Poissons Ratio (x) = 0.09808 0.59389
# Poissons Ratio (y) = 0.08591 0.44783
# Poissons Ratio (z) = 0.32157 0.27682
#
# Static dielectric constant tensor:
#      x y z
#    x 3.417110 0.000000 0.000000 
#    y 0.000000 3.196500 0.000000 
#    z 0.000000 0.000000 3.974970 
# 
# 
# High freq. dielectric constant tensor:
#      x y z
#    x 1.741950 0.000000 0.000000 
#    y 0.000000 1.706600 0.000000 
#    z 0.000000 0.000000 1.776170 
# 
# From -- ./inp_files/20922.got.cif
#   From: 2010.03.12/outbox.cif.g09.slc.cpg/sg47_11_cif.got.tgz:20922.got - 2010.04.14 03:12:58.
