data_PCOD8197221
_publ_section_title
;
Structure prediction by ZEFSAII (Michael W. Deem and Ramdas Pophale) SiO2 
 PCOD8197221
Probable space group: P M M M
;
_chemical_formula_sum "Si O2"
_cell_formula_units_Z 48
_cell_length_a 29.123616
_cell_length_b 9.124660
_cell_length_c 10.128977
_cell_angle_alpha 90.000000
_cell_angle_beta 90.000000
_cell_angle_gamma 90.000000
_cell_volume 2691.705687
_symmetry_space_group_name_H-M "P M M M"
_symmetry_group_IT_number 47
_symmetry_cell_setting 'orthorhombic'
loop_
_space_group_symop_operation_xyz
x,y,z
-x,-y,z
x,-y,-z
-x,y,-z
-x,-y,-z
x,y,-z
-x,y,z
x,-y,z
loop_
_atom_site_type_symbol
_atom_site_label
_atom_site_fract_x
_atom_site_fract_y
_atom_site_fract_z
Si Si1 0.551312 0.826774 0.000000
Si Si2 0.689799 0.671602 0.653642
Si Si3 0.791462 0.661940 0.343517
Si Si4 0.053586 0.330887 0.850436
Si Si5 0.445705 0.332209 0.500000
Si Si6 0.602442 0.174102 0.261602
Si Si7 0.119433 0.172451 0.348275
O O1 0.579378 0.773337 0.126471
O O2 0.500000 0.757971 0.000000
O O3 0.547131 0.000000 0.000000
O O4 0.682585 0.709905 0.500000
O O5 0.681278 0.500000 0.678221
O O6 0.741071 0.715467 0.703028
O O7 0.654653 0.768436 0.737994
O O8 0.789877 0.653261 0.500000
O O9 0.802115 0.500000 0.286198
O O10 0.831290 0.771003 0.295538
O O11 0.065517 0.500000 0.824944
O O12 0.079678 0.234030 0.743814
O O13 0.000000 0.301688 0.829746
O O14 0.067768 0.287012 0.000000
O O15 0.428000 0.500000 0.500000
O O16 0.500000 0.324525 0.500000
O O17 0.427178 0.249501 0.626384
O O18 0.601914 0.000000 0.280312
O O19 0.110809 0.222435 0.500000
O O20 0.119461 0.000000 0.336316
#
# Coordination Sequence:
#
# PCOD8197221 Si02
#       7
#     4   8   8   8   4   8   8
#     4   9  20  38  55  73 103 139 173 211 254 305
#     4   9  17  31  52  78 109 138 167 210 260 307
#     4   8  15  29  50  74 101 139 178 210 252 306
#     4   9  19  36  56  76 100 136 182 226 266 314
#     4  11  23  37  53  77 109 137 167 215 264 305
#     4  11  21  34  56  81 103 135 175 213 258 311
#     4  10  20  32  49  78 112 141 172 216 265 311
#
# _framework density 17.832559
#
# number of rings (size 3 to 8) (size 9 to 14) (size 15 to 20)
#    0.000    2.500    0.833    3.250    0.000    4.000 
#    0.000    5.833    1.833    3.000    0.000    0.000 
#    0.000    0.000    0.000    0.000    0.000    0.000 
#
# Total GULP energy -595102.876691 kJ/mol
# GULP energy per Si atom -12397.976598 kJ/mol
# Density = 1.779197 g / cm^3
# Si number density = 17.832559 Si / 1000 Ang^3
#
#
#
# Elastic Constant Matrix: (Units=GPa)
#
#
# Indices 1 2 3 4 5 6 
#
# 1 124.9545 59.6324 63.9790 0.0000 0.0000 0.0000
# 2 59.6324 82.7633 51.9470 0.0000 0.0000 0.0000
# 3 63.9790 51.9470 104.1738 0.0000 0.0000 0.0000
# 4 0.0000 0.0000 0.0000 31.5913 0.0000 0.0000
# 5 0.0000 0.0000 0.0000 0.0000 27.3073 0.0000
# 6 0.0000 0.0000 0.0000 0.0000 0.0000 28.4544
#
#
#
# Elastic Compliance Matrix: (Units=1/GPa)
#
#
# Indices 1 2 3 4 5 6 
#
# 1 0.013862 -0.006760 -0.005143 0.000000 0.000000 0.000000
# 2 -0.006760 0.020884 -0.006262 0.000000 0.000000 0.000000
# 3 -0.005143 -0.006262 0.015880 0.000000 0.000000 0.000000
# 4 0.000000 0.000000 0.000000 0.031654 0.000000 0.000000
# 5 0.000000 0.000000 0.000000 0.000000 0.036620 0.000000
# 6 0.000000 0.000000 0.000000 0.000000 0.000000 0.035144
#
#
# Mechanical properties :
#
#
# Convention : Reuss Voigt Hill
#
# Bulk Modulus (GPa) = 69.94590 73.66760 71.80675
# Shear Modulus (GPa) = 25.62260 26.55947 26.09103
#
# Velocity S-wave (km/s) = 3.79468 3.86344 3.82921
# Velocity P-wave (km/s) = 7.64908 7.82955 7.73984
#
# Compressibility (1/GPa) = 0.01429676
#
# Stress axis : x y z
#
# Youngs Moduli (GPa) = 72.13884 47.88361 62.97115
#
# Poissons Ratio (x) = 0.32370 0.32383
# Poissons Ratio (y) = 0.48767 0.39433
# Poissons Ratio (z) = 0.37097 0.29985
#
# Static dielectric constant tensor:
#      x y z
#    x 3.566630 0.000000 0.000000 
#    y 0.000000 3.243590 0.000000 
#    z 0.000000 0.000000 3.142260 
# 
# 
# High freq. dielectric constant tensor:
#      x y z
#    x 1.705700 0.000000 0.000000 
#    y 0.000000 1.684260 0.000000 
#    z 0.000000 0.000000 1.663540 
# 
# From -- ./inp_files/13865.got.cif
#   From: 2010.03.12/outbox.cif.g09.slc.cpg/sg47_7_cif.got.tgz:13865.got - 2010.04.14 03:12:58.
