data_PCOD8197401
_publ_section_title
;
Structure prediction by ZEFSAII (Michael W. Deem and Ramdas Pophale) SiO2 
 PCOD8197401
Probable space group: P M M M
;
_chemical_formula_sum "Si O2"
_cell_formula_units_Z 40
_cell_length_a 22.859693
_cell_length_b 10.489171
_cell_length_c 9.243614
_cell_angle_alpha 90.000000
_cell_angle_beta 90.000000
_cell_angle_gamma 90.000000
_cell_volume 2216.426637
_symmetry_space_group_name_H-M "P M M M"
_symmetry_group_IT_number 47
_symmetry_cell_setting 'orthorhombic'
loop_
_space_group_symop_operation_xyz
x,y,z
-x,-y,z
x,-y,-z
-x,y,-z
-x,-y,-z
x,y,-z
-x,y,z
x,-y,z
loop_
_atom_site_type_symbol
_atom_site_label
_atom_site_fract_x
_atom_site_fract_y
_atom_site_fract_z
Si Si1 0.569206 0.000000 0.839428
Si Si2 0.791202 0.644290 0.171739
Si Si3 0.000000 0.150259 0.338166
Si Si4 0.566887 0.753842 0.669621
Si Si5 0.664215 0.354922 0.843142
Si Si6 0.115570 0.147524 0.829105
O O1 0.590451 0.878903 0.750084
O O2 0.500000 0.000000 0.848272
O O3 0.596761 0.000000 0.000000
O O4 0.804959 0.500000 0.232508
O O5 0.726334 0.696375 0.218475
O O6 0.835600 0.752876 0.228524
O O7 0.793833 0.638951 0.000000
O O8 0.057015 0.193973 0.250504
O O9 0.000000 0.210171 0.500000
O O10 0.000000 0.000000 0.350021
O O11 0.572691 0.773878 0.500000
O O12 0.500000 0.718467 0.710867
O O13 0.611276 0.648262 0.727545
O O14 0.677761 0.500000 0.874594
O O15 0.647123 0.291616 0.000000
O O16 0.132216 0.000000 0.790186
O O17 0.105512 0.159993 0.000000
#
# Coordination Sequence:
#
# PCOD8197401 Si02
#       6
#     4   8   4   8   8   8
#     4   9  17  31  51  71  91 119 155 192 235 290
#     4   8  15  30  50  70  96 129 162 200 248 295
#     4   9  17  29  46  69 100 134 160 189 238 290
#     4  10  20  33  49  70  98 128 158 198 249 301
#     4   9  18  33  51  70  94 126 164 204 246 294
#     4   9  16  28  49  75  98 122 160 204 239 279
#
# _framework density 18.047066999999998
#
# number of rings (size 3 to 8) (size 9 to 14) (size 15 to 20)
#    0.000    3.000    0.000    2.400    0.000    4.400 
#    1.800    3.500    0.000    4.800    0.000    0.000 
#    0.000    0.000    0.000    0.000    0.000    0.000 
#
# Total GULP energy -495524.053844 kJ/mol
# GULP energy per Si atom -12388.101346 kJ/mol
# Density = 1.800599 g / cm^3
# Si number density = 18.047067 Si / 1000 Ang^3
#
#
#
# Elastic Constant Matrix: (Units=GPa)
#
#
# Indices 1 2 3 4 5 6 
#
# 1 141.7647 53.4281 54.1083 0.0000 0.0000 0.0000
# 2 53.4281 65.0238 24.1001 0.0000 0.0000 0.0000
# 3 54.1083 24.1001 71.5860 0.0000 0.0000 0.0000
# 4 0.0000 0.0000 0.0000 13.6418 0.0000 0.0000
# 5 0.0000 0.0000 0.0000 0.0000 14.0305 0.0000
# 6 0.0000 0.0000 0.0000 0.0000 0.0000 29.3879
#
#
#
# Elastic Compliance Matrix: (Units=1/GPa)
#
#
# Indices 1 2 3 4 5 6 
#
# 1 0.012645 -0.007824 -0.006924 0.000000 0.000000 0.000000
# 2 -0.007824 0.022413 -0.001632 0.000000 0.000000 0.000000
# 3 -0.006924 -0.001632 0.019752 0.000000 0.000000 0.000000
# 4 0.000000 0.000000 0.000000 0.073304 0.000000 0.000000
# 5 0.000000 0.000000 0.000000 0.000000 0.071273 0.000000
# 6 0.000000 0.000000 0.000000 0.000000 0.000000 0.034028
#
#
# Mechanical properties :
#
#
# Convention : Reuss Voigt Hill
#
# Bulk Modulus (GPa) = 45.35008 60.18305 52.76657
# Shear Modulus (GPa) = 18.27989 21.19456 19.73722
#
# Velocity S-wave (km/s) = 3.18606 3.43068 3.31063
# Velocity P-wave (km/s) = 6.22238 7.00806 6.62688
#
# Compressibility (1/GPa) = 0.02205068
#
# Stress axis : x y z
#
# Youngs Moduli (GPa) = 79.08027 44.61792 50.62788
#
# Poissons Ratio (x) = 0.34909 0.35055
# Poissons Ratio (y) = 0.61873 0.08260
# Poissons Ratio (z) = 0.54755 0.07280
#
# Static dielectric constant tensor:
#      x y z
#    x 3.438350 0.000000 0.000000 
#    y 0.000000 3.343800 0.000000 
#    z 0.000000 0.000000 3.188910 
# 
# 
# High freq. dielectric constant tensor:
#      x y z
#    x 1.696260 0.000000 0.000000 
#    y 0.000000 1.681380 0.000000 
#    z 0.000000 0.000000 1.678420 
# 
# From -- ./inp_files/10714.got.cif
#   From: 2010.03.12/outbox.cif.g09.slc.cpg/sg47_6_cif.got.tgz:10714.got - 2010.04.14 03:12:58.
