data_PCOD8197395
_publ_section_title
;
Structure prediction by ZEFSAII (Michael W. Deem and Ramdas Pophale) SiO2 
 PCOD8197395
Probable space group: P M M M
;
_chemical_formula_sum "Si O2"
_cell_formula_units_Z 52
_cell_length_a 9.258800
_cell_length_b 33.888541
_cell_length_c 9.296115
_cell_angle_alpha 90.000000
_cell_angle_beta 90.000000
_cell_angle_gamma 90.000000
_cell_volume 2916.816192
_symmetry_space_group_name_H-M "P M M M"
_symmetry_group_IT_number 47
_symmetry_cell_setting 'orthorhombic'
loop_
_space_group_symop_operation_xyz
x,y,z
-x,-y,z
x,-y,-z
-x,y,-z
-x,-y,-z
x,y,-z
-x,y,z
x,-y,z
loop_
_atom_site_type_symbol
_atom_site_label
_atom_site_fract_x
_atom_site_fract_y
_atom_site_fract_z
Si Si1 0.671687 0.270810 0.662618
Si Si2 0.330683 0.194993 0.833674
Si Si3 0.172588 0.414615 0.335565
Si Si4 0.167056 0.882342 0.167743
Si Si5 0.331139 0.652563 0.167868
Si Si6 0.828324 0.956808 0.662226
Si Si7 0.843309 0.500000 0.330628
O O1 0.732256 0.272204 0.500000
O O2 0.500000 0.270279 0.663494
O O3 0.729545 0.231645 0.741551
O O4 0.727291 0.308887 0.749230
O O5 0.500000 0.188896 0.810889
O O6 0.251905 0.155899 0.775974
O O7 0.293336 0.203270 0.000000
O O8 0.216874 0.404332 0.500000
O O9 0.244687 0.384702 0.225905
O O10 0.234056 0.458433 0.290901
O O11 0.000000 0.413487 0.319783
O O12 0.234185 0.921444 0.241087
O O13 0.000000 0.876479 0.208060
O O14 0.190913 0.888140 0.000000
O O15 0.500000 0.645839 0.197250
O O16 0.298986 0.658307 0.000000
O O17 0.774670 0.949967 0.500000
O O18 0.000000 0.956129 0.669526
O O19 0.774011 0.000000 0.716985
O O20 0.867517 0.500000 0.500000
O O21 0.000000 0.500000 0.254748
#
# Coordination Sequence:
#
# PCOD8197395 Si02
#       7
#     8   8   8   8   8   8   4
#     4   9  17  30  49  70  89 114 153 195 228 264
#     4   9  17  30  47  65  87 116 147 178 217 268
#     4   9  17  31  52  75  97 123 158 198 237 278
#     4   9  17  28  43  65  90 113 140 177 218 257
#     4  10  20  33  49  70  97 128 159 192 234 281
#     4   8  14  25  41  61  85 113 144 177 214 256
#     4   7  12  26  48  71  94 122 156 193 232 275
#
# _framework density 17.827656000000001
#
# number of rings (size 3 to 8) (size 9 to 14) (size 15 to 20)
#    0.000    3.154    0.000    2.308    0.000    4.000 
#    0.000    3.077    0.000    6.923    0.000    3.231 
#    0.000    0.000    0.000    0.000    0.000    0.000 
#
# Total GULP energy -644457.704642 kJ/mol
# GULP energy per Si atom -12393.417397 kJ/mol
# Density = 1.778708 g / cm^3
# Si number density = 17.827656 Si / 1000 Ang^3
#
#
#
# Elastic Constant Matrix: (Units=GPa)
#
#
# Indices 1 2 3 4 5 6 
#
# 1 23.0372 37.2812 25.4309 0.0000 0.0000 0.0000
# 2 37.2812 198.1982 83.4191 0.0000 0.0000 0.0000
# 3 25.4309 83.4191 91.9789 0.0000 0.0000 0.0000
# 4 0.0000 0.0000 0.0000 36.4369 0.0000 0.0000
# 5 0.0000 0.0000 0.0000 0.0000 17.7395 0.0000
# 6 0.0000 0.0000 0.0000 0.0000 0.0000 50.4030
#
#
#
# Elastic Compliance Matrix: (Units=1/GPa)
#
#
# Indices 1 2 3 4 5 6 
#
# 1 0.069655 -0.008081 -0.011930 0.000000 0.000000 0.000000
# 2 -0.008081 0.009098 -0.006017 0.000000 0.000000 0.000000
# 3 -0.011930 -0.006017 0.019627 0.000000 0.000000 0.000000
# 4 0.000000 0.000000 0.000000 0.027445 0.000000 0.000000
# 5 0.000000 0.000000 0.000000 0.000000 0.056371 0.000000
# 6 0.000000 0.000000 0.000000 0.000000 0.000000 0.019840
#
#
# Mechanical properties :
#
#
# Convention : Reuss Voigt Hill
#
# Bulk Modulus (GPa) = 21.58666 67.27518 44.43092
# Shear Modulus (GPa) = 18.55058 32.05475 25.30267
#
# Velocity S-wave (km/s) = 3.22926 4.24492 3.77144
# Velocity P-wave (km/s) = 5.10284 7.86411 6.62884
#
# Compressibility (1/GPa) = 0.04632490
#
# Stress axis : x y z
#
# Youngs Moduli (GPa) = 14.35652 109.91453 50.94903
#
# Poissons Ratio (x) = 0.88823 0.60780
# Poissons Ratio (y) = 0.11602 0.30656
# Poissons Ratio (z) = 0.17127 0.66135
#
# Static dielectric constant tensor:
#      x y z
#    x 2.839810 0.000000 0.000000 
#    y 0.000000 3.766070 0.000000 
#    z 0.000000 0.000000 3.270530 
# 
# 
# High freq. dielectric constant tensor:
#      x y z
#    x 1.637430 0.000000 0.000000 
#    y 0.000000 1.711600 0.000000 
#    z 0.000000 0.000000 1.680760 
# 
# From -- ./inp_files/4792.got.cif
#   From: 2010.03.12/outbox.cif.g09.slc.cpg/sg47_3_cif.got.tgz:4792.got - 2010.04.14 03:12:58.
