data_PCOD8197541
_publ_section_title
;
Structure prediction by ZEFSAII (Michael W. Deem and Ramdas Pophale) SiO2 
 PCOD8197541
Probable space group: P M M M
;
_chemical_formula_sum "Si O2"
_cell_formula_units_Z 64
_cell_length_a 14.248003
_cell_length_b 27.931081
_cell_length_c 9.098121
_cell_angle_alpha 90.000000
_cell_angle_beta 90.000000
_cell_angle_gamma 90.000000
_cell_volume 3620.707575
_symmetry_space_group_name_H-M "P M M M"
_symmetry_group_IT_number 47
_symmetry_cell_setting 'orthorhombic'
loop_
_space_group_symop_operation_xyz
x,y,z
-x,-y,z
x,-y,-z
-x,y,-z
-x,-y,-z
x,y,-z
-x,y,z
x,-y,z
loop_
_atom_site_type_symbol
_atom_site_label
_atom_site_fract_x
_atom_site_fract_y
_atom_site_fract_z
Si Si1 0.610320 0.781970 0.334315
Si Si2 0.894654 0.812600 0.168090
Si Si3 0.605757 0.945853 0.673192
Si Si4 0.892484 0.555626 0.668407
Si Si5 0.221105 0.634134 0.825951
Si Si6 0.607085 0.327432 0.671106
Si Si7 0.110137 0.283142 0.667684
Si Si8 0.287704 0.864220 0.168760
O O1 0.640546 0.795743 0.500000
O O2 0.500000 0.788521 0.316583
O O3 0.638724 0.727335 0.299850
O O4 0.660378 0.816392 0.220067
O O5 0.863949 0.769260 0.273017
O O6 0.823876 0.856850 0.193750
O O7 0.000000 0.830288 0.205742
O O8 0.888435 0.794402 0.000000
O O9 0.615299 0.941311 0.500000
O O10 0.500000 0.931397 0.721158
O O11 0.681243 0.911136 0.744904
O O12 0.627313 0.000000 0.724095
O O13 0.876236 0.571663 0.500000
O O14 0.869228 0.500000 0.687920
O O15 0.823230 0.584259 0.774144
O O16 0.000000 0.566157 0.713094
O O17 0.327263 0.637716 0.765798
O O18 0.160120 0.677491 0.764953
O O19 0.222358 0.635918 0.000000
O O20 0.617737 0.339890 0.500000
O O21 0.500000 0.335352 0.722081
O O22 0.145539 0.286894 0.500000
O O23 0.000000 0.292537 0.679620
O O24 0.312919 0.872426 0.000000
#
# Coordination Sequence:
#
# PCOD8197541 Si02
#       8
#     8   8   8   8   8   8   8   8
#     4   9  18  32  49  70  98 132 166 199 239 288
#     4   9  19  35  50  67  98 135 167 202 246 294
#     4   9  19  36  55  73  95 125 158 192 237 293
#     4   9  19  37  59  80 102 130 166 208 251 296
#     4  12  23  32  49  77 107 138 168 202 251 307
#     4   9  19  36  55  73  97 134 178 218 251 286
#     4  10  20  33  50  73 101 134 174 215 249 287
#     4  11  21  30  47  75 100 126 161 199 242 290
#
# _framework density 17.676103999999999
#
# number of rings (size 3 to 8) (size 9 to 14) (size 15 to 20)
#    0.000    2.250    0.000    4.875    0.000    8.750 
#    0.000    2.500    0.000    0.750    0.000    5.250 
#    0.000    0.000    0.000    0.000    0.000    0.000 
#
# Total GULP energy -793693.542978 kJ/mol
# GULP energy per Si atom -12401.461609 kJ/mol
# Density = 1.763587 g / cm^3
# Si number density = 17.676104 Si / 1000 Ang^3
#
#
#
# Elastic Constant Matrix: (Units=GPa)
#
#
# Indices 1 2 3 4 5 6 
#
# 1 70.3772 61.8385 47.3473 0.0000 0.0000 0.0000
# 2 61.8385 86.9281 52.0941 0.0000 0.0000 0.0000
# 3 47.3473 52.0941 93.1952 0.0000 0.0000 0.0000
# 4 0.0000 0.0000 0.0000 19.4398 0.0000 0.0000
# 5 0.0000 0.0000 0.0000 0.0000 25.0042 0.0000
# 6 0.0000 0.0000 0.0000 0.0000 0.0000 30.0691
#
#
#
# Elastic Compliance Matrix: (Units=1/GPa)
#
#
# Indices 1 2 3 4 5 6 
#
# 1 0.040521 -0.024794 -0.006727 0.000000 0.000000 0.000000
# 2 -0.024794 0.032470 -0.005553 0.000000 0.000000 0.000000
# 3 -0.006727 -0.005553 0.017252 0.000000 0.000000 0.000000
# 4 0.000000 0.000000 0.000000 0.051441 0.000000 0.000000
# 5 0.000000 0.000000 0.000000 0.000000 0.039993 0.000000
# 6 0.000000 0.000000 0.000000 0.000000 0.000000 0.033257
#
#
# Mechanical properties :
#
#
# Convention : Reuss Voigt Hill
#
# Bulk Modulus (GPa) = 62.13676 63.67338 62.90507
# Shear Modulus (GPa) = 16.98102 20.85064 18.91583
#
# Velocity S-wave (km/s) = 3.10284 3.43825 3.27484
# Velocity P-wave (km/s) = 6.93297 7.20157 7.06855
#
# Compressibility (1/GPa) = 0.01609353
#
# Stress axis : x y z
#
# Youngs Moduli (GPa) = 24.67878 30.79800 57.96444
#
# Poissons Ratio (x) = 0.76361 0.38992
# Poissons Ratio (y) = 0.61189 0.32190
# Poissons Ratio (z) = 0.16601 0.17103
#
# Static dielectric constant tensor:
#      x y z
#    x 3.409720 0.000000 0.000000 
#    y 0.000000 3.130150 0.000000 
#    z 0.000000 0.000000 3.277580 
# 
# 
# High freq. dielectric constant tensor:
#      x y z
#    x 1.687540 0.000000 0.000000 
#    y 0.000000 1.663900 0.000000 
#    z 0.000000 0.000000 1.683340 
# 
# From -- ./inp_files/7957.got.cif
#   From: 2010.03.12/outbox.cif.g09.slc.cpg/sg47_4_cif.got.tgz:7957.got - 2010.04.14 03:12:58.
