data_PCOD8197680
_publ_section_title
;
Structure prediction by ZEFSAII (Michael W. Deem and Ramdas Pophale) SiO2 
 PCOD8197680
Probable space group: P M M M
;
_chemical_formula_sum "Si O2"
_cell_formula_units_Z 64
_cell_length_a 19.696746
_cell_length_b 20.917335
_cell_length_c 9.041742
_cell_angle_alpha 90.000000
_cell_angle_beta 90.000000
_cell_angle_gamma 90.000000
_cell_volume 3725.228758
_symmetry_space_group_name_H-M "P M M M"
_symmetry_group_IT_number 47
_symmetry_cell_setting 'orthorhombic'
loop_
_space_group_symop_operation_xyz
x,y,z
-x,-y,z
x,-y,-z
-x,y,-z
-x,-y,-z
x,y,-z
-x,y,z
x,-y,z
loop_
_atom_site_type_symbol
_atom_site_label
_atom_site_fract_x
_atom_site_fract_y
_atom_site_fract_z
Si Si1 0.076964 0.272587 0.173175
Si Si2 0.714076 0.808727 0.675938
Si Si3 0.574111 0.239810 0.325080
Si Si4 0.792765 0.069920 0.325946
Si Si5 0.205328 0.683255 0.675197
Si Si6 0.075643 0.859133 0.668943
Si Si7 0.574843 0.371264 0.168571
Si Si8 0.285362 0.572057 0.170703
O O1 0.129619 0.318566 0.257090
O O2 0.088835 0.200302 0.225082
O O3 0.000000 0.294512 0.211026
O O4 0.091213 0.276388 0.000000
O O5 0.718969 0.809879 0.500000
O O6 0.635626 0.805288 0.730615
O O7 0.745393 0.874188 0.742753
O O8 0.755577 0.746808 0.732911
O O9 0.575000 0.242394 0.500000
O O10 0.500000 0.214923 0.268437
O O11 0.588493 0.310901 0.271421
O O12 0.780544 0.066994 0.500000
O O13 0.871383 0.085357 0.290506
O O14 0.775604 0.000000 0.256876
O O15 0.200136 0.682073 0.500000
O O16 0.244352 0.620290 0.726967
O O17 0.087188 0.835550 0.500000
O O18 0.000000 0.887157 0.690383
O O19 0.500000 0.401182 0.201549
O O20 0.633602 0.422595 0.200508
O O21 0.578389 0.347086 0.000000
O O22 0.263663 0.500000 0.211367
O O23 0.268866 0.587433 0.000000
#
# Coordination Sequence:
#
# PCOD8197680 Si02
#       8
#     8   8   8   8   8   8   8   8
#     4  10  20  33  51  76 103 130 161 198 245 298
#     4   9  16  27  44  69  95 122 160 205 249 290
#     4   9  16  27  45  67  93 125 160 202 251 296
#     4   9  16  26  42  66  96 128 162 204 251 293
#     4  11  20  33  54  76  99 128 166 210 249 289
#     4   9  16  27  44  68  97 127 162 200 238 287
#     4   9  17  29  46  70  99 130 166 203 239 285
#     4  10  21  35  50  72 104 138 169 202 245 297
#
# _framework density 17.180153000000001
#
# number of rings (size 3 to 8) (size 9 to 14) (size 15 to 20)
#    0.000    2.500    2.500    0.750    0.000    1.500 
#    0.000    2.500    0.000    1.125    0.000    9.625 
#    0.000    0.000    0.000    3.125    0.000    3.250 
#
# Total GULP energy -793209.371327 kJ/mol
# GULP energy per Si atom -12393.896427 kJ/mol
# Density = 1.714105 g / cm^3
# Si number density = 17.180153 Si / 1000 Ang^3
#
#
#
# Elastic Constant Matrix: (Units=GPa)
#
#
# Indices 1 2 3 4 5 6 
#
# 1 126.6493 66.4270 37.3915 0.0000 0.0000 0.0000
# 2 66.4270 104.2008 26.3644 0.0000 0.0000 0.0000
# 3 37.3915 26.3644 35.8993 0.0000 0.0000 0.0000
# 4 0.0000 0.0000 0.0000 12.1439 0.0000 0.0000
# 5 0.0000 0.0000 0.0000 0.0000 20.0514 0.0000
# 6 0.0000 0.0000 0.0000 0.0000 0.0000 22.9574
#
#
#
# Elastic Compliance Matrix: (Units=1/GPa)
#
#
# Indices 1 2 3 4 5 6 
#
# 1 0.014325 -0.006580 -0.010089 0.000000 0.000000 0.000000
# 2 -0.006580 0.014809 -0.004023 0.000000 0.000000 0.000000
# 3 -0.010089 -0.004023 0.041318 0.000000 0.000000 0.000000
# 4 0.000000 0.000000 0.000000 0.082346 0.000000 0.000000
# 5 0.000000 0.000000 0.000000 0.000000 0.049872 0.000000
# 6 0.000000 0.000000 0.000000 0.000000 0.000000 0.043559
#
#
# Mechanical properties :
#
#
# Convention : Reuss Voigt Hill
#
# Bulk Modulus (GPa) = 34.39928 58.56836 46.48382
# Shear Modulus (GPa) = 16.81796 20.13498 18.47647
#
# Velocity S-wave (km/s) = 3.13216 3.42715 3.28297
# Velocity P-wave (km/s) = 5.75732 7.05870 6.44096
#
# Compressibility (1/GPa) = 0.02907038
#
# Stress axis : x y z
#
# Youngs Moduli (GPa) = 69.80611 67.52594 24.20257
#
# Poissons Ratio (x) = 0.44430 0.24417
# Poissons Ratio (y) = 0.45930 0.09736
# Poissons Ratio (z) = 0.70425 0.27163
#
# Static dielectric constant tensor:
#      x y z
#    x 3.641850 0.000000 0.000000 
#    y 0.000000 3.093080 0.000000 
#    z 0.000000 0.000000 2.996210 
# 
# 
# High freq. dielectric constant tensor:
#      x y z
#    x 1.676670 0.000000 0.000000 
#    y 0.000000 1.631840 0.000000 
#    z 0.000000 0.000000 1.637630 
# 
# From -- ./inp_files/11809.got.cif
#   From: 2010.03.12/outbox.cif.g09.slc.cpg/sg47_6_cif.got.tgz:11809.got - 2010.04.14 03:12:58.
