data_PCOD8197284
_publ_section_title
;
Structure prediction by ZEFSAII (Michael W. Deem and Ramdas Pophale) SiO2 
 PCOD8197284
Probable space group: P M M M
;
_chemical_formula_sum "Si O2"
_cell_formula_units_Z 52
_cell_length_a 9.034810
_cell_length_b 14.179136
_cell_length_c 26.093533
_cell_angle_alpha 90.000000
_cell_angle_beta 90.000000
_cell_angle_gamma 90.000000
_cell_volume 3342.732913
_symmetry_space_group_name_H-M "P M M M"
_symmetry_group_IT_number 47
_symmetry_cell_setting 'orthorhombic'
loop_
_space_group_symop_operation_xyz
x,y,z
-x,-y,z
x,-y,-z
-x,y,-z
-x,-y,-z
x,y,-z
-x,y,z
x,-y,z
loop_
_atom_site_type_symbol
_atom_site_label
_atom_site_fract_x
_atom_site_fract_y
_atom_site_fract_z
Si Si1 0.172045 0.110612 0.756159
Si Si2 0.833630 0.887851 0.556388
Si Si3 0.665206 0.887973 0.345838
Si Si4 0.175314 0.609490 0.889024
Si Si5 0.675914 0.778785 0.846657
Si Si6 0.826438 0.608136 0.000000
Si Si7 0.324220 0.893744 0.943695
O O1 0.230579 0.143928 0.700826
O O2 0.264082 0.166623 0.797954
O O3 0.000000 0.136118 0.760210
O O4 0.200499 0.000000 0.764634
O O5 0.775398 0.856135 0.500000
O O6 0.729779 0.845704 0.601031
O O7 0.000000 0.850063 0.564855
O O8 0.834507 0.000000 0.559637
O O9 0.500000 0.847671 0.337759
O O10 0.661253 0.000000 0.349078
O O11 0.216979 0.500000 0.880516
O O12 0.260386 0.672283 0.847040
O O13 0.233001 0.647370 0.945419
O O14 0.000000 0.623213 0.883469
O O15 0.500000 0.776695 0.843994
O O16 0.738160 0.830008 0.897821
O O17 0.782863 0.500000 0.000000
O O18 0.000000 0.620808 0.000000
O O19 0.500000 0.894437 0.941568
O O20 0.264301 0.000000 0.935944
O O21 0.271895 0.855813 0.000000
#
# Coordination Sequence:
#
# PCOD8197284 Si02
#       7
#     8   8   8   8   8   4   8
#     4  10  20  33  47  61  81 111 147 183 217 257
#     4   8  13  21  33  50  74 105 140 175 211 252
#     4   9  16  25  38  56  78 104 137 179 222 256
#     4   9  18  33  50  66  86 112 139 166 202 252
#     4  11  21  30  46  68  88 109 137 174 216 259
#     4   7  12  26  47  65  80 103 132 159 191 236
#     4   8  15  28  43  59  82 110 135 161 201 253
#
# _framework density 15.556134
#
# number of rings (size 3 to 8) (size 9 to 14) (size 15 to 20)
#    0.000    3.000    0.000    3.692    1.077    4.000 
#    0.000    1.538    0.000    1.385    0.000    3.231 
#    0.000    0.000    0.000    0.000    0.000    0.769 
#
# Total GULP energy -644314.278399 kJ/mol
# GULP energy per Si atom -12390.659200 kJ/mol
# Density = 1.552073 g / cm^3
# Si number density = 15.556134 Si / 1000 Ang^3
#
#
#
# Elastic Constant Matrix: (Units=GPa)
#
#
# Indices 1 2 3 4 5 6 
#
# 1 68.9592 27.9801 44.6136 0.0000 0.0000 0.0000
# 2 27.9801 41.6136 38.9172 0.0000 0.0000 0.0000
# 3 44.6136 38.9172 114.4621 0.0000 0.0000 0.0000
# 4 0.0000 0.0000 0.0000 5.0858 0.0000 0.0000
# 5 0.0000 0.0000 0.0000 0.0000 26.3311 0.0000
# 6 0.0000 0.0000 0.0000 0.0000 0.0000 15.3104
#
#
#
# Elastic Compliance Matrix: (Units=1/GPa)
#
#
# Indices 1 2 3 4 5 6 
#
# 1 0.021840 -0.009859 -0.005161 0.000000 0.000000 0.000000
# 2 -0.009859 0.039684 -0.009650 0.000000 0.000000 0.000000
# 3 -0.005161 -0.009650 0.014029 0.000000 0.000000 0.000000
# 4 0.000000 0.000000 0.000000 0.196625 0.000000 0.000000
# 5 0.000000 0.000000 0.000000 0.000000 0.037978 0.000000
# 6 0.000000 0.000000 0.000000 0.000000 0.000000 0.065315
#
#
# Mechanical properties :
#
#
# Convention : Reuss Voigt Hill
#
# Bulk Modulus (GPa) = 38.14666 49.78409 43.96537
# Shear Modulus (GPa) = 11.53276 16.91374 14.22325
#
# Velocity S-wave (km/s) = 2.72575 3.30096 3.02705
# Velocity P-wave (km/s) = 5.87209 6.82648 6.36719
#
# Compressibility (1/GPa) = 0.02621461
#
# Stress axis : x y z
#
# Youngs Moduli (GPa) = 45.78719 25.19906 71.28099
#
# Poissons Ratio (x) = 0.24843 0.36786
# Poissons Ratio (y) = 0.45140 0.68786
# Poissons Ratio (z) = 0.23629 0.24317
#
# Static dielectric constant tensor:
#      x y z
#    x 2.880940 0.000000 0.000000 
#    y 0.000000 2.598810 0.000000 
#    z 0.000000 0.000000 3.194700 
# 
# 
# High freq. dielectric constant tensor:
#      x y z
#    x 1.589360 0.000000 0.000000 
#    y 0.000000 1.541430 0.000000 
#    z 0.000000 0.000000 1.597940 
# 
# From -- ./inp_files/32007.got.cif
#   From: 2010.03.12/outbox.cif.g09.slc.cpg/sg47_17_cif.got.tgz:32007.got - 2010.04.14 03:12:58.
