data_PCOD8197212
_publ_section_title
;
Structure prediction by ZEFSAII (Michael W. Deem and Ramdas Pophale) SiO2 
 PCOD8197212
Probable space group: P M M M
;
_chemical_formula_sum "Si O2"
_cell_formula_units_Z 44
_cell_length_a 9.294253
_cell_length_b 8.879872
_cell_length_c 28.086336
_cell_angle_alpha 90.000000
_cell_angle_beta 90.000000
_cell_angle_gamma 90.000000
_cell_volume 2318.015219
_symmetry_space_group_name_H-M "P M M M"
_symmetry_group_IT_number 47
_symmetry_cell_setting 'orthorhombic'
loop_
_space_group_symop_operation_xyz
x,y,z
-x,-y,z
x,-y,-z
-x,y,-z
-x,-y,-z
x,y,-z
-x,y,z
x,-y,z
loop_
_atom_site_type_symbol
_atom_site_label
_atom_site_fract_x
_atom_site_fract_y
_atom_site_fract_z
Si Si1 0.160011 0.321664 0.635844
Si Si2 0.331721 0.324890 0.169947
Si Si3 0.665353 0.321598 0.000000
Si Si4 0.166853 0.176844 0.086519
Si Si5 0.665951 0.173355 0.445775
Si Si6 0.341202 0.678575 0.723150
O O1 0.156701 0.500000 0.639118
O O2 0.240963 0.277786 0.587971
O O3 0.236234 0.253583 0.682973
O O4 0.000000 0.254198 0.634202
O O5 0.500000 0.292624 0.160321
O O6 0.298259 0.500000 0.160167
O O7 0.232346 0.221978 0.137183
O O8 0.289249 0.278631 0.223828
O O9 0.744911 0.262377 0.046386
O O10 0.672157 0.500000 0.000000
O O11 0.500000 0.265664 0.000000
O O12 0.000000 0.224955 0.084178
O O13 0.184113 0.000000 0.078480
O O14 0.712714 0.205351 0.500000
O O15 0.500000 0.215633 0.438572
O O16 0.693169 0.000000 0.432767
O O17 0.500000 0.745873 0.713884
O O18 0.348618 0.500000 0.719190
#
# Coordination Sequence:
#
# PCOD8197212 Si02
#       6
#     8   8   4   8   8   8
#     4  10  20  32  49  77 109 137 168 209 258 312
#     4   9  18  34  57  83 107 135 177 222 260 305
#     4  11  24  41  62  86 108 135 178 225 264 310
#     4  11  24  39  55  80 114 147 178 214 259 311
#     4   9  19  36  55  73  95 128 172 217 259 308
#     4   8  15  30  52  76 103 136 174 216 258 301
#
# _framework density 18.981756000000001
#
# number of rings (size 3 to 8) (size 9 to 14) (size 15 to 20)
#    0.000    2.455    0.000    3.818    0.000    8.727 
#    0.000    5.455    0.000    1.091    0.000    0.000 
#    0.000    0.000    0.000    0.000    0.000    0.000 
#
# Total GULP energy -545586.090642 kJ/mol
# GULP energy per Si atom -12399.683878 kJ/mol
# Density = 1.893855 g / cm^3
# Si number density = 18.981756 Si / 1000 Ang^3
#
#
#
# Elastic Constant Matrix: (Units=GPa)
#
#
# Indices 1 2 3 4 5 6 
#
# 1 125.7430 34.6272 79.0568 0.0000 0.0000 0.0000
# 2 34.6272 34.4836 27.2042 0.0000 0.0000 0.0000
# 3 79.0568 27.2042 137.6766 0.0000 0.0000 0.0000
# 4 0.0000 0.0000 0.0000 -7.0390 0.0000 0.0000
# 5 0.0000 0.0000 0.0000 0.0000 2.4132 0.0000
# 6 0.0000 0.0000 0.0000 0.0000 0.0000 25.9839
#
#
#
# Elastic Compliance Matrix: (Units=1/GPa)
#
#
# Indices 1 2 3 4 5 6 
#
# 1 0.014719 -0.009611 -0.006553 0.000000 0.000000 0.000000
# 2 -0.009611 0.040630 -0.002509 0.000000 0.000000 0.000000
# 3 -0.006553 -0.002509 0.011522 0.000000 0.000000 0.000000
# 4 0.000000 0.000000 0.000000 -0.142066 0.000000 0.000000
# 5 0.000000 0.000000 0.000000 0.000000 0.414394 0.000000
# 6 0.000000 0.000000 0.000000 0.000000 0.000000 0.038485
#
#
# Mechanical properties :
#
#
# Convention : Reuss Voigt Hill
#
# Bulk Modulus (GPa) = 33.87016 64.40884 49.13950
# Shear Modulus (GPa) = 11.76820 14.73928 13.25374
#
# Velocity S-wave (km/s) = 2.49263 2.78959 2.64528
# Velocity P-wave (km/s) = 5.11532 6.66194 5.93919
#
# Compressibility (1/GPa) = 0.02952451
#
# Stress axis : x y z
#
# Youngs Moduli (GPa) = 67.93711 24.61237 86.78883
#
# Poissons Ratio (x) = 0.23655 0.56874
# Poissons Ratio (y) = 0.65294 0.21779
# Poissons Ratio (z) = 0.44520 0.06176
#
# Static dielectric constant tensor:
#      x y z
#    x 3.702260 0.000000 0.000000 
#    y 0.000000 3.165190 0.000000 
#    z 0.000000 0.000000 3.665410 
# 
# 
# High freq. dielectric constant tensor:
#      x y z
#    x 1.741060 0.000000 0.000000 
#    y 0.000000 1.710590 0.000000 
#    z 0.000000 0.000000 1.753940 
# 
# From -- ./inp_files/33914.got.cif
#   From: 2010.03.12/outbox.cif.g09.slc.cpg/sg47_17_cif.got.tgz:33914.got - 2010.04.14 03:12:58.
