data_PCOD8197765
_publ_section_title
;
Structure prediction by ZEFSAII (Michael W. Deem and Ramdas Pophale) SiO2 
 PCOD8197765
Probable space group: P M M M
;
_chemical_formula_sum "Si O2"
_cell_formula_units_Z 36
_cell_length_a 7.626696
_cell_length_b 24.754298
_cell_length_c 9.094247
_cell_angle_alpha 90.000000
_cell_angle_beta 90.000000
_cell_angle_gamma 90.000000
_cell_volume 1716.934771
_symmetry_space_group_name_H-M "P M M M"
_symmetry_group_IT_number 47
_symmetry_cell_setting 'orthorhombic'
loop_
_space_group_symop_operation_xyz
x,y,z
-x,-y,z
x,-y,-z
-x,y,-z
-x,-y,-z
x,y,-z
-x,y,z
x,-y,z
loop_
_atom_site_type_symbol
_atom_site_label
_atom_site_fract_x
_atom_site_fract_y
_atom_site_fract_z
Si Si1 0.200209 0.662897 0.339408
Si Si2 0.706631 0.560290 0.834354
Si Si3 0.792373 0.763046 0.163649
Si Si4 0.500000 0.936176 0.169371
Si Si5 0.203885 0.871429 0.673395
O O1 0.292170 0.662480 0.500000
O O2 0.206185 0.603426 0.271616
O O3 0.288611 0.708461 0.235794
O O4 0.000000 0.679730 0.359930
O O5 0.500000 0.567085 0.827489
O O6 0.761263 0.500000 0.783082
O O7 0.773868 0.570307 0.000000
O O8 0.737393 0.813467 0.263951
O O9 0.000000 0.758751 0.152164
O O10 0.712225 0.769561 0.000000
O O11 0.676268 0.916093 0.249332
O O12 0.500000 0.000000 0.180766
O O13 0.500000 0.916802 0.000000
O O14 0.238390 0.871699 0.500000
O O15 0.000000 0.883858 0.709414
#
# Coordination Sequence:
#
# PCOD8197765 Si02
#       5
#     8   8   8   4   8
#     4  10  20  33  51  78 110 140 175 223 277 334
#     4   9  19  36  54  71  96 133 178 227 277 332
#     4   9  17  32  56  83 112 147 186 229 280 340
#     4  11  25  43  63  91 127 165 208 255 296 345
#     4  10  21  39  64  92 124 162 202 249 306 361
#
# _framework density 20.967600000000001
#
# number of rings (size 3 to 8) (size 9 to 14) (size 15 to 20)
#    0.000    2.333    0.000    3.000    0.000    8.000 
#    2.000    5.556    0.000    0.000    0.000    0.000 
#    0.000    0.000    0.000    0.000    0.000    0.000 
#
# Total GULP energy -446329.813742 kJ/mol
# GULP energy per Si atom -12398.050382 kJ/mol
# Density = 2.091988 g / cm^3
# Si number density = 20.967600 Si / 1000 Ang^3
#
#
#
# Elastic Constant Matrix: (Units=GPa)
#
#
# Indices 1 2 3 4 5 6 
#
# 1 56.3604 33.1933 40.1092 0.0000 0.0000 0.0000
# 2 33.1933 136.0343 82.7236 0.0000 0.0000 0.0000
# 3 40.1092 82.7236 176.5836 0.0000 0.0000 0.0000
# 4 0.0000 0.0000 0.0000 30.3173 0.0000 0.0000
# 5 0.0000 0.0000 0.0000 0.0000 19.8202 0.0000
# 6 0.0000 0.0000 0.0000 0.0000 0.0000 570.6205
#
#
#
# Elastic Compliance Matrix: (Units=1/GPa)
#
#
# Indices 1 2 3 4 5 6 
#
# 1 0.022164 -0.003282 -0.003497 0.000000 0.000000 0.000000
# 2 -0.003282 0.010765 -0.004298 0.000000 0.000000 0.000000
# 3 -0.003497 -0.004298 0.008471 0.000000 0.000000 0.000000
# 4 0.000000 0.000000 0.000000 0.032985 0.000000 0.000000
# 5 0.000000 0.000000 0.000000 0.000000 0.050454 0.000000
# 6 0.000000 0.000000 0.000000 0.000000 0.000000 0.001752
#
#
# Mechanical properties :
#
#
# Convention : Reuss Voigt Hill
#
# Bulk Modulus (GPa) = 51.95510 75.67006 63.81258
# Shear Modulus (GPa) = 32.22479 138.34841 85.28660
#
# Velocity S-wave (km/s) = 3.92457 8.13174 6.38465
# Velocity P-wave (km/s) = 6.73564 11.15053 9.21149
#
# Compressibility (1/GPa) = 0.01924739
#
# Stress axis : x y z
#
# Youngs Moduli (GPa) = 45.11746 92.89033 118.05319
#
# Poissons Ratio (x) = 0.30483 0.41284
# Poissons Ratio (y) = 0.14806 0.50737
# Poissons Ratio (z) = 0.15778 0.39923
#
# Static dielectric constant tensor:
#      x y z
#    x 3.513620 0.000000 0.000000 
#    y 0.000000 3.836690 0.000000 
#    z 0.000000 0.000000 4.104190 
# 
# 
# High freq. dielectric constant tensor:
#      x y z
#    x 1.800820 0.000000 0.000000 
#    y 0.000000 1.822560 0.000000 
#    z 0.000000 0.000000 1.832820 
# 
# From -- ./inp_files/1422.got.cif
#   From: 2010.03.12/outbox.cif.g09.slc.cpg/sg47_1_cif.got.tgz:1422.got - 2010.04.14 03:12:58.
