data_PCOD8197012
_publ_section_title
;
Structure prediction by ZEFSAII (Michael W. Deem and Ramdas Pophale) SiO2 
 PCOD8197012
Probable space group: P M M M
;
_chemical_formula_sum "Si O2"
_cell_formula_units_Z 32
_cell_length_a 9.297820
_cell_length_b 7.919281
_cell_length_c 22.311658
_cell_angle_alpha 90.000000
_cell_angle_beta 90.000000
_cell_angle_gamma 90.000000
_cell_volume 1642.853101
_symmetry_space_group_name_H-M "P M M M"
_symmetry_group_IT_number 47
_symmetry_cell_setting 'orthorhombic'
loop_
_space_group_symop_operation_xyz
x,y,z
-x,-y,z
x,-y,-z
-x,y,-z
-x,-y,-z
x,y,-z
-x,y,z
x,-y,z
loop_
_atom_site_type_symbol
_atom_site_label
_atom_site_fract_x
_atom_site_fract_y
_atom_site_fract_z
Si Si1 0.158715 0.694733 0.389023
Si Si2 0.338194 0.298013 0.500000
Si Si3 0.328937 0.812681 0.144594
Si Si4 0.671708 0.500000 0.067823
Si Si5 0.338408 0.197229 0.720590
O O1 0.140020 0.500000 0.404121
O O2 0.257104 0.775202 0.441287
O O3 0.231752 0.711528 0.324513
O O4 0.000000 0.780270 0.388443
O O5 0.342576 0.500000 0.500000
O O6 0.500000 0.225500 0.500000
O O7 0.500000 0.817577 0.142142
O O8 0.267965 0.668900 0.100149
O O9 0.281623 0.766958 0.212198
O O10 0.270469 0.000000 0.126346
O O11 0.500000 0.500000 0.069885
O O12 0.729125 0.500000 0.000000
O O13 0.500000 0.269814 0.712422
O O14 0.338208 0.000000 0.706996
#
# Coordination Sequence:
#
# PCOD8197012 Si02
#       5
#     8   4   8   4   8
#     4  10  20  32  48  72 100 128 160 203 254 303
#     4   9  17  31  50  71  96 129 168 204 244 297
#     4   8  15  27  41  61  92 127 164 208 252 296
#     4   9  16  24  38  64  95 130 169 202 243 301
#     4   9  18  32  49  69  93 125 167 209 249 297
#
# _framework density 19.478308999999999
#
# number of rings (size 3 to 8) (size 9 to 14) (size 15 to 20)
#    0.000    3.000    0.000    2.625    1.750    4.000 
#    0.000    3.125    0.000    3.750    0.000    0.000 
#    0.000    2.000    0.000    5.500    0.000    5.500 
#
# Total GULP energy -396637.297897 kJ/mol
# GULP energy per Si atom -12394.915559 kJ/mol
# Density = 1.943398 g / cm^3
# Si number density = 19.478309 Si / 1000 Ang^3
#
#
#
# Elastic Constant Matrix: (Units=GPa)
#
#
# Indices 1 2 3 4 5 6 
#
# 1 94.2835 24.0244 54.9945 0.0000 0.0000 0.0000
# 2 24.0244 72.9318 60.2651 0.0000 0.0000 0.0000
# 3 54.9945 60.2651 159.7982 0.0000 0.0000 0.0000
# 4 0.0000 0.0000 0.0000 5.5441 0.0000 0.0000
# 5 0.0000 0.0000 0.0000 0.0000 4.1501 0.0000
# 6 0.0000 0.0000 0.0000 0.0000 0.0000 7.9941
#
#
#
# Elastic Compliance Matrix: (Units=1/GPa)
#
#
# Indices 1 2 3 4 5 6 
#
# 1 0.013308 -0.000871 -0.004252 0.000000 0.000000 0.000000
# 2 -0.000871 0.019976 -0.007234 0.000000 0.000000 0.000000
# 3 -0.004252 -0.007234 0.010449 0.000000 0.000000 0.000000
# 4 0.000000 0.000000 0.000000 0.180372 0.000000 0.000000
# 5 0.000000 0.000000 0.000000 0.000000 0.240961 0.000000
# 6 0.000000 0.000000 0.000000 0.000000 0.000000 0.125092
#
#
# Mechanical properties :
#
#
# Convention : Reuss Voigt Hill
#
# Bulk Modulus (GPa) = 52.57396 67.28682 59.93039
# Shear Modulus (GPa) = 8.04880 16.05295 12.05088
#
# Velocity S-wave (km/s) = 2.03498 2.87391 2.49003
# Velocity P-wave (km/s) = 5.70712 6.75514 6.25312
#
# Compressibility (1/GPa) = 0.01902082
#
# Stress axis : x y z
#
# Youngs Moduli (GPa) = 75.14238 50.06069 95.70075
#
# Poissons Ratio (x) = 0.04358 0.40689
# Poissons Ratio (y) = 0.06542 0.69229
# Poissons Ratio (z) = 0.31948 0.36213
#
# Static dielectric constant tensor:
#      x y z
#    x 3.292230 0.000000 0.000000 
#    y 0.000000 3.509830 0.000000 
#    z 0.000000 0.000000 3.646870 
# 
# 
# High freq. dielectric constant tensor:
#      x y z
#    x 1.711500 0.000000 0.000000 
#    y 0.000000 1.744990 0.000000 
#    z 0.000000 0.000000 1.761380 
# 
# From -- ./inp_files/31624.got.cif
#   From: 2010.03.12/outbox.cif.g09.slc.cpg/sg47_16_cif.got.tgz:31624.got - 2010.04.14 03:12:58.
