data_PCOD8197981
_publ_section_title
;
Structure prediction by ZEFSAII (Michael W. Deem and Ramdas Pophale) SiO2 
 PCOD8197981
Probable space group: P M M M
;
_chemical_formula_sum "Si O2"
_cell_formula_units_Z 48
_cell_length_a 14.691038
_cell_length_b 15.195657
_cell_length_c 12.176561
_cell_angle_alpha 90.000000
_cell_angle_beta 90.000000
_cell_angle_gamma 90.000000
_cell_volume 2718.295166
_symmetry_space_group_name_H-M "P M M M"
_symmetry_group_IT_number 47
_symmetry_cell_setting 'orthorhombic'
loop_
_space_group_symop_operation_xyz
x,y,z
-x,-y,z
x,-y,-z
-x,y,-z
-x,-y,-z
x,y,-z
-x,y,z
x,-y,z
loop_
_atom_site_type_symbol
_atom_site_label
_atom_site_fract_x
_atom_site_fract_y
_atom_site_fract_z
Si Si1 0.603818 0.395680 0.000000
Si Si2 0.103435 0.178041 0.236954
Si Si3 0.398599 0.903010 0.630507
Si Si4 0.735530 0.754372 0.370449
Si Si5 0.108248 0.000000 0.123739
Si Si6 0.900279 0.354978 0.126081
Si Si7 0.714016 0.598615 0.786443
O O1 0.657441 0.363666 0.109073
O O2 0.603325 0.500000 0.000000
O O3 0.500000 0.358968 0.000000
O O4 0.163144 0.214661 0.338125
O O5 0.141886 0.086218 0.189525
O O6 0.109779 0.249654 0.139767
O O7 0.000000 0.166693 0.279989
O O8 0.397124 0.901405 0.500000
O O9 0.500000 0.881965 0.673537
O O10 0.330966 0.829669 0.676336
O O11 0.368126 0.000000 0.671889
O O12 0.730602 0.740974 0.500000
O O13 0.701297 0.663570 0.316100
O O14 0.000000 0.000000 0.116084
O O15 0.148904 0.000000 0.000000
O O16 0.821537 0.407053 0.188464
O O17 0.000000 0.384815 0.170934
O O18 0.891652 0.379428 0.000000
O O19 0.680893 0.500000 0.754823
#
# Coordination Sequence:
#
# PCOD8197981 Si02
#       7
#     4   8   8   8   4   8   8
#     4   9  18  34  55  77 102 132 162 201 263 329
#     4   9  18  30  45  70 104 139 175 211 254 306
#     4   8  15  30  52  74  94 119 157 207 254 292
#     4  10  21  34  51  74 102 139 179 216 253 300
#     4   9  16  28  47  71 100 135 175 218 264 310
#     4   9  16  28  48  72  99 130 165 211 261 303
#     4  10  20  34  51  74 104 134 172 215 256 310
#
# _framework density 17.658125999999999
#
# number of rings (size 3 to 8) (size 9 to 14) (size 15 to 20)
#    0.000    2.833    0.833    1.000    1.167    3.667 
#    0.000    0.833    0.000    1.500    0.000    9.333 
#    0.000    2.667    0.000    0.000    0.000    0.000 
#
# Total GULP energy -594912.864214 kJ/mol
# GULP energy per Si atom -12394.018004 kJ/mol
# Density = 1.761793 g / cm^3
# Si number density = 17.658126 Si / 1000 Ang^3
#
#
#
# Elastic Constant Matrix: (Units=GPa)
#
#
# Indices 1 2 3 4 5 6 
#
# 1 86.9396 34.6483 33.4755 0.0000 0.0000 0.0000
# 2 34.6483 104.4454 43.4972 0.0000 0.0000 0.0000
# 3 33.4755 43.4972 82.2821 0.0000 0.0000 0.0000
# 4 0.0000 0.0000 0.0000 19.9750 0.0000 0.0000
# 5 0.0000 0.0000 0.0000 0.0000 14.4834 0.0000
# 6 0.0000 0.0000 0.0000 0.0000 0.0000 24.1753
#
#
#
# Elastic Compliance Matrix: (Units=1/GPa)
#
#
# Indices 1 2 3 4 5 6 
#
# 1 0.014328 -0.002982 -0.004253 0.000000 0.000000 0.000000
# 2 -0.002982 0.012898 -0.005605 0.000000 0.000000 0.000000
# 3 -0.004253 -0.005605 0.016847 0.000000 0.000000 0.000000
# 4 0.000000 0.000000 0.000000 0.050062 0.000000 0.000000
# 5 0.000000 0.000000 0.000000 0.000000 0.069044 0.000000
# 6 0.000000 0.000000 0.000000 0.000000 0.000000 0.041365
#
#
# Mechanical properties :
#
#
# Convention : Reuss Voigt Hill
#
# Bulk Modulus (GPa) = 54.36922 55.21209 54.79065
# Shear Modulus (GPa) = 21.15461 22.52982 21.84221
#
# Velocity S-wave (km/s) = 3.46498 3.57583 3.52085
# Velocity P-wave (km/s) = 6.84579 6.95585 6.90104
#
# Compressibility (1/GPa) = 0.01839276
#
# Stress axis : x y z
#
# Youngs Moduli (GPa) = 69.79234 77.53186 59.35920
#
# Poissons Ratio (x) = 0.23120 0.25245
# Poissons Ratio (y) = 0.20812 0.33271
# Poissons Ratio (z) = 0.29682 0.43457
#
# Static dielectric constant tensor:
#      x y z
#    x 3.434030 0.000000 0.000000 
#    y 0.000000 3.368580 0.000000 
#    z 0.000000 0.000000 2.928560 
# 
# 
# High freq. dielectric constant tensor:
#      x y z
#    x 1.679480 0.000000 0.000000 
#    y 0.000000 1.684340 0.000000 
#    z 0.000000 0.000000 1.647250 
# 
# From -- ./inp_files/17559.got.cif
#   From: 2010.03.12/outbox.cif.g09.slc.cpg/sg47_9_cif.got.tgz:17559.got - 2010.04.14 03:12:58.
