data_PCOD8197899
_publ_section_title
;
Structure prediction by ZEFSAII (Michael W. Deem and Ramdas Pophale) SiO2 
 PCOD8197899
Probable space group: P M M M
;
_chemical_formula_sum "Si O2"
_cell_formula_units_Z 48
_cell_length_a 10.035527
_cell_length_b 13.672715
_cell_length_c 18.291815
_cell_angle_alpha 90.000000
_cell_angle_beta 90.000000
_cell_angle_gamma 90.000000
_cell_volume 2509.872992
_symmetry_space_group_name_H-M "P M M M"
_symmetry_group_IT_number 47
_symmetry_cell_setting 'orthorhombic'
loop_
_space_group_symop_operation_xyz
x,y,z
-x,-y,z
x,-y,-z
-x,y,-z
-x,-y,-z
x,y,-z
-x,y,z
x,-y,z
loop_
_atom_site_type_symbol
_atom_site_label
_atom_site_fract_x
_atom_site_fract_y
_atom_site_fract_z
Si Si1 0.352980 0.716272 0.083592
Si Si2 0.000000 0.884073 0.919681
Si Si3 0.151215 0.388384 0.184205
Si Si4 0.653351 0.288065 0.587030
Si Si5 0.155449 0.781327 0.702344
Si Si6 0.655715 0.500000 0.578616
Si Si7 0.743076 0.112984 0.166486
O O1 0.500000 0.668329 0.085678
O O2 0.249252 0.640473 0.118441
O O3 0.367645 0.816818 0.131401
O O4 0.311379 0.739951 0.000000
O O5 0.127492 0.847597 0.876452
O O6 0.000000 0.000000 0.923354
O O7 0.000000 0.837410 0.000000
O O8 0.180112 0.500000 0.208041
O O9 0.174688 0.320325 0.254681
O O10 0.000000 0.376479 0.155606
O O11 0.673347 0.280346 0.500000
O O12 0.500000 0.260904 0.607267
O O13 0.759354 0.218551 0.627334
O O14 0.690378 0.397446 0.617715
O O15 0.223315 0.869092 0.748602
O O16 0.000000 0.803051 0.685283
O O17 0.500000 0.500000 0.563340
O O18 0.729410 0.500000 0.500000
O O19 0.705423 0.000000 0.153487
#
# Coordination Sequence:
#
# PCOD8197899 Si02
#       7
#     8   4   8   8   8   4   8
#     4  10  22  37  53  79 112 142 177 225 278 328
#     4   9  16  28  52  82 102 126 171 220 266 316
#     4   9  20  38  56  76 106 146 189 227 266 318
#     4   9  18  33  53  77 106 141 182 222 261 316
#     4  10  20  33  53  80 110 139 172 224 279 323
#     4   7  12  26  47  71  99 131 169 212 254 301
#     4  10  20  36  56  78 106 141 178 220 273 332
#
# _framework density 19.124473999999999
#
# number of rings (size 3 to 8) (size 9 to 14) (size 15 to 20)
#    0.000    2.667    0.833    1.500    2.333    5.333 
#    0.000    2.500    0.000    2.000    0.000    2.333 
#    0.000    0.000    0.000    0.000    0.000    0.000 
#
# Total GULP energy -594741.762101 kJ/mol
# GULP energy per Si atom -12390.453377 kJ/mol
# Density = 1.908095 g / cm^3
# Si number density = 19.124474 Si / 1000 Ang^3
#
#
#
# Elastic Constant Matrix: (Units=GPa)
#
#
# Indices 1 2 3 4 5 6 
#
# 1 80.8364 11.3131 41.4727 0.0000 0.0000 0.0000
# 2 11.3131 54.5283 8.0525 0.0000 0.0000 0.0000
# 3 41.4727 8.0525 83.4729 0.0000 0.0000 0.0000
# 4 0.0000 0.0000 0.0000 -598.2928 0.0000 0.0000
# 5 0.0000 0.0000 0.0000 0.0000 26.8482 0.0000
# 6 0.0000 0.0000 0.0000 0.0000 0.0000 17.5270
#
#
#
# Elastic Compliance Matrix: (Units=1/GPa)
#
#
# Indices 1 2 3 4 5 6 
#
# 1 0.016882 -0.002297 -0.008166 0.000000 0.000000 0.000000
# 2 -0.002297 0.018917 -0.000684 0.000000 0.000000 0.000000
# 3 -0.008166 -0.000684 0.016103 0.000000 0.000000 0.000000
# 4 0.000000 0.000000 0.000000 -0.001671 0.000000 0.000000
# 5 0.000000 0.000000 0.000000 0.000000 0.037246 0.000000
# 6 0.000000 0.000000 0.000000 0.000000 0.000000 0.057055
#
#
# Mechanical properties :
#
#
# Convention : Reuss Voigt Hill
#
# Bulk Modulus (GPa) = 33.77394 37.83490 35.80442
# Shear Modulus (GPa) = 28.29763 -100.25024 -35.97631
#
# Velocity S-wave (km/s) = 3.85080 -7.24801 -4.34195
# Velocity P-wave (km/s) = 6.12127 7.08650 2.52473
#
# Compressibility (1/GPa) = 0.02960862
#
# Stress axis : x y z
#
# Youngs Moduli (GPa) = 59.23627 52.86370 62.10001
#
# Poissons Ratio (x) = 0.12141 0.50710
# Poissons Ratio (y) = 0.13604 0.04246
# Poissons Ratio (z) = 0.48372 0.03615
#
# Static dielectric constant tensor:
#      x y z
#    x 3.441260 0.000000 0.000000 
#    y 0.000000 3.385060 0.000000 
#    z 0.000000 0.000000 3.308890 
# 
# 
# High freq. dielectric constant tensor:
#      x y z
#    x 1.739250 0.000000 0.000000 
#    y 0.000000 1.724460 0.000000 
#    z 0.000000 0.000000 1.728500 
# 
# From -- ./inp_files/26567.got.cif
#   From: 2010.03.12/outbox.cif.g09.slc.cpg/sg47_14_cif.got.tgz:26567.got - 2010.04.14 03:12:58.
