data_PCOD8197080
_publ_section_title
;
Structure prediction by ZEFSAII (Michael W. Deem and Ramdas Pophale) SiO2 
 PCOD8197080
Probable space group: P M M M
;
_chemical_formula_sum "Si O2"
_cell_formula_units_Z 44
_cell_length_a 9.263482
_cell_length_b 28.055952
_cell_length_c 9.319725
_cell_angle_alpha 90.000000
_cell_angle_beta 90.000000
_cell_angle_gamma 90.000000
_cell_volume 2422.157444
_symmetry_space_group_name_H-M "P M M M"
_symmetry_group_IT_number 47
_symmetry_cell_setting 'orthorhombic'
loop_
_space_group_symop_operation_xyz
x,y,z
-x,-y,z
x,-y,-z
-x,y,-z
-x,-y,-z
x,y,-z
-x,y,z
x,-y,z
loop_
_atom_site_type_symbol
_atom_site_label
_atom_site_fract_x
_atom_site_fract_y
_atom_site_fract_z
Si Si1 0.329638 0.133001 0.164579
Si Si2 0.832847 0.055035 0.663276
Si Si3 0.327869 0.224234 0.338857
Si Si4 0.332885 0.580927 0.832064
Si Si5 0.830367 0.500000 0.333062
Si Si6 0.671246 0.312079 0.841181
O O1 0.500000 0.128326 0.180881
O O2 0.260945 0.085453 0.227637
O O3 0.270844 0.178949 0.250015
O O4 0.283066 0.138833 0.000000
O O5 0.787664 0.066941 0.500000
O O6 0.000000 0.066985 0.686962
O O7 0.801790 0.000000 0.697237
O O8 0.266988 0.220820 0.500000
O O9 0.500000 0.225202 0.338574
O O10 0.266029 0.272701 0.267794
O O11 0.500000 0.571593 0.794524
O O12 0.234623 0.546913 0.738199
O O13 0.286575 0.634795 0.790709
O O14 0.306095 0.571343 0.000000
O O15 0.790649 0.500000 0.500000
O O16 0.000000 0.500000 0.306438
O O17 0.500000 0.308250 0.848912
O O18 0.734388 0.301992 0.000000
#
# Coordination Sequence:
#
# PCOD8197080 Si02
#       6
#     8   8   8   8   4   8
#     4  10  20  32  48  73 104 135 166 202 243 287
#     4   9  19  36  55  73  95 126 164 205 250 299
#     4   9  16  26  43  69 100 132 164 197 237 287
#     4   9  18  33  54  78 100 125 162 205 246 291
#     4  11  24  37  48  68 100 135 168 203 246 294
#     4   8  14  26  45  70  99 126 153 193 244 292
#
# _framework density 18.165624000000001
#
# number of rings (size 3 to 8) (size 9 to 14) (size 15 to 20)
#    0.000    2.818    0.000    3.273    0.000    7.273 
#    0.000    4.545    0.000    1.091    0.000    5.091 
#    0.000    0.000    0.000    0.000    0.000    0.000 
#
# Total GULP energy -545544.711505 kJ/mol
# GULP energy per Si atom -12398.743443 kJ/mol
# Density = 1.812428 g / cm^3
# Si number density = 18.165624 Si / 1000 Ang^3
#
#
#
# Elastic Constant Matrix: (Units=GPa)
#
#
# Indices 1 2 3 4 5 6 
#
# 1 33.6421 39.5827 44.0771 0.0000 0.0000 0.0000
# 2 39.5827 146.0300 97.8578 0.0000 0.0000 0.0000
# 3 44.0771 97.8578 149.4035 0.0000 0.0000 0.0000
# 4 0.0000 0.0000 0.0000 35.1575 0.0000 0.0000
# 5 0.0000 0.0000 0.0000 0.0000 22.5749 0.0000
# 6 0.0000 0.0000 0.0000 0.0000 0.0000 -2.8945
#
#
#
# Elastic Compliance Matrix: (Units=1/GPa)
#
#
# Indices 1 2 3 4 5 6 
#
# 1 0.051981 -0.006796 -0.010884 0.000000 0.000000 0.000000
# 2 -0.006796 0.013094 -0.006571 0.000000 0.000000 0.000000
# 3 -0.010884 -0.006571 0.014208 0.000000 0.000000 0.000000
# 4 0.000000 0.000000 0.000000 0.028443 0.000000 0.000000
# 5 0.000000 0.000000 0.000000 0.000000 0.044297 0.000000
# 6 0.000000 0.000000 0.000000 0.000000 0.000000 -0.345479
#
#
# Mechanical properties :
#
#
# Convention : Reuss Voigt Hill
#
# Bulk Modulus (GPa) = 32.48852 76.90120 54.69486
# Shear Modulus (GPa) = -37.12132 20.80479 -8.15826
#
# Velocity S-wave (km/s) = -4.52540 3.38788 -2.12151
# Velocity P-wave (km/s) = 3.06305 7.59795 4.91663
#
# Compressibility (1/GPa) = 0.03078010
#
# Stress axis : x y z
#
# Youngs Moduli (GPa) = 19.23781 76.37364 70.38163
#
# Poissons Ratio (x) = 0.51906 0.76603
# Poissons Ratio (y) = 0.13075 0.46248
# Poissons Ratio (z) = 0.20938 0.50186
#
# Static dielectric constant tensor:
#      x y z
#    x 2.873300 0.000000 0.000000 
#    y 0.000000 3.531330 0.000000 
#    z 0.000000 0.000000 3.500080 
# 
# 
# High freq. dielectric constant tensor:
#      x y z
#    x 1.654280 0.000000 0.000000 
#    y 0.000000 1.719910 0.000000 
#    z 0.000000 0.000000 1.709030 
# 
# From -- ./inp_files/2174.got.cif
#   From: 2010.03.12/outbox.cif.g09.slc.cpg/sg47_2_cif.got.tgz:2174.got - 2010.04.14 03:12:58.
