data_PCOD8197540
_publ_section_title
;
Structure prediction by ZEFSAII (Michael W. Deem and Ramdas Pophale) SiO2 
 PCOD8197540
Probable space group: P M M M
;
_chemical_formula_sum "Si O2"
_cell_formula_units_Z 36
_cell_length_a 23.761035
_cell_length_b 9.047677
_cell_length_c 8.777156
_cell_angle_alpha 90.000000
_cell_angle_beta 90.000000
_cell_angle_gamma 90.000000
_cell_volume 1886.932042
_symmetry_space_group_name_H-M "P M M M"
_symmetry_group_IT_number 47
_symmetry_cell_setting 'orthorhombic'
loop_
_space_group_symop_operation_xyz
x,y,z
-x,-y,z
x,-y,-z
-x,y,-z
-x,-y,-z
x,y,-z
-x,y,z
x,-y,z
loop_
_atom_site_type_symbol
_atom_site_label
_atom_site_fract_x
_atom_site_fract_y
_atom_site_fract_z
Si Si1 0.940426 0.824329 0.329292
Si Si2 0.500000 0.667078 0.680053
Si Si3 0.179734 0.834032 0.318317
Si Si4 0.709513 0.671982 0.678226
Si Si5 0.394883 0.829477 0.178394
O O1 0.942955 0.760340 0.500000
O O2 0.880960 0.773841 0.252162
O O3 0.000000 0.775681 0.246759
O O4 0.937552 0.000000 0.335600
O O5 0.500000 0.500000 0.743548
O O6 0.500000 0.667046 0.500000
O O7 0.555321 0.748597 0.735494
O O8 0.175101 0.836050 0.500000
O O9 0.229233 0.725442 0.264772
O O10 0.192830 0.000000 0.258750
O O11 0.700737 0.706280 0.500000
O O12 0.703410 0.500000 0.713670
O O13 0.664051 0.759711 0.774694
O O14 0.395138 0.000000 0.226809
O O15 0.404382 0.809689 0.000000
#
# Coordination Sequence:
#
# PCOD8197540 Si02
#       5
#     8   4   8   8   8
#     4   7   9  14  27  50  80 114 154 199 245 293
#     4  11  24  41  62  88 114 139 168 199 236 288
#     4   8  13  22  38  60  87 122 163 206 251 296
#     4  10  20  33  50  73 101 134 172 211 252 301
#     4  11  24  40  58  81 107 135 170 210 250 292
#
# _framework density 19.078589999999998
#
# number of rings (size 3 to 8) (size 9 to 14) (size 15 to 20)
#    0.000    2.778    0.000    4.667    0.000    8.000 
#    0.000    0.000    0.000    0.667    0.000    4.667 
#    0.000    0.889    0.000   10.222    0.000   11.778 
#
# Total GULP energy -445979.345150 kJ/mol
# GULP energy per Si atom -12388.315143 kJ/mol
# Density = 1.903517 g / cm^3
# Si number density = 19.078590 Si / 1000 Ang^3
#
#
#
# Elastic Constant Matrix: (Units=GPa)
#
#
# Indices 1 2 3 4 5 6 
#
# 1 177.5021 59.6660 23.3352 0.0000 0.0000 0.0000
# 2 59.6660 100.4119 27.6122 0.0000 0.0000 0.0000
# 3 23.3352 27.6122 25.0916 0.0000 0.0000 0.0000
# 4 0.0000 0.0000 0.0000 17.4063 0.0000 0.0000
# 5 0.0000 0.0000 0.0000 0.0000 -41.7134 0.0000
# 6 0.0000 0.0000 0.0000 0.0000 0.0000 70.4228
#
#
#
# Elastic Compliance Matrix: (Units=1/GPa)
#
#
# Indices 1 2 3 4 5 6 
#
# 1 0.007178 -0.003484 -0.002842 0.000000 0.000000 0.000000
# 2 -0.003484 0.015971 -0.014336 0.000000 0.000000 0.000000
# 3 -0.002842 -0.014336 0.058273 0.000000 0.000000 0.000000
# 4 0.000000 0.000000 0.000000 0.057450 0.000000 0.000000
# 5 0.000000 0.000000 0.000000 0.000000 -0.023973 0.000000
# 6 0.000000 0.000000 0.000000 0.000000 0.000000 0.014200
#
#
# Mechanical properties :
#
#
# Convention : Reuss Voigt Hill
#
# Bulk Modulus (GPa) = 24.93807 58.24805 41.59306
# Shear Modulus (GPa) = 27.20500 22.04929 24.62715
#
# Velocity S-wave (km/s) = 3.78026 3.40326 3.59670
# Velocity P-wave (km/s) = 5.67040 6.78526 6.25273
#
# Compressibility (1/GPa) = 0.04009933
#
# Stress axis : x y z
#
# Youngs Moduli (GPa) = 139.30511 62.61190 17.16065
#
# Poissons Ratio (x) = 0.21814 0.04877
# Poissons Ratio (y) = 0.48534 0.24601
# Poissons Ratio (z) = 0.39590 0.89758
#
# Static dielectric constant tensor:
#      x y z
#    x 4.394950 0.000000 0.000000 
#    y 0.000000 3.394840 0.000000 
#    z 0.000000 0.000000 3.000610 
# 
# 
# High freq. dielectric constant tensor:
#      x y z
#    x 1.778420 0.000000 0.000000 
#    y 0.000000 1.719560 0.000000 
#    z 0.000000 0.000000 1.682920 
# 
# From -- ./inp_files/12075.got.cif
#   From: 2010.03.12/outbox.cif.g09.slc.cpg/sg47_7_cif.got.tgz:12075.got - 2010.04.14 03:12:58.
