data_PCOD8197430
_publ_section_title
;
Structure prediction by ZEFSAII (Michael W. Deem and Ramdas Pophale) SiO2 
 PCOD8197430
Probable space group: P M M M
;
_chemical_formula_sum "Si O2"
_cell_formula_units_Z 40
_cell_length_a 8.910145
_cell_length_b 12.466157
_cell_length_c 19.448507
_cell_angle_alpha 90.000000
_cell_angle_beta 90.000000
_cell_angle_gamma 90.000000
_cell_volume 2160.248097
_symmetry_space_group_name_H-M "P M M M"
_symmetry_group_IT_number 47
_symmetry_cell_setting 'orthorhombic'
loop_
_space_group_symop_operation_xyz
x,y,z
-x,-y,z
x,-y,-z
-x,y,-z
-x,-y,-z
x,y,-z
-x,y,z
x,-y,z
loop_
_atom_site_type_symbol
_atom_site_label
_atom_site_fract_x
_atom_site_fract_y
_atom_site_fract_z
Si Si1 0.663413 0.000000 0.081293
Si Si2 0.327400 0.124536 0.421616
Si Si3 0.679419 0.230581 0.923205
Si Si4 0.823017 0.699878 0.335181
Si Si5 0.821678 0.500000 0.576690
Si Si6 0.321905 0.377786 0.800534
O O1 0.745313 0.887022 0.100793
O O2 0.500000 0.000000 0.117355
O O3 0.642162 0.000000 0.000000
O O4 0.281243 0.151199 0.500000
O O5 0.500000 0.156299 0.409093
O O6 0.221714 0.188268 0.369601
O O7 0.301988 0.000000 0.406248
O O8 0.500000 0.222026 0.923633
O O9 0.734159 0.322386 0.871065
O O10 0.736803 0.260396 0.000000
O O11 0.762512 0.604479 0.383695
O O12 0.747024 0.689797 0.261360
O O13 0.000000 0.694214 0.325534
O O14 0.753134 0.500000 0.500000
O O15 0.000000 0.500000 0.573262
O O16 0.500000 0.374558 0.794509
O O17 0.262321 0.500000 0.799758
#
# Coordination Sequence:
#
# PCOD8197430 Si02
#       6
#     4   8   8   8   4   8
#     4   7  10  20  40  66  95 121 152 201 254 303
#     4   9  19  37  59  82 109 138 169 212 265 316
#     4   8  14  26  46  72  99 129 168 214 263 313
#     4  11  21  35  54  75 106 144 179 218 259 311
#     4   9  18  32  51  75  98 127 172 220 261 297
#     4  10  20  33  49  71 104 140 174 218 268 315
#
# _framework density 18.516392
#
# number of rings (size 3 to 8) (size 9 to 14) (size 15 to 20)
#    0.000    2.800    1.000    3.000    0.000    2.000 
#    1.800    3.000    0.000    3.000    0.000    1.400 
#    0.000    2.400    0.000    0.000    0.000    0.000 
#
# Total GULP energy -495781.844889 kJ/mol
# GULP energy per Si atom -12394.546122 kJ/mol
# Density = 1.847425 g / cm^3
# Si number density = 18.516392 Si / 1000 Ang^3
#
#
#
# Elastic Constant Matrix: (Units=GPa)
#
#
# Indices 1 2 3 4 5 6 
#
# 1 20.0694 21.4400 22.3604 0.0000 0.0000 0.0000
# 2 21.4400 107.6003 64.0879 0.0000 0.0000 0.0000
# 3 22.3604 64.0879 129.7668 0.0000 0.0000 0.0000
# 4 0.0000 0.0000 0.0000 30.9094 0.0000 0.0000
# 5 0.0000 0.0000 0.0000 0.0000 9.8868 0.0000
# 6 0.0000 0.0000 0.0000 0.0000 0.0000 18.2877
#
#
#
# Elastic Compliance Matrix: (Units=1/GPa)
#
#
# Indices 1 2 3 4 5 6 
#
# 1 0.067599 -0.009254 -0.007078 0.000000 0.000000 0.000000
# 2 -0.009254 0.014433 -0.005534 0.000000 0.000000 0.000000
# 3 -0.007078 -0.005534 0.011659 0.000000 0.000000 0.000000
# 4 0.000000 0.000000 0.000000 0.032353 0.000000 0.000000
# 5 0.000000 0.000000 0.000000 0.000000 0.101145 0.000000
# 6 0.000000 0.000000 0.000000 0.000000 0.000000 0.054681
#
#
# Mechanical properties :
#
#
# Convention : Reuss Voigt Hill
#
# Bulk Modulus (GPa) = 20.01604 52.57924 36.29764
# Shear Modulus (GPa) = 14.60902 21.78666 18.19784
#
# Velocity S-wave (km/s) = 2.81192 3.43390 3.13836
# Velocity P-wave (km/s) = 4.62341 6.64680 5.72520
#
# Compressibility (1/GPa) = 0.04995994
#
# Stress axis : x y z
#
# Youngs Moduli (GPa) = 14.79321 69.28343 85.77295
#
# Poissons Ratio (x) = 0.64113 0.60710
# Poissons Ratio (y) = 0.13689 0.47464
# Poissons Ratio (z) = 0.10471 0.38340
#
# Static dielectric constant tensor:
#      x y z
#    x 2.897830 0.000000 0.000000 
#    y 0.000000 3.693060 0.000000 
#    z 0.000000 0.000000 3.417860 
# 
# 
# High freq. dielectric constant tensor:
#      x y z
#    x 1.668290 0.000000 0.000000 
#    y 0.000000 1.731420 0.000000 
#    z 0.000000 0.000000 1.713620 
# 
# From -- ./inp_files/29335.got.cif
#   From: 2010.03.12/outbox.cif.g09.slc.cpg/sg47_15_cif.got.tgz:29335.got - 2010.04.14 03:12:58.
