data_PCOD8197479
_publ_section_title
;
Structure prediction by ZEFSAII (Michael W. Deem and Ramdas Pophale) SiO2 
 PCOD8197479
Probable space group: P M M M
;
_chemical_formula_sum "Si O2"
_cell_formula_units_Z 56
_cell_length_a 19.150006
_cell_length_b 9.808688
_cell_length_c 15.443763
_cell_angle_alpha 90.000000
_cell_angle_beta 90.000000
_cell_angle_gamma 90.000000
_cell_volume 2900.901370
_symmetry_space_group_name_H-M "P M M M"
_symmetry_group_IT_number 47
_symmetry_cell_setting 'orthorhombic'
loop_
_space_group_symop_operation_xyz
x,y,z
-x,-y,z
x,-y,-z
-x,y,-z
-x,-y,-z
x,y,-z
-x,y,z
x,-y,z
loop_
_atom_site_type_symbol
_atom_site_label
_atom_site_fract_x
_atom_site_fract_y
_atom_site_fract_z
Si Si1 0.422585 0.254834 0.904544
Si Si2 0.278785 0.146952 0.866651
Si Si3 0.161524 0.655423 0.094782
Si Si4 0.186549 0.343633 0.401903
Si Si5 0.420696 0.350427 0.718727
Si Si6 0.302302 0.157083 0.330512
Si Si7 0.077529 0.661540 0.258388
O O1 0.500000 0.185052 0.896753
O O2 0.359809 0.146852 0.895989
O O3 0.412792 0.356792 0.823647
O O4 0.417298 0.326589 0.000000
O O5 0.234535 0.264972 0.911159
O O6 0.269420 0.163392 0.764244
O O7 0.248881 0.000000 0.895125
O O8 0.180647 0.500000 0.117790
O O9 0.110628 0.716530 0.168254
O O10 0.125154 0.665381 0.000000
O O11 0.158763 0.335471 0.500000
O O12 0.208184 0.500000 0.378660
O O13 0.252144 0.242561 0.393491
O O14 0.124385 0.292305 0.339575
O O15 0.500000 0.321672 0.691821
O O16 0.396584 0.500000 0.685837
O O17 0.377134 0.231899 0.671848
O O18 0.310928 0.000000 0.362379
O O19 0.071894 0.500000 0.254515
O O20 0.000000 0.724966 0.268562
#
# Coordination Sequence:
#
# PCOD8197479 Si02
#       7
#     8   8   8   8   8   8   8
#     4   9  18  30  43  66 102 141 183 232 282 327
#     4  10  20  33  50  72 100 140 187 231 274 318
#     4  10  20  33  52  78 107 144 186 225 268 317
#     4  10  20  35  59  88 113 140 175 216 268 329
#     4   9  18  32  51  75 104 142 186 232 281 328
#     4  10  20  34  54  78 107 145 184 224 271 323
#     4   9  18  34  56  83 115 145 174 217 269 319
#
# _framework density 19.304345000000001
#
# number of rings (size 3 to 8) (size 9 to 14) (size 15 to 20)
#    0.000    2.429    1.429    0.857    0.000    5.143 
#    0.000    7.857    0.000    2.143    0.000    5.000 
#    0.000    0.000    0.000    0.000    0.000    0.000 
#
# Total GULP energy -693874.792569 kJ/mol
# GULP energy per Si atom -12390.621296 kJ/mol
# Density = 1.926041 g / cm^3
# Si number density = 19.304345 Si / 1000 Ang^3
#
#
#
# Elastic Constant Matrix: (Units=GPa)
#
#
# Indices 1 2 3 4 5 6 
#
# 1 121.6518 55.4551 50.3634 0.0000 0.0000 0.0000
# 2 55.4551 100.0214 28.0862 0.0000 0.0000 0.0000
# 3 50.3634 28.0862 94.4042 0.0000 0.0000 0.0000
# 4 0.0000 0.0000 0.0000 11.7675 0.0000 0.0000
# 5 0.0000 0.0000 0.0000 0.0000 15.6284 0.0000
# 6 0.0000 0.0000 0.0000 0.0000 0.0000 10.4166
#
#
#
# Elastic Compliance Matrix: (Units=1/GPa)
#
#
# Indices 1 2 3 4 5 6 
#
# 1 0.013001 -0.005740 -0.005228 0.000000 0.000000 0.000000
# 2 -0.005740 0.013444 -0.000937 0.000000 0.000000 0.000000
# 3 -0.005228 -0.000937 0.013661 0.000000 0.000000 0.000000
# 4 0.000000 0.000000 0.000000 0.084980 0.000000 0.000000
# 5 0.000000 0.000000 0.000000 0.000000 0.063986 0.000000
# 6 0.000000 0.000000 0.000000 0.000000 0.000000 0.096000
#
#
# Mechanical properties :
#
#
# Convention : Reuss Voigt Hill
#
# Bulk Modulus (GPa) = 61.37146 64.87629 63.12387
# Shear Modulus (GPa) = 15.90760 19.70735 17.80747
#
# Velocity S-wave (km/s) = 2.87373 3.19858 3.04050
# Velocity P-wave (km/s) = 6.54764 6.87905 6.71539
#
# Compressibility (1/GPa) = 0.01629422
#
# Stress axis : x y z
#
# Youngs Moduli (GPa) = 76.91498 74.38467 73.20212
#
# Poissons Ratio (x) = 0.42699 0.38272
# Poissons Ratio (y) = 0.44151 0.06861
# Poissons Ratio (z) = 0.40213 0.06972
#
# Static dielectric constant tensor:
#      x y z
#    x 3.524720 0.000000 0.000000 
#    y 0.000000 3.287500 0.000000 
#    z 0.000000 0.000000 3.463320 
# 
# 
# High freq. dielectric constant tensor:
#      x y z
#    x 1.740440 0.000000 0.000000 
#    y 0.000000 1.721010 0.000000 
#    z 0.000000 0.000000 1.743000 
# 
# From -- ./inp_files/25151.got.cif
#   From: 2010.03.12/outbox.cif.g09.slc.cpg/sg47_13_cif.got.tgz:25151.got - 2010.04.14 03:12:58.
