data_PCOD8197662
_publ_section_title
;
Structure prediction by ZEFSAII (Michael W. Deem and Ramdas Pophale) SiO2 
 PCOD8197662
Probable space group: P M M M
;
_chemical_formula_sum "Si O2"
_cell_formula_units_Z 44
_cell_length_a 29.789199
_cell_length_b 9.294070
_cell_length_c 8.145827
_cell_angle_alpha 90.000000
_cell_angle_beta 90.000000
_cell_angle_gamma 90.000000
_cell_volume 2255.277292
_symmetry_space_group_name_H-M "P M M M"
_symmetry_group_IT_number 47
_symmetry_cell_setting 'orthorhombic'
loop_
_space_group_symop_operation_xyz
x,y,z
-x,-y,z
x,-y,-z
-x,y,-z
-x,-y,-z
x,y,-z
-x,y,z
x,-y,z
loop_
_atom_site_type_symbol
_atom_site_label
_atom_site_fract_x
_atom_site_fract_y
_atom_site_fract_z
Si Si1 0.946960 0.334028 0.500000
Si Si2 0.197467 0.842820 0.809782
Si Si3 0.904999 0.829843 0.190191
Si Si4 0.277775 0.655678 0.688698
Si Si5 0.358718 0.163092 0.187986
Si Si6 0.548472 0.170314 0.687324
O O1 0.930006 0.500000 0.500000
O O2 0.931717 0.256651 0.669544
O O3 0.000000 0.327923 0.500000
O O4 0.146880 0.790525 0.777693
O O5 0.232064 0.729696 0.741099
O O6 0.205102 0.000000 0.727266
O O7 0.206653 0.859003 0.000000
O O8 0.913465 0.000000 0.213046
O O9 0.918255 0.787132 0.000000
O O10 0.273403 0.627339 0.500000
O O11 0.281958 0.500000 0.778432
O O12 0.322120 0.747628 0.716134
O O13 0.408779 0.230044 0.211831
O O14 0.357716 0.000000 0.256049
O O15 0.345127 0.167717 0.000000
O O16 0.555087 0.217718 0.500000
O O17 0.500000 0.230683 0.752197
O O18 0.546995 0.000000 0.704397
#
# Coordination Sequence:
#
# PCOD8197662 Si02
#       6
#     4   8   8   8   8   8
#     4  11  25  41  59  89 129 169 207 249 298 357
#     4   9  19  37  60  85 111 140 179 227 279 334
#     4   9  20  40  65  92 121 156 202 255 306 356
#     4  11  24  37  50  74 107 142 180 220 265 321
#     4  10  20  33  51  75 102 134 173 216 263 317
#     4   8  14  26  46  72 100 129 163 207 260 316
#
# _framework density 19.509798
#
# number of rings (size 3 to 8) (size 9 to 14) (size 15 to 20)
#    0.000    2.455    0.000    3.545    1.273    7.636 
#    0.000    5.455    0.000    0.545    0.000    3.818 
#    0.000    0.000    0.000    0.000    0.000    0.000 
#
# Total GULP energy -545166.334125 kJ/mol
# GULP energy per Si atom -12390.143957 kJ/mol
# Density = 1.946539 g / cm^3
# Si number density = 19.509798 Si / 1000 Ang^3
#
#
#
# Elastic Constant Matrix: (Units=GPa)
#
#
# Indices 1 2 3 4 5 6 
#
# 1 121.3292 56.8427 44.0351 0.0000 0.0000 0.0000
# 2 56.8427 99.3041 59.9939 0.0000 0.0000 0.0000
# 3 44.0351 59.9939 112.3534 0.0000 0.0000 0.0000
# 4 0.0000 0.0000 0.0000 -12.2362 0.0000 0.0000
# 5 0.0000 0.0000 0.0000 0.0000-3352.8062 0.0000
# 6 0.0000 0.0000 0.0000 0.0000 0.0000 -17.1193
#
#
#
# Elastic Compliance Matrix: (Units=1/GPa)
#
#
# Indices 1 2 3 4 5 6 
#
# 1 0.011421 -0.005659 -0.001455 0.000000 0.000000 0.000000
# 2 -0.005659 0.017669 -0.007217 0.000000 0.000000 0.000000
# 3 -0.001455 -0.007217 0.013324 0.000000 0.000000 0.000000
# 4 0.000000 0.000000 0.000000 -0.081725 0.000000 0.000000
# 5 0.000000 0.000000 0.000000 0.000000 -0.000298 0.000000
# 6 0.000000 0.000000 0.000000 0.000000 0.000000 -0.058414
#
#
# Mechanical properties :
#
#
# Convention : Reuss Voigt Hill
#
# Bulk Modulus (GPa) = 72.70744 72.74776 72.72760
# Shear Modulus (GPa) = -77.18936 -664.95800 -371.07368
#
# Velocity S-wave (km/s) = -6.29685 -18.48169 -13.80621
# Velocity P-wave (km/s) = 3.93942 20.44655 14.72380
#
# Compressibility (1/GPa) = 0.01375375
#
# Stress axis : x y z
#
# Youngs Moduli (GPa) = 87.55719 56.59509 75.05017
#
# Poissons Ratio (x) = 0.32025 0.10918
# Poissons Ratio (y) = 0.49546 0.54165
# Poissons Ratio (z) = 0.12737 0.40846
#
# Static dielectric constant tensor:
#      x y z
#    x 11.014360 0.000000 0.000000 
#    y 0.000000 3.302650 0.000000 
#    z 0.000000 0.000000 3.546280 
# 
# 
# High freq. dielectric constant tensor:
#      x y z
#    x 1.773410 0.000000 0.000000 
#    y 0.000000 1.731410 0.000000 
#    z 0.000000 0.000000 1.758020 
# 
# From -- ./inp_files/13683.got.cif
#   From: 2010.03.12/outbox.cif.g09.slc.cpg/sg47_7_cif.got.tgz:13683.got - 2010.04.14 03:12:58.
