data_PCOD8197085
_publ_section_title
;
Structure prediction by ZEFSAII (Michael W. Deem and Ramdas Pophale) SiO2 
 PCOD8197085
Probable space group: P M M M
;
_chemical_formula_sum "Si O2"
_cell_formula_units_Z 48
_cell_length_a 9.061002
_cell_length_b 9.375084
_cell_length_c 30.794510
_cell_angle_alpha 90.000000
_cell_angle_beta 90.000000
_cell_angle_gamma 90.000000
_cell_volume 2615.921407
_symmetry_space_group_name_H-M "P M M M"
_symmetry_group_IT_number 47
_symmetry_cell_setting 'orthorhombic'
loop_
_space_group_symop_operation_xyz
x,y,z
-x,-y,z
x,-y,-z
-x,y,-z
-x,-y,-z
x,y,-z
-x,y,z
x,-y,z
loop_
_atom_site_type_symbol
_atom_site_label
_atom_site_fract_x
_atom_site_fract_y
_atom_site_fract_z
Si Si1 0.666314 0.830496 0.207391
Si Si2 0.173686 0.834758 0.706103
Si Si3 0.171199 0.834227 0.122230
Si Si4 0.673362 0.333812 0.629697
Si Si5 0.324847 0.159728 0.452118
Si Si6 0.331827 0.334219 0.950159
O O1 0.500000 0.771024 0.209952
O O2 0.755784 0.776945 0.249276
O O3 0.742275 0.770990 0.163782
O O4 0.669046 0.000000 0.206142
O O5 0.238432 0.741493 0.667696
O O6 0.000000 0.812394 0.709115
O O7 0.214841 0.000000 0.698045
O O8 0.220710 0.754972 0.078957
O O9 0.000000 0.806630 0.130521
O O10 0.206521 0.000000 0.115774
O O11 0.500000 0.304419 0.636116
O O12 0.710390 0.500000 0.629784
O O13 0.732438 0.269471 0.584160
O O14 0.266021 0.205563 0.500000
O O15 0.500000 0.160834 0.452839
O O16 0.268500 0.000000 0.440923
O O17 0.500000 0.291668 0.939152
O O18 0.306137 0.500000 0.940965
O O19 0.296156 0.297921 0.000000
#
# Coordination Sequence:
#
# PCOD8197085 Si02
#       6
#     8   8   8   8   8   8
#     4   9  17  31  53  78 102 130 165 206 252 300
#     4  10  20  34  53  75  99 130 168 208 251 299
#     4  10  20  33  51  78 110 138 166 205 253 305
#     4  10  20  32  48  73 104 136 169 206 250 299
#     4   8  14  26  46  72 100 130 166 208 251 295
#     4   9  19  36  55  74  99 134 176 218 257 299
#
# _framework density 18.349174999999999
#
# number of rings (size 3 to 8) (size 9 to 14) (size 15 to 20)
#    0.000    2.667    0.000    3.000    0.000    6.333 
#    0.000    5.000    0.000    5.500    0.000    3.500 
#    0.000    0.000    0.000    0.000    0.000    0.000 
#
# Total GULP energy -595178.908743 kJ/mol
# GULP energy per Si atom -12399.560599 kJ/mol
# Density = 1.830741 g / cm^3
# Si number density = 18.349175 Si / 1000 Ang^3
#
#
#
# Elastic Constant Matrix: (Units=GPa)
#
#
# Indices 1 2 3 4 5 6 
#
# 1 79.9174 46.2167 65.7466 0.0000 0.0000 0.0000
# 2 46.2167 70.7298 67.0625 0.0000 0.0000 0.0000
# 3 65.7466 67.0625 158.7107 0.0000 0.0000 0.0000
# 4 0.0000 0.0000 0.0000 -3.9872 0.0000 0.0000
# 5 0.0000 0.0000 0.0000 0.0000 7.2342 0.0000
# 6 0.0000 0.0000 0.0000 0.0000 0.0000 23.0172
#
#
#
# Elastic Compliance Matrix: (Units=1/GPa)
#
#
# Indices 1 2 3 4 5 6 
#
# 1 0.022389 -0.009737 -0.005161 0.000000 0.000000 0.000000
# 2 -0.009737 0.027823 -0.007723 0.000000 0.000000 0.000000
# 3 -0.005161 -0.007723 0.011702 0.000000 0.000000 0.000000
# 4 0.000000 0.000000 0.000000 -0.250805 0.000000 0.000000
# 5 0.000000 0.000000 0.000000 0.000000 0.138232 0.000000
# 6 0.000000 0.000000 0.000000 0.000000 0.000000 0.043446
#
#
# Mechanical properties :
#
#
# Convention : Reuss Voigt Hill
#
# Bulk Modulus (GPa) = 59.97521 74.15659 67.06590
# Shear Modulus (GPa) = 114.71639 13.94167 64.32903
#
# Velocity S-wave (km/s) = 7.91545 2.75943 5.92743
# Velocity P-wave (km/s) = 10.78404 7.11720 9.13647
#
# Compressibility (1/GPa) = 0.01667355
#
# Stress axis : x y z
#
# Youngs Moduli (GPa) = 44.66429 35.94131 85.45573
#
# Poissons Ratio (x) = 0.34995 0.44101
# Poissons Ratio (y) = 0.43488 0.65998
# Poissons Ratio (z) = 0.23050 0.27758
#
# Static dielectric constant tensor:
#      x y z
#    x 3.239580 0.000000 0.000000 
#    y 0.000000 3.177430 0.000000 
#    z 0.000000 0.000000 3.648040 
# 
# 
# High freq. dielectric constant tensor:
#      x y z
#    x 1.697230 0.000000 0.000000 
#    y 0.000000 1.686480 0.000000 
#    z 0.000000 0.000000 1.728150 
# 
# From -- ./inp_files/2423.got.cif
#   From: 2010.03.12/outbox.cif.g09.slc.cpg/sg47_2_cif.got.tgz:2423.got - 2010.04.14 03:12:58.
