data_PCOD8197640
_publ_section_title
;
Structure prediction by ZEFSAII (Michael W. Deem and Ramdas Pophale) SiO2 
 PCOD8197640
Probable space group: P M M M
;
_chemical_formula_sum "Si O2"
_cell_formula_units_Z 64
_cell_length_a 9.503320
_cell_length_b 14.176695
_cell_length_c 30.831433
_cell_angle_alpha 90.000000
_cell_angle_beta 90.000000
_cell_angle_gamma 90.000000
_cell_volume 4153.785441
_symmetry_space_group_name_H-M "P M M M"
_symmetry_group_IT_number 47
_symmetry_cell_setting 'orthorhombic'
loop_
_space_group_symop_operation_xyz
x,y,z
-x,-y,z
x,-y,-z
-x,y,-z
-x,-y,-z
x,y,-z
-x,y,z
x,-y,z
loop_
_atom_site_type_symbol
_atom_site_label
_atom_site_fract_x
_atom_site_fract_y
_atom_site_fract_z
Si Si1 0.666192 0.601599 0.416679
Si Si2 0.662105 0.889144 0.221342
Si Si3 0.842578 0.887880 0.952432
Si Si4 0.833165 0.778322 0.291622
Si Si5 0.161687 0.108481 0.622589
Si Si6 0.665144 0.202801 0.549165
Si Si7 0.662380 0.392862 0.682762
Si Si8 0.655504 0.112084 0.875729
O O1 0.500000 0.596183 0.420481
O O2 0.727718 0.500000 0.433209
O O3 0.722412 0.689838 0.444570
O O4 0.709956 0.616643 0.367014
O O5 0.500000 0.860110 0.230699
O O6 0.770362 0.838060 0.252594
O O7 0.706080 0.859381 0.172439
O O8 0.680229 0.000000 0.228103
O O9 0.752631 0.842962 0.913278
O O10 0.000000 0.848630 0.947511
O O11 0.842982 0.000000 0.948600
O O12 0.782190 0.858738 0.000000
O O13 0.791464 0.828644 0.336677
O O14 0.763236 0.674998 0.289659
O O15 0.000000 0.770323 0.285841
O O16 0.255044 0.132067 0.580814
O O17 0.000000 0.127849 0.610444
O O18 0.186412 0.000000 0.635320
O O19 0.695755 0.171440 0.500000
O O20 0.500000 0.197568 0.560052
O O21 0.500000 0.362083 0.688547
O O22 0.683669 0.500000 0.699060
O O23 0.500000 0.152371 0.883788
O O24 0.653592 0.000000 0.879221
#
# Coordination Sequence:
#
# PCOD8197640 Si02
#       8
#     8   8   8   8   8   8   8   8
#     4   8  14  27  48  72  95 115 134 160 198 245
#     4   9  18  31  45  62  86 117 151 187 228 270
#     4   8  13  20  30  46  69  99 137 180 224 266
#     4  11  21  32  49  71  92 113 142 182 220 259
#     4  10  22  38  51  64  86 117 148 176 210 253
#     4  10  20  33  51  74  94 111 138 176 211 246
#     4   9  17  31  52  73  92 116 143 169 203 254
#     4   8  14  24  36  51  73 102 139 182 224 264
#
# _framework density 15.407633000000001
#
# number of rings (size 3 to 8) (size 9 to 14) (size 15 to 20)
#    0.000    2.875    1.250    2.625    0.000    3.250 
#    0.000    5.000    0.000    0.375    0.000    0.875 
#    0.000    0.000    0.000    0.000    0.000    0.625 
#
# Total GULP energy -793221.203251 kJ/mol
# GULP energy per Si atom -12394.081301 kJ/mol
# Density = 1.537256 g / cm^3
# Si number density = 15.407633 Si / 1000 Ang^3
#
#
#
# Elastic Constant Matrix: (Units=GPa)
#
#
# Indices 1 2 3 4 5 6 
#
# 1 71.0163 32.6662 58.4028 0.0000 0.0000 0.0000
# 2 32.6662 54.7250 31.1035 0.0000 0.0000 0.0000
# 3 58.4028 31.1035 103.0839 0.0000 0.0000 0.0000
# 4 0.0000 0.0000 0.0000 5.2331 0.0000 0.0000
# 5 0.0000 0.0000 0.0000 0.0000 27.5527 0.0000
# 6 0.0000 0.0000 0.0000 0.0000 0.0000 17.5704
#
#
#
# Elastic Compliance Matrix: (Units=1/GPa)
#
#
# Indices 1 2 3 4 5 6 
#
# 1 0.030362 -0.010074 -0.014162 0.000000 0.000000 0.000000
# 2 -0.010074 0.025398 -0.001956 0.000000 0.000000 0.000000
# 3 -0.014162 -0.001956 0.018315 0.000000 0.000000 0.000000
# 4 0.000000 0.000000 0.000000 0.191090 0.000000 0.000000
# 5 0.000000 0.000000 0.000000 0.000000 0.036294 0.000000
# 6 0.000000 0.000000 0.000000 0.000000 0.000000 0.056914
#
#
# Mechanical properties :
#
#
# Convention : Reuss Voigt Hill
#
# Bulk Modulus (GPa) = 46.10312 52.57448 49.33880
# Shear Modulus (GPa) = 11.96209 17.18142 14.57175
#
# Velocity S-wave (km/s) = 2.78937 3.34297 3.07864
# Velocity P-wave (km/s) = 6.35306 7.00693 6.68799
#
# Compressibility (1/GPa) = 0.02169051
#
# Stress axis : x y z
#
# Youngs Moduli (GPa) = 32.93592 39.37271 54.60153
#
# Poissons Ratio (x) = 0.39666 0.77327
# Poissons Ratio (y) = 0.33181 0.10678
# Poissons Ratio (z) = 0.46644 0.07700
#
# Static dielectric constant tensor:
#      x y z
#    x 2.923690 0.000000 0.000000 
#    y 0.000000 2.545320 0.000000 
#    z 0.000000 0.000000 2.998480 
# 
# 
# High freq. dielectric constant tensor:
#      x y z
#    x 1.581050 0.000000 0.000000 
#    y 0.000000 1.556150 0.000000 
#    z 0.000000 0.000000 1.582330 
# 
# From -- ./inp_files/14255.got.cif
#   From: 2010.03.12/outbox.cif.g09.slc.cpg/sg47_8_cif.got.tgz:14255.got - 2010.04.14 03:12:58.
