data_PCOD8197607
_publ_section_title
;
Structure prediction by ZEFSAII (Michael W. Deem and Ramdas Pophale) SiO2 
 PCOD8197607
Probable space group: P M M M
;
_chemical_formula_sum "Si O2"
_cell_formula_units_Z 56
_cell_length_a 15.690181
_cell_length_b 9.470259
_cell_length_c 19.986710
_cell_angle_alpha 90.000000
_cell_angle_beta 90.000000
_cell_angle_gamma 90.000000
_cell_volume 2969.826794
_symmetry_space_group_name_H-M "P M M M"
_symmetry_group_IT_number 47
_symmetry_cell_setting 'orthorhombic'
loop_
_space_group_symop_operation_xyz
x,y,z
-x,-y,z
x,-y,-z
-x,y,-z
-x,-y,-z
x,y,-z
-x,y,z
x,-y,z
loop_
_atom_site_type_symbol
_atom_site_label
_atom_site_fract_x
_atom_site_fract_y
_atom_site_fract_z
Si Si1 0.627756 0.342037 0.337663
Si Si2 0.178997 0.342389 0.634380
Si Si3 0.094103 0.661788 0.875295
Si Si4 0.500000 0.833035 0.421774
Si Si5 0.275947 0.333478 0.926826
Si Si6 0.904198 0.667816 0.500000
Si Si7 0.596684 0.332664 0.813409
Si Si8 0.904704 0.159365 0.256731
O O1 0.586756 0.500000 0.339558
O O2 0.720536 0.351032 0.368412
O O3 0.581445 0.233558 0.386147
O O4 0.624978 0.284880 0.261094
O O5 0.140602 0.500000 0.646426
O O6 0.143959 0.275760 0.565613
O O7 0.156865 0.239506 0.693929
O O8 0.104130 0.500000 0.850743
O O9 0.175034 0.703767 0.920701
O O10 0.098376 0.764951 0.813531
O O11 0.000000 0.679962 0.910696
O O12 0.500000 0.793629 0.500000
O O13 0.500000 0.000000 0.410897
O O14 0.287443 0.500000 0.924547
O O15 0.336578 0.267983 0.868279
O O16 0.305040 0.276106 0.000000
O O17 0.902217 0.500000 0.500000
O O18 0.000000 0.727191 0.500000
O O19 0.500000 0.279270 0.828218
O O20 0.600428 0.500000 0.817962
O O21 0.000000 0.162535 0.286367
O O22 0.871861 0.000000 0.247637
#
# Coordination Sequence:
#
# PCOD8197607 Si02
#       8
#     8   8   8   4   8   4   8   8
#     4  10  20  36  59  83 107 140 184 227 267 320
#     4  10  20  33  54  80 104 136 177 222 273 322
#     4   9  17  30  49  72 100 135 174 219 271 321
#     4  11  25  41  57  81 114 145 174 218 279 333
#     4   9  17  28  45  74 109 139 171 216 269 326
#     4   9  18  32  49  74 107 138 172 215 261 315
#     4   9  16  28  47  73 105 138 172 214 264 314
#     4  10  20  33  50  74 104 139 180 224 269 319
#
# _framework density 18.856318999999999
#
# number of rings (size 3 to 8) (size 9 to 14) (size 15 to 20)
#    0.000    2.429    0.714    1.929    1.000    5.429 
#    0.000    3.214    0.000    1.714    0.000    2.000 
#    0.000    0.571    0.000    0.000    0.000    0.000 
#
# Total GULP energy -693987.009897 kJ/mol
# GULP energy per Si atom -12392.625177 kJ/mol
# Density = 1.881340 g / cm^3
# Si number density = 18.856319 Si / 1000 Ang^3
#
#
#
# Elastic Constant Matrix: (Units=GPa)
#
#
# Indices 1 2 3 4 5 6 
#
# 1 117.2363 20.1248 63.8108 0.0000 0.0000 0.0000
# 2 20.1248 60.9576 33.0468 0.0000 0.0000 0.0000
# 3 63.8108 33.0468 132.6129 0.0000 0.0000 0.0000
# 4 0.0000 0.0000 0.0000-7334.8595 0.0000 0.0000
# 5 0.0000 0.0000 0.0000 0.0000 27.7035 0.0000
# 6 0.0000 0.0000 0.0000 0.0000 0.0000 10.3617
#
#
#
# Elastic Compliance Matrix: (Units=1/GPa)
#
#
# Indices 1 2 3 4 5 6 
#
# 1 0.011602 -0.000929 -0.005351 0.000000 0.000000 0.000000
# 2 -0.000929 0.019042 -0.004298 0.000000 0.000000 0.000000
# 3 -0.005351 -0.004298 0.011187 0.000000 0.000000 0.000000
# 4 0.000000 0.000000 0.000000 -0.000136 0.000000 0.000000
# 5 0.000000 0.000000 0.000000 0.000000 0.036097 0.000000
# 6 0.000000 0.000000 0.000000 0.000000 0.000000 0.096509
#
#
# Mechanical properties :
#
#
# Convention : Reuss Voigt Hill
#
# Bulk Modulus (GPa) = 48.37109 60.53019 54.45064
# Shear Modulus (GPa) = 24.71000 -1446.43724 -710.86362
#
# Velocity S-wave (km/s) = 3.62392 -27.72632 -19.43728
# Velocity P-wave (km/s) = 6.57408 31.50917 21.79001
#
# Compressibility (1/GPa) = 0.02067350
#
# Stress axis : x y z
#
# Youngs Moduli (GPa) = 86.19340 52.51629 89.39280
#
# Poissons Ratio (x) = 0.04881 0.47834
# Poissons Ratio (y) = 0.08010 0.38421
# Poissons Ratio (z) = 0.46122 0.22571
#
# Static dielectric constant tensor:
#      x y z
#    x 3.731380 0.000000 0.000000 
#    y 0.000000 3.095600 0.000000 
#    z 0.000000 0.000000 3.622340 
# 
# 
# High freq. dielectric constant tensor:
#      x y z
#    x 1.744480 0.000000 0.000000 
#    y 0.000000 1.682630 0.000000 
#    z 0.000000 0.000000 1.731850 
# 
# From -- ./inp_files/31092.got.cif
#   From: 2010.03.12/outbox.cif.g09.slc.cpg/sg47_16_cif.got.tgz:31092.got - 2010.04.14 03:12:58.
