data_PCOD8197949
_publ_section_title
;
Structure prediction by ZEFSAII (Michael W. Deem and Ramdas Pophale) SiO2 
 PCOD8197949
Probable space group: P M M M
;
_chemical_formula_sum "Si O2"
_cell_formula_units_Z 40
_cell_length_a 15.472183
_cell_length_b 19.766745
_cell_length_c 8.816395
_cell_angle_alpha 90.000000
_cell_angle_beta 90.000000
_cell_angle_gamma 90.000000
_cell_volume 2696.359484
_symmetry_space_group_name_H-M "P M M M"
_symmetry_group_IT_number 47
_symmetry_cell_setting 'orthorhombic'
loop_
_space_group_symop_operation_xyz
x,y,z
-x,-y,z
x,-y,-z
-x,y,-z
-x,-y,-z
x,y,-z
-x,y,z
x,-y,z
loop_
_atom_site_type_symbol
_atom_site_label
_atom_site_fract_x
_atom_site_fract_y
_atom_site_fract_z
Si Si1 0.661910 0.649721 0.821479
Si Si2 0.823918 0.421222 0.321915
Si Si3 0.397184 0.782282 0.324295
Si Si4 0.000000 0.580212 0.829419
Si Si5 0.403087 0.071517 0.679990
Si Si6 0.500000 0.579966 0.327929
O O1 0.751621 0.622403 0.759500
O O2 0.652319 0.728064 0.777351
O O3 0.584932 0.606073 0.753170
O O4 0.659884 0.641684 0.000000
O O5 0.819905 0.408324 0.500000
O O6 0.809566 0.500000 0.282966
O O7 0.915574 0.394519 0.259921
O O8 0.374419 0.769554 0.500000
O O9 0.500000 0.776394 0.299233
O O10 0.362003 0.856673 0.267991
O O11 0.000000 0.500000 0.833707
O O12 0.000000 0.609884 0.000000
O O13 0.406846 0.074238 0.500000
O O14 0.500000 0.068979 0.744460
O O15 0.356344 0.000000 0.731445
O O16 0.500000 0.500000 0.323056
O O17 0.500000 0.607300 0.500000
#
# Coordination Sequence:
#
# PCOD8197949 Si02
#       6
#     8   8   8   4   8   4
#     4  12  23  32  44  63  87 115 146 183 222 260
#     4  10  20  34  51  68  86 111 144 180 219 265
#     4   9  16  27  43  59  81 114 147 179 215 257
#     4   9  17  31  51  73  93 109 130 169 220 269
#     4   7  10  18  35  59  80 100 135 179 214 246
#     4  11  23  37  49  59  76 107 148 189 225 262
#
# _framework density 14.834816
#
# number of rings (size 3 to 8) (size 9 to 14) (size 15 to 20)
#    0.000    2.400    1.000    5.400    0.000    5.600 
#    0.000    0.000    0.000    0.600    0.000    2.800 
#    0.000    0.000    0.000    0.900    0.000   18.600 
#
# Total GULP energy -495616.564576 kJ/mol
# GULP energy per Si atom -12390.414114 kJ/mol
# Density = 1.480105 g / cm^3
# Si number density = 14.834816 Si / 1000 Ang^3
#
#
#
# Elastic Constant Matrix: (Units=GPa)
#
#
# Indices 1 2 3 4 5 6 
#
# 1 90.4632 47.5418 46.2816 0.0000 0.0000 0.0000
# 2 47.5418 104.9947 46.4439 0.0000 0.0000 0.0000
# 3 46.2816 46.4439 89.7119 0.0000 0.0000 0.0000
# 4 0.0000 0.0000 0.0000 6.3998 0.0000 0.0000
# 5 0.0000 0.0000 0.0000 0.0000 23.8596 0.0000
# 6 0.0000 0.0000 0.0000 0.0000 0.0000 77.8507
#
#
#
# Elastic Compliance Matrix: (Units=1/GPa)
#
#
# Indices 1 2 3 4 5 6 
#
# 1 0.016746 -0.004878 -0.006113 0.000000 0.000000 0.000000
# 2 -0.004878 0.013774 -0.004614 0.000000 0.000000 0.000000
# 3 -0.006113 -0.004614 0.016690 0.000000 0.000000 0.000000
# 4 0.000000 0.000000 0.000000 0.156254 0.000000 0.000000
# 5 0.000000 0.000000 0.000000 0.000000 0.041912 0.000000
# 6 0.000000 0.000000 0.000000 0.000000 0.000000 0.012845
#
#
# Mechanical properties :
#
#
# Convention : Reuss Voigt Hill
#
# Bulk Modulus (GPa) = 62.51009 62.85603 62.68306
# Shear Modulus (GPa) = 16.96269 31.28219 24.12244
#
# Velocity S-wave (km/s) = 3.38514 4.59704 4.03683
# Velocity P-wave (km/s) = 7.58339 8.40474 8.00461
#
# Compressibility (1/GPa) = 0.01599742
#
# Stress axis : x y z
#
# Youngs Moduli (GPa) = 59.71723 72.59912 59.91783
#
# Poissons Ratio (x) = 0.35415 0.36631
# Poissons Ratio (y) = 0.29131 0.27648
# Poissons Ratio (z) = 0.36508 0.33500
#
# Static dielectric constant tensor:
#      x y z
#    x 2.979560 0.000000 0.000000 
#    y 0.000000 3.255040 0.000000 
#    z 0.000000 0.000000 2.840200 
# 
# 
# High freq. dielectric constant tensor:
#      x y z
#    x 1.526190 0.000000 0.000000 
#    y 0.000000 1.568220 0.000000 
#    z 0.000000 0.000000 1.563880 
# 
# From -- ./inp_files/6696.got.cif
#   From: 2010.03.12/outbox.cif.g09.slc.cpg/sg47_4_cif.got.tgz:6696.got - 2010.04.14 03:12:58.
