data_PCOD8197563
_publ_section_title
;
Structure prediction by ZEFSAII (Michael W. Deem and Ramdas Pophale) SiO2 
 PCOD8197563
Probable space group: P M M M
;
_chemical_formula_sum "Si O2"
_cell_formula_units_Z 44
_cell_length_a 28.347659
_cell_length_b 8.977077
_cell_length_c 9.704355
_cell_angle_alpha 90.000000
_cell_angle_beta 90.000000
_cell_angle_gamma 90.000000
_cell_volume 2469.555697
_symmetry_space_group_name_H-M "P M M M"
_symmetry_group_IT_number 47
_symmetry_cell_setting 'orthorhombic'
loop_
_space_group_symop_operation_xyz
x,y,z
-x,-y,z
x,-y,-z
-x,y,-z
-x,-y,-z
x,y,-z
-x,y,z
x,-y,z
loop_
_atom_site_type_symbol
_atom_site_label
_atom_site_fract_x
_atom_site_fract_y
_atom_site_fract_z
Si Si1 0.552051 0.176974 0.154738
Si Si2 0.187535 0.824917 0.159533
Si Si3 0.907404 0.667597 0.836177
Si Si4 0.266826 0.326157 0.340073
Si Si5 0.636317 0.827589 0.659191
Si Si6 0.000000 0.831869 0.835488
O O1 0.500000 0.235705 0.199115
O O2 0.592078 0.239126 0.256536
O O3 0.551918 0.000000 0.161337
O O4 0.563594 0.231061 0.000000
O O5 0.139014 0.753628 0.214414
O O6 0.229764 0.761173 0.248520
O O7 0.183958 0.000000 0.181466
O O8 0.196396 0.783932 0.000000
O O9 0.906010 0.500000 0.777792
O O10 0.953702 0.749295 0.777116
O O11 0.909579 0.667172 0.000000
O O12 0.256381 0.292482 0.500000
O O13 0.263667 0.500000 0.306652
O O14 0.318337 0.267885 0.298814
O O15 0.623588 0.807807 0.500000
O O16 0.646414 0.000000 0.695541
O O17 0.000000 0.000000 0.779560
O O18 0.000000 0.830118 0.000000
#
# Coordination Sequence:
#
# PCOD8197563 Si02
#       6
#     8   8   8   8   8   4
#     4   8  14  25  42  66  95 123 151 187 232 280
#     4  10  20  33  50  73  99 126 159 201 247 293
#     4   9  16  26  41  63  93 127 161 198 242 291
#     4  10  21  36  52  70  95 128 164 201 243 292
#     4   9  17  29  46  68  92 118 152 195 238 280
#     4   9  15  23  37  59  90 127 164 201 242 287
#
# _framework density 17.816970000000001
#
# number of rings (size 3 to 8) (size 9 to 14) (size 15 to 20)
#    0.000    2.818    0.000    2.455    0.000    6.545 
#    0.000    3.636    0.000    0.545    0.000    4.455 
#    0.000    5.091    0.000    0.000    0.000    0.000 
#
# Total GULP energy -545547.832771 kJ/mol
# GULP energy per Si atom -12398.814381 kJ/mol
# Density = 1.777642 g / cm^3
# Si number density = 17.816970 Si / 1000 Ang^3
#
#
#
# Elastic Constant Matrix: (Units=GPa)
#
#
# Indices 1 2 3 4 5 6 
#
# 1 162.5960 62.4927 64.2264 0.0000 0.0000 0.0000
# 2 62.4927 94.0429 33.7520 0.0000 0.0000 0.0000
# 3 64.2264 33.7520 50.1800 0.0000 0.0000 0.0000
# 4 0.0000 0.0000 0.0000 16.5099 0.0000 0.0000
# 5 0.0000 0.0000 0.0000 0.0000 -1.2982 0.0000
# 6 0.0000 0.0000 0.0000 0.0000 0.0000 6.6999
#
#
#
# Elastic Compliance Matrix: (Units=1/GPa)
#
#
# Indices 1 2 3 4 5 6 
#
# 1 0.013302 -0.003597 -0.014606 0.000000 0.000000 0.000000
# 2 -0.003597 0.014990 -0.005478 0.000000 0.000000 0.000000
# 3 -0.014606 -0.005478 0.042308 0.000000 0.000000 0.000000
# 4 0.000000 0.000000 0.000000 0.060570 0.000000 0.000000
# 5 0.000000 0.000000 0.000000 0.000000 -0.770310 0.000000
# 6 0.000000 0.000000 0.000000 0.000000 0.000000 0.149255
#
#
# Mechanical properties :
#
#
# Convention : Reuss Voigt Hill
#
# Bulk Modulus (GPa) = 43.03565 69.75125 56.39345
# Shear Modulus (GPa) = -11.50022 14.13884 1.31931
#
# Velocity S-wave (km/s) = -2.54336 2.82008 0.86144
# Velocity P-wave (km/s) = 3.94739 7.05957 5.71924
#
# Compressibility (1/GPa) = 0.02323655
#
# Stress axis : x y z
#
# Youngs Moduli (GPa) = 75.17386 66.71073 23.63612
#
# Poissons Ratio (x) = 0.23999 0.34524
# Poissons Ratio (y) = 0.27043 0.12948
# Poissons Ratio (z) = 1.09802 0.36545
#
# Static dielectric constant tensor:
#      x y z
#    x 3.594620 0.000000 0.000000 
#    y 0.000000 3.250610 0.000000 
#    z 0.000000 0.000000 3.043370 
# 
# 
# High freq. dielectric constant tensor:
#      x y z
#    x 1.705490 0.000000 0.000000 
#    y 0.000000 1.680430 0.000000 
#    z 0.000000 0.000000 1.650870 
# 
# From -- ./inp_files/2329.got.cif
#   From: 2010.03.12/outbox.cif.g09.slc.cpg/sg47_2_cif.got.tgz:2329.got - 2010.04.14 03:12:58.
