data_PCOD8197463
_publ_section_title
;
Structure prediction by ZEFSAII (Michael W. Deem and Ramdas Pophale) SiO2 
 PCOD8197463
Probable space group: P M M M
;
_chemical_formula_sum "Si O2"
_cell_formula_units_Z 48
_cell_length_a 30.998649
_cell_length_b 9.104161
_cell_length_c 9.660061
_cell_angle_alpha 90.000000
_cell_angle_beta 90.000000
_cell_angle_gamma 90.000000
_cell_volume 2726.230453
_symmetry_space_group_name_H-M "P M M M"
_symmetry_group_IT_number 47
_symmetry_cell_setting 'orthorhombic'
loop_
_space_group_symop_operation_xyz
x,y,z
-x,-y,z
x,-y,-z
-x,y,-z
-x,-y,-z
x,y,-z
-x,y,z
x,-y,z
loop_
_atom_site_type_symbol
_atom_site_label
_atom_site_fract_x
_atom_site_fract_y
_atom_site_fract_z
Si Si1 0.714796 0.671583 0.661941
Si Si2 0.047560 0.325492 0.344499
Si Si3 0.874813 0.330066 0.160166
Si Si4 0.547508 0.665054 0.335360
Si Si5 0.370758 0.835848 0.664538
Si Si6 0.787234 0.171993 0.160555
O O1 0.722377 0.702484 0.500000
O O2 0.714917 0.500000 0.695452
O O3 0.669268 0.736906 0.712765
O O4 0.751948 0.749898 0.746644
O O5 0.057810 0.271877 0.500000
O O6 0.047511 0.500000 0.338046
O O7 0.084389 0.264202 0.243093
O O8 0.000000 0.267859 0.298992
O O9 0.865717 0.500000 0.197303
O O10 0.833412 0.236374 0.203765
O O11 0.885926 0.310574 0.000000
O O12 0.550204 0.664357 0.500000
O O13 0.500000 0.722053 0.288620
O O14 0.554910 0.500000 0.280030
O O15 0.584903 0.768817 0.273517
O O16 0.373316 0.838706 0.500000
O O17 0.364972 0.000000 0.723852
O O18 0.786893 0.000000 0.192123
O O19 0.777475 0.205626 0.000000
#
# Coordination Sequence:
#
# PCOD8197463 Si02
#       6
#     8   8   8   8   8   8
#     4  10  20  33  50  71  94 122 157 196 238 285
#     4   8  14  25  42  66  95 123 151 187 230 272
#     4   9  17  29  46  68  92 118 151 191 232 275
#     4   8  13  21  33  50  76 113 154 192 231 277
#     4   9  16  25  38  58  86 118 151 190 235 282
#     4  10  21  36  52  70  95 126 158 195 240 287
#
# _framework density 17.606728
#
# number of rings (size 3 to 8) (size 9 to 14) (size 15 to 20)
#    0.000    3.000    0.000    2.500    0.000    5.333 
#    0.000    5.000    0.000    0.500    0.000    3.500 
#    0.000    0.667    0.000    7.000    0.000    9.667 
#
# Total GULP energy -595020.807635 kJ/mol
# GULP energy per Si atom -12396.266826 kJ/mol
# Density = 1.756665 g / cm^3
# Si number density = 17.606728 Si / 1000 Ang^3
#
#
#
# Elastic Constant Matrix: (Units=GPa)
#
#
# Indices 1 2 3 4 5 6 
#
# 1 189.7589 83.2638 65.6376 0.0000 0.0000 0.0000
# 2 83.2638 100.5394 37.2262 0.0000 0.0000 0.0000
# 3 65.6376 37.2262 43.8157 0.0000 0.0000 0.0000
# 4 0.0000 0.0000 0.0000 15.5534 0.0000 0.0000
# 5 0.0000 0.0000 0.0000 0.0000 -1.6977 0.0000
# 6 0.0000 0.0000 0.0000 0.0000 0.0000 2.7658
#
#
#
# Elastic Compliance Matrix: (Units=1/GPa)
#
#
# Indices 1 2 3 4 5 6 
#
# 1 0.012429 -0.004959 -0.014405 0.000000 0.000000 0.000000
# 2 -0.004959 0.016490 -0.006581 0.000000 0.000000 0.000000
# 3 -0.014405 -0.006581 0.049993 0.000000 0.000000 0.000000
# 4 0.000000 0.000000 0.000000 0.064295 0.000000 0.000000
# 5 0.000000 0.000000 0.000000 0.000000 -0.589026 0.000000
# 6 0.000000 0.000000 0.000000 0.000000 0.000000 0.361555
#
#
# Mechanical properties :
#
#
# Convention : Reuss Voigt Hill
#
# Bulk Modulus (GPa) = 37.00747 78.48549 57.74648
# Shear Modulus (GPa) = -213.98484 13.19005 -100.39740
#
# Velocity S-wave (km/s) = -11.03629 2.74003 -7.55950
# Velocity P-wave (km/s) = 11.88844 7.39487 6.58221
#
# Compressibility (1/GPa) = 0.02702157
#
# Stress axis : x y z
#
# Youngs Moduli (GPa) = 80.45901 60.64190 20.00261
#
# Poissons Ratio (x) = 0.30075 0.28814
# Poissons Ratio (y) = 0.39903 0.13164
# Poissons Ratio (z) = 1.15902 0.39908
#
# Static dielectric constant tensor:
#      x y z
#    x 3.643460 0.000000 0.000000 
#    y 0.000000 3.248990 0.000000 
#    z 0.000000 0.000000 2.946790 
# 
# 
# High freq. dielectric constant tensor:
#      x y z
#    x 1.698500 0.000000 0.000000 
#    y 0.000000 1.668730 0.000000 
#    z 0.000000 0.000000 1.634410 
# 
# From -- ./inp_files/2442.got.cif
#   From: 2010.03.12/outbox.cif.g09.slc.cpg/sg47_2_cif.got.tgz:2442.got - 2010.04.14 03:12:58.
