data_PCOD8197645
_publ_section_title
;
Structure prediction by ZEFSAII (Michael W. Deem and Ramdas Pophale) SiO2 
 PCOD8197645
Probable space group: P M M M
;
_chemical_formula_sum "Si O2"
_cell_formula_units_Z 64
_cell_length_a 24.067116
_cell_length_b 9.196916
_cell_length_c 15.749141
_cell_angle_alpha 90.000000
_cell_angle_beta 90.000000
_cell_angle_gamma 90.000000
_cell_volume 3485.965963
_symmetry_space_group_name_H-M "P M M M"
_symmetry_group_IT_number 47
_symmetry_cell_setting 'orthorhombic'
loop_
_space_group_symop_operation_xyz
x,y,z
-x,-y,z
x,-y,-z
-x,y,-z
-x,-y,-z
x,y,-z
-x,y,z
x,-y,z
loop_
_atom_site_type_symbol
_atom_site_label
_atom_site_fract_x
_atom_site_fract_y
_atom_site_fract_z
Si Si1 0.664887 0.832752 0.405966
Si Si2 0.740272 0.173437 0.747544
Si Si3 0.673523 0.829120 0.092037
Si Si4 0.937479 0.172839 0.094398
Si Si5 0.937583 0.827149 0.405913
Si Si6 0.865519 0.173808 0.250529
Si Si7 0.437503 0.669911 0.653889
Si Si8 0.438582 0.833909 0.826899
O O1 0.691427 0.815967 0.500000
O O2 0.707988 0.770109 0.336281
O O3 0.606844 0.746930 0.406537
O O4 0.651629 0.000000 0.385164
O O5 0.710015 0.237685 0.831487
O O6 0.802863 0.234201 0.746834
O O7 0.740545 0.000000 0.748315
O O8 0.608130 0.795065 0.104182
O O9 0.684030 0.000000 0.090870
O O10 0.691038 0.763488 0.000000
O O11 0.895670 0.234860 0.165723
O O12 0.000000 0.228280 0.113770
O O13 0.936929 0.000000 0.097435
O O14 0.918804 0.225289 0.000000
O O15 0.918083 0.775537 0.500000
O O16 0.896782 0.764163 0.333863
O O17 0.000000 0.770768 0.387821
O O18 0.937154 0.000000 0.402232
O O19 0.866223 0.000000 0.250351
O O20 0.500000 0.702834 0.620809
O O21 0.425269 0.500000 0.654216
O O22 0.429603 0.728430 0.748382
O O23 0.500000 0.811958 0.867221
O O24 0.430873 0.000000 0.794974
#
# Coordination Sequence:
#
# PCOD8197645 Si02
#       8
#     8   8   8   8   8   8   8   8
#     4  10  20  34  51  68  90 122 155 187 227 275
#     4   9  17  28  39  57  83 109 144 187 226 267
#     4   9  16  26  42  63  86 111 141 181 224 263
#     4   8  13  20  29  43  66  98 137 178 218 262
#     4   8  13  20  29  42  61  87 124 170 215 257
#     4   9  15  21  32  47  67  97 133 176 221 261
#     4  10  20  33  51  74  97 119 146 185 232 276
#     4   9  16  28  48  70  93 120 149 182 222 270
#
# _framework density 18.359328999999999
#
# number of rings (size 3 to 8) (size 9 to 14) (size 15 to 20)
#    0.000    3.000    1.250    1.500    0.000    4.000 
#    0.000    7.500    0.000    0.375    0.000    1.750 
#    0.000    0.000    0.000    0.000    0.000    2.500 
#
# Total GULP energy -793127.348786 kJ/mol
# GULP energy per Si atom -12392.614825 kJ/mol
# Density = 1.831754 g / cm^3
# Si number density = 18.359329 Si / 1000 Ang^3
#
#
#
# Elastic Constant Matrix: (Units=GPa)
#
#
# Indices 1 2 3 4 5 6 
#
# 1 146.9654 16.5861 95.6513 0.0000 0.0000 0.0000
# 2 16.5861 19.5626 14.0904 0.0000 0.0000 0.0000
# 3 95.6513 14.0904 166.1650 0.0000 0.0000 0.0000
# 4 0.0000 0.0000 0.0000 2.5115 0.0000 0.0000
# 5 0.0000 0.0000 0.0000 0.0000 18.6359 0.0000
# 6 0.0000 0.0000 0.0000 0.0000 0.0000 4.0893
#
#
#
# Elastic Compliance Matrix: (Units=1/GPa)
#
#
# Indices 1 2 3 4 5 6 
#
# 1 0.011364 -0.005244 -0.006097 0.000000 0.000000 0.000000
# 2 -0.005244 0.056863 -0.001803 0.000000 0.000000 0.000000
# 3 -0.006097 -0.001803 0.009681 0.000000 0.000000 0.000000
# 4 0.000000 0.000000 0.000000 0.398166 0.000000 0.000000
# 5 0.000000 0.000000 0.000000 0.000000 0.053660 0.000000
# 6 0.000000 0.000000 0.000000 0.000000 0.000000 0.244539
#
#
# Mechanical properties :
#
#
# Convention : Reuss Voigt Hill
#
# Bulk Modulus (GPa) = 19.37250 65.03873 42.20561
# Shear Modulus (GPa) = 6.11421 18.80503 12.45962
#
# Velocity S-wave (km/s) = 1.82689 3.20390 2.60792
# Velocity P-wave (km/s) = 3.87618 7.01349 5.66630
#
# Compressibility (1/GPa) = 0.05161957
#
# Stress axis : x y z
#
# Youngs Moduli (GPa) = 87.99413 17.58621 103.29722
#
# Poissons Ratio (x) = 0.09222 0.62982
# Poissons Ratio (y) = 0.46141 0.18628
# Poissons Ratio (z) = 0.53651 0.03171
#
# Static dielectric constant tensor:
#      x y z
#    x 3.607320 0.000000 0.000000 
#    y 0.000000 2.671120 0.000000 
#    z 0.000000 0.000000 3.643570 
# 
# 
# High freq. dielectric constant tensor:
#      x y z
#    x 1.713790 0.000000 0.000000 
#    y 0.000000 1.627060 0.000000 
#    z 0.000000 0.000000 1.720900 
# 
# From -- ./inp_files/25575.got.cif
#   From: 2010.03.12/outbox.cif.g09.slc.cpg/sg47_13_cif.got.tgz:25575.got - 2010.04.14 03:12:58.
