data_PCOD8197285
_publ_section_title
;
Structure prediction by ZEFSAII (Michael W. Deem and Ramdas Pophale) SiO2 
 PCOD8197285
Probable space group: P M M M
;
_chemical_formula_sum "Si O2"
_cell_formula_units_Z 52
_cell_length_a 8.951135
_cell_length_b 14.139610
_cell_length_c 26.026335
_cell_angle_alpha 90.000000
_cell_angle_beta 90.000000
_cell_angle_gamma 90.000000
_cell_volume 3294.037611
_symmetry_space_group_name_H-M "P M M M"
_symmetry_group_IT_number 47
_symmetry_cell_setting 'orthorhombic'
loop_
_space_group_symop_operation_xyz
x,y,z
-x,-y,z
x,-y,-z
-x,y,-z
-x,-y,-z
x,y,-z
-x,y,z
x,-y,z
loop_
_atom_site_type_symbol
_atom_site_label
_atom_site_fract_x
_atom_site_fract_y
_atom_site_fract_z
Si Si1 0.174033 0.110499 0.758166
Si Si2 0.832045 0.887540 0.556430
Si Si3 0.666243 0.887830 0.344873
Si Si4 0.175656 0.609230 0.896005
Si Si5 0.677578 0.774562 0.847882
Si Si6 0.667328 0.612001 0.000000
Si Si7 0.323156 0.894218 0.943455
O O1 0.226130 0.142456 0.701612
O O2 0.269615 0.170689 0.797833
O O3 0.000000 0.133378 0.764249
O O4 0.207807 0.000000 0.767537
O O5 0.771563 0.856149 0.500000
O O6 0.729275 0.844891 0.601675
O O7 0.000000 0.849413 0.564161
O O8 0.833120 0.000000 0.559898
O O9 0.500000 0.847150 0.335718
O O10 0.660875 0.000000 0.348901
O O11 0.215018 0.500000 0.885493
O O12 0.248719 0.670270 0.850018
O O13 0.246545 0.646095 0.949378
O O14 0.000000 0.625584 0.898550
O O15 0.500000 0.765444 0.846922
O O16 0.740442 0.829411 0.898042
O O17 0.658797 0.500000 0.000000
O O18 0.500000 0.656204 0.000000
O O19 0.500000 0.898955 0.938762
O O20 0.257554 0.000000 0.936893
O O21 0.277606 0.853899 0.000000
#
# Coordination Sequence:
#
# PCOD8197285 Si02
#       7
#     8   8   8   8   8   4   8
#     4  10  20  33  47  62  85 117 151 186 224 266
#     4   8  13  21  33  50  74 105 140 176 216 262
#     4   9  16  25  38  56  78 105 141 185 226 259
#     4  10  21  36  51  68  92 118 141 169 212 265
#     4  11  21  31  49  71  89 111 144 183 221 262
#     4   9  17  31  51  71  88 107 134 167 203 247
#     4   8  15  28  44  63  87 111 135 167 209 255
#
# _framework density 15.786099
#
# number of rings (size 3 to 8) (size 9 to 14) (size 15 to 20)
#    0.000    2.692    0.000    3.462    1.077    5.538 
#    0.000    1.538    0.000    0.000    0.000    3.231 
#    0.000    0.000    0.000    0.000    0.000    0.769 
#
# Total GULP energy -644604.642409 kJ/mol
# GULP energy per Si atom -12396.243123 kJ/mol
# Density = 1.575017 g / cm^3
# Si number density = 15.786099 Si / 1000 Ang^3
#
#
#
# Elastic Constant Matrix: (Units=GPa)
#
#
# Indices 1 2 3 4 5 6 
#
# 1 81.1118 28.8792 40.5925 0.0000 0.0000 0.0000
# 2 28.8792 40.9638 35.8793 0.0000 0.0000 0.0000
# 3 40.5925 35.8793 108.0202 0.0000 0.0000 0.0000
# 4 0.0000 0.0000 0.0000 5.6109 0.0000 0.0000
# 5 0.0000 0.0000 0.0000 0.0000 30.3199 0.0000
# 6 0.0000 0.0000 0.0000 0.0000 0.0000 16.6040
#
#
#
# Elastic Compliance Matrix: (Units=1/GPa)
#
#
# Indices 1 2 3 4 5 6 
#
# 1 0.017332 -0.009187 -0.003462 0.000000 0.000000 0.000000
# 2 -0.009187 0.039297 -0.009600 0.000000 0.000000 0.000000
# 3 -0.003462 -0.009600 0.013747 0.000000 0.000000 0.000000
# 4 0.000000 0.000000 0.000000 0.178225 0.000000 0.000000
# 5 0.000000 0.000000 0.000000 0.000000 0.032982 0.000000
# 6 0.000000 0.000000 0.000000 0.000000 0.000000 0.060226
#
#
# Mechanical properties :
#
#
# Convention : Reuss Voigt Hill
#
# Bulk Modulus (GPa) = 38.64218 48.97756 43.80987
# Shear Modulus (GPa) = 12.66036 18.82328 15.74182
#
# Velocity S-wave (km/s) = 2.83502 3.45685 3.16127
# Velocity P-wave (km/s) = 5.93702 6.85757 6.41383
#
# Compressibility (1/GPa) = 0.02587846
#
# Stress axis : x y z
#
# Youngs Moduli (GPa) = 57.69675 25.44701 72.74220
#
# Poissons Ratio (x) = 0.23378 0.25181
# Poissons Ratio (y) = 0.53006 0.69836
# Poissons Ratio (z) = 0.19973 0.24430
#
# Static dielectric constant tensor:
#      x y z
#    x 3.022860 0.000000 0.000000 
#    y 0.000000 2.709630 0.000000 
#    z 0.000000 0.000000 3.153320 
# 
# 
# High freq. dielectric constant tensor:
#      x y z
#    x 1.607770 0.000000 0.000000 
#    y 0.000000 1.554040 0.000000 
#    z 0.000000 0.000000 1.602360 
# 
# From -- ./inp_files/32006.got.cif
#   From: 2010.03.12/outbox.cif.g09.slc.cpg/sg47_17_cif.got.tgz:32006.got - 2010.04.14 03:12:58.
