data_PCOD8197781
_publ_section_title
;
Structure prediction by ZEFSAII (Michael W. Deem and Ramdas Pophale) SiO2 
 PCOD8197781
Probable space group: P M M M
;
_chemical_formula_sum "Si O2"
_cell_formula_units_Z 56
_cell_length_a 22.368477
_cell_length_b 9.626047
_cell_length_c 13.256552
_cell_angle_alpha 90.000000
_cell_angle_beta 90.000000
_cell_angle_gamma 90.000000
_cell_volume 2854.400921
_symmetry_space_group_name_H-M "P M M M"
_symmetry_group_IT_number 47
_symmetry_cell_setting 'orthorhombic'
loop_
_space_group_symop_operation_xyz
x,y,z
-x,-y,z
x,-y,-z
-x,y,-z
-x,-y,-z
x,y,-z
-x,y,z
x,-y,z
loop_
_atom_site_type_symbol
_atom_site_label
_atom_site_fract_x
_atom_site_fract_y
_atom_site_fract_z
Si Si1 0.932370 0.841695 0.191312
Si Si2 0.173710 0.656793 0.117746
Si Si3 0.566298 0.000000 0.618525
Si Si4 0.286463 0.837004 0.117982
Si Si5 0.571117 0.500000 0.381617
Si Si6 0.868209 0.843244 0.613451
Si Si7 0.639834 0.248395 0.702904
Si Si8 0.761223 0.655341 0.381478
O O1 0.888387 0.735838 0.136326
O O2 0.924900 0.831624 0.312734
O O3 0.000000 0.799433 0.164091
O O4 0.919078 0.000000 0.155355
O O5 0.172981 0.500000 0.164487
O O6 0.230076 0.746491 0.159188
O O7 0.182838 0.644270 0.000000
O O8 0.602960 0.128852 0.653717
O O9 0.500000 0.000000 0.667036
O O10 0.560006 0.000000 0.500000
O O11 0.344757 0.783670 0.179639
O O12 0.273718 0.000000 0.139239
O O13 0.299266 0.811752 0.000000
O O14 0.500000 0.500000 0.379607
O O15 0.592980 0.500000 0.500000
O O16 0.596702 0.623338 0.314923
O O17 0.887836 0.801194 0.500000
O O18 0.818333 0.739904 0.660302
O O19 0.842038 0.000000 0.613862
O O20 0.701470 0.262942 0.643403
O O21 0.768205 0.648017 0.500000
O O22 0.760047 0.500000 0.334767
#
# Coordination Sequence:
#
# PCOD8197781 Si02
#       8
#     8   8   4   8   4   8   8   8
#     4  10  21  36  55  79 111 153 197 237 284 348
#     4  10  22  39  61  88 116 146 185 240 302 357
#     4  11  24  40  59  87 123 159 201 248 288 340
#     4  10  22  41  63  90 121 154 196 249 306 360
#     4  11  24  42  63  89 127 169 203 238 288 352
#     4   9  19  34  52  76 108 145 187 237 285 331
#     4  12  22  37  62  89 117 161 203 245 296 351
#     4  10  20  33  51  79 114 147 183 231 291 355
#
# _framework density 19.618828000000001
#
# number of rings (size 3 to 8) (size 9 to 14) (size 15 to 20)
#    0.000    1.714    1.429    3.000    2.000    5.714 
#    0.000    2.857    0.000    2.571    0.000    3.000 
#    0.000    0.000    0.000    0.000    0.000    0.000 
#
# Total GULP energy -694170.592024 kJ/mol
# GULP energy per Si atom -12395.903429 kJ/mol
# Density = 1.957417 g / cm^3
# Si number density = 19.618828 Si / 1000 Ang^3
#
#
#
# Elastic Constant Matrix: (Units=GPa)
#
#
# Indices 1 2 3 4 5 6 
#
# 1 107.4790 60.4811 34.5268 0.0000 0.0000 0.0000
# 2 60.4811 147.5445 35.4008 0.0000 0.0000 0.0000
# 3 34.5268 35.4008 51.8577 0.0000 0.0000 0.0000
# 4 0.0000 0.0000 0.0000 43.0057 0.0000 0.0000
# 5 0.0000 0.0000 0.0000 0.0000 27.3939 0.0000
# 6 0.0000 0.0000 0.0000 0.0000 0.0000 35.8094
#
#
#
# Elastic Compliance Matrix: (Units=1/GPa)
#
#
# Indices 1 2 3 4 5 6 
#
# 1 0.013615 -0.004073 -0.006284 0.000000 0.000000 0.000000
# 2 -0.004073 0.009324 -0.003653 0.000000 0.000000 0.000000
# 3 -0.006284 -0.003653 0.025961 0.000000 0.000000 0.000000
# 4 0.000000 0.000000 0.000000 0.023253 0.000000 0.000000
# 5 0.000000 0.000000 0.000000 0.000000 0.036504 0.000000
# 6 0.000000 0.000000 0.000000 0.000000 0.000000 0.027926
#
#
# Mechanical properties :
#
#
# Convention : Reuss Voigt Hill
#
# Bulk Modulus (GPa) = 47.89457 63.07764 55.48610
# Shear Modulus (GPa) = 29.14373 33.00664 31.07519
#
# Velocity S-wave (km/s) = 3.85840 4.10615 3.98420
# Velocity P-wave (km/s) = 6.65697 7.39608 7.03624
#
# Compressibility (1/GPa) = 0.02087919
#
# Stress axis : x y z
#
# Youngs Moduli (GPa) = 73.44828 107.25274 38.51892
#
# Poissons Ratio (x) = 0.43687 0.24206
# Poissons Ratio (y) = 0.29917 0.14071
# Poissons Ratio (z) = 0.46157 0.39179
#
# Static dielectric constant tensor:
#      x y z
#    x 3.529170 0.000000 0.000000 
#    y 0.000000 4.014650 0.000000 
#    z 0.000000 0.000000 3.647980 
# 
# 
# High freq. dielectric constant tensor:
#      x y z
#    x 1.751440 0.000000 0.000000 
#    y 0.000000 1.777160 0.000000 
#    z 0.000000 0.000000 1.769620 
# 
# From -- ./inp_files/25168.got.cif
#   From: 2010.03.12/outbox.cif.g09.slc.cpg/sg47_13_cif.got.tgz:25168.got - 2010.04.14 03:12:58.
