data_PCOD8197601
_publ_section_title
;
Structure prediction by ZEFSAII (Michael W. Deem and Ramdas Pophale) SiO2 
 PCOD8197601
Probable space group: P M M M
;
_chemical_formula_sum "Si O2"
_cell_formula_units_Z 48
_cell_length_a 8.987774
_cell_length_b 9.065427
_cell_length_c 30.925148
_cell_angle_alpha 90.000000
_cell_angle_beta 90.000000
_cell_angle_gamma 90.000000
_cell_volume 2519.719490
_symmetry_space_group_name_H-M "P M M M"
_symmetry_group_IT_number 47
_symmetry_cell_setting 'orthorhombic'
loop_
_space_group_symop_operation_xyz
x,y,z
-x,-y,z
x,-y,-z
-x,y,-z
-x,-y,-z
x,y,-z
-x,y,z
x,-y,z
loop_
_atom_site_type_symbol
_atom_site_label
_atom_site_fract_x
_atom_site_fract_y
_atom_site_fract_z
Si Si1 0.328309 0.172856 0.329740
Si Si2 0.322956 0.333681 0.584257
Si Si3 0.823160 0.666371 0.000000
Si Si4 0.828120 0.827119 0.914458
Si Si5 0.674604 0.331107 0.163272
Si Si6 0.825474 0.668861 0.252142
Si Si7 0.677614 0.166671 0.500000
O O1 0.500000 0.214250 0.321239
O O2 0.266823 0.252220 0.372673
O O3 0.231653 0.225822 0.289669
O O4 0.307187 0.000000 0.336412
O O5 0.500000 0.332864 0.582765
O O6 0.260713 0.500000 0.584188
O O7 0.259739 0.249199 0.542359
O O8 0.764111 0.748601 0.957329
O O9 0.761257 0.500000 0.000000
O O10 0.000000 0.670086 0.000000
O O11 0.732936 0.774019 0.874122
O O12 0.000000 0.785075 0.906540
O O13 0.807196 0.000000 0.920837
O O14 0.500000 0.310017 0.168342
O O15 0.717246 0.500000 0.152363
O O16 0.749458 0.280306 0.207792
O O17 0.782954 0.500000 0.263161
O O18 0.000000 0.689675 0.246642
O O19 0.500000 0.167953 0.500000
O O20 0.738149 0.000000 0.500000
#
# Coordination Sequence:
#
# PCOD8197601 Si02
#       7
#     8   8   4   8   8   8   4
#     4  10  20  33  50  74 104 137 172 212 261 313
#     4   9  16  26  42  65  95 132 172 212 255 304
#     4   9  17  31  54  81 108 141 180 220 260 303
#     4  10  20  34  54  81 112 144 178 217 261 309
#     4  10  21  37  57  80 106 138 176 217 262 312
#     4  10  21  37  57  79 102 132 172 216 261 311
#     4   9  15  23  37  61  96 133 168 209 256 305
#
# _framework density 19.04974
#
# number of rings (size 3 to 8) (size 9 to 14) (size 15 to 20)
#    0.000    2.333    0.000    3.000    0.000    8.667 
#    0.000    0.417    0.000    2.500    0.000    0.583 
#    0.000    4.667    0.000    0.000    0.000    0.000 
#
# Total GULP energy -595359.312687 kJ/mol
# GULP energy per Si atom -12403.319014 kJ/mol
# Density = 1.900638 g / cm^3
# Si number density = 19.049740 Si / 1000 Ang^3
#
#
#
# Elastic Constant Matrix: (Units=GPa)
#
#
# Indices 1 2 3 4 5 6 
#
# 1 48.6031 32.2160 42.9972 0.0000 0.0000 0.0000
# 2 32.2160 120.4694 78.6760 0.0000 0.0000 0.0000
# 3 42.9972 78.6760 170.2409 0.0000 0.0000 0.0000
# 4 0.0000 0.0000 0.0000 29.9612 0.0000 0.0000
# 5 0.0000 0.0000 0.0000 0.0000 43.4525 0.0000
# 6 0.0000 0.0000 0.0000 0.0000 0.0000 21.7395
#
#
#
# Elastic Compliance Matrix: (Units=1/GPa)
#
#
# Indices 1 2 3 4 5 6 
#
# 1 0.027831 -0.004085 -0.005141 0.000000 0.000000 0.000000
# 2 -0.004085 0.012489 -0.004740 0.000000 0.000000 0.000000
# 3 -0.005141 -0.004740 0.009363 0.000000 0.000000 0.000000
# 4 0.000000 0.000000 0.000000 0.033377 0.000000 0.000000
# 5 0.000000 0.000000 0.000000 0.000000 0.023014 0.000000
# 6 0.000000 0.000000 0.000000 0.000000 0.000000 0.045999
#
#
# Mechanical properties :
#
#
# Convention : Reuss Voigt Hill
#
# Bulk Modulus (GPa) = 45.97611 71.89907 58.93759
# Shear Modulus (GPa) = 26.70165 31.39225 29.04695
#
# Velocity S-wave (km/s) = 3.74796 4.06385 3.90910
# Velocity P-wave (km/s) = 6.55109 7.73593 7.16803
#
# Compressibility (1/GPa) = 0.02175043
#
# Stress axis : x y z
#
# Youngs Moduli (GPa) = 35.93150 80.07188 106.80223
#
# Poissons Ratio (x) = 0.32708 0.54911
# Poissons Ratio (y) = 0.14677 0.50624
# Poissons Ratio (z) = 0.18474 0.37954
#
# Static dielectric constant tensor:
#      x y z
#    x 3.090720 0.000000 0.000000 
#    y 0.000000 3.571590 0.000000 
#    z 0.000000 0.000000 3.649370 
# 
# 
# High freq. dielectric constant tensor:
#      x y z
#    x 1.698850 0.000000 0.000000 
#    y 0.000000 1.748870 0.000000 
#    z 0.000000 0.000000 1.757110 
# 
# From -- ./inp_files/2680.got.cif
#   From: 2010.03.12/outbox.cif.g09.slc.cpg/sg47_2_cif.got.tgz:2680.got - 2010.04.14 03:12:58.
