data_PCOD8197967
_publ_section_title
;
Structure prediction by ZEFSAII (Michael W. Deem and Ramdas Pophale) SiO2 
 PCOD8197967
Probable space group: P M M M
;
_chemical_formula_sum "Si O2"
_cell_formula_units_Z 44
_cell_length_a 9.142059
_cell_length_b 10.824340
_cell_length_c 24.272996
_cell_angle_alpha 90.000000
_cell_angle_beta 90.000000
_cell_angle_gamma 90.000000
_cell_volume 2401.976916
_symmetry_space_group_name_H-M "P M M M"
_symmetry_group_IT_number 47
_symmetry_cell_setting 'orthorhombic'
loop_
_space_group_symop_operation_xyz
x,y,z
-x,-y,z
x,-y,-z
-x,y,-z
-x,-y,-z
x,y,-z
-x,y,z
x,-y,z
loop_
_atom_site_type_symbol
_atom_site_label
_atom_site_fract_x
_atom_site_fract_y
_atom_site_fract_z
Si Si1 0.839833 0.857193 0.940327
Si Si2 0.326346 0.500000 0.062026
Si Si3 0.673508 0.862150 0.438022
Si Si4 0.327398 0.641346 0.359667
Si Si5 0.671283 0.719165 0.859853
Si Si6 0.832596 0.356748 0.753729
O O1 0.719371 0.841084 0.892301
O O2 0.000000 0.800884 0.924259
O O3 0.859206 0.000000 0.948174
O O4 0.788499 0.801665 0.000000
O O5 0.500000 0.500000 0.058301
O O6 0.271450 0.615709 0.097508
O O7 0.259785 0.500000 0.000000
O O8 0.733482 0.843616 0.500000
O O9 0.500000 0.857385 0.438370
O O10 0.731750 0.746019 0.402075
O O11 0.722895 0.000000 0.416441
O O12 0.500000 0.653948 0.350349
O O13 0.290018 0.500000 0.379498
O O14 0.247620 0.672491 0.303083
O O15 0.500000 0.712155 0.848023
O O16 0.752328 0.717355 0.801677
O O17 0.820466 0.500000 0.768511
O O18 0.000000 0.313279 0.748872
#
# Coordination Sequence:
#
# PCOD8197967 Si02
#       6
#     8   4   8   8   8   8
#     4   9  19  36  54  71  96 130 165 203 249 301
#     4   9  18  30  45  71 103 127 148 189 250 303
#     4   8  14  26  46  74 107 138 165 200 252 308
#     4   9  17  29  48  74 101 130 170 216 256 295
#     4  11  20  32  52  75 101 129 162 206 253 304
#     4  10  20  34  51  70  97 133 171 207 250 303
#
# _framework density 18.318244
#
# number of rings (size 3 to 8) (size 9 to 14) (size 15 to 20)
#    0.000    2.636    0.909    2.727    0.000    2.545 
#    0.000    3.636    0.000    6.545    0.000    3.818 
#    0.000    0.000    0.000    0.000    0.000    0.000 
#
# Total GULP energy -545145.200827 kJ/mol
# GULP energy per Si atom -12389.663655 kJ/mol
# Density = 1.827655 g / cm^3
# Si number density = 18.318244 Si / 1000 Ang^3
#
#
#
# Elastic Constant Matrix: (Units=GPa)
#
#
# Indices 1 2 3 4 5 6 
#
# 1 55.2333 28.5627 45.6746 0.0000 0.0000 0.0000
# 2 28.5627 88.6046 68.6044 0.0000 0.0000 0.0000
# 3 45.6746 68.6044 134.0589 0.0000 0.0000 0.0000
# 4 0.0000 0.0000 0.0000 22.1852 0.0000 0.0000
# 5 0.0000 0.0000 0.0000 0.0000 15.2561 0.0000
# 6 0.0000 0.0000 0.0000 0.0000 0.0000 17.6333
#
#
#
# Elastic Compliance Matrix: (Units=1/GPa)
#
#
# Indices 1 2 3 4 5 6 
#
# 1 0.025531 -0.002476 -0.007431 0.000000 0.000000 0.000000
# 2 -0.002476 0.018933 -0.008845 0.000000 0.000000 0.000000
# 3 -0.007431 -0.008845 0.014518 0.000000 0.000000 0.000000
# 4 0.000000 0.000000 0.000000 0.045075 0.000000 0.000000
# 5 0.000000 0.000000 0.000000 0.000000 0.065548 0.000000
# 6 0.000000 0.000000 0.000000 0.000000 0.000000 0.056711
#
#
# Mechanical properties :
#
#
# Convention : Reuss Voigt Hill
#
# Bulk Modulus (GPa) = 46.56354 62.62003 54.59179
# Shear Modulus (GPa) = 18.45158 20.01859 19.23509
#
# Velocity S-wave (km/s) = 3.17721 3.30937 3.24396
# Velocity P-wave (km/s) = 6.23971 6.99009 6.62553
#
# Compressibility (1/GPa) = 0.02147603
#
# Stress axis : x y z
#
# Youngs Moduli (GPa) = 39.16843 52.81776 68.88089
#
# Poissons Ratio (x) = 0.13079 0.51187
# Poissons Ratio (y) = 0.09699 0.60927
# Poissons Ratio (z) = 0.29107 0.46719
#
# Static dielectric constant tensor:
#      x y z
#    x 3.121470 0.000000 0.000000 
#    y 0.000000 3.450130 0.000000 
#    z 0.000000 0.000000 3.425030 
# 
# 
# High freq. dielectric constant tensor:
#      x y z
#    x 1.685980 0.000000 0.000000 
#    y 0.000000 1.699270 0.000000 
#    z 0.000000 0.000000 1.710180 
# 
# From -- ./inp_files/15284.got.cif
#   From: 2010.03.12/outbox.cif.g09.slc.cpg/sg47_8_cif.got.tgz:15284.got - 2010.04.14 03:12:58.
