data_PCOD8197632
_publ_section_title
;
Structure prediction by ZEFSAII (Michael W. Deem and Ramdas Pophale) SiO2 
 PCOD8197632
Probable space group: P M M M
;
_chemical_formula_sum "Si O2"
_cell_formula_units_Z 52
_cell_length_a 17.972417
_cell_length_b 16.951969
_cell_length_c 9.826361
_cell_angle_alpha 90.000000
_cell_angle_beta 90.000000
_cell_angle_gamma 90.000000
_cell_volume 2993.776337
_symmetry_space_group_name_H-M "P M M M"
_symmetry_group_IT_number 47
_symmetry_cell_setting 'orthorhombic'
loop_
_space_group_symop_operation_xyz
x,y,z
-x,-y,z
x,-y,-z
-x,y,-z
-x,-y,-z
x,y,-z
-x,y,z
x,-y,z
loop_
_atom_site_type_symbol
_atom_site_label
_atom_site_fract_x
_atom_site_fract_y
_atom_site_fract_z
Si Si1 0.911842 0.000000 0.343776
Si Si2 0.584742 0.346237 0.342277
Si Si3 0.085565 0.855006 0.157317
Si Si4 0.359796 0.818818 0.257483
Si Si5 0.290849 0.412264 0.156224
Si Si6 0.416924 0.908039 0.500000
Si Si7 0.587185 0.088085 0.000000
Si Si8 0.783527 0.254917 0.156392
O O1 0.885341 0.076695 0.258925
O O2 0.880530 0.000000 0.500000
O O3 0.000000 0.000000 0.348165
O O4 0.609471 0.351039 0.500000
O O5 0.500000 0.375475 0.324617
O O6 0.590020 0.256971 0.289718
O O7 0.637798 0.401668 0.252671
O O8 0.133204 0.775753 0.187398
O O9 0.000000 0.833363 0.186888
O O10 0.095506 0.882836 0.000000
O O11 0.368025 0.883241 0.372970
O O12 0.273672 0.794533 0.247560
O O13 0.388004 0.860671 0.124984
O O14 0.257913 0.500000 0.179930
O O15 0.226003 0.348280 0.190282
O O16 0.317445 0.401638 0.000000
O O17 0.500000 0.869373 0.500000
O O18 0.426735 0.000000 0.500000
O O19 0.500000 0.077478 0.000000
O O20 0.623443 0.000000 0.000000
O O21 0.762801 0.239222 0.000000
#
# Coordination Sequence:
#
# PCOD8197632 Si02
#       8
#     4   8   8   8   8   4   4   8
#     4   9  17  31  49  75 109 137 166 207 252 293
#     4  10  20  33  51  72  97 131 166 207 255 305
#     4   9  17  32  54  77 102 139 180 210 245 300
#     4  11  20  36  50  71  99 131 172 217 260 307
#     4   9  19  35  54  75 100 129 162 203 255 312
#     4  11  22  36  52  68  96 136 176 219 264 304
#     4  11  22  34  50  70  94 130 178 223 262 302
#     4   9  18  35  54  75 101 131 166 209 255 304
#
# _framework density 17.369365999999999
#
# number of rings (size 3 to 8) (size 9 to 14) (size 15 to 20)
#    0.000    2.231    1.538    2.077    1.077    3.077 
#    4.154    1.538    0.000    0.462    0.000    3.231 
#    0.000    0.000    0.000    7.846    0.000    7.846 
#
# Total GULP energy -644571.101261 kJ/mol
# GULP energy per Si atom -12395.598101 kJ/mol
# Density = 1.732983 g / cm^3
# Si number density = 17.369366 Si / 1000 Ang^3
#
#
#
# Elastic Constant Matrix: (Units=GPa)
#
#
# Indices 1 2 3 4 5 6 
#
# 1 84.4692 57.6596 38.5547 0.0000 0.0000 0.0000
# 2 57.6596 123.6588 56.6869 0.0000 0.0000 0.0000
# 3 38.5547 56.6869 111.8028 0.0000 0.0000 0.0000
# 4 0.0000 0.0000 0.0000 24.1083 0.0000 0.0000
# 5 0.0000 0.0000 0.0000 0.0000 17.3497 0.0000
# 6 0.0000 0.0000 0.0000 0.0000 0.0000 19.8655
#
#
#
# Elastic Compliance Matrix: (Units=1/GPa)
#
#
# Indices 1 2 3 4 5 6 
#
# 1 0.017898 -0.007187 -0.002528 0.000000 0.000000 0.000000
# 2 -0.007187 0.013421 -0.004327 0.000000 0.000000 0.000000
# 3 -0.002528 -0.004327 0.012010 0.000000 0.000000 0.000000
# 4 0.000000 0.000000 0.000000 0.041479 0.000000 0.000000
# 5 0.000000 0.000000 0.000000 0.000000 0.057638 0.000000
# 6 0.000000 0.000000 0.000000 0.000000 0.000000 0.050339
#
#
# Mechanical properties :
#
#
# Convention : Reuss Voigt Hill
#
# Bulk Modulus (GPa) = 65.58994 69.52593 67.55794
# Shear Modulus (GPa) = 22.12877 23.40002 22.76440
#
# Velocity S-wave (km/s) = 3.57320 3.67441 3.62416
# Velocity P-wave (km/s) = 7.40726 7.62342 7.51612
#
# Compressibility (1/GPa) = 0.01524624
#
# Stress axis : x y z
#
# Youngs Moduli (GPa) = 55.87122 74.50961 83.26463
#
# Poissons Ratio (x) = 0.53547 0.21052
# Poissons Ratio (y) = 0.40152 0.36025
# Poissons Ratio (z) = 0.14126 0.32237
#
# Static dielectric constant tensor:
#      x y z
#    x 3.085290 0.000000 0.000000 
#    y 0.000000 3.336090 0.000000 
#    z 0.000000 0.000000 3.431320 
# 
# 
# High freq. dielectric constant tensor:
#      x y z
#    x 1.642630 0.000000 0.000000 
#    y 0.000000 1.670020 0.000000 
#    z 0.000000 0.000000 1.677220 
# 
# From -- ./inp_files/9646.got.cif
#   From: 2010.03.12/outbox.cif.g09.slc.cpg/sg47_5_cif.got.tgz:9646.got - 2010.04.14 03:12:58.
