data_PCOD8197488
_publ_section_title
;
Structure prediction by ZEFSAII (Michael W. Deem and Ramdas Pophale) SiO2 
 PCOD8197488
Probable space group: P M M M
;
_chemical_formula_sum "Si O2"
_cell_formula_units_Z 40
_cell_length_a 19.400603
_cell_length_b 12.787700
_cell_length_c 9.277217
_cell_angle_alpha 90.000000
_cell_angle_beta 90.000000
_cell_angle_gamma 90.000000
_cell_volume 2301.576332
_symmetry_space_group_name_H-M "P M M M"
_symmetry_group_IT_number 47
_symmetry_cell_setting 'orthorhombic'
loop_
_space_group_symop_operation_xyz
x,y,z
-x,-y,z
x,-y,-z
-x,y,-z
-x,-y,-z
x,y,-z
-x,y,z
x,-y,z
loop_
_atom_site_type_symbol
_atom_site_label
_atom_site_fract_x
_atom_site_fract_y
_atom_site_fract_z
Si Si1 0.421684 0.000000 0.171687
Si Si2 0.280366 0.381383 0.668584
Si Si3 0.000000 0.620235 0.157779
Si Si4 0.870292 0.303869 0.668666
Si Si5 0.329325 0.188412 0.834204
Si Si6 0.823798 0.881299 0.161769
O O1 0.385816 0.893110 0.228826
O O2 0.500000 0.000000 0.226546
O O3 0.415390 0.000000 0.000000
O O4 0.291124 0.363126 0.500000
O O5 0.300333 0.500000 0.713162
O O6 0.200389 0.363243 0.709826
O O7 0.329871 0.298928 0.749598
O O8 0.067521 0.644195 0.248534
O O9 0.000000 0.500000 0.125661
O O10 0.000000 0.677414 0.000000
O O11 0.885598 0.308151 0.500000
O O12 0.865482 0.184254 0.720428
O O13 0.257390 0.129627 0.813539
O O14 0.344653 0.215467 0.000000
O O15 0.846146 0.000000 0.185037
O O16 0.842668 0.843464 0.000000
#
# Coordination Sequence:
#
# PCOD8197488 Si02
#       6
#     4   8   4   8   8   8
#     4   9  16  28  49  77 107 134 161 198 243 289
#     4   9  18  32  49  71  99 129 162 203 250 294
#     4  11  23  37  52  69  92 123 159 198 242 295
#     4  10  20  33  50  72  96 125 160 200 246 294
#     4   9  16  28  48  74 100 129 165 201 242 289
#     4   9  16  29  49  71  98 128 158 197 243 290
#
# _framework density 17.379393
#
# number of rings (size 3 to 8) (size 9 to 14) (size 15 to 20)
#    0.000    2.600    1.000    1.500    0.000    3.200 
#    0.000    1.000    0.000    4.800    0.000    4.200 
#    0.000    0.000    0.000    0.000    0.000    0.000 
#
# Total GULP energy -495873.782032 kJ/mol
# GULP energy per Si atom -12396.844551 kJ/mol
# Density = 1.733984 g / cm^3
# Si number density = 17.379393 Si / 1000 Ang^3
#
#
#
# Elastic Constant Matrix: (Units=GPa)
#
#
# Indices 1 2 3 4 5 6 
#
# 1 79.5720 54.0356 40.1649 0.0000 0.0000 0.0000
# 2 54.0356 133.1896 52.1992 0.0000 0.0000 0.0000
# 3 40.1649 52.1992 73.6744 0.0000 0.0000 0.0000
# 4 0.0000 0.0000 0.0000 27.2099 0.0000 0.0000
# 5 0.0000 0.0000 0.0000 0.0000 16.5673 0.0000
# 6 0.0000 0.0000 0.0000 0.0000 0.0000 23.2362
#
#
#
# Elastic Compliance Matrix: (Units=1/GPa)
#
#
# Indices 1 2 3 4 5 6 
#
# 1 0.019656 -0.005226 -0.007013 0.000000 0.000000 0.000000
# 2 -0.005226 0.011784 -0.005500 0.000000 0.000000 0.000000
# 3 -0.007013 -0.005500 0.021293 0.000000 0.000000 0.000000
# 4 0.000000 0.000000 0.000000 0.036751 0.000000 0.000000
# 5 0.000000 0.000000 0.000000 0.000000 0.060360 0.000000
# 6 0.000000 0.000000 0.000000 0.000000 0.000000 0.043036
#
#
# Mechanical properties :
#
#
# Convention : Reuss Voigt Hill
#
# Bulk Modulus (GPa) = 57.95404 64.35948 61.15676
# Shear Modulus (GPa) = 21.35741 22.73843 22.04792
#
# Velocity S-wave (km/s) = 3.50936 3.62104 3.56564
# Velocity P-wave (km/s) = 7.05972 7.38885 7.22616
#
# Compressibility (1/GPa) = 0.01725505
#
# Stress axis : x y z
#
# Youngs Moduli (GPa) = 50.87488 84.86222 46.96290
#
# Poissons Ratio (x) = 0.44349 0.32936
# Poissons Ratio (y) = 0.26587 0.25829
# Poissons Ratio (z) = 0.35680 0.46674
#
# Static dielectric constant tensor:
#      x y z
#    x 2.048480 0.000000 0.000000 
#    y 0.000000 3.368950 0.000000 
#    z 0.000000 0.000000 3.195880 
# 
# 
# High freq. dielectric constant tensor:
#      x y z
#    x 1.640340 0.000000 0.000000 
#    y 0.000000 1.677890 0.000000 
#    z 0.000000 0.000000 1.663140 
# 
# From -- ./inp_files/10644.got.cif
#   From: 2010.03.12/outbox.cif.g09.slc.cpg/sg47_6_cif.got.tgz:10644.got - 2010.04.14 03:12:58.
