data_PCOD8197702
_publ_section_title
;
Structure prediction by ZEFSAII (Michael W. Deem and Ramdas Pophale) SiO2 
 PCOD8197702
Probable space group: P M M M
;
_chemical_formula_sum "Si O2"
_cell_formula_units_Z 52
_cell_length_a 19.250895
_cell_length_b 9.067164
_cell_length_c 15.844337
_cell_angle_alpha 90.000000
_cell_angle_beta 90.000000
_cell_angle_gamma 90.000000
_cell_volume 2765.645218
_symmetry_space_group_name_H-M "P M M M"
_symmetry_group_IT_number 47
_symmetry_cell_setting 'orthorhombic'
loop_
_space_group_symop_operation_xyz
x,y,z
-x,-y,z
x,-y,-z
-x,y,-z
-x,-y,-z
x,y,-z
-x,y,z
x,-y,z
loop_
_atom_site_type_symbol
_atom_site_label
_atom_site_fract_x
_atom_site_fract_y
_atom_site_fract_z
Si Si1 0.419322 0.326970 0.830777
Si Si2 0.922133 0.672987 0.655631
Si Si3 0.698396 0.824606 0.251851
Si Si4 0.216481 0.826897 0.908445
Si Si5 0.792056 0.830487 0.406130
Si Si6 0.076875 0.830883 0.170255
Si Si7 0.582285 0.833796 0.000000
O O1 0.500000 0.292412 0.814579
O O2 0.405649 0.500000 0.837962
O O3 0.376444 0.255779 0.753144
O O4 0.391761 0.250575 0.916777
O O5 0.910603 0.500000 0.653707
O O6 0.865109 0.745773 0.595527
O O7 0.910467 0.727959 0.750091
O O8 0.000000 0.714372 0.624187
O O9 0.741514 0.763083 0.171178
O O10 0.736973 0.771175 0.337093
O O11 0.687830 0.000000 0.251375
O O12 0.134547 0.789979 0.899049
O O13 0.228292 0.000000 0.908700
O O14 0.241012 0.762462 0.000000
O O15 0.760094 0.810387 0.500000
O O16 0.808219 0.000000 0.385782
O O17 0.000000 0.805594 0.131356
O O18 0.086233 0.000000 0.200446
O O19 0.500000 0.837584 0.000000
O O20 0.613179 0.000000 0.000000
#
# Coordination Sequence:
#
# PCOD8197702 Si02
#       7
#     8   8   8   8   8   8   4
#     4  10  21  36  54  79 112 147 181 219 264 316
#     4  10  20  33  51  76 106 139 176 220 270 322
#     4  10  20  35  55  79 107 139 176 218 267 322
#     4   9  17  29  47  75 107 136 172 219 265 308
#     4  10  21  38  59  81 105 136 176 221 270 324
#     4   9  16  29  50  72  99 138 182 223 263 308
#     4   9  17  31  53  81 111 145 184 221 258 303
#
# _framework density 18.802121
#
# number of rings (size 3 to 8) (size 9 to 14) (size 15 to 20)
#    0.000    2.385    1.538    1.154    1.077    4.308 
#    0.000    3.077    0.000    1.846    0.000    5.385 
#    0.000    0.000    0.000    0.000    0.000    0.000 
#
# Total GULP energy -644606.236171 kJ/mol
# GULP energy per Si atom -12396.273773 kJ/mol
# Density = 1.875933 g / cm^3
# Si number density = 18.802121 Si / 1000 Ang^3
#
#
#
# Elastic Constant Matrix: (Units=GPa)
#
#
# Indices 1 2 3 4 5 6 
#
# 1 94.8330 41.0699 58.8198 0.0000 0.0000 0.0000
# 2 41.0699 62.3379 35.2905 0.0000 0.0000 0.0000
# 3 58.8198 35.2905 120.3798 0.0000 0.0000 0.0000
# 4 0.0000 0.0000 0.0000 11.2210 0.0000 0.0000
# 5 0.0000 0.0000 0.0000 0.0000 24.4046 0.0000
# 6 0.0000 0.0000 0.0000 0.0000 0.0000 25.5174
#
#
#
# Elastic Compliance Matrix: (Units=1/GPa)
#
#
# Indices 1 2 3 4 5 6 
#
# 1 0.018125 -0.008306 -0.006421 0.000000 0.000000 0.000000
# 2 -0.008306 0.023040 -0.002696 0.000000 0.000000 0.000000
# 3 -0.006421 -0.002696 0.012235 0.000000 0.000000 0.000000
# 4 0.000000 0.000000 0.000000 0.089119 0.000000 0.000000
# 5 0.000000 0.000000 0.000000 0.000000 0.040976 0.000000
# 6 0.000000 0.000000 0.000000 0.000000 0.000000 0.039189
#
#
# Mechanical properties :
#
#
# Convention : Reuss Voigt Hill
#
# Bulk Modulus (GPa) = 53.89804 60.87901 57.38852
# Shear Modulus (GPa) = 18.96000 21.71998 20.33999
#
# Velocity S-wave (km/s) = 3.17897 3.40249 3.29263
# Velocity P-wave (km/s) = 6.49636 6.91990 6.71147
#
# Compressibility (1/GPa) = 0.01855355
#
# Stress axis : x y z
#
# Youngs Moduli (GPa) = 55.17370 43.40276 81.73392
#
# Poissons Ratio (x) = 0.36050 0.52482
# Poissons Ratio (y) = 0.45827 0.22035
# Poissons Ratio (z) = 0.35427 0.11701
#
# Static dielectric constant tensor:
#      x y z
#    x 3.582400 0.000000 0.000000 
#    y 0.000000 3.262900 0.000000 
#    z 0.000000 0.000000 3.415030 
# 
# 
# High freq. dielectric constant tensor:
#      x y z
#    x 1.733930 0.000000 0.000000 
#    y 0.000000 1.708230 0.000000 
#    z 0.000000 0.000000 1.710710 
# 
# From -- ./inp_files/24970.got.cif
#   From: 2010.03.12/outbox.cif.g09.slc.cpg/sg47_13_cif.got.tgz:24970.got - 2010.04.14 03:12:58.
