data_PCOD8197842
_publ_section_title
;
Structure prediction by ZEFSAII (Michael W. Deem and Ramdas Pophale) SiO2 
 PCOD8197842
Probable space group: P M M M
;
_chemical_formula_sum "Si O2"
_cell_formula_units_Z 44
_cell_length_a 28.286090
_cell_length_b 9.033465
_cell_length_c 8.952050
_cell_angle_alpha 90.000000
_cell_angle_beta 90.000000
_cell_angle_gamma 90.000000
_cell_volume 2287.440385
_symmetry_space_group_name_H-M "P M M M"
_symmetry_group_IT_number 47
_symmetry_cell_setting 'orthorhombic'
loop_
_space_group_symop_operation_xyz
x,y,z
-x,-y,z
x,-y,-z
-x,y,-z
-x,-y,-z
x,y,-z
-x,y,z
x,-y,z
loop_
_atom_site_type_symbol
_atom_site_label
_atom_site_fract_x
_atom_site_fract_y
_atom_site_fract_z
Si Si1 0.086704 0.328522 0.825495
Si Si2 0.269878 0.173193 0.827749
Si Si3 0.815983 0.670370 0.325483
Si Si4 0.000000 0.825087 0.669988
Si Si5 0.551942 0.675811 0.832402
Si Si6 0.355815 0.675707 0.669854
O O1 0.076488 0.500000 0.791478
O O2 0.136685 0.279085 0.758110
O O3 0.046350 0.232676 0.750932
O O4 0.087414 0.294887 0.000000
O O5 0.226383 0.228453 0.729711
O O6 0.317324 0.252955 0.776644
O O7 0.276162 0.000000 0.801884
O O8 0.260292 0.212372 0.000000
O O9 0.823787 0.695643 0.500000
O O10 0.803721 0.500000 0.289173
O O11 0.000000 0.768282 0.500000
O O12 0.000000 0.000000 0.678874
O O13 0.500000 0.732072 0.778772
O O14 0.552152 0.500000 0.833057
O O15 0.592594 0.734059 0.721496
O O16 0.562145 0.734172 0.000000
O O17 0.347417 0.726841 0.500000
O O18 0.351892 0.500000 0.684903
#
# Coordination Sequence:
#
# PCOD8197842 Si02
#       6
#     8   8   8   4   8   8
#     4  10  21  38  61  87 113 144 183 225 270 320
#     4  11  24  39  55  77 106 142 182 222 267 319
#     4  10  21  38  61  87 112 140 177 221 270 323
#     4  11  24  39  56  82 116 153 190 227 270 318
#     4   8  14  26  46  73 104 137 173 214 261 312
#     4  10  20  33  52  79 108 139 176 218 266 319
#
# _framework density 19.235472999999999
#
# number of rings (size 3 to 8) (size 9 to 14) (size 15 to 20)
#    0.000    2.091    0.000    3.818    0.000    9.818 
#    0.000    1.818    0.000    0.545    0.000    3.818 
#    0.000    0.000    0.000    0.000    0.000    0.000 
#
# Total GULP energy -545689.583087 kJ/mol
# GULP energy per Si atom -12402.035979 kJ/mol
# Density = 1.919169 g / cm^3
# Si number density = 19.235473 Si / 1000 Ang^3
#
#
#
# Elastic Constant Matrix: (Units=GPa)
#
#
# Indices 1 2 3 4 5 6 
#
# 1 138.6857 38.5167 51.6434 0.0000 0.0000 0.0000
# 2 38.5167 40.0226 35.2229 0.0000 0.0000 0.0000
# 3 51.6434 35.2229 93.6937 0.0000 0.0000 0.0000
# 4 0.0000 0.0000 0.0000 25.8974 0.0000 0.0000
# 5 0.0000 0.0000 0.0000 0.0000 43.1932 0.0000
# 6 0.0000 0.0000 0.0000 0.0000 0.0000 6.0545
#
#
#
# Elastic Compliance Matrix: (Units=1/GPa)
#
#
# Indices 1 2 3 4 5 6 
#
# 1 0.010352 -0.007384 -0.002930 0.000000 0.000000 0.000000
# 2 -0.007384 0.042607 -0.011947 0.000000 0.000000 0.000000
# 3 -0.002930 -0.011947 0.016780 0.000000 0.000000 0.000000
# 4 0.000000 0.000000 0.000000 0.038614 0.000000 0.000000
# 5 0.000000 0.000000 0.000000 0.000000 0.023152 0.000000
# 6 0.000000 0.000000 0.000000 0.000000 0.000000 0.165167
#
#
# Mechanical properties :
#
#
# Convention : Reuss Voigt Hill
#
# Bulk Modulus (GPa) = 39.65824 58.12976 48.89400
# Shear Modulus (GPa) = 14.30206 24.83027 19.56616
#
# Velocity S-wave (km/s) = 2.72972 3.59675 3.19280
# Velocity P-wave (km/s) = 5.53147 6.89453 6.25027
#
# Compressibility (1/GPa) = 0.02521544
#
# Stress axis : x y z
#
# Youngs Moduli (GPa) = 96.59527 23.47044 59.59588
#
# Poissons Ratio (x) = 0.17331 0.17463
# Poissons Ratio (y) = 0.71327 0.71201
# Poissons Ratio (z) = 0.28305 0.28041
#
# Static dielectric constant tensor:
#      x y z
#    x 3.736000 0.000000 0.000000 
#    y 0.000000 3.259740 0.000000 
#    z 0.000000 0.000000 3.702930 
# 
# 
# High freq. dielectric constant tensor:
#      x y z
#    x 1.766930 0.000000 0.000000 
#    y 0.000000 1.718710 0.000000 
#    z 0.000000 0.000000 1.761260 
# 
# From -- ./inp_files/13630.got.cif
#   From: 2010.03.12/outbox.cif.g09.slc.cpg/sg47_7_cif.got.tgz:13630.got - 2010.04.14 03:12:58.
