data_PCOD8197046
_publ_section_title
;
Structure prediction by ZEFSAII (Michael W. Deem and Ramdas Pophale) SiO2 
 PCOD8197046
Probable space group: P M M M
;
_chemical_formula_sum "Si O2"
_cell_formula_units_Z 40
_cell_length_a 9.248560
_cell_length_b 8.822743
_cell_length_c 26.000088
_cell_angle_alpha 90.000000
_cell_angle_beta 90.000000
_cell_angle_gamma 90.000000
_cell_volume 2121.546549
_symmetry_space_group_name_H-M "P M M M"
_symmetry_group_IT_number 47
_symmetry_cell_setting 'orthorhombic'
loop_
_space_group_symop_operation_xyz
x,y,z
-x,-y,z
x,-y,-z
-x,y,-z
-x,-y,-z
x,y,-z
-x,y,z
x,-y,z
loop_
_atom_site_type_symbol
_atom_site_label
_atom_site_fract_x
_atom_site_fract_y
_atom_site_fract_z
Si Si1 0.337595 0.680296 0.443198
Si Si2 0.163261 0.180181 0.846499
Si Si3 0.662185 0.180177 0.943176
Si Si4 0.667364 0.678435 0.752975
Si Si5 0.162411 0.680537 0.652951
O O1 0.284748 0.733073 0.500000
O O2 0.500000 0.739924 0.432985
O O3 0.337649 0.500000 0.440483
O O4 0.232112 0.747022 0.399480
O O5 0.228608 0.243691 0.900120
O O6 0.260814 0.239126 0.800631
O O7 0.000000 0.241984 0.840952
O O8 0.165750 0.000000 0.845812
O O9 0.500000 0.239289 0.931308
O O10 0.662433 0.000000 0.942065
O O11 0.711410 0.236513 0.000000
O O12 0.500000 0.723962 0.749849
O O13 0.688216 0.500000 0.759739
O O14 0.744297 0.737520 0.701231
O O15 0.161795 0.500000 0.651120
O O16 0.000000 0.744342 0.658026
#
# Coordination Sequence:
#
# PCOD8197046 Si02
#       5
#     8   8   8   8   8
#     4   8  13  21  33  50  75 108 144 181 221 266
#     4  10  20  32  48  72  99 124 151 187 231 275
#     4   8  14  26  45  68  93 121 152 185 222 266
#     4  10  20  33  49  67  89 122 161 195 229 273
#     4   9  16  25  38  57  82 112 146 185 228 273
#
# _framework density 18.854168999999999
#
# number of rings (size 3 to 8) (size 9 to 14) (size 15 to 20)
#    0.000    3.000    0.000    3.000    0.000    5.600 
#    0.000    4.000    0.000    0.600    0.000    4.200 
#    0.000    0.800    0.000    8.400    0.000   11.600 
#
# Total GULP energy -495814.398998 kJ/mol
# GULP energy per Si atom -12395.359975 kJ/mol
# Density = 1.881126 g / cm^3
# Si number density = 18.854169 Si / 1000 Ang^3
#
#
#
# Elastic Constant Matrix: (Units=GPa)
#
#
# Indices 1 2 3 4 5 6 
#
# 1 155.2220 14.0768 100.6854 0.0000 0.0000 0.0000
# 2 14.0768 5.7236 13.7045 0.0000 0.0000 0.0000
# 3 100.6854 13.7045 184.1774 0.0000 0.0000 0.0000
# 4 0.0000 0.0000 0.0000 29.4258 0.0000 0.0000
# 5 0.0000 0.0000 0.0000 0.0000 29.6282 0.0000
# 6 0.0000 0.0000 0.0000 0.0000 0.0000 15.0092
#
#
#
# Elastic Compliance Matrix: (Units=1/GPa)
#
#
# Indices 1 2 3 4 5 6 
#
# 1 0.010994 -0.015390 -0.004865 0.000000 0.000000 0.000000
# 2 -0.015390 0.234136 -0.009009 0.000000 0.000000 0.000000
# 3 -0.004865 -0.009009 0.008759 0.000000 0.000000 0.000000
# 4 0.000000 0.000000 0.000000 0.033984 0.000000 0.000000
# 5 0.000000 0.000000 0.000000 0.000000 0.033752 0.000000
# 6 0.000000 0.000000 0.000000 0.000000 0.000000 0.066626
#
#
# Mechanical properties :
#
#
# Convention : Reuss Voigt Hill
#
# Bulk Modulus (GPa) = 5.11868 66.89515 36.00692
# Shear Modulus (GPa) = 9.76756 29.25638 19.51197
#
# Velocity S-wave (km/s) = 2.27856 3.94346 3.22046
# Velocity P-wave (km/s) = 3.10535 7.50279 5.74174
#
# Compressibility (1/GPa) = 0.19536277
#
# Stress axis : x y z
#
# Youngs Moduli (GPa) = 90.96176 4.27101 114.16366
#
# Poissons Ratio (x) = 0.06573 0.55538
# Poissons Ratio (y) = 1.39988 1.02847
# Poissons Ratio (z) = 0.44251 0.03848
#
# Static dielectric constant tensor:
#      x y z
#    x 3.740370 0.000000 0.000000 
#    y 0.000000 2.744710 0.000000 
#    z 0.000000 0.000000 3.851960 
# 
# 
# High freq. dielectric constant tensor:
#      x y z
#    x 1.740580 0.000000 0.000000 
#    y 0.000000 1.654940 0.000000 
#    z 0.000000 0.000000 1.753380 
# 
# From -- ./inp_files/1665.got.cif
#   From: 2010.03.12/outbox.cif.g09.slc.cpg/sg47_1_cif.got.tgz:1665.got - 2010.04.14 03:12:58.
