data_PCOD8197745
_publ_section_title
;
Structure prediction by ZEFSAII (Michael W. Deem and Ramdas Pophale) SiO2 
 PCOD8197745
Probable space group: P M M M
;
_chemical_formula_sum "Si O2"
_cell_formula_units_Z 52
_cell_length_a 24.820824
_cell_length_b 14.297978
_cell_length_c 8.005616
_cell_angle_alpha 90.000000
_cell_angle_beta 90.000000
_cell_angle_gamma 90.000000
_cell_volume 2841.093813
_symmetry_space_group_name_H-M "P M M M"
_symmetry_group_IT_number 47
_symmetry_cell_setting 'orthorhombic'
loop_
_space_group_symop_operation_xyz
x,y,z
-x,-y,z
x,-y,-z
-x,y,-z
-x,-y,-z
x,y,-z
-x,y,z
x,-y,z
loop_
_atom_site_type_symbol
_atom_site_label
_atom_site_fract_x
_atom_site_fract_y
_atom_site_fract_z
Si Si1 0.102109 0.604157 0.692027
Si Si2 0.734625 0.210952 0.304060
Si Si3 0.838560 0.897014 0.307720
Si Si4 0.560152 0.889109 0.500000
Si Si5 0.631133 0.891382 0.811401
Si Si6 0.779423 0.605065 0.805380
Si Si7 0.059851 0.209661 0.809580
O O1 0.085389 0.613934 0.500000
O O2 0.088770 0.500000 0.759915
O O3 0.165504 0.624034 0.706931
O O4 0.068248 0.678873 0.796401
O O5 0.726014 0.193631 0.500000
O O6 0.790012 0.165092 0.232637
O O7 0.686108 0.165542 0.203042
O O8 0.735639 0.321615 0.263584
O O9 0.825600 0.909923 0.500000
O O10 0.895959 0.846498 0.293787
O O11 0.840181 0.000000 0.222050
O O12 0.500000 0.846307 0.500000
O O13 0.589595 0.854627 0.669981
O O14 0.557129 0.000000 0.500000
O O15 0.644206 0.000000 0.779423
O O16 0.607745 0.876589 0.000000
O O17 0.757910 0.500000 0.770312
O O18 0.790637 0.620616 0.000000
O O19 0.000000 0.184582 0.743041
O O20 0.065721 0.178871 0.000000
#
# Coordination Sequence:
#
# PCOD8197745 Si02
#       7
#     8   8   8   4   8   8   8
#     4  10  20  35  55  77  99 126 163 205 255 318
#     4  11  20  33  55  80 109 142 179 223 270 322
#     4  10  22  38  56  77  98 129 171 212 261 318
#     4   9  18  34  54  78 115 159 198 238 278 313
#     4  10  20  33  52  81 115 153 196 235 274 322
#     4  10  20  33  51  77 108 139 171 210 261 324
#     4  11  24  39  54  73  97 126 164 211 263 321
#
# _framework density 18.302810000000001
#
# number of rings (size 3 to 8) (size 9 to 14) (size 15 to 20)
#    0.000    1.769    2.308    2.308    0.000    5.538 
#    0.000    4.615    0.000    0.000    0.000    0.000 
#    0.000    1.231    0.000    3.231    0.000    0.154 
#
# Total GULP energy -644771.244301 kJ/mol
# GULP energy per Si atom -12399.447006 kJ/mol
# Density = 1.826115 g / cm^3
# Si number density = 18.302810 Si / 1000 Ang^3
#
#
#
# Elastic Constant Matrix: (Units=GPa)
#
#
# Indices 1 2 3 4 5 6 
#
# 1 108.7830 40.3681 32.9896 0.0000 0.0000 0.0000
# 2 40.3681 89.9574 20.1517 0.0000 0.0000 0.0000
# 3 32.9896 20.1517 73.7448 0.0000 0.0000 0.0000
# 4 0.0000 0.0000 0.0000 21.7852 0.0000 0.0000
# 5 0.0000 0.0000 0.0000 0.0000 19.4032 0.0000
# 6 0.0000 0.0000 0.0000 0.0000 0.0000 16.2041
#
#
#
# Elastic Compliance Matrix: (Units=1/GPa)
#
#
# Indices 1 2 3 4 5 6 
#
# 1 0.012138 -0.004506 -0.004199 0.000000 0.000000 0.000000
# 2 -0.004506 0.013514 -0.001677 0.000000 0.000000 0.000000
# 3 -0.004199 -0.001677 0.015897 0.000000 0.000000 0.000000
# 4 0.000000 0.000000 0.000000 0.045903 0.000000 0.000000
# 5 0.000000 0.000000 0.000000 0.000000 0.051538 0.000000
# 6 0.000000 0.000000 0.000000 0.000000 0.000000 0.061713
#
#
# Mechanical properties :
#
#
# Convention : Reuss Voigt Hill
#
# Bulk Modulus (GPa) = 48.11106 51.05600 49.58353
# Shear Modulus (GPa) = 21.89189 23.41021 22.65105
#
# Velocity S-wave (km/s) = 3.46221 3.58026 3.52173
# Velocity P-wave (km/s) = 6.50583 6.71169 6.60956
#
# Compressibility (1/GPa) = 0.02078524
#
# Stress axis : x y z
#
# Youngs Moduli (GPa) = 82.38497 73.99571 62.90596
#
# Poissons Ratio (x) = 0.33346 0.26411
# Poissons Ratio (y) = 0.37126 0.10549
# Poissons Ratio (z) = 0.34590 0.12409
#
# Static dielectric constant tensor:
#      x y z
#    x 3.173730 0.000000 0.000000 
#    y 0.000000 3.483470 0.000000 
#    z 0.000000 0.000000 3.358750 
# 
# 
# High freq. dielectric constant tensor:
#      x y z
#    x 1.674830 0.000000 0.000000 
#    y 0.000000 1.701030 0.000000 
#    z 0.000000 0.000000 1.716260 
# 
# From -- ./inp_files/12570.got.cif
#   From: 2010.03.12/outbox.cif.g09.slc.cpg/sg47_7_cif.got.tgz:12570.got - 2010.04.14 03:12:58.
