data_PCOD8197868
_publ_section_title
;
Structure prediction by ZEFSAII (Michael W. Deem and Ramdas Pophale) SiO2 
 PCOD8197868
Probable space group: P M M M
;
_chemical_formula_sum "Si O2"
_cell_formula_units_Z 44
_cell_length_a 14.216172
_cell_length_b 9.029207
_cell_length_c 17.873762
_cell_angle_alpha 90.000000
_cell_angle_beta 90.000000
_cell_angle_gamma 90.000000
_cell_volume 2294.289670
_symmetry_space_group_name_H-M "P M M M"
_symmetry_group_IT_number 47
_symmetry_cell_setting 'orthorhombic'
loop_
_space_group_symop_operation_xyz
x,y,z
-x,-y,z
x,-y,-z
-x,y,-z
-x,-y,-z
x,y,-z
-x,y,z
x,-y,z
loop_
_atom_site_type_symbol
_atom_site_label
_atom_site_fract_x
_atom_site_fract_y
_atom_site_fract_z
Si Si1 0.111072 0.670759 0.000000
Si Si2 0.606045 0.327404 0.175913
Si Si3 0.398299 0.675705 0.653471
Si Si4 0.786793 0.824975 0.135243
Si Si5 0.107654 0.171171 0.715261
Si Si6 0.791475 0.675670 0.416073
O O1 0.150002 0.749646 0.926895
O O2 0.142293 0.500000 0.000000
O O3 0.000000 0.688430 0.000000
O O4 0.500000 0.297524 0.146528
O O5 0.631275 0.500000 0.168305
O O6 0.615334 0.272960 0.261277
O O7 0.679670 0.232498 0.127451
O O8 0.500000 0.734741 0.623668
O O9 0.399382 0.500000 0.650731
O O10 0.312858 0.738106 0.603674
O O11 0.828137 0.776443 0.215686
O O12 0.790134 0.000000 0.123651
O O13 0.132109 0.260838 0.640606
O O14 0.000000 0.203296 0.736728
O O15 0.124884 0.000000 0.697645
O O16 0.816938 0.726913 0.500000
O O17 0.792890 0.500000 0.409095
#
# Coordination Sequence:
#
# PCOD8197868 Si02
#       6
#     4   8   8   8   8   8
#     4  11  25  43  64  91 120 151 187 230 284 341
#     4   9  17  32  57  86 116 152 192 232 276 333
#     4   8  14  27  49  77 109 144 181 224 275 329
#     4  11  22  38  62  89 118 150 186 234 284 336
#     4  10  22  39  57  77 104 145 191 230 278 340
#     4  10  20  33  52  80 111 142 184 239 287 329
#
# _framework density 19.178049999999999
#
# number of rings (size 3 to 8) (size 9 to 14) (size 15 to 20)
#    0.000    2.273    1.818    2.455    0.000    4.000 
#    0.000    4.091    0.000    3.273    0.000    1.273 
#    0.000    0.000    0.000    0.000    0.000    0.000 
#
# Total GULP energy -545550.006967 kJ/mol
# GULP energy per Si atom -12398.863795 kJ/mol
# Density = 1.913440 g / cm^3
# Si number density = 19.178050 Si / 1000 Ang^3
#
#
#
# Elastic Constant Matrix: (Units=GPa)
#
#
# Indices 1 2 3 4 5 6 
#
# 1 108.8014 44.2792 43.5957 0.0000 0.0000 0.0000
# 2 44.2792 65.0158 45.5368 0.0000 0.0000 0.0000
# 3 43.5957 45.5368 95.0799 0.0000 0.0000 0.0000
# 4 0.0000 0.0000 0.0000 26.9626 0.0000 0.0000
# 5 0.0000 0.0000 0.0000 0.0000 30.6991 0.0000
# 6 0.0000 0.0000 0.0000 0.0000 0.0000 25.1390
#
#
#
# Elastic Compliance Matrix: (Units=1/GPa)
#
#
# Indices 1 2 3 4 5 6 
#
# 1 0.013134 -0.007113 -0.002615 0.000000 0.000000 0.000000
# 2 -0.007113 0.026997 -0.009668 0.000000 0.000000 0.000000
# 3 -0.002615 -0.009668 0.016347 0.000000 0.000000 0.000000
# 4 0.000000 0.000000 0.000000 0.037088 0.000000 0.000000
# 5 0.000000 0.000000 0.000000 0.000000 0.032574 0.000000
# 6 0.000000 0.000000 0.000000 0.000000 0.000000 0.039779
#
#
# Mechanical properties :
#
#
# Convention : Reuss Voigt Hill
#
# Bulk Modulus (GPa) = 56.54684 59.52448 58.03566
# Shear Modulus (GPa) = 23.74090 25.59252 24.66671
#
# Velocity S-wave (km/s) = 3.52223 3.65700 3.59025
# Velocity P-wave (km/s) = 6.78901 6.99548 6.89302
#
# Compressibility (1/GPa) = 0.01768446
#
# Stress axis : x y z
#
# Youngs Moduli (GPa) = 76.13921 37.04155 61.17293
#
# Poissons Ratio (x) = 0.26348 0.16000
# Poissons Ratio (y) = 0.54158 0.59143
# Poissons Ratio (z) = 0.19914 0.35812
#
# Static dielectric constant tensor:
#      x y z
#    x 3.781760 0.000000 0.000000 
#    y 0.000000 3.244720 0.000000 
#    z 0.000000 0.000000 3.445230 
# 
# 
# High freq. dielectric constant tensor:
#      x y z
#    x 1.761940 0.000000 0.000000 
#    y 0.000000 1.720340 0.000000 
#    z 0.000000 0.000000 1.732900 
# 
# From -- ./inp_files/27881.got.cif
#   From: 2010.03.12/outbox.cif.g09.slc.cpg/sg47_14_cif.got.tgz:27881.got - 2010.04.14 03:12:58.
