data_PCOD8197758
_publ_section_title
;
Structure prediction by ZEFSAII (Michael W. Deem and Ramdas Pophale) SiO2 
 PCOD8197758
Probable space group: P M M M
;
_chemical_formula_sum "Si O2"
_cell_formula_units_Z 52
_cell_length_a 20.449074
_cell_length_b 14.498260
_cell_length_c 8.829967
_cell_angle_alpha 90.000000
_cell_angle_beta 90.000000
_cell_angle_gamma 90.000000
_cell_volume 2617.873222
_symmetry_space_group_name_H-M "P M M M"
_symmetry_group_IT_number 47
_symmetry_cell_setting 'orthorhombic'
loop_
_space_group_symop_operation_xyz
x,y,z
-x,-y,z
x,-y,-z
-x,y,-z
-x,-y,-z
x,y,-z
-x,y,z
x,-y,z
loop_
_atom_site_type_symbol
_atom_site_label
_atom_site_fract_x
_atom_site_fract_y
_atom_site_fract_z
Si Si1 0.801095 0.777719 0.173545
Si Si2 0.571693 0.775731 0.674959
Si Si3 0.926928 0.313519 0.176518
Si Si4 0.077586 0.500000 0.670916
Si Si5 0.385401 0.399293 0.826931
Si Si6 0.692959 0.103197 0.679020
Si Si7 0.750813 0.397304 0.673444
O O1 0.879636 0.775409 0.207436
O O2 0.761443 0.850346 0.273793
O O3 0.781481 0.673159 0.208623
O O4 0.786129 0.801654 0.000000
O O5 0.585917 0.752802 0.500000
O O6 0.500000 0.823761 0.692157
O O7 0.567193 0.681607 0.770803
O O8 0.629631 0.840957 0.740141
O O9 0.896755 0.404954 0.255431
O O10 0.000000 0.289596 0.236986
O O11 0.928996 0.336346 0.000000
O O12 0.102642 0.500000 0.500000
O O13 0.000000 0.500000 0.686930
O O14 0.420346 0.500000 0.817900
O O15 0.325145 0.400548 0.712351
O O16 0.363169 0.379889 0.000000
O O17 0.690690 0.099364 0.500000
O O18 0.690296 0.000000 0.746856
O O19 0.758661 0.362887 0.500000
O O20 0.782229 0.500000 0.693136
#
# Coordination Sequence:
#
# PCOD8197758 Si02
#       7
#     8   8   8   4   8   8   8
#     4  11  22  35  57  85 111 145 187 231 279 330
#     4  10  21  37  58  84 113 147 186 226 272 330
#     4   9  19  35  52  74 110 153 192 228 270 323
#     4   9  17  29  47  75 111 151 194 233 270 315
#     4  10  20  34  53  79 113 152 191 229 270 319
#     4  10  22  41  63  85 110 141 179 228 287 346
#     4  10  20  33  51  77 111 150 188 229 275 324
#
# _framework density 19.863451000000001
#
# number of rings (size 3 to 8) (size 9 to 14) (size 15 to 20)
#    0.000    2.077    1.538    1.615    1.077    5.231 
#    0.000    3.077    0.000    0.462    0.000    5.385 
#    0.000    0.000    0.000    0.000    0.000    0.000 
#
# Total GULP energy -644469.639816 kJ/mol
# GULP energy per Si atom -12393.646920 kJ/mol
# Density = 1.981824 g / cm^3
# Si number density = 19.863451 Si / 1000 Ang^3
#
#
#
# Elastic Constant Matrix: (Units=GPa)
#
#
# Indices 1 2 3 4 5 6 
#
# 1 91.1915 57.7880 16.2622 0.0000 0.0000 0.0000
# 2 57.7880 114.1260 25.7618 0.0000 0.0000 0.0000
# 3 16.2622 25.7618 40.6063 0.0000 0.0000 0.0000
# 4 0.0000 0.0000 0.0000 20.6031 0.0000 0.0000
# 5 0.0000 0.0000 0.0000 0.0000 23.1400 0.0000
# 6 0.0000 0.0000 0.0000 0.0000 0.0000 16.3150
#
#
#
# Elastic Compliance Matrix: (Units=1/GPa)
#
#
# Indices 1 2 3 4 5 6 
#
# 1 0.016225 -0.007877 -0.001501 0.000000 0.000000 0.000000
# 2 -0.007877 0.014051 -0.005760 0.000000 0.000000 0.000000
# 3 -0.001501 -0.005760 0.028882 0.000000 0.000000 0.000000
# 4 0.000000 0.000000 0.000000 0.048536 0.000000 0.000000
# 5 0.000000 0.000000 0.000000 0.000000 0.043215 0.000000
# 6 0.000000 0.000000 0.000000 0.000000 0.000000 0.061293
#
#
# Mechanical properties :
#
#
# Convention : Reuss Voigt Hill
#
# Bulk Modulus (GPa) = 34.62189 49.50528 42.06358
# Shear Modulus (GPa) = 19.83301 21.75240 20.79271
#
# Velocity S-wave (km/s) = 3.16328 3.31281 3.23891
# Velocity P-wave (km/s) = 5.55064 6.29364 5.93378
#
# Compressibility (1/GPa) = 0.02888346
#
# Stress axis : x y z
#
# Youngs Moduli (GPa) = 61.63286 71.16993 34.62385
#
# Poissons Ratio (x) = 0.56060 0.05196
# Poissons Ratio (y) = 0.48548 0.19942
# Poissons Ratio (z) = 0.09248 0.40992
#
# Static dielectric constant tensor:
#      x y z
#    x 3.810950 0.000000 0.000000 
#    y 0.000000 3.572390 0.000000 
#    z 0.000000 0.000000 3.477510 
# 
# 
# High freq. dielectric constant tensor:
#      x y z
#    x 1.784160 0.000000 0.000000 
#    y 0.000000 1.742200 0.000000 
#    z 0.000000 0.000000 1.768980 
# 
# From -- ./inp_files/10977.got.cif
#   From: 2010.03.12/outbox.cif.g09.slc.cpg/sg47_6_cif.got.tgz:10977.got - 2010.04.14 03:12:58.
