data_PCOD8197889
_publ_section_title
;
Structure prediction by ZEFSAII (Michael W. Deem and Ramdas Pophale) SiO2 
 PCOD8197889
Probable space group: P M M M
;
_chemical_formula_sum "Si O2"
_cell_formula_units_Z 56
_cell_length_a 9.297199
_cell_length_b 14.862454
_cell_length_c 22.647277
_cell_angle_alpha 90.000000
_cell_angle_beta 90.000000
_cell_angle_gamma 90.000000
_cell_volume 3129.382447
_symmetry_space_group_name_H-M "P M M M"
_symmetry_group_IT_number 47
_symmetry_cell_setting 'orthorhombic'
loop_
_space_group_symop_operation_xyz
x,y,z
-x,-y,z
x,-y,-z
-x,y,-z
-x,-y,-z
x,y,-z
-x,y,z
x,-y,z
loop_
_atom_site_type_symbol
_atom_site_label
_atom_site_fract_x
_atom_site_fract_y
_atom_site_fract_z
Si Si1 0.163721 0.398247 0.260038
Si Si2 0.664304 0.356844 0.375902
Si Si3 0.664399 0.163996 0.432604
Si Si4 0.166574 0.790882 0.215918
Si Si5 0.846567 0.500000 0.433631
Si Si6 0.330987 0.894841 0.115683
Si Si7 0.162058 0.099890 0.329268
Si Si8 0.837496 0.893491 0.000000
O O1 0.193030 0.500000 0.234710
O O2 0.273132 0.376610 0.311828
O O3 0.186821 0.317996 0.212272
O O4 0.000000 0.392055 0.283466
O O5 0.500000 0.388234 0.375544
O O6 0.681314 0.256444 0.397814
O O7 0.753255 0.412788 0.422469
O O8 0.725227 0.167819 0.500000
O O9 0.500000 0.132637 0.435226
O O10 0.750655 0.096340 0.390780
O O11 0.270810 0.836103 0.168984
O O12 0.215949 0.828300 0.280299
O O13 0.000000 0.817800 0.203779
O O14 0.891661 0.500000 0.500000
O O15 0.000000 0.500000 0.397732
O O16 0.500000 0.876762 0.107850
O O17 0.249043 0.860446 0.057335
O O18 0.300773 0.000000 0.127900
O O19 0.000000 0.124969 0.346668
O O20 0.172987 0.000000 0.301172
O O21 0.000000 0.853520 0.000000
O O22 0.844229 0.000000 0.000000
#
# Coordination Sequence:
#
# PCOD8197889 Si02
#       8
#     8   8   8   8   4   8   8   4
#     4  10  20  35  56  79 104 134 172 216 265 321
#     4  11  21  34  53  74  97 124 159 208 264 323
#     4  10  22  38  53  70  95 128 166 210 265 328
#     4  10  20  35  55  78 108 143 179 220 265 319
#     4  11  23  35  49  71  97 125 159 200 253 322
#     4  10  20  33  52  82 119 155 190 227 264 305
#     4  10  21  36  54  76 100 130 173 221 265 314
#     4   9  17  31  53  81 116 157 194 225 261 308
#
# _framework density 17.894904
#
# number of rings (size 3 to 8) (size 9 to 14) (size 15 to 20)
#    0.000    1.857    2.143    2.143    0.000    6.000 
#    0.000    1.429    0.000    0.000    0.000    0.500 
#    0.000    4.000    0.000    0.000    0.000    0.000 
#
# Total GULP energy -694027.656886 kJ/mol
# GULP energy per Si atom -12393.351016 kJ/mol
# Density = 1.785417 g / cm^3
# Si number density = 17.894904 Si / 1000 Ang^3
#
#
#
# Elastic Constant Matrix: (Units=GPa)
#
#
# Indices 1 2 3 4 5 6 
#
# 1 102.2983 42.3253 53.6704 0.0000 0.0000 0.0000
# 2 42.3253 90.4091 39.9432 0.0000 0.0000 0.0000
# 3 53.6704 39.9432 100.3781 0.0000 0.0000 0.0000
# 4 0.0000 0.0000 0.0000 9.2465 0.0000 0.0000
# 5 0.0000 0.0000 0.0000 0.0000 34.3073 0.0000
# 6 0.0000 0.0000 0.0000 0.0000 0.0000 23.1169
#
#
#
# Elastic Compliance Matrix: (Units=1/GPa)
#
#
# Indices 1 2 3 4 5 6 
#
# 1 0.014771 -0.004157 -0.006244 0.000000 0.000000 0.000000
# 2 -0.004157 0.014590 -0.003583 0.000000 0.000000 0.000000
# 3 -0.006244 -0.003583 0.014727 0.000000 0.000000 0.000000
# 4 0.000000 0.000000 0.000000 0.108149 0.000000 0.000000
# 5 0.000000 0.000000 0.000000 0.000000 0.029148 0.000000
# 6 0.000000 0.000000 0.000000 0.000000 0.000000 0.043258
#
#
# Mechanical properties :
#
#
# Convention : Reuss Voigt Hill
#
# Bulk Modulus (GPa) = 62.03370 62.77370 62.40370
# Shear Modulus (GPa) = 19.38107 23.81057 21.59582
#
# Velocity S-wave (km/s) = 3.29454 3.65167 3.47769
# Velocity P-wave (km/s) = 7.01519 7.27563 7.14660
#
# Compressibility (1/GPa) = 0.01612027
#
# Stress axis : x y z
#
# Youngs Moduli (GPa) = 67.70117 68.54089 67.90430
#
# Poissons Ratio (x) = 0.28489 0.42397
# Poissons Ratio (y) = 0.28140 0.24332
# Poissons Ratio (z) = 0.42271 0.24560
#
# Static dielectric constant tensor:
#      x y z
#    x 3.437800 0.000000 0.000000 
#    y 0.000000 3.364740 0.000000 
#    z 0.000000 0.000000 3.141190 
# 
# 
# High freq. dielectric constant tensor:
#      x y z
#    x 1.701550 0.000000 0.000000 
#    y 0.000000 1.686710 0.000000 
#    z 0.000000 0.000000 1.666600 
# 
# From -- ./inp_files/29765.got.cif
#   From: 2010.03.12/outbox.cif.g09.slc.cpg/sg47_15_cif.got.tgz:29765.got - 2010.04.14 03:12:58.
