data_PCOD8197078
_publ_section_title
;
Structure prediction by ZEFSAII (Michael W. Deem and Ramdas Pophale) SiO2 
 PCOD8197078
Probable space group: P M M M
;
_chemical_formula_sum "Si O2"
_cell_formula_units_Z 52
_cell_length_a 11.843202
_cell_length_b 29.420072
_cell_length_c 7.976954
_cell_angle_alpha 90.000000
_cell_angle_beta 90.000000
_cell_angle_gamma 90.000000
_cell_volume 2779.392976
_symmetry_space_group_name_H-M "P M M M"
_symmetry_group_IT_number 47
_symmetry_cell_setting 'orthorhombic'
loop_
_space_group_symop_operation_xyz
x,y,z
-x,-y,z
x,-y,-z
-x,y,-z
-x,-y,-z
x,y,-z
-x,y,z
x,-y,z
loop_
_atom_site_type_symbol
_atom_site_label
_atom_site_fract_x
_atom_site_fract_y
_atom_site_fract_z
Si Si1 0.866278 0.449347 0.000000
Si Si2 0.129383 0.220284 0.697917
Si Si3 0.869332 0.389253 0.687988
Si Si4 0.500000 0.165830 0.305995
Si Si5 0.735358 0.865379 0.695390
Si Si6 0.737616 0.694299 0.808853
Si Si7 0.500000 0.268206 0.802775
Si Si8 0.874118 0.050978 0.198030
O O1 0.825566 0.424345 0.170390
O O2 0.813740 0.500000 0.000000
O O3 0.000000 0.452378 0.000000
O O4 0.146152 0.226989 0.500000
O O5 0.176697 0.172002 0.763542
O O6 0.194884 0.259042 0.796124
O O7 0.000000 0.222584 0.750810
O O8 0.855900 0.410147 0.500000
O O9 0.795210 0.343743 0.694137
O O10 0.000000 0.376348 0.722158
O O11 0.500000 0.153257 0.500000
O O12 0.611989 0.143513 0.221616
O O13 0.500000 0.220091 0.289452
O O14 0.723234 0.857707 0.500000
O O15 0.779662 0.915722 0.730469
O O16 0.609281 0.702686 0.748266
O O17 0.740691 0.677205 0.000000
O O18 0.500000 0.258363 0.000000
O O19 0.000000 0.064151 0.263248
O O20 0.844254 0.000000 0.258745
O O21 0.872431 0.053455 0.000000
#
# Coordination Sequence:
#
# PCOD8197078 Si02
#       8
#     4   8   8   4   8   8   4   8
#     4   9  18  34  56  83 117 155 193 234 282 337
#     4  10  20  32  48  73 103 135 173 215 261 321
#     4  10  20  34  54  82 116 152 189 232 283 336
#     4  10  20  36  55  73 100 137 175 217 262 310
#     4  10  20  34  53  76 101 133 172 213 261 314
#     4  11  21  34  51  74 107 144 185 229 274 324
#     4  10  22  36  52  75 103 141 189 233 265 311
#     4   9  19  36  56  77 101 129 164 210 263 319
#
# _framework density 18.709119999999999
#
# number of rings (size 3 to 8) (size 9 to 14) (size 15 to 20)
#    0.000    2.077    2.308    1.846    0.000    5.538 
#    0.000    2.692    0.000    2.308    0.000    1.077 
#    0.000    1.231    0.000    0.000    0.000    0.000 
#
# Total GULP energy -644724.816403 kJ/mol
# GULP energy per Si atom -12398.554162 kJ/mol
# Density = 1.866654 g / cm^3
# Si number density = 18.709120 Si / 1000 Ang^3
#
#
#
# Elastic Constant Matrix: (Units=GPa)
#
#
# Indices 1 2 3 4 5 6 
#
# 1 131.0030 55.6343 29.8424 0.0000 0.0000 0.0000
# 2 55.6343 115.8608 29.7289 0.0000 0.0000 0.0000
# 3 29.8424 29.7289 54.6491 0.0000 0.0000 0.0000
# 4 0.0000 0.0000 0.0000 25.6388 0.0000 0.0000
# 5 0.0000 0.0000 0.0000 0.0000 16.0272 0.0000
# 6 0.0000 0.0000 0.0000 0.0000 0.0000 9.7119
#
#
#
# Elastic Compliance Matrix: (Units=1/GPa)
#
#
# Indices 1 2 3 4 5 6 
#
# 1 0.010087 -0.003987 -0.003340 0.000000 0.000000 0.000000
# 2 -0.003987 0.011607 -0.004137 0.000000 0.000000 0.000000
# 3 -0.003340 -0.004137 0.022373 0.000000 0.000000 0.000000
# 4 0.000000 0.000000 0.000000 0.039003 0.000000 0.000000
# 5 0.000000 0.000000 0.000000 0.000000 0.062394 0.000000
# 6 0.000000 0.000000 0.000000 0.000000 0.000000 0.102967
#
#
# Mechanical properties :
#
#
# Convention : Reuss Voigt Hill
#
# Bulk Modulus (GPa) = 47.30342 59.10267 53.20305
# Shear Modulus (GPa) = 17.95945 22.69605 20.32775
#
# Velocity S-wave (km/s) = 3.10164 3.48674 3.29981
# Velocity P-wave (km/s) = 6.17781 6.91872 6.55874
#
# Compressibility (1/GPa) = 0.02114012
#
# Stress axis : x y z
#
# Youngs Moduli (GPa) = 99.13465 86.15503 44.69717
#
# Poissons Ratio (x) = 0.34349 0.14927
# Poissons Ratio (y) = 0.39523 0.18491
# Poissons Ratio (z) = 0.33107 0.35643
#
# Static dielectric constant tensor:
#      x y z
#    x 3.841680 0.000000 0.000000 
#    y 0.000000 3.508800 0.000000 
#    z 0.000000 0.000000 3.319630 
# 
# 
# High freq. dielectric constant tensor:
#      x y z
#    x 1.718530 0.000000 0.000000 
#    y 0.000000 1.711000 0.000000 
#    z 0.000000 0.000000 1.721980 
# 
# From -- ./inp_files/4680.got.cif
#   From: 2010.03.12/outbox.cif.g09.slc.cpg/sg47_3_cif.got.tgz:4680.got - 2010.04.14 03:12:58.
