data_PCOD8197243
_publ_section_title
;
Structure prediction by ZEFSAII (Michael W. Deem and Ramdas Pophale) SiO2 
 PCOD8197243
Probable space group: P M M M
;
_chemical_formula_sum "Si O2"
_cell_formula_units_Z 48
_cell_length_a 8.995487
_cell_length_b 18.842119
_cell_length_c 14.945682
_cell_angle_alpha 90.000000
_cell_angle_beta 90.000000
_cell_angle_gamma 90.000000
_cell_volume 2533.203971
_symmetry_space_group_name_H-M "P M M M"
_symmetry_group_IT_number 47
_symmetry_cell_setting 'orthorhombic'
loop_
_space_group_symop_operation_xyz
x,y,z
-x,-y,z
x,-y,-z
-x,y,-z
-x,-y,-z
x,y,-z
-x,y,z
x,-y,z
loop_
_atom_site_type_symbol
_atom_site_label
_atom_site_fract_x
_atom_site_fract_y
_atom_site_fract_z
Si Si1 0.174261 0.081544 0.753345
Si Si2 0.827337 0.656363 0.603365
Si Si3 0.174106 0.315043 0.896667
Si Si4 0.176126 0.183067 0.598430
Si Si5 0.671531 0.582941 0.761136
Si Si6 0.326762 0.830163 0.103460
O O1 0.238720 0.127722 0.670839
O O2 0.259496 0.103736 0.842988
O O3 0.000000 0.095006 0.767710
O O4 0.208864 0.000000 0.732169
O O5 0.796427 0.638122 0.500000
O O6 0.778358 0.737032 0.625195
O O7 0.729911 0.604282 0.663389
O O8 0.000000 0.645282 0.626573
O O9 0.237092 0.379296 0.839229
O O10 0.248348 0.242000 0.864406
O O11 0.000000 0.307937 0.879385
O O12 0.211705 0.330558 0.000000
O O13 0.241320 0.164303 0.500000
O O14 0.000000 0.177780 0.593653
O O15 0.500000 0.604423 0.769264
O O16 0.696035 0.500000 0.774331
O O17 0.500000 0.822792 0.123245
O O18 0.293418 0.845225 0.000000
#
# Coordination Sequence:
#
# PCOD8197243 Si02
#       6
#     8   8   8   8   8   8
#     4  10  20  32  50  79 111 143 180 222 267 314
#     4   9  18  34  57  81 104 138 187 237 278 318
#     4  10  21  38  61  85 107 135 175 224 274 323
#     4   8  15  30  52  77 104 134 172 219 267 313
#     4  11  24  38  53  78 113 150 183 218 265 321
#     4  10  21  37  57  79 104 138 179 221 268 323
#
# _framework density 18.948335
#
# number of rings (size 3 to 8) (size 9 to 14) (size 15 to 20)
#    0.000    2.333    0.000    3.500    0.000    6.667 
#    0.000    6.667    0.000    1.500    0.000    1.167 
#    0.000    0.000    0.000    0.000    0.000    0.000 
#
# Total GULP energy -595327.991321 kJ/mol
# GULP energy per Si atom -12402.666486 kJ/mol
# Density = 1.890521 g / cm^3
# Si number density = 18.948335 Si / 1000 Ang^3
#
#
#
# Elastic Constant Matrix: (Units=GPa)
#
#
# Indices 1 2 3 4 5 6 
#
# 1 67.1535 33.5040 36.1140 0.0000 0.0000 0.0000
# 2 33.5040 55.5172 28.5594 0.0000 0.0000 0.0000
# 3 36.1140 28.5594 79.5574 0.0000 0.0000 0.0000
# 4 0.0000 0.0000 0.0000 23.5422 0.0000 0.0000
# 5 0.0000 0.0000 0.0000 0.0000 22.4073 0.0000
# 6 0.0000 0.0000 0.0000 0.0000 0.0000 25.8671
#
#
#
# Elastic Compliance Matrix: (Units=1/GPa)
#
#
# Indices 1 2 3 4 5 6 
#
# 1 0.024131 -0.010950 -0.007023 0.000000 0.000000 0.000000
# 2 -0.010950 0.027061 -0.004744 0.000000 0.000000 0.000000
# 3 -0.007023 -0.004744 0.017461 0.000000 0.000000 0.000000
# 4 0.000000 0.000000 0.000000 0.042477 0.000000 0.000000
# 5 0.000000 0.000000 0.000000 0.000000 0.044628 0.000000
# 6 0.000000 0.000000 0.000000 0.000000 0.000000 0.038659
#
#
# Mechanical properties :
#
#
# Convention : Reuss Voigt Hill
#
# Bulk Modulus (GPa) = 43.06845 44.28698 43.67772
# Shear Modulus (GPa) = 20.19461 21.30003 20.74732
#
# Velocity S-wave (km/s) = 3.26816 3.35641 3.31258
# Velocity P-wave (km/s) = 6.08440 6.20032 6.14263
#
# Compressibility (1/GPa) = 0.02321885
#
# Stress axis : x y z
#
# Youngs Moduli (GPa) = 41.43977 36.95373 57.27201
#
# Poissons Ratio (x) = 0.40465 0.40224
# Poissons Ratio (y) = 0.45377 0.27168
# Poissons Ratio (z) = 0.29104 0.17530
#
# Static dielectric constant tensor:
#      x y z
#    x 3.313800 0.000000 0.000000 
#    y 0.000000 3.422950 0.000000 
#    z 0.000000 0.000000 3.700910 
# 
# 
# High freq. dielectric constant tensor:
#      x y z
#    x 1.720560 0.000000 0.000000 
#    y 0.000000 1.732760 0.000000 
#    z 0.000000 0.000000 1.748540 
# 
# From -- ./inp_files/6332.got.cif
#   From: 2010.03.12/outbox.cif.g09.slc.cpg/sg47_4_cif.got.tgz:6332.got - 2010.04.14 03:12:58.
