data_PCOD8197887
_publ_section_title
;
Structure prediction by ZEFSAII (Michael W. Deem and Ramdas Pophale) SiO2 
 PCOD8197887
Probable space group: P M M M
;
_chemical_formula_sum "Si O2"
_cell_formula_units_Z 48
_cell_length_a 17.419572
_cell_length_b 9.579530
_cell_length_c 14.978862
_cell_angle_alpha 90.000000
_cell_angle_beta 90.000000
_cell_angle_gamma 90.000000
_cell_volume 2499.542363
_symmetry_space_group_name_H-M "P M M M"
_symmetry_group_IT_number 47
_symmetry_cell_setting 'orthorhombic'
loop_
_space_group_symop_operation_xyz
x,y,z
-x,-y,z
x,-y,-z
-x,y,-z
-x,-y,-z
x,y,-z
-x,y,z
x,-y,z
loop_
_atom_site_type_symbol
_atom_site_label
_atom_site_fract_x
_atom_site_fract_y
_atom_site_fract_z
Si Si1 0.591876 0.154259 0.000000
Si Si2 0.086730 0.665726 0.900746
Si Si3 0.349107 0.661577 0.333806
Si Si4 0.409148 0.166452 0.500000
Si Si5 0.912945 0.155554 0.603868
Si Si6 0.181068 0.662878 0.733261
Si Si7 0.412726 0.348248 0.847781
O O1 0.624970 0.233374 0.912468
O O2 0.500000 0.144743 0.000000
O O3 0.627580 0.000000 0.000000
O O4 0.088943 0.500000 0.902232
O O5 0.148400 0.722589 0.827777
O O6 0.000000 0.715298 0.875739
O O7 0.108615 0.722169 0.000000
O O8 0.351463 0.500000 0.367386
O O9 0.367776 0.765429 0.414559
O O10 0.269988 0.697482 0.282865
O O11 0.411088 0.692378 0.256581
O O12 0.500000 0.201174 0.500000
O O13 0.395083 0.000000 0.500000
O O14 0.906672 0.187369 0.500000
O O15 0.862902 0.269759 0.651733
O O16 0.000000 0.169123 0.636763
O O17 0.882137 0.000000 0.625023
O O18 0.164595 0.500000 0.728389
O O19 0.500000 0.362634 0.877943
O O20 0.371467 0.500000 0.860896
#
# Coordination Sequence:
#
# PCOD8197887 Si02
#       7
#     4   8   8   4   8   8   8
#     4   9  17  29  49  77 105 133 168 217 268 309
#     4   8  14  27  49  77 110 147 184 223 268 315
#     4  10  22  38  56  83 114 144 178 226 286 339
#     4  11  25  43  63  85 106 139 190 235 275 338
#     4   9  19  35  53  74 103 143 186 222 264 322
#     4  10  20  33  52  82 113 140 179 228 274 323
#     4   9  17  32  53  75 102 139 180 216 260 326
#
# _framework density 19.203513999999998
#
# number of rings (size 3 to 8) (size 9 to 14) (size 15 to 20)
#    0.000    2.667    0.000    2.500    1.167    5.000 
#    1.500    2.500    0.000    0.500    0.000    2.333 
#    0.000    0.000    0.000    0.000    0.000    0.000 
#
# Total GULP energy -594828.376705 kJ/mol
# GULP energy per Si atom -12392.257848 kJ/mol
# Density = 1.915981 g / cm^3
# Si number density = 19.203514 Si / 1000 Ang^3
#
#
#
# Elastic Constant Matrix: (Units=GPa)
#
#
# Indices 1 2 3 4 5 6 
#
# 1 69.4834 31.3395 37.9578 0.0000 0.0000 0.0000
# 2 31.3395 88.1519 68.6679 0.0000 0.0000 0.0000
# 3 37.9578 68.6679 106.3714 0.0000 0.0000 0.0000
# 4 0.0000 0.0000 0.0000 8.7883 0.0000 0.0000
# 5 0.0000 0.0000 0.0000 0.0000 14.6410 0.0000
# 6 0.0000 0.0000 0.0000 0.0000 0.0000 20.9342
#
#
#
# Elastic Compliance Matrix: (Units=1/GPa)
#
#
# Indices 1 2 3 4 5 6 
#
# 1 0.018224 -0.002843 -0.004668 0.000000 0.000000 0.000000
# 2 -0.002843 0.023262 -0.014003 0.000000 0.000000 0.000000
# 3 -0.004668 -0.014003 0.020106 0.000000 0.000000 0.000000
# 4 0.000000 0.000000 0.000000 0.113788 0.000000 0.000000
# 5 0.000000 0.000000 0.000000 0.000000 0.068301 0.000000
# 6 0.000000 0.000000 0.000000 0.000000 0.000000 0.047769
#
#
# Mechanical properties :
#
#
# Convention : Reuss Voigt Hill
#
# Bulk Modulus (GPa) = 53.86202 59.99302 56.92752
# Shear Modulus (GPa) = 14.67717 17.27548 15.97633
#
# Velocity S-wave (km/s) = 2.76759 3.00259 2.88748
# Velocity P-wave (km/s) = 6.19045 6.58249 6.38948
#
# Compressibility (1/GPa) = 0.01856596
#
# Stress axis : x y z
#
# Youngs Moduli (GPa) = 54.87213 42.98802 49.73623
#
# Poissons Ratio (x) = 0.12220 0.23217
# Poissons Ratio (y) = 0.15599 0.69643
# Poissons Ratio (z) = 0.25614 0.60194
#
# Static dielectric constant tensor:
#      x y z
#    x 3.476520 0.000000 0.000000 
#    y 0.000000 3.418910 0.000000 
#    z 0.000000 0.000000 3.674440 
# 
# 
# High freq. dielectric constant tensor:
#      x y z
#    x 1.729520 0.000000 0.000000 
#    y 0.000000 1.722970 0.000000 
#    z 0.000000 0.000000 1.757600 
# 
# From -- ./inp_files/24497.got.cif
#   From: 2010.03.12/outbox.cif.g09.slc.cpg/sg47_13_cif.got.tgz:24497.got - 2010.04.14 03:12:58.
