data_PCOD8197426
_publ_section_title
;
Structure prediction by ZEFSAII (Michael W. Deem and Ramdas Pophale) SiO2 
 PCOD8197426
Probable space group: P M M M
;
_chemical_formula_sum "Si O2"
_cell_formula_units_Z 64
_cell_length_a 9.076511
_cell_length_b 28.160816
_cell_length_c 14.093553
_cell_angle_alpha 90.000000
_cell_angle_beta 90.000000
_cell_angle_gamma 90.000000
_cell_volume 3602.339717
_symmetry_space_group_name_H-M "P M M M"
_symmetry_group_IT_number 47
_symmetry_cell_setting 'orthorhombic'
loop_
_space_group_symop_operation_xyz
x,y,z
-x,-y,z
x,-y,-z
-x,y,-z
-x,-y,-z
x,y,-z
-x,y,z
x,-y,z
loop_
_atom_site_type_symbol
_atom_site_label
_atom_site_fract_x
_atom_site_fract_y
_atom_site_fract_z
Si Si1 0.174237 0.630648 0.731263
Si Si2 0.172972 0.719542 0.607471
Si Si3 0.328983 0.863235 0.791963
Si Si4 0.330157 0.813505 0.394067
Si Si5 0.170256 0.054762 0.891358
Si Si6 0.832938 0.223537 0.112167
Si Si7 0.330714 0.555360 0.391908
Si Si8 0.327778 0.680639 0.889627
O O1 0.226903 0.674706 0.667148
O O2 0.226463 0.582608 0.681255
O O3 0.253491 0.636996 0.832930
O O4 0.000000 0.628531 0.745768
O O5 0.225920 0.710984 0.500000
O O6 0.244531 0.767832 0.646827
O O7 0.000000 0.725889 0.614334
O O8 0.500000 0.859505 0.818631
O O9 0.303237 0.856797 0.678756
O O10 0.269403 0.914699 0.820504
O O11 0.243132 0.823187 0.848756
O O12 0.274646 0.828000 0.500000
O O13 0.500000 0.799148 0.397248
O O14 0.000000 0.067597 0.874987
O O15 0.200380 0.000000 0.867526
O O16 0.213990 0.065786 0.000000
O O17 0.746399 0.270401 0.145434
O O18 0.000000 0.227369 0.150633
O O19 0.830699 0.219237 0.000000
O O20 0.284644 0.567556 0.500000
O O21 0.500000 0.569877 0.374819
O O22 0.307976 0.500000 0.372179
O O23 0.500000 0.683509 0.867269
O O24 0.296948 0.671291 0.000000
#
# Coordination Sequence:
#
# PCOD8197426 Si02
#       8
#     8   8   8   8   8   8   8   8
#     4  11  21  32  51  77 104 135 169 207 254 307
#     4   9  18  31  46  69 101 132 163 199 239 286
#     4  11  21  31  49  75  99 127 165 206 245 288
#     4   9  19  34  48  65  94 131 167 201 238 281
#     4   9  19  36  55  74  98 127 156 190 240 300
#     4  10  20  33  49  71 102 137 168 200 244 298
#     4   9  19  36  56  78 105 136 169 206 250 301
#     4  10  21  36  52  71  99 135 174 215 254 293
#
# _framework density 17.766231999999999
#
# number of rings (size 3 to 8) (size 9 to 14) (size 15 to 20)
#    0.000    2.250    0.000    3.750    0.000    8.500 
#    0.000    2.500    0.000    0.750    0.000    5.250 
#    0.000    0.000    0.000    0.000    0.000    0.000 
#
# Total GULP energy -793726.291043 kJ/mol
# GULP energy per Si atom -12401.973298 kJ/mol
# Density = 1.772580 g / cm^3
# Si number density = 17.766232 Si / 1000 Ang^3
#
#
#
# Elastic Constant Matrix: (Units=GPa)
#
#
# Indices 1 2 3 4 5 6 
#
# 1 93.9142 50.1193 47.8412 0.0000 0.0000 0.0000
# 2 50.1193 85.8825 53.7954 0.0000 0.0000 0.0000
# 3 47.8412 53.7954 65.8661 0.0000 0.0000 0.0000
# 4 0.0000 0.0000 0.0000 31.0446 0.0000 0.0000
# 5 0.0000 0.0000 0.0000 0.0000 25.9424 0.0000
# 6 0.0000 0.0000 0.0000 0.0000 0.0000 34.0807
#
#
#
# Elastic Compliance Matrix: (Units=1/GPa)
#
#
# Indices 1 2 3 4 5 6 
#
# 1 0.017776 -0.004681 -0.009088 0.000000 0.000000 0.000000
# 2 -0.004681 0.025073 -0.017078 0.000000 0.000000 0.000000
# 3 -0.009088 -0.017078 0.035732 0.000000 0.000000 0.000000
# 4 0.000000 0.000000 0.000000 0.032212 0.000000 0.000000
# 5 0.000000 0.000000 0.000000 0.000000 0.038547 0.000000
# 6 0.000000 0.000000 0.000000 0.000000 0.000000 0.029342
#
#
# Mechanical properties :
#
#
# Convention : Reuss Voigt Hill
#
# Bulk Modulus (GPa) = 59.22033 61.01941 60.11987
# Shear Modulus (GPa) = 20.32486 24.47399 22.39942
#
# Velocity S-wave (km/s) = 3.38600 3.71557 3.55461
# Velocity P-wave (km/s) = 6.97797 7.26826 7.12459
#
# Compressibility (1/GPa) = 0.01688609
#
# Stress axis : x y z
#
# Youngs Moduli (GPa) = 56.25660 39.88369 27.98631
#
# Poissons Ratio (x) = 0.18669 0.25434
# Poissons Ratio (y) = 0.26333 0.47795
# Poissons Ratio (z) = 0.51127 0.68114
#
# Static dielectric constant tensor:
#      x y z
#    x 3.323030 0.000000 0.000000 
#    y 0.000000 3.123210 0.000000 
#    z 0.000000 0.000000 3.437930 
# 
# 
# High freq. dielectric constant tensor:
#      x y z
#    x 1.694010 0.000000 0.000000 
#    y 0.000000 1.666790 0.000000 
#    z 0.000000 0.000000 1.689270 
# 
# From -- ./inp_files/12751.got.cif
#   From: 2010.03.12/outbox.cif.g09.slc.cpg/sg47_7_cif.got.tgz:12751.got - 2010.04.14 03:12:58.
