data_PCOD8197727
_publ_section_title
;
Structure prediction by ZEFSAII (Michael W. Deem and Ramdas Pophale) SiO2 
 PCOD8197727
Probable space group: P M M M
;
_chemical_formula_sum "Si O2"
_cell_formula_units_Z 64
_cell_length_a 8.719025
_cell_length_b 25.361044
_cell_length_c 14.810464
_cell_angle_alpha 90.000000
_cell_angle_beta 90.000000
_cell_angle_gamma 90.000000
_cell_volume 3274.942772
_symmetry_space_group_name_H-M "P M M M"
_symmetry_group_IT_number 47
_symmetry_cell_setting 'orthorhombic'
loop_
_space_group_symop_operation_xyz
x,y,z
-x,-y,z
x,-y,-z
-x,y,-z
-x,-y,-z
x,y,-z
-x,y,z
x,-y,z
loop_
_atom_site_type_symbol
_atom_site_label
_atom_site_fract_x
_atom_site_fract_y
_atom_site_fract_z
Si Si1 0.318669 0.846030 0.103052
Si Si2 0.317509 0.440979 0.600881
Si Si3 0.173930 0.190961 0.400113
Si Si4 0.318758 0.754327 0.761503
Si Si5 0.317694 0.635008 0.245409
Si Si6 0.823606 0.941527 0.214563
Si Si7 0.678620 0.081117 0.399219
Si Si8 0.682158 0.442131 0.099055
O O1 0.500000 0.848282 0.099376
O O2 0.266092 0.793117 0.156734
O O3 0.265160 0.898338 0.155598
O O4 0.252980 0.844562 0.000000
O O5 0.256374 0.429812 0.500000
O O6 0.500000 0.440080 0.602573
O O7 0.263892 0.500000 0.632250
O O8 0.253341 0.393407 0.663905
O O9 0.184647 0.216017 0.500000
O O10 0.227946 0.233650 0.329387
O O11 0.290580 0.142852 0.391240
O O12 0.000000 0.172025 0.379889
O O13 0.500000 0.759562 0.745916
O O14 0.265616 0.694403 0.776593
O O15 0.500000 0.632651 0.248122
O O16 0.246638 0.601530 0.163804
O O17 0.768824 0.946748 0.318426
O O18 0.000000 0.924659 0.214096
O O19 0.800779 0.000000 0.171579
O O20 0.729736 0.061106 0.500000
O O21 0.500000 0.069895 0.385153
O O22 0.500000 0.437037 0.095736
O O23 0.727657 0.500000 0.135154
O O24 0.751477 0.432847 0.000000
#
# Coordination Sequence:
#
# PCOD8197727 Si02
#       8
#     8   8   8   8   8   8   8   8
#     4  10  22  40  59  78 104 141 184 228 277 333
#     4   8  13  21  33  51  81 124 168 207 252 306
#     4  10  20  34  54  78 105 140 178 215 258 310
#     4  10  20  33  51  77 106 138 176 220 271 324
#     4   9  16  24  37  60  91 126 165 210 259 310
#     4  11  24  40  60  87 116 145 180 224 271 321
#     4  10  20  35  58  87 117 148 180 214 256 309
#     4   8  13  21  34  54  84 125 168 206 250 307
#
# _framework density 19.542325999999999
#
# number of rings (size 3 to 8) (size 9 to 14) (size 15 to 20)
#    0.000    2.500    1.250    2.250    0.000    5.750 
#    0.000    6.250    0.000    0.000    0.000    0.000 
#    0.000    2.000    0.000    8.250    0.000    6.500 
#
# Total GULP energy -792967.567289 kJ/mol
# GULP energy per Si atom -12390.118239 kJ/mol
# Density = 1.949785 g / cm^3
# Si number density = 19.542326 Si / 1000 Ang^3
#
#
#
# Elastic Constant Matrix: (Units=GPa)
#
#
# Indices 1 2 3 4 5 6 
#
# 1 19.4434 15.3041 17.3616 0.0000 0.0000 0.0000
# 2 15.3041 152.2168 82.2082 0.0000 0.0000 0.0000
# 3 17.3616 82.2082 136.0782 0.0000 0.0000 0.0000
# 4 0.0000 0.0000 0.0000 13.1687 0.0000 0.0000
# 5 0.0000 0.0000 0.0000 0.0000 13.0002 0.0000
# 6 0.0000 0.0000 0.0000 0.0000 0.0000 -0.5293
#
#
#
# Elastic Compliance Matrix: (Units=1/GPa)
#
#
# Indices 1 2 3 4 5 6 
#
# 1 0.058816 -0.002762 -0.005836 0.000000 0.000000 0.000000
# 2 -0.002762 0.009881 -0.005617 0.000000 0.000000 0.000000
# 3 -0.005836 -0.005617 0.011487 0.000000 0.000000 0.000000
# 4 0.000000 0.000000 0.000000 0.075938 0.000000 0.000000
# 5 0.000000 0.000000 0.000000 0.000000 0.076922 0.000000
# 6 0.000000 0.000000 0.000000 0.000000 0.000000 -1.889389
#
#
# Mechanical properties :
#
#
# Convention : Reuss Voigt Hill
#
# Bulk Modulus (GPa) = 19.32185 59.72067 39.52126
# Shear Modulus (GPa) = -3.10431 17.98556 7.44063
#
# Velocity S-wave (km/s) = -1.26173 3.03700 1.95338
# Velocity P-wave (km/s) = 2.79035 6.55163 5.03537
#
# Compressibility (1/GPa) = 0.05175489
#
# Stress axis : x y z
#
# Youngs Moduli (GPa) = 17.00214 101.20683 87.05848
#
# Poissons Ratio (x) = 0.27951 0.50804
# Poissons Ratio (y) = 0.04696 0.48899
# Poissons Ratio (z) = 0.09922 0.56846
#
# Static dielectric constant tensor:
#      x y z
#    x 3.089660 0.000000 0.000000 
#    y 0.000000 3.691460 0.000000 
#    z 0.000000 0.000000 3.966780 
# 
# 
# High freq. dielectric constant tensor:
#      x y z
#    x 1.712810 0.000000 0.000000 
#    y 0.000000 1.762460 0.000000 
#    z 0.000000 0.000000 1.768750 
# 
# From -- ./inp_files/21890.got.cif
#   From: 2010.03.12/outbox.cif.g09.slc.cpg/sg47_11_cif.got.tgz:21890.got - 2010.04.14 03:12:58.
