data_PCOD8197762
_publ_section_title
;
Structure prediction by ZEFSAII (Michael W. Deem and Ramdas Pophale) SiO2 
 PCOD8197762
Probable space group: P M M M
;
_chemical_formula_sum "Si O2"
_cell_formula_units_Z 44
_cell_length_a 9.078277
_cell_length_b 28.228420
_cell_length_c 9.131985
_cell_angle_alpha 90.000000
_cell_angle_beta 90.000000
_cell_angle_gamma 90.000000
_cell_volume 2340.211935
_symmetry_space_group_name_H-M "P M M M"
_symmetry_group_IT_number 47
_symmetry_cell_setting 'orthorhombic'
loop_
_space_group_symop_operation_xyz
x,y,z
-x,-y,z
x,-y,-z
-x,y,-z
-x,-y,-z
x,y,-z
-x,y,z
x,-y,z
loop_
_atom_site_type_symbol
_atom_site_label
_atom_site_fract_x
_atom_site_fract_y
_atom_site_fract_z
Si Si1 0.826884 0.094107 0.669570
Si Si2 0.670560 0.821100 0.172207
Si Si3 0.674483 0.635750 0.166003
Si Si4 0.665902 0.000000 0.326196
Si Si5 0.829281 0.554233 0.667284
Si Si6 0.675084 0.727085 0.335191
O O1 0.786379 0.103442 0.500000
O O2 0.768888 0.136869 0.766488
O O3 0.750255 0.046530 0.729943
O O4 0.000000 0.088278 0.691277
O O5 0.500000 0.830724 0.211586
O O6 0.728537 0.772878 0.245959
O O7 0.694100 0.816337 0.000000
O O8 0.500000 0.634310 0.175879
O O9 0.734084 0.586617 0.227211
O O10 0.738367 0.679912 0.258518
O O11 0.728222 0.642097 0.000000
O O12 0.500000 0.000000 0.263058
O O13 0.665076 0.000000 0.500000
O O14 0.782830 0.563886 0.500000
O O15 0.796423 0.500000 0.709339
O O16 0.000000 0.565982 0.689921
O O17 0.737742 0.729799 0.500000
O O18 0.500000 0.725172 0.335506
#
# Coordination Sequence:
#
# PCOD8197762 Si02
#       6
#     8   8   8   4   8   8
#     4  10  20  34  53  78 108 140 174 214 260 307
#     4  10  20  34  53  77 105 137 173 213 257 306
#     4  10  20  33  51  78 110 139 169 210 260 312
#     4   9  17  31  54  81 106 135 174 218 260 305
#     4   9  19  36  55  74  99 134 176 219 261 307
#     4   9  17  31  53  78 103 134 172 213 257 305
#
# _framework density 18.801715000000002
#
# number of rings (size 3 to 8) (size 9 to 14) (size 15 to 20)
#    0.000    2.455    0.000    3.000    0.000    7.636 
#    0.000    4.091    0.000    8.182    0.000    0.000 
#    0.000    0.000    0.000    0.000    0.000    0.000 
#
# Total GULP energy -545688.840985 kJ/mol
# GULP energy per Si atom -12402.019113 kJ/mol
# Density = 1.875892 g / cm^3
# Si number density = 18.801715 Si / 1000 Ang^3
#
#
#
# Elastic Constant Matrix: (Units=GPa)
#
#
# Indices 1 2 3 4 5 6 
#
# 1 46.5830 39.3430 36.6337 0.0000 0.0000 0.0000
# 2 39.3430 146.1232 71.6259 0.0000 0.0000 0.0000
# 3 36.6337 71.6259 115.8783 0.0000 0.0000 0.0000
# 4 0.0000 0.0000 0.0000 12.8250 0.0000 0.0000
# 5 0.0000 0.0000 0.0000 0.0000 23.5851 0.0000
# 6 0.0000 0.0000 0.0000 0.0000 0.0000 1.2091
#
#
#
# Elastic Compliance Matrix: (Units=1/GPa)
#
#
# Indices 1 2 3 4 5 6 
#
# 1 0.030995 -0.005082 -0.006657 0.000000 0.000000 0.000000
# 2 -0.005082 0.010652 -0.004977 0.000000 0.000000 0.000000
# 3 -0.006657 -0.004977 0.013811 0.000000 0.000000 0.000000
# 4 0.000000 0.000000 0.000000 0.077973 0.000000 0.000000
# 5 0.000000 0.000000 0.000000 0.000000 0.042400 0.000000
# 6 0.000000 0.000000 0.000000 0.000000 0.000000 0.827084
#
#
# Mechanical properties :
#
#
# Convention : Reuss Voigt Hill
#
# Bulk Modulus (GPa) = 45.40517 67.08775 56.24646
# Shear Modulus (GPa) = 4.79070 18.25596 11.52333
#
# Velocity S-wave (km/s) = 1.59798 3.11942 2.47834
# Velocity P-wave (km/s) = 5.25420 6.98095 6.17820
#
# Compressibility (1/GPa) = 0.02202392
#
# Stress axis : x y z
#
# Youngs Moduli (GPa) = 32.26368 93.88304 72.40629
#
# Poissons Ratio (x) = 0.47710 0.48204
# Poissons Ratio (y) = 0.16396 0.36039
# Poissons Ratio (z) = 0.21479 0.46728
#
# Static dielectric constant tensor:
#      x y z
#    x 3.190290 0.000000 0.000000 
#    y 0.000000 3.590490 0.000000 
#    z 0.000000 0.000000 3.442630 
# 
# 
# High freq. dielectric constant tensor:
#      x y z
#    x 1.705620 0.000000 0.000000 
#    y 0.000000 1.745850 0.000000 
#    z 0.000000 0.000000 1.725860 
# 
# From -- ./inp_files/2195.got.cif
#   From: 2010.03.12/outbox.cif.g09.slc.cpg/sg47_2_cif.got.tgz:2195.got - 2010.04.14 03:12:58.
