data_PCOD8197459
_publ_section_title
;
Structure prediction by ZEFSAII (Michael W. Deem and Ramdas Pophale) SiO2 
 PCOD8197459
Probable space group: P M M M
;
_chemical_formula_sum "Si O2"
_cell_formula_units_Z 48
_cell_length_a 9.265530
_cell_length_b 9.041021
_cell_length_c 31.255714
_cell_angle_alpha 90.000000
_cell_angle_beta 90.000000
_cell_angle_gamma 90.000000
_cell_volume 2618.286514
_symmetry_space_group_name_H-M "P M M M"
_symmetry_group_IT_number 47
_symmetry_cell_setting 'orthorhombic'
loop_
_space_group_symop_operation_xyz
x,y,z
-x,-y,z
x,-y,-z
-x,y,-z
-x,-y,-z
x,y,-z
-x,y,z
x,-y,z
loop_
_atom_site_type_symbol
_atom_site_label
_atom_site_fract_x
_atom_site_fract_y
_atom_site_fract_z
Si Si1 0.662416 0.176037 0.172148
Si Si2 0.667175 0.171207 0.582214
Si Si3 0.831536 0.172680 0.255375
Si Si4 0.837482 0.177282 0.908260
Si Si5 0.665031 0.674340 0.669358
Si Si6 0.162979 0.823995 0.500000
Si Si7 0.171399 0.837917 0.000000
O O1 0.500000 0.237539 0.175733
O O2 0.752925 0.232024 0.212788
O O3 0.733627 0.239680 0.128754
O O4 0.664218 0.000000 0.170643
O O5 0.500000 0.194336 0.571156
O O6 0.714173 0.262230 0.623776
O O7 0.757354 0.235260 0.542347
O O8 0.702713 0.000000 0.591013
O O9 0.770284 0.260498 0.295352
O O10 0.000000 0.205726 0.250381
O O11 0.800678 0.000000 0.262513
O O12 0.000000 0.230583 0.897980
O O13 0.833823 0.000000 0.910100
O O14 0.784770 0.241249 0.954959
O O15 0.500000 0.721528 0.679396
O O16 0.682501 0.500000 0.668251
O O17 0.000000 0.764257 0.500000
O O18 0.169522 0.000000 0.500000
O O19 0.000000 0.855033 0.000000
O O20 0.243698 0.000000 0.000000
#
# Coordination Sequence:
#
# PCOD8197459 Si02
#       7
#     8   8   8   8   8   4   4
#     4   9  16  25  38  57  81 109 144 189 237 280
#     4   9  17  31  52  75  99 129 163 196 232 277
#     4  10  20  33  50  71  93 121 159 200 241 286
#     4   8  12  19  31  47  70 102 141 182 223 271
#     4  10  21  36  53  74 100 129 160 196 241 290
#     4   9  17  29  48  75 102 126 158 201 240 271
#     4   7  10  16  27  43  65  99 140 177 216 267
#
# _framework density 18.332599999999999
#
# number of rings (size 3 to 8) (size 9 to 14) (size 15 to 20)
#    0.000    3.000    0.000    2.750    0.000    5.667 
#    0.000    2.500    0.000    5.000    0.000    0.000 
#    0.000    0.000    0.000    0.750    0.000   15.333 
#
# Total GULP energy -594963.372324 kJ/mol
# GULP energy per Si atom -12395.070257 kJ/mol
# Density = 1.829087 g / cm^3
# Si number density = 18.332600 Si / 1000 Ang^3
#
#
#
# Elastic Constant Matrix: (Units=GPa)
#
#
# Indices 1 2 3 4 5 6 
#
# 1 113.4129 27.3813 95.0423 0.0000 0.0000 0.0000
# 2 27.3813 26.8164 35.7531 0.0000 0.0000 0.0000
# 3 95.0423 35.7531 193.6580 0.0000 0.0000 0.0000
# 4 0.0000 0.0000 0.0000 -2.8379 0.0000 0.0000
# 5 0.0000 0.0000 0.0000 0.0000 37.1076 0.0000
# 6 0.0000 0.0000 0.0000 0.0000 0.0000 12.7131
#
#
#
# Elastic Compliance Matrix: (Units=1/GPa)
#
#
# Indices 1 2 3 4 5 6 
#
# 1 0.016133 -0.007848 -0.006469 0.000000 0.000000 0.000000
# 2 -0.007848 0.053285 -0.005986 0.000000 0.000000 0.000000
# 3 -0.006469 -0.005986 0.009443 0.000000 0.000000 0.000000
# 4 0.000000 0.000000 0.000000 -0.352369 0.000000 0.000000
# 5 0.000000 0.000000 0.000000 0.000000 0.026949 0.000000
# 6 0.000000 0.000000 0.000000 0.000000 0.000000 0.078659
#
#
# Mechanical properties :
#
#
# Convention : Reuss Voigt Hill
#
# Bulk Modulus (GPa) = 26.13985 72.24895 49.19440
# Shear Modulus (GPa) = -43.65170 21.11061 -11.27054
#
# Velocity S-wave (km/s) = -4.88494 3.39711 -2.48217
# Velocity P-wave (km/s) = 4.18656 7.40829 4.32178
#
# Compressibility (1/GPa) = 0.03825576
#
# Stress axis : x y z
#
# Youngs Moduli (GPa) = 61.98432 18.76709 105.89314
#
# Poissons Ratio (x) = 0.14729 0.68499
# Poissons Ratio (y) = 0.48648 0.63383
# Poissons Ratio (z) = 0.40096 0.11233
#
# Static dielectric constant tensor:
#      x y z
#    x 3.386770 0.000000 0.000000 
#    y 0.000000 2.772040 0.000000 
#    z 0.000000 0.000000 3.761440 
# 
# 
# High freq. dielectric constant tensor:
#      x y z
#    x 1.702960 0.000000 0.000000 
#    y 0.000000 1.643620 0.000000 
#    z 0.000000 0.000000 1.734130 
# 
# From -- ./inp_files/34076.got.cif
#   From: 2010.03.12/outbox.cif.g09.slc.cpg/sg47_18_cif.got.tgz:34076.got - 2010.04.14 03:12:58.
