data_PCOD8197208
_publ_section_title
;
Structure prediction by ZEFSAII (Michael W. Deem and Ramdas Pophale) SiO2 
 PCOD8197208
Probable space group: P M M M
;
_chemical_formula_sum "Si O2"
_cell_formula_units_Z 52
_cell_length_a 8.846034
_cell_length_b 22.311452
_cell_length_c 14.930802
_cell_angle_alpha 90.000000
_cell_angle_beta 90.000000
_cell_angle_gamma 90.000000
_cell_volume 2946.860483
_symmetry_space_group_name_H-M "P M M M"
_symmetry_group_IT_number 47
_symmetry_cell_setting 'orthorhombic'
loop_
_space_group_symop_operation_xyz
x,y,z
-x,-y,z
x,-y,-z
-x,y,-z
-x,-y,-z
x,y,-z
-x,y,z
x,-y,z
loop_
_atom_site_type_symbol
_atom_site_label
_atom_site_fract_x
_atom_site_fract_y
_atom_site_fract_z
Si Si1 0.322257 0.500000 0.598507
Si Si2 0.671129 0.223145 0.209590
Si Si3 0.822671 0.120333 0.898345
Si Si4 0.825014 0.382396 0.659638
Si Si5 0.669968 0.000000 0.106380
Si Si6 0.819937 0.428423 0.000000
Si Si7 0.674426 0.355056 0.839293
Si Si8 0.325486 0.269510 0.401654
O O1 0.500000 0.500000 0.595089
O O2 0.250464 0.500000 0.500000
O O3 0.267366 0.557558 0.649713
O O4 0.500000 0.198570 0.209231
O O5 0.780181 0.175109 0.165274
O O6 0.679146 0.283027 0.147790
O O7 0.724783 0.231405 0.314155
O O8 0.751097 0.059756 0.857738
O O9 0.000000 0.111684 0.897514
O O10 0.764868 0.132448 0.000000
O O11 0.791061 0.363430 0.759737
O O12 0.768589 0.330936 0.592460
O O13 0.000000 0.394488 0.643186
O O14 0.500000 0.000000 0.142929
O O15 0.677748 0.000000 0.000000
O O16 0.741102 0.395505 0.917565
O O17 0.785070 0.500000 0.000000
O O18 0.000000 0.417488 0.000000
O O19 0.500000 0.374483 0.820368
O O20 0.302871 0.237349 0.500000
O O21 0.500000 0.287167 0.387007
#
# Coordination Sequence:
#
# PCOD8197208 Si02
#       8
#     4   8   8   8   4   4   8   8
#     4  11  23  37  53  72  95 126 161 197 247 317
#     4   9  19  34  53  79 106 137 178 219 259 307
#     4  10  20  32  49  76 111 148 180 215 260 308
#     4  11  22  35  53  76 102 127 158 207 263 313
#     4   9  17  31  51  75 104 143 184 221 255 298
#     4  11  25  41  57  77 103 132 171 222 274 320
#     4  10  22  40  58  76 100 135 177 217 258 313
#     4   9  18  35  56  76 102 136 173 214 261 316
#
# _framework density 17.645897999999999
#
# number of rings (size 3 to 8) (size 9 to 14) (size 15 to 20)
#    0.000    2.077    0.000    4.385    2.154    8.308 
#    0.000    0.000    0.000    0.000    0.000    0.538 
#    0.000    4.308    0.000    0.000    0.000    0.000 
#
# Total GULP energy -644429.771783 kJ/mol
# GULP energy per Si atom -12392.880227 kJ/mol
# Density = 1.760574 g / cm^3
# Si number density = 17.645898 Si / 1000 Ang^3
#
#
#
# Elastic Constant Matrix: (Units=GPa)
#
#
# Indices 1 2 3 4 5 6 
#
# 1 77.2435 38.3516 26.7619 0.0000 0.0000 0.0000
# 2 38.3516 102.6920 42.7909 0.0000 0.0000 0.0000
# 3 26.7619 42.7909 84.5115 0.0000 0.0000 0.0000
# 4 0.0000 0.0000 0.0000 5.4805 0.0000 0.0000
# 5 0.0000 0.0000 0.0000 0.0000 14.9583 0.0000
# 6 0.0000 0.0000 0.0000 0.0000 0.0000 -14.7008
#
#
#
# Elastic Compliance Matrix: (Units=1/GPa)
#
#
# Indices 1 2 3 4 5 6 
#
# 1 0.016346 -0.005003 -0.002643 0.000000 0.000000 0.000000
# 2 -0.005003 0.013873 -0.005440 0.000000 0.000000 0.000000
# 3 -0.002643 -0.005440 0.015424 0.000000 0.000000 0.000000
# 4 0.000000 0.000000 0.000000 0.182465 0.000000 0.000000
# 5 0.000000 0.000000 0.000000 0.000000 0.066853 0.000000
# 6 0.000000 0.000000 0.000000 0.000000 0.000000 -0.068023
#
#
# Mechanical properties :
#
#
# Convention : Reuss Voigt Hill
#
# Bulk Modulus (GPa) = 51.35915 53.36174 52.36044
# Shear Modulus (GPa) = 19.26038 11.58376 15.42207
#
# Velocity S-wave (km/s) = 3.30736 2.56492 2.95951
# Velocity P-wave (km/s) = 6.61464 6.25122 6.43549
#
# Compressibility (1/GPa) = 0.01947073
#
# Stress axis : x y z
#
# Youngs Moduli (GPa) = 61.17747 72.08121 64.83360
#
# Poissons Ratio (x) = 0.36065 0.17135
# Poissons Ratio (y) = 0.30609 0.35270
# Poissons Ratio (z) = 0.16168 0.39213
#
# Static dielectric constant tensor:
#      x y z
#    x 3.316380 0.000000 0.000000 
#    y 0.000000 3.228810 0.000000 
#    z 0.000000 0.000000 3.780150 
# 
# 
# High freq. dielectric constant tensor:
#      x y z
#    x 1.691780 0.000000 0.000000 
#    y 0.000000 1.665600 0.000000 
#    z 0.000000 0.000000 1.673540 
# 
# From -- ./inp_files/21536.got.cif
#   From: 2010.03.12/outbox.cif.g09.slc.cpg/sg47_11_cif.got.tgz:21536.got - 2010.04.14 03:12:58.
