data_PCOD8197289
_publ_section_title
;
Structure prediction by ZEFSAII (Michael W. Deem and Ramdas Pophale) SiO2 
 PCOD8197289
Probable space group: P M M M
;
_chemical_formula_sum "Si O2"
_cell_formula_units_Z 52
_cell_length_a 9.328697
_cell_length_b 23.597873
_cell_length_c 14.034522
_cell_angle_alpha 90.000000
_cell_angle_beta 90.000000
_cell_angle_gamma 90.000000
_cell_volume 3089.523282
_symmetry_space_group_name_H-M "P M M M"
_symmetry_group_IT_number 47
_symmetry_cell_setting 'orthorhombic'
loop_
_space_group_symop_operation_xyz
x,y,z
-x,-y,z
x,-y,-z
-x,y,-z
-x,-y,-z
x,y,-z
-x,y,z
x,-y,z
loop_
_atom_site_type_symbol
_atom_site_label
_atom_site_fract_x
_atom_site_fract_y
_atom_site_fract_z
Si Si1 0.166416 0.215409 0.701379
Si Si2 0.338245 0.437953 0.613247
Si Si3 0.836176 0.833436 0.105641
Si Si4 0.833170 0.668375 0.610245
Si Si5 0.660665 0.938629 0.886805
Si Si6 0.165435 0.000000 0.386316
Si Si7 0.666142 0.888869 0.387193
O O1 0.184439 0.216173 0.816809
O O2 0.221323 0.276224 0.665747
O O3 0.262887 0.167501 0.654264
O O4 0.000000 0.205372 0.672426
O O5 0.330237 0.436838 0.500000
O O6 0.500000 0.428181 0.648306
O O7 0.283727 0.500000 0.648980
O O8 0.242316 0.387145 0.654933
O O9 0.758001 0.887984 0.151521
O O10 0.000000 0.851186 0.095720
O O11 0.777234 0.815648 0.000000
O O12 0.792948 0.676908 0.500000
O O13 0.000000 0.658789 0.625153
O O14 0.500000 0.928742 0.849186
O O15 0.717911 0.000000 0.850745
O O16 0.663480 0.937750 0.000000
O O17 0.249197 0.944207 0.347952
O O18 0.169355 0.000000 0.500000
O O19 0.000000 0.000000 0.350331
O O20 0.679262 0.885592 0.500000
O O21 0.500000 0.892897 0.355522
#
# Coordination Sequence:
#
# PCOD8197289 Si02
#       7
#     8   8   8   8   8   4   8
#     4  10  20  33  47  65  90 121 154 186 225 273
#     4   8  14  25  41  62  90 123 153 178 209 252
#     4   9  18  32  48  65  85 111 145 185 226 269
#     4   9  17  28  43  64  90 120 153 186 216 252
#     4   8  14  26  44  63  81 102 129 165 216 275
#     4   9  17  31  51  69  86 113 146 181 225 272
#     4  10  20  33  49  69  91 114 145 186 226 266
#
# _framework density 16.831075999999999
#
# number of rings (size 3 to 8) (size 9 to 14) (size 15 to 20)
#    0.000    3.000    0.000    2.077    0.000    4.308 
#    1.385    4.615    0.000    0.000    0.000    0.000 
#    0.000    0.615    0.000    7.692    0.000    1.538 
#
# Total GULP energy -644454.342062 kJ/mol
# GULP energy per Si atom -12393.352732 kJ/mol
# Density = 1.679277 g / cm^3
# Si number density = 16.831076 Si / 1000 Ang^3
#
#
#
# Elastic Constant Matrix: (Units=GPa)
#
#
# Indices 1 2 3 4 5 6 
#
# 1 78.9197 69.2190 23.1501 0.0000 0.0000 0.0000
# 2 69.2190 163.6853 47.6273 0.0000 0.0000 0.0000
# 3 23.1501 47.6273 37.2526 0.0000 0.0000 0.0000
# 4 0.0000 0.0000 0.0000 12.0043 0.0000 0.0000
# 5 0.0000 0.0000 0.0000 0.0000 8.7121 0.0000
# 6 0.0000 0.0000 0.0000 0.0000 0.0000 12.8875
#
#
#
# Elastic Compliance Matrix: (Units=1/GPa)
#
#
# Indices 1 2 3 4 5 6 
#
# 1 0.020300 -0.007825 -0.002611 0.000000 0.000000 0.000000
# 2 -0.007825 0.012744 -0.011431 0.000000 0.000000 0.000000
# 3 -0.002611 -0.011431 0.043081 0.000000 0.000000 0.000000
# 4 0.000000 0.000000 0.000000 0.083303 0.000000 0.000000
# 5 0.000000 0.000000 0.000000 0.000000 0.114783 0.000000
# 6 0.000000 0.000000 0.000000 0.000000 0.000000 0.077595
#
#
# Mechanical properties :
#
#
# Convention : Reuss Voigt Hill
#
# Bulk Modulus (GPa) = 30.87251 62.20562 46.53907
# Shear Modulus (GPa) = 12.30504 16.04484 14.17494
#
# Velocity S-wave (km/s) = 2.70680 3.09088 2.90520
# Velocity P-wave (km/s) = 5.30579 7.05529 6.24214
#
# Compressibility (1/GPa) = 0.03239127
#
# Stress axis : x y z
#
# Youngs Moduli (GPa) = 49.26129 78.46736 23.21207
#
# Poissons Ratio (x) = 0.61397 0.06062
# Poissons Ratio (y) = 0.38545 0.26533
# Poissons Ratio (z) = 0.12864 0.89695
#
# Static dielectric constant tensor:
#      x y z
#    x 3.257050 0.000000 0.000000 
#    y 0.000000 3.424600 0.000000 
#    z 0.000000 0.000000 3.005440 
# 
# 
# High freq. dielectric constant tensor:
#      x y z
#    x 1.648950 0.000000 0.000000 
#    y 0.000000 1.635540 0.000000 
#    z 0.000000 0.000000 1.621450 
# 
# From -- ./inp_files/21472.got.cif
#   From: 2010.03.12/outbox.cif.g09.slc.cpg/sg47_11_cif.got.tgz:21472.got - 2010.04.14 03:12:58.
