data_PCOD8197536
_publ_section_title
;
Structure prediction by ZEFSAII (Michael W. Deem and Ramdas Pophale) SiO2 
 PCOD8197536
Probable space group: P M M M
;
_chemical_formula_sum "Si O2"
_cell_formula_units_Z 40
_cell_length_a 9.471292
_cell_length_b 7.999886
_cell_length_c 27.528840
_cell_angle_alpha 90.000000
_cell_angle_beta 90.000000
_cell_angle_gamma 90.000000
_cell_volume 2085.839733
_symmetry_space_group_name_H-M "P M M M"
_symmetry_group_IT_number 47
_symmetry_cell_setting 'orthorhombic'
loop_
_space_group_symop_operation_xyz
x,y,z
-x,-y,z
x,-y,-z
-x,y,-z
-x,-y,-z
x,y,-z
-x,y,z
x,-y,z
loop_
_atom_site_type_symbol
_atom_site_label
_atom_site_fract_x
_atom_site_fract_y
_atom_site_fract_z
Si Si1 0.331785 0.813141 0.116479
Si Si2 0.339320 0.307314 0.397032
Si Si3 0.668395 0.500000 0.945007
Si Si4 0.343642 0.197116 0.775309
Si Si5 0.332655 0.187336 0.500000
Si Si6 0.844317 0.193247 0.689684
O O1 0.500000 0.817577 0.115537
O O2 0.273247 0.669253 0.080559
O O3 0.282185 0.765283 0.170972
O O4 0.275955 0.000000 0.101726
O O5 0.500000 0.238829 0.392600
O O6 0.333428 0.500000 0.383449
O O7 0.279466 0.280542 0.451521
O O8 0.240029 0.209177 0.360332
O O9 0.500000 0.500000 0.943090
O O10 0.724454 0.500000 0.000000
O O11 0.500000 0.276841 0.769145
O O12 0.241212 0.277303 0.734525
O O13 0.356216 0.000000 0.767796
O O14 0.500000 0.189570 0.500000
O O15 0.272325 0.000000 0.500000
O O16 0.000000 0.276893 0.685451
O O17 0.863307 0.000000 0.701371
#
# Coordination Sequence:
#
# PCOD8197536 Si02
#       6
#     8   8   4   8   4   8
#     4   8  14  25  40  59  86 122 161 200 244 293
#     4  10  20  34  52  75 102 131 163 199 242 292
#     4   9  16  24  36  60  93 125 157 196 243 296
#     4   8  14  27  47  67  90 124 163 201 242 289
#     4   9  17  31  54  79  98 121 158 204 246 285
#     4  10  20  33  50  73 101 131 163 203 250 299
#
# _framework density 19.176929999999999
#
# number of rings (size 3 to 8) (size 9 to 14) (size 15 to 20)
#    0.000    3.000    0.000    2.700    0.000    4.000 
#    1.800    2.500    0.000    3.000    0.000    0.000 
#    0.000    1.600    0.000    7.800    0.000    8.000 
#
# Total GULP energy -495733.449164 kJ/mol
# GULP energy per Si atom -12393.336229 kJ/mol
# Density = 1.913328 g / cm^3
# Si number density = 19.176930 Si / 1000 Ang^3
#
#
#
# Elastic Constant Matrix: (Units=GPa)
#
#
# Indices 1 2 3 4 5 6 
#
# 1 69.9610 19.0583 53.8965 0.0000 0.0000 0.0000
# 2 19.0583 67.9025 44.9926 0.0000 0.0000 0.0000
# 3 53.8965 44.9926 165.4550 0.0000 0.0000 0.0000
# 4 0.0000 0.0000 0.0000 19.7520 0.0000 0.0000
# 5 0.0000 0.0000 0.0000 0.0000 2.7586 0.0000
# 6 0.0000 0.0000 0.0000 0.0000 0.0000 7.9971
#
#
#
# Elastic Compliance Matrix: (Units=1/GPa)
#
#
# Indices 1 2 3 4 5 6 
#
# 1 0.019210 -0.001519 -0.005844 0.000000 0.000000 0.000000
# 2 -0.001519 0.018084 -0.004423 0.000000 0.000000 0.000000
# 3 -0.005844 -0.004423 0.009150 0.000000 0.000000 0.000000
# 4 0.000000 0.000000 0.000000 0.050628 0.000000 0.000000
# 5 0.000000 0.000000 0.000000 0.000000 0.362499 0.000000
# 6 0.000000 0.000000 0.000000 0.000000 0.000000 0.125046
#
#
# Mechanical properties :
#
#
# Convention : Reuss Voigt Hill
#
# Bulk Modulus (GPa) = 43.72231 59.91259 51.81745
# Shear Modulus (GPa) = 8.11934 18.45963 13.28948
#
# Velocity S-wave (km/s) = 2.05988 3.10594 2.63533
# Velocity P-wave (km/s) = 5.33914 6.64623 6.02821
#
# Compressibility (1/GPa) = 0.02287162
#
# Stress axis : x y z
#
# Youngs Moduli (GPa) = 52.05627 55.29781 109.28419
#
# Poissons Ratio (x) = 0.08400 0.63871
# Poissons Ratio (y) = 0.07908 0.48334
# Poissons Ratio (z) = 0.30424 0.24457
#
# Static dielectric constant tensor:
#      x y z
#    x 3.303740 0.000000 0.000000 
#    y 0.000000 3.428860 0.000000 
#    z 0.000000 0.000000 3.703620 
# 
# 
# High freq. dielectric constant tensor:
#      x y z
#    x 1.687210 0.000000 0.000000 
#    y 0.000000 1.732010 0.000000 
#    z 0.000000 0.000000 1.753420 
# 
# From -- ./inp_files/1745.got.cif
#   From: 2010.03.12/outbox.cif.g09.slc.cpg/sg47_1_cif.got.tgz:1745.got - 2010.04.14 03:12:58.
