data_PCOD8197940
_publ_section_title
;
Structure prediction by ZEFSAII (Michael W. Deem and Ramdas Pophale) SiO2 
 PCOD8197940
Probable space group: P M M M
;
_chemical_formula_sum "Si O2"
_cell_formula_units_Z 64
_cell_length_a 14.295681
_cell_length_b 9.213353
_cell_length_c 31.260104
_cell_angle_alpha 90.000000
_cell_angle_beta 90.000000
_cell_angle_gamma 90.000000
_cell_volume 4117.304417
_symmetry_space_group_name_H-M "P M M M"
_symmetry_group_IT_number 47
_symmetry_cell_setting 'orthorhombic'
loop_
_space_group_symop_operation_xyz
x,y,z
-x,-y,z
x,-y,-z
-x,y,-z
-x,-y,-z
x,y,-z
-x,y,z
x,-y,z
loop_
_atom_site_type_symbol
_atom_site_label
_atom_site_fract_x
_atom_site_fract_y
_atom_site_fract_z
Si Si1 0.898839 0.328209 0.584946
Si Si2 0.894010 0.331631 0.316628
Si Si3 0.389041 0.659994 0.125146
Si Si4 0.709686 0.327626 0.546884
Si Si5 0.388877 0.837706 0.046551
Si Si6 0.609587 0.668458 0.220455
Si Si7 0.391553 0.329870 0.631317
Si Si8 0.282901 0.172829 0.706378
O O1 0.901126 0.500000 0.580779
O O2 0.882866 0.286239 0.634088
O O3 0.813256 0.263957 0.557314
O O4 0.000000 0.266304 0.569210
O O5 0.867552 0.500000 0.309971
O O6 0.823336 0.230799 0.289994
O O7 0.000000 0.302469 0.300901
O O8 0.500000 0.654655 0.120642
O O9 0.346872 0.500000 0.120139
O O10 0.343909 0.752705 0.086596
O O11 0.363711 0.719576 0.172304
O O12 0.678427 0.268921 0.500000
O O13 0.714995 0.500000 0.545926
O O14 0.636170 0.279791 0.583253
O O15 0.500000 0.838411 0.050781
O O16 0.349588 0.000000 0.049113
O O17 0.360975 0.769973 0.000000
O O18 0.500000 0.687443 0.229072
O O19 0.637467 0.500000 0.227876
O O20 0.663692 0.774989 0.251642
O O21 0.500000 0.296018 0.638412
O O22 0.369358 0.500000 0.638259
O O23 0.331952 0.238248 0.664572
O O24 0.284446 0.000000 0.703879
#
# Coordination Sequence:
#
# PCOD8197940 Si02
#       8
#     8   8   8   8   8   8   8   8
#     4   8  13  23  42  67  91 111 131 161 203 249
#     4   9  17  32  54  73  90 115 143 169 203 253
#     4   8  14  24  37  53  73 100 138 184 228 264
#     4   9  16  26  43  68  93 112 136 175 218 256
#     4   8  13  20  30  46  70 102 139 178 221 266
#     4   9  18  32  47  62  84 116 152 189 229 270
#     4  10  20  34  50  65  86 117 150 184 219 255
#     4  12  23  32  47  70  93 114 141 180 219 261
#
# _framework density 15.544150999999999
#
# number of rings (size 3 to 8) (size 9 to 14) (size 15 to 20)
#    0.000    2.875    1.250    3.375    0.000    3.500 
#    0.000    5.000    0.000    0.375    0.000    0.875 
#    0.000    2.000    0.000    0.000    0.000    0.625 
#
# Total GULP energy -793034.758165 kJ/mol
# GULP energy per Si atom -12391.168096 kJ/mol
# Density = 1.550877 g / cm^3
# Si number density = 15.544151 Si / 1000 Ang^3
#
#
#
# Elastic Constant Matrix: (Units=GPa)
#
#
# Indices 1 2 3 4 5 6 
#
# 1 64.0369 33.7092 35.5697 0.0000 0.0000 0.0000
# 2 33.7092 63.0954 47.6805 0.0000 0.0000 0.0000
# 3 35.5697 47.6805 114.0361 0.0000 0.0000 0.0000
# 4 0.0000 0.0000 0.0000 7.9724 0.0000 0.0000
# 5 0.0000 0.0000 0.0000 0.0000 3.7450 0.0000
# 6 0.0000 0.0000 0.0000 0.0000 0.0000 11.1248
#
#
#
# Elastic Compliance Matrix: (Units=1/GPa)
#
#
# Indices 1 2 3 4 5 6 
#
# 1 0.022361 -0.009759 -0.002894 0.000000 0.000000 0.000000
# 2 -0.009759 0.027429 -0.008425 0.000000 0.000000 0.000000
# 3 -0.002894 -0.008425 0.013194 0.000000 0.000000 0.000000
# 4 0.000000 0.000000 0.000000 0.125432 0.000000 0.000000
# 5 0.000000 0.000000 0.000000 0.000000 0.267021 0.000000
# 6 0.000000 0.000000 0.000000 0.000000 0.000000 0.089889
#
#
# Mechanical properties :
#
#
# Convention : Reuss Voigt Hill
#
# Bulk Modulus (GPa) = 48.01140 52.78746 50.39943
# Shear Modulus (GPa) = 8.41147 12.84906 10.63026
#
# Velocity S-wave (km/s) = 2.32875 2.87821 2.61794
# Velocity P-wave (km/s) = 6.17940 6.71408 6.45228
#
# Compressibility (1/GPa) = 0.02082839
#
# Stress axis : x y z
#
# Youngs Moduli (GPa) = 44.72077 36.45718 75.78989
#
# Poissons Ratio (x) = 0.35580 0.21935
# Poissons Ratio (y) = 0.43645 0.63850
# Poissons Ratio (z) = 0.12943 0.30714
#
# Static dielectric constant tensor:
#      x y z
#    x 2.895670 0.000000 0.000000 
#    y 0.000000 2.786380 0.000000 
#    z 0.000000 0.000000 3.164850 
# 
# 
# High freq. dielectric constant tensor:
#      x y z
#    x 1.562770 0.000000 0.000000 
#    y 0.000000 1.564940 0.000000 
#    z 0.000000 0.000000 1.594090 
# 
# From -- ./inp_files/8279.got.cif
#   From: 2010.03.12/outbox.cif.g09.slc.cpg/sg47_5_cif.got.tgz:8279.got - 2010.04.14 03:12:58.
