data_PCOD8197605
_publ_section_title
;
Structure prediction by ZEFSAII (Michael W. Deem and Ramdas Pophale) SiO2 
 PCOD8197605
Probable space group: P M M M
;
_chemical_formula_sum "Si O2"
_cell_formula_units_Z 48
_cell_length_a 9.085262
_cell_length_b 30.761019
_cell_length_c 8.769875
_cell_angle_alpha 90.000000
_cell_angle_beta 90.000000
_cell_angle_gamma 90.000000
_cell_volume 2450.933778
_symmetry_space_group_name_H-M "P M M M"
_symmetry_group_IT_number 47
_symmetry_cell_setting 'orthorhombic'
loop_
_space_group_symop_operation_xyz
x,y,z
-x,-y,z
x,-y,-z
-x,y,-z
-x,-y,-z
x,y,-z
-x,y,z
x,-y,z
loop_
_atom_site_type_symbol
_atom_site_label
_atom_site_fract_x
_atom_site_fract_y
_atom_site_fract_z
Si Si1 0.331775 0.249858 0.676832
Si Si2 0.670922 0.659610 0.176784
Si Si3 0.172457 0.829067 0.176037
Si Si4 0.333997 0.084572 0.181427
Si Si5 0.334381 0.500000 0.180005
Si Si6 0.169862 0.580484 0.321897
Si Si7 0.833610 0.000000 0.182032
O O1 0.309757 0.260902 0.500000
O O2 0.500000 0.236425 0.712367
O O3 0.286309 0.291865 0.773955
O O4 0.225131 0.211108 0.723650
O O5 0.500000 0.650310 0.210076
O O6 0.766876 0.627009 0.276093
O O7 0.709033 0.653391 0.000000
O O8 0.252338 0.872146 0.238553
O O9 0.000000 0.835900 0.197911
O O10 0.213383 0.820326 0.000000
O O11 0.500000 0.084479 0.245376
O O12 0.249129 0.042538 0.246118
O O13 0.333679 0.083028 0.000000
O O14 0.500000 0.500000 0.245555
O O15 0.253364 0.542942 0.233835
O O16 0.336584 0.500000 0.000000
O O17 0.192267 0.572989 0.500000
O O18 0.000000 0.578609 0.275194
O O19 0.000000 0.000000 0.244162
O O20 0.832712 0.000000 0.000000
#
# Coordination Sequence:
#
# PCOD8197605 Si02
#       7
#     8   8   8   8   4   8   4
#     4  10  21  37  57  80 106 139 179 222 269 321
#     4  10  21  38  61  87 113 144 184 227 272 325
#     4  10  20  33  50  74 104 138 176 219 269 322
#     4   9  16  26  42  65  95 132 173 216 263 316
#     4  11  24  41  62  88 116 149 192 237 280 328
#     4  11  24  40  59  86 119 153 189 229 275 327
#     4   9  15  23  37  61  96 133 168 211 264 319
#
# _framework density 19.584371999999998
#
# number of rings (size 3 to 8) (size 9 to 14) (size 15 to 20)
#    0.000    2.000    0.000    3.750    0.000   11.667 
#    0.000    0.000    0.000    0.000    0.000    0.583 
#    0.000    4.667    0.000    0.000    0.000    0.000 
#
# Total GULP energy -595418.001042 kJ/mol
# GULP energy per Si atom -12404.541688 kJ/mol
# Density = 1.953980 g / cm^3
# Si number density = 19.584372 Si / 1000 Ang^3
#
#
#
# Elastic Constant Matrix: (Units=GPa)
#
#
# Indices 1 2 3 4 5 6 
#
# 1 132.8878 71.5490 31.5211 0.0000 0.0000 0.0000
# 2 71.5490 130.4663 21.3969 0.0000 0.0000 0.0000
# 3 31.5211 21.3969 36.7519 0.0000 0.0000 0.0000
# 4 0.0000 0.0000 0.0000 -85.8295 0.0000 0.0000
# 5 0.0000 0.0000 0.0000 0.0000 23.9929 0.0000
# 6 0.0000 0.0000 0.0000 0.0000 0.0000 -174.5142
#
#
#
# Elastic Compliance Matrix: (Units=1/GPa)
#
#
# Indices 1 2 3 4 5 6 
#
# 1 0.012214 -0.005506 -0.007270 0.000000 0.000000 0.000000
# 2 -0.005506 0.010956 -0.001656 0.000000 0.000000 0.000000
# 3 -0.007270 -0.001656 0.034409 0.000000 0.000000 0.000000
# 4 0.000000 0.000000 0.000000 -0.011651 0.000000 0.000000
# 5 0.000000 0.000000 0.000000 0.000000 0.041679 0.000000
# 6 0.000000 0.000000 0.000000 0.000000 0.000000 -0.005730
#
#
# Mechanical properties :
#
#
# Convention : Reuss Voigt Hill
#
# Bulk Modulus (GPa) = 34.82557 61.00443 47.91500
# Shear Modulus (GPa) = 41.55814 -35.56090 2.99862
#
# Velocity S-wave (km/s) = 4.61152 -4.26582 1.23873
# Velocity P-wave (km/s) = 6.79527 2.63709 5.15412
#
# Compressibility (1/GPa) = 0.02871453
#
# Stress axis : x y z
#
# Youngs Moduli (GPa) = 81.87208 91.27419 29.06207
#
# Poissons Ratio (x) = 0.50256 0.21129
# Poissons Ratio (y) = 0.45079 0.04813
# Poissons Ratio (z) = 0.59522 0.15117
#
# Static dielectric constant tensor:
#      x y z
#    x 3.714310 0.000000 0.000000 
#    y 0.000000 3.576980 0.000000 
#    z 0.000000 0.000000 3.328380 
# 
# 
# High freq. dielectric constant tensor:
#      x y z
#    x 1.771690 0.000000 0.000000 
#    y 0.000000 1.778710 0.000000 
#    z 0.000000 0.000000 1.737170 
# 
# From -- ./inp_files/2669.got.cif
#   From: 2010.03.12/outbox.cif.g09.slc.cpg/sg47_2_cif.got.tgz:2669.got - 2010.04.14 03:12:58.
