data_PCOD8197976
_publ_section_title
;
Structure prediction by ZEFSAII (Michael W. Deem and Ramdas Pophale) SiO2 
 PCOD8197976
Probable space group: P M M M
;
_chemical_formula_sum "Si O2"
_cell_formula_units_Z 48
_cell_length_a 9.067179
_cell_length_b 29.354100
_cell_length_c 9.622573
_cell_angle_alpha 90.000000
_cell_angle_beta 90.000000
_cell_angle_gamma 90.000000
_cell_volume 2561.133244
_symmetry_space_group_name_H-M "P M M M"
_symmetry_group_IT_number 47
_symmetry_cell_setting 'orthorhombic'
loop_
_space_group_symop_operation_xyz
x,y,z
-x,-y,z
x,-y,-z
-x,y,-z
-x,-y,-z
x,y,-z
-x,y,z
x,-y,z
loop_
_atom_site_type_symbol
_atom_site_label
_atom_site_fract_x
_atom_site_fract_y
_atom_site_fract_z
Si Si1 0.173851 0.948820 0.000000
Si Si2 0.672386 0.197427 0.661010
Si Si3 0.663304 0.053218 0.500000
Si Si4 0.174425 0.103969 0.268188
Si Si5 0.675128 0.716757 0.158652
Si Si6 0.323985 0.632572 0.341746
Si Si7 0.324642 0.449244 0.155692
O O1 0.227011 0.917463 0.875067
O O2 0.000000 0.955170 0.000000
O O3 0.244830 0.000000 0.000000
O O4 0.706610 0.209217 0.500000
O O5 0.500000 0.187969 0.681748
O O6 0.761749 0.153836 0.709846
O O7 0.727281 0.238274 0.759604
O O8 0.500000 0.076279 0.500000
O O9 0.757902 0.067893 0.629153
O O10 0.644489 0.000000 0.500000
O O11 0.000000 0.106622 0.286164
O O12 0.500000 0.714514 0.153193
O O13 0.736032 0.674087 0.247449
O O14 0.737707 0.716332 0.000000
O O15 0.263045 0.635870 0.500000
O O16 0.500000 0.633322 0.345200
O O17 0.263704 0.586346 0.269492
O O18 0.500000 0.448134 0.156762
O O19 0.268596 0.500000 0.195038
O O20 0.269880 0.436134 0.000000
#
# Coordination Sequence:
#
# PCOD8197976 Si02
#       7
#     4   8   4   8   8   8   8
#     4   9  20  38  57  79 107 137 171 211 250 293
#     4  10  20  34  51  72 102 132 162 207 257 302
#     4  11  23  39  59  85 115 143 175 215 256 299
#     4  11  22  37  59  83 108 141 177 212 254 306
#     4   9  17  28  43  62  83 115 157 199 247 304
#     4   9  15  22  33  50  74 104 143 193 247 303
#     4   8  13  20  29  42  64  98 141 191 244 296
#
# _framework density 18.741705
#
# number of rings (size 3 to 8) (size 9 to 14) (size 15 to 20)
#    0.000    2.500    0.833    2.750    1.167    5.667 
#    0.000    2.917    0.000    3.000    0.000    0.000 
#    0.000    0.000    0.000    0.000    0.000    0.833 
#
# Total GULP energy -594897.237751 kJ/mol
# GULP energy per Si atom -12393.692453 kJ/mol
# Density = 1.869905 g / cm^3
# Si number density = 18.741705 Si / 1000 Ang^3
#
#
#
# Elastic Constant Matrix: (Units=GPa)
#
#
# Indices 1 2 3 4 5 6 
#
# 1 28.9357 33.1577 33.4895 0.0000 0.0000 0.0000
# 2 33.1577 142.0764 92.8232 0.0000 0.0000 0.0000
# 3 33.4895 92.8232 189.9091 0.0000 0.0000 0.0000
# 4 0.0000 0.0000 0.0000 48.0195 0.0000 0.0000
# 5 0.0000 0.0000 0.0000 0.0000 11.8162 0.0000
# 6 0.0000 0.0000 0.0000 0.0000 0.0000 -7.0575
#
#
#
# Elastic Compliance Matrix: (Units=1/GPa)
#
#
# Indices 1 2 3 4 5 6 
#
# 1 0.049713 -0.008630 -0.004548 0.000000 0.000000 0.000000
# 2 -0.008630 0.011839 -0.004265 0.000000 0.000000 0.000000
# 3 -0.004548 -0.004265 0.008152 0.000000 0.000000 0.000000
# 4 0.000000 0.000000 0.000000 0.020825 0.000000 0.000000
# 5 0.000000 0.000000 0.000000 0.000000 0.084630 0.000000
# 6 0.000000 0.000000 0.000000 0.000000 0.000000 -0.141694
#
#
# Mechanical properties :
#
#
# Convention : Reuss Voigt Hill
#
# Bulk Modulus (GPa) = 28.72117 75.54020 52.13069
# Shear Modulus (GPa) = 62.53313 23.98570 43.25941
#
# Velocity S-wave (km/s) = 5.78258 3.58131 4.80957
# Velocity P-wave (km/s) = 7.74224 7.58251 7.66279
#
# Compressibility (1/GPa) = 0.03481752
#
# Stress axis : x y z
#
# Youngs Moduli (GPa) = 20.11535 84.46760 122.66644
#
# Poissons Ratio (x) = 0.72900 0.55792
# Poissons Ratio (y) = 0.17361 0.52313
# Poissons Ratio (z) = 0.09149 0.36022
#
# Static dielectric constant tensor:
#      x y z
#    x 2.889580 0.000000 0.000000 
#    y 0.000000 3.677350 0.000000 
#    z 0.000000 0.000000 3.721040 
# 
# 
# High freq. dielectric constant tensor:
#      x y z
#    x 1.658920 0.000000 0.000000 
#    y 0.000000 1.744360 0.000000 
#    z 0.000000 0.000000 1.744410 
# 
# From -- ./inp_files/2790.got.cif
#   From: 2010.03.12/outbox.cif.g09.slc.cpg/sg47_2_cif.got.tgz:2790.got - 2010.04.14 03:12:58.
