data_PCOD8197805
_publ_section_title
;
Structure prediction by ZEFSAII (Michael W. Deem and Ramdas Pophale) SiO2 
 PCOD8197805
Probable space group: P M M M
;
_chemical_formula_sum "Si O2"
_cell_formula_units_Z 44
_cell_length_a 27.928697
_cell_length_b 9.279017
_cell_length_c 9.100163
_cell_angle_alpha 90.000000
_cell_angle_beta 90.000000
_cell_angle_gamma 90.000000
_cell_volume 2358.315015
_symmetry_space_group_name_H-M "P M M M"
_symmetry_group_IT_number 47
_symmetry_cell_setting 'orthorhombic'
loop_
_space_group_symop_operation_xyz
x,y,z
-x,-y,z
x,-y,-z
-x,y,-z
-x,-y,-z
x,y,-z
-x,y,z
x,-y,z
loop_
_atom_site_type_symbol
_atom_site_label
_atom_site_fract_x
_atom_site_fract_y
_atom_site_fract_z
Si Si1 0.143281 0.834966 0.674473
Si Si2 0.580522 0.165515 0.668732
Si Si3 0.500000 0.336662 0.173017
Si Si4 0.947179 0.338408 0.325432
Si Si5 0.771542 0.667861 0.827873
Si Si6 0.309101 0.166262 0.330469
O O1 0.147262 0.820446 0.500000
O O2 0.093094 0.770400 0.734268
O O3 0.186115 0.747484 0.744813
O O4 0.146211 0.000000 0.725223
O O5 0.568157 0.198213 0.500000
O O6 0.548089 0.263306 0.770313
O O7 0.635667 0.201022 0.701616
O O8 0.569434 0.000000 0.705311
O O9 0.500000 0.500000 0.228720
O O10 0.500000 0.325378 0.000000
O O11 0.946927 0.337487 0.500000
O O12 0.935809 0.500000 0.268637
O O13 0.000000 0.289886 0.269192
O O14 0.773611 0.500000 0.788428
O O15 0.721167 0.730814 0.774132
O O16 0.776732 0.695507 0.000000
O O17 0.296503 0.198015 0.500000
O O18 0.297443 0.000000 0.294314
#
# Coordination Sequence:
#
# PCOD8197805 Si02
#       6
#     8   8   4   8   8   8
#     4  10  20  33  52  78 105 135 173 216 260 307
#     4   9  19  37  60  83 106 135 174 218 261 309
#     4  11  24  37  50  76 114 149 180 217 258 302
#     4   8  14  26  46  73 104 136 169 207 254 307
#     4  11  24  38  52  74 105 140 176 214 258 309
#     4   9  19  37  60  84 107 132 168 215 264 313
#
# _framework density 18.657389999999999
#
# number of rings (size 3 to 8) (size 9 to 14) (size 15 to 20)
#    0.000    2.455    0.000    3.818    0.000    9.091 
#    0.000    7.273    0.000    0.545    0.000    3.818 
#    0.000    0.000    0.000    0.000    0.000    0.000 
#
# Total GULP energy -545612.505161 kJ/mol
# GULP energy per Si atom -12400.284208 kJ/mol
# Density = 1.861492 g / cm^3
# Si number density = 18.657390 Si / 1000 Ang^3
#
#
#
# Elastic Constant Matrix: (Units=GPa)
#
#
# Indices 1 2 3 4 5 6 
#
# 1 127.2454 79.3493 36.2172 0.0000 0.0000 0.0000
# 2 79.3493 129.8718 44.8968 0.0000 0.0000 0.0000
# 3 36.2172 44.8968 35.9286 0.0000 0.0000 0.0000
# 4 0.0000 0.0000 0.0000 27.1087 0.0000 0.0000
# 5 0.0000 0.0000 0.0000 0.0000 -4.8629 0.0000
# 6 0.0000 0.0000 0.0000 0.0000 0.0000 14.8418
#
#
#
# Elastic Compliance Matrix: (Units=1/GPa)
#
#
# Indices 1 2 3 4 5 6 
#
# 1 0.013337 -0.006163 -0.005742 0.000000 0.000000 0.000000
# 2 -0.006163 0.016404 -0.014286 0.000000 0.000000 0.000000
# 3 -0.005742 -0.014286 0.051473 0.000000 0.000000 0.000000
# 4 0.000000 0.000000 0.000000 0.036889 0.000000 0.000000
# 5 0.000000 0.000000 0.000000 0.000000 -0.205637 0.000000
# 6 0.000000 0.000000 0.000000 0.000000 0.000000 0.067377
#
#
# Mechanical properties :
#
#
# Convention : Reuss Voigt Hill
#
# Bulk Modulus (GPa) = 34.68458 68.21915 51.45187
# Shear Modulus (GPa) = 119.51207 16.25633 67.88420
#
# Velocity S-wave (km/s) = 8.01219 2.95499 6.03851
# Velocity P-wave (km/s) = 10.20903 6.94883 8.73242
#
# Compressibility (1/GPa) = 0.02883125
#
# Stress axis : x y z
#
# Youngs Moduli (GPa) = 74.98174 60.95910 19.42762
#
# Poissons Ratio (x) = 0.37572 0.11155
# Poissons Ratio (y) = 0.46215 0.27755
# Poissons Ratio (z) = 0.43053 0.87087
#
# Static dielectric constant tensor:
#      x y z
#    x 3.627620 0.000000 0.000000 
#    y 0.000000 3.548480 0.000000 
#    z 0.000000 0.000000 3.151430 
# 
# 
# High freq. dielectric constant tensor:
#      x y z
#    x 1.742050 0.000000 0.000000 
#    y 0.000000 1.727570 0.000000 
#    z 0.000000 0.000000 1.696610 
# 
# From -- ./inp_files/13607.got.cif
#   From: 2010.03.12/outbox.cif.g09.slc.cpg/sg47_7_cif.got.tgz:13607.got - 2010.04.14 03:12:58.
