data_PCOD8197610
_publ_section_title
;
Structure prediction by ZEFSAII (Michael W. Deem and Ramdas Pophale) SiO2 
 PCOD8197610
Probable space group: P M M M
;
_chemical_formula_sum "Si O2"
_cell_formula_units_Z 44
_cell_length_a 13.390692
_cell_length_b 18.971488
_cell_length_c 8.823361
_cell_angle_alpha 90.000000
_cell_angle_beta 90.000000
_cell_angle_gamma 90.000000
_cell_volume 2241.498563
_symmetry_space_group_name_H-M "P M M M"
_symmetry_group_IT_number 47
_symmetry_cell_setting 'orthorhombic'
loop_
_space_group_symop_operation_xyz
x,y,z
-x,-y,z
x,-y,-z
-x,y,-z
-x,-y,-z
x,y,-z
-x,y,z
x,-y,z
loop_
_atom_site_type_symbol
_atom_site_label
_atom_site_fract_x
_atom_site_fract_y
_atom_site_fract_z
Si Si1 0.500000 0.417362 0.675808
Si Si2 0.886994 0.173479 0.830016
Si Si3 0.887567 0.320323 0.322184
Si Si4 0.690706 0.656220 0.177271
Si Si5 0.264692 0.920967 0.674030
Si Si6 0.613819 0.788248 0.326517
O O1 0.500000 0.500000 0.704183
O O2 0.500000 0.396983 0.500000
O O3 0.601057 0.386942 0.747182
O O4 0.870678 0.238470 0.716573
O O5 0.825312 0.105869 0.777103
O O6 0.000000 0.147518 0.827168
O O7 0.855798 0.197102 0.000000
O O8 0.875220 0.331152 0.500000
O O9 0.800910 0.366546 0.239428
O O10 0.000000 0.343661 0.269970
O O11 0.678718 0.739007 0.216379
O O12 0.686706 0.642384 0.000000
O O13 0.229755 0.919246 0.500000
O O14 0.359441 0.869935 0.699820
O O15 0.295220 0.000000 0.723227
O O16 0.634337 0.765701 0.500000
O O17 0.500000 0.776767 0.281819
#
# Coordination Sequence:
#
# PCOD8197610 Si02
#       6
#     4   8   8   8   8   8
#     4  11  25  45  69  97 130 167 204 239 281 340
#     4  10  20  33  50  74 105 141 185 241 303 359
#     4  10  20  35  58  87 119 157 203 251 296 351
#     4  12  23  36  61  94 128 161 195 243 299 355
#     4  10  21  35  51  73 103 144 194 247 302 359
#     4  10  20  35  56  79 108 147 194 244 292 355
#
# _framework density 19.629724
#
# number of rings (size 3 to 8) (size 9 to 14) (size 15 to 20)
#    0.000    1.545    2.727    3.000    0.000    4.000 
#    0.000    3.636    0.000    0.545    0.000    6.364 
#    0.000    0.000    0.000    0.000    0.000    0.000 
#
# Total GULP energy -545541.361508 kJ/mol
# GULP energy per Si atom -12398.667307 kJ/mol
# Density = 1.958505 g / cm^3
# Si number density = 19.629724 Si / 1000 Ang^3
#
#
#
# Elastic Constant Matrix: (Units=GPa)
#
#
# Indices 1 2 3 4 5 6 
#
# 1 150.4907 39.0816 67.3529 0.0000 0.0000 0.0000
# 2 39.0816 63.4595 35.2256 0.0000 0.0000 0.0000
# 3 67.3529 35.2256 106.3325 0.0000 0.0000 0.0000
# 4 0.0000 0.0000 0.0000 6.7390 0.0000 0.0000
# 5 0.0000 0.0000 0.0000 0.0000 30.5187 0.0000
# 6 0.0000 0.0000 0.0000 0.0000 0.0000 17.6065
#
#
#
# Elastic Compliance Matrix: (Units=1/GPa)
#
#
# Indices 1 2 3 4 5 6 
#
# 1 0.009766 -0.003162 -0.005138 0.000000 0.000000 0.000000
# 2 -0.003162 0.020333 -0.004733 0.000000 0.000000 0.000000
# 3 -0.005138 -0.004733 0.014227 0.000000 0.000000 0.000000
# 4 0.000000 0.000000 0.000000 0.148390 0.000000 0.000000
# 5 0.000000 0.000000 0.000000 0.000000 0.032767 0.000000
# 6 0.000000 0.000000 0.000000 0.000000 0.000000 0.056797
#
#
# Mechanical properties :
#
#
# Convention : Reuss Voigt Hill
#
# Bulk Modulus (GPa) = 54.76748 67.06700 60.91724
# Shear Modulus (GPa) = 15.90167 22.88100 19.39134
#
# Velocity S-wave (km/s) = 2.84928 3.41784 3.14643
# Velocity P-wave (km/s) = 6.22779 7.05802 6.65586
#
# Compressibility (1/GPa) = 0.01825901
#
# Stress axis : x y z
#
# Youngs Moduli (GPa) = 102.39853 49.18219 70.28870
#
# Poissons Ratio (x) = 0.15552 0.36116
# Poissons Ratio (y) = 0.32379 0.33266
# Poissons Ratio (z) = 0.52615 0.23277
#
# Static dielectric constant tensor:
#      x y z
#    x 3.906290 0.000000 0.000000 
#    y 0.000000 3.316990 0.000000 
#    z 0.000000 0.000000 3.585580 
# 
# 
# High freq. dielectric constant tensor:
#      x y z
#    x 1.784340 0.000000 0.000000 
#    y 0.000000 1.727420 0.000000 
#    z 0.000000 0.000000 1.765550 
# 
# From -- ./inp_files/6192.got.cif
#   From: 2010.03.12/outbox.cif.g09.slc.cpg/sg47_4_cif.got.tgz:6192.got - 2010.04.14 03:12:58.
