data_PCOD8197142
_publ_section_title
;
Structure prediction by ZEFSAII (Michael W. Deem and Ramdas Pophale) SiO2 
 PCOD8197142
Probable space group: P M M M
;
_chemical_formula_sum "Si O2"
_cell_formula_units_Z 64
_cell_length_a 14.524960
_cell_length_b 29.131606
_cell_length_c 8.823549
_cell_angle_alpha 90.000000
_cell_angle_beta 90.000000
_cell_angle_gamma 90.000000
_cell_volume 3733.556040
_symmetry_space_group_name_H-M "P M M M"
_symmetry_group_IT_number 47
_symmetry_cell_setting 'orthorhombic'
loop_
_space_group_symop_operation_xyz
x,y,z
-x,-y,z
x,-y,-z
-x,y,-z
-x,-y,-z
x,y,-z
-x,y,z
x,-y,z
loop_
_atom_site_type_symbol
_atom_site_label
_atom_site_fract_x
_atom_site_fract_y
_atom_site_fract_z
Si Si1 0.238717 0.051364 0.823257
Si Si2 0.395070 0.098886 0.325847
Si Si3 0.390923 0.548524 0.830982
Si Si4 0.894044 0.768322 0.178019
Si Si5 0.101467 0.871733 0.820588
Si Si6 0.607268 0.194077 0.174024
Si Si7 0.394931 0.352350 0.818761
Si Si8 0.277733 0.272345 0.322088
O O1 0.333835 0.056683 0.732191
O O2 0.167999 0.088893 0.755143
O O3 0.200302 0.000000 0.795349
O O4 0.257276 0.059934 0.000000
O O5 0.374830 0.110820 0.500000
O O6 0.500000 0.083888 0.301949
O O7 0.369674 0.142687 0.224056
O O8 0.500000 0.549782 0.841332
O O9 0.360133 0.500000 0.748428
O O10 0.362179 0.597169 0.755078
O O11 0.349596 0.547128 0.000000
O O12 0.865141 0.820491 0.223211
O O13 0.827415 0.733323 0.265703
O O14 0.000000 0.758915 0.224960
O O15 0.881238 0.760738 0.000000
O O16 0.000000 0.880251 0.751855
O O17 0.096207 0.876007 0.000000
O O18 0.500000 0.205182 0.195334
O O19 0.663788 0.227946 0.279082
O O20 0.638059 0.200435 0.000000
O O21 0.500000 0.341001 0.766575
O O22 0.323181 0.316504 0.753468
O O23 0.390771 0.351627 0.000000
O O24 0.277952 0.279301 0.500000
#
# Coordination Sequence:
#
# PCOD8197142 Si02
#       8
#     8   8   8   8   8   8   8   8
#     4  10  20  32  49  74  99 123 151 181 215 261
#     4  10  21  36  52  69  90 118 153 192 234 276
#     4   7  10  19  38  63  88 117 159 209 251 281
#     4   9  18  34  55  73  89 117 159 201 238 281
#     4   8  15  30  52  75  95 114 140 178 223 269
#     4  10  20  34  52  71  92 121 157 195 233 276
#     4   9  17  29  45  66  95 132 171 207 242 281
#     4  12  23  31  44  68 100 133 160 192 235 282
#
# _framework density 17.141835
#
# number of rings (size 3 to 8) (size 9 to 14) (size 15 to 20)
#    0.000    2.625    0.000    4.875    0.000    5.250 
#    0.000    2.500    0.000    1.500    0.000    2.625 
#    0.000    0.500    0.000    5.750    0.000    1.875 
#
# Total GULP energy -793122.999050 kJ/mol
# GULP energy per Si atom -12392.546860 kJ/mol
# Density = 1.710282 g / cm^3
# Si number density = 17.141835 Si / 1000 Ang^3
#
#
#
# Elastic Constant Matrix: (Units=GPa)
#
#
# Indices 1 2 3 4 5 6 
#
# 1 81.2063 64.2839 29.1549 0.0000 0.0000 0.0000
# 2 64.2839 110.2575 25.7666 0.0000 0.0000 0.0000
# 3 29.1549 25.7666 39.5729 0.0000 0.0000 0.0000
# 4 0.0000 0.0000 0.0000 3.3768 0.0000 0.0000
# 5 0.0000 0.0000 0.0000 0.0000 14.2563 0.0000
# 6 0.0000 0.0000 0.0000 0.0000 0.0000 17.0008
#
#
#
# Elastic Compliance Matrix: (Units=1/GPa)
#
#
# Indices 1 2 3 4 5 6 
#
# 1 0.026473 -0.012829 -0.011151 0.000000 0.000000 0.000000
# 2 -0.012829 0.016914 -0.001562 0.000000 0.000000 0.000000
# 3 -0.011151 -0.001562 0.034502 0.000000 0.000000 0.000000
# 4 0.000000 0.000000 0.000000 0.296137 0.000000 0.000000
# 5 0.000000 0.000000 0.000000 0.000000 0.070144 0.000000
# 6 0.000000 0.000000 0.000000 0.000000 0.000000 0.058821
#
#
# Mechanical properties :
#
#
# Convention : Reuss Voigt Hill
#
# Bulk Modulus (GPa) = 37.30401 52.16082 44.73241
# Shear Modulus (GPa) = 8.88085 14.38221 11.63153
#
# Velocity S-wave (km/s) = 2.27861 2.89971 2.60772
# Velocity P-wave (km/s) = 5.36022 6.45803 5.93456
#
# Compressibility (1/GPa) = 0.02680677
#
# Stress axis : x y z
#
# Youngs Moduli (GPa) = 37.77409 59.12147 28.98407
#
# Poissons Ratio (x) = 0.75846 0.32319
# Poissons Ratio (y) = 0.48460 0.04526
# Poissons Ratio (z) = 0.42121 0.09233
#
# Static dielectric constant tensor:
#      x y z
#    x 3.229530 0.000000 0.000000 
#    y 0.000000 3.524380 0.000000 
#    z 0.000000 0.000000 2.922190 
# 
# 
# High freq. dielectric constant tensor:
#      x y z
#    x 1.642580 0.000000 0.000000 
#    y 0.000000 1.659170 0.000000 
#    z 0.000000 0.000000 1.634210 
# 
# From -- ./inp_files/8346.got.cif
#   From: 2010.03.12/outbox.cif.g09.slc.cpg/sg47_5_cif.got.tgz:8346.got - 2010.04.14 03:12:58.
