data_PCOD8197266
_publ_section_title
;
Structure prediction by ZEFSAII (Michael W. Deem and Ramdas Pophale) SiO2 
 PCOD8197266
Probable space group: P M M M
;
_chemical_formula_sum "Si O2"
_cell_formula_units_Z 44
_cell_length_a 7.873293
_cell_length_b 9.543425
_cell_length_c 31.876940
_cell_angle_alpha 90.000000
_cell_angle_beta 90.000000
_cell_angle_gamma 90.000000
_cell_volume 2395.175295
_symmetry_space_group_name_H-M "P M M M"
_symmetry_group_IT_number 47
_symmetry_cell_setting 'orthorhombic'
loop_
_space_group_symop_operation_xyz
x,y,z
-x,-y,z
x,-y,-z
-x,y,-z
-x,-y,-z
x,y,-z
-x,y,z
x,-y,z
loop_
_atom_site_type_symbol
_atom_site_label
_atom_site_fract_x
_atom_site_fract_y
_atom_site_fract_z
Si Si1 0.303403 0.838053 0.952649
Si Si2 0.808735 0.832896 0.323388
Si Si3 0.801882 0.846312 0.586320
Si Si4 0.302554 0.156948 0.500000
Si Si5 0.189191 0.660203 0.121961
Si Si6 0.500000 0.334721 0.820009
Si Si7 0.500000 0.833313 0.265337
O O1 0.500000 0.799134 0.947208
O O2 0.193860 0.747219 0.920830
O O3 0.272176 0.000000 0.942253
O O4 0.243873 0.804620 0.000000
O O5 0.749006 0.773280 0.369422
O O6 0.670098 0.783435 0.289598
O O7 0.000000 0.779904 0.311150
O O8 0.810723 0.000000 0.326751
O O9 0.754362 0.763247 0.543170
O O10 0.000000 0.865371 0.589289
O O11 0.713344 0.000000 0.583314
O O12 0.500000 0.148711 0.500000
O O13 0.219888 0.000000 0.500000
O O14 0.226118 0.500000 0.110002
O O15 0.331299 0.711506 0.154735
O O16 0.000000 0.678164 0.141632
O O17 0.500000 0.500000 0.809861
O O18 0.500000 0.245787 0.778188
O O19 0.500000 0.000000 0.258184
#
# Coordination Sequence:
#
# PCOD8197266 Si02
#       7
#     8   8   8   4   8   4   4
#     4   9  18  33  54  81 113 146 177 210 249 292
#     4   8  15  27  42  62  88 116 149 193 241 285
#     4   8  13  21  31  44  70 109 146 181 223 270
#     4   9  15  17  23  43  69 103 149 188 213 256
#     4  10  21  37  57  79 103 136 176 212 249 298
#     4  10  22  40  55  73 103 132 159 204 262 307
#     4  10  20  32  52  74  91 118 158 201 242 295
#
# _framework density 18.370263999999999
#
# number of rings (size 3 to 8) (size 9 to 14) (size 15 to 20)
#    0.000    3.000    0.909    1.909    1.273    3.636 
#    0.000    2.727    0.000    0.000    0.000    0.000 
#    0.000    0.000    0.000    1.636    0.000    8.727 
#
# Total GULP energy -545090.709211 kJ/mol
# GULP energy per Si atom -12388.425209 kJ/mol
# Density = 1.832845 g / cm^3
# Si number density = 18.370264 Si / 1000 Ang^3
#
#
#
# Elastic Constant Matrix: (Units=GPa)
#
#
# Indices 1 2 3 4 5 6 
#
# 1 107.5066 24.1979 74.8367 0.0000 0.0000 0.0000
# 2 24.1979 26.3123 41.3475 0.0000 0.0000 0.0000
# 3 74.8367 41.3475 159.6135 0.0000 0.0000 0.0000
# 4 0.0000 0.0000 0.0000 -4.0687 0.0000 0.0000
# 5 0.0000 0.0000 0.0000 0.0000 20.3926 0.0000
# 6 0.0000 0.0000 0.0000 0.0000 0.0000 12.2407
#
#
#
# Elastic Compliance Matrix: (Units=1/GPa)
#
#
# Indices 1 2 3 4 5 6 
#
# 1 0.014098 -0.004348 -0.005483 0.000000 0.000000 0.000000
# 2 -0.004348 0.065438 -0.014913 0.000000 0.000000 0.000000
# 3 -0.005483 -0.014913 0.012699 0.000000 0.000000 0.000000
# 4 0.000000 0.000000 0.000000 -0.245776 0.000000 0.000000
# 5 0.000000 0.000000 0.000000 0.000000 0.049037 0.000000
# 6 0.000000 0.000000 0.000000 0.000000 0.000000 0.081694
#
#
# Mechanical properties :
#
#
# Convention : Reuss Voigt Hill
#
# Bulk Modulus (GPa) = 23.39398 63.79963 43.59681
# Shear Modulus (GPa) = 122.16740 15.91626 69.04183
#
# Velocity S-wave (km/s) = 8.16377 2.94669 6.13719
# Velocity P-wave (km/s) = 10.08093 6.81047 8.60255
#
# Compressibility (1/GPa) = 0.04274604
#
# Stress axis : x y z
#
# Youngs Moduli (GPa) = 70.93445 15.28167 78.74445
#
# Poissons Ratio (x) = 0.06644 0.43179
# Poissons Ratio (y) = 0.30841 1.17431
# Poissons Ratio (z) = 0.38897 0.22790
#
# Static dielectric constant tensor:
#      x y z
#    x 3.506490 0.000000 0.000000 
#    y 0.000000 2.788700 0.000000 
#    z 0.000000 0.000000 3.834290 
# 
# 
# High freq. dielectric constant tensor:
#      x y z
#    x 1.720930 0.000000 0.000000 
#    y 0.000000 1.637030 0.000000 
#    z 0.000000 0.000000 1.722200 
# 
# From -- ./inp_files/33980.got.cif
#   From: 2010.03.12/outbox.cif.g09.slc.cpg/sg47_17_cif.got.tgz:33980.got - 2010.04.14 03:12:58.
