data_PCOD8197700
_publ_section_title
;
Structure prediction by ZEFSAII (Michael W. Deem and Ramdas Pophale) SiO2 
 PCOD8197700
Probable space group: P M M M
;
_chemical_formula_sum "Si O2"
_cell_formula_units_Z 52
_cell_length_a 14.441609
_cell_length_b 8.010131
_cell_length_c 24.402356
_cell_angle_alpha 90.000000
_cell_angle_beta 90.000000
_cell_angle_gamma 90.000000
_cell_volume 2822.844531
_symmetry_space_group_name_H-M "P M M M"
_symmetry_group_IT_number 47
_symmetry_cell_setting 'orthorhombic'
loop_
_space_group_symop_operation_xyz
x,y,z
-x,-y,z
x,-y,-z
-x,y,-z
-x,-y,-z
x,y,-z
-x,y,z
x,-y,z
loop_
_atom_site_type_symbol
_atom_site_label
_atom_site_fract_x
_atom_site_fract_y
_atom_site_fract_z
Si Si1 0.392490 0.186978 0.132136
Si Si2 0.103404 0.806773 0.724117
Si Si3 0.290915 0.302691 0.438384
Si Si4 0.389983 0.500000 0.938660
Si Si5 0.286596 0.689472 0.232725
Si Si6 0.099971 0.692023 0.396269
Si Si7 0.395269 0.193007 0.665260
O O1 0.500000 0.218649 0.144690
O O2 0.354892 0.330250 0.091033
O O3 0.339658 0.194828 0.189721
O O4 0.377283 0.000000 0.107309
O O5 0.178438 0.740284 0.767443
O O6 0.117695 0.706121 0.668322
O O7 0.000000 0.777319 0.748152
O O8 0.121110 0.000000 0.711234
O O9 0.321926 0.257745 0.500000
O O10 0.291384 0.500000 0.427937
O O11 0.186946 0.229055 0.428564
O O12 0.362511 0.218235 0.397067
O O13 0.500000 0.500000 0.940916
O O14 0.348600 0.500000 0.000000
O O15 0.296903 0.500000 0.213140
O O16 0.329413 0.708046 0.293258
O O17 0.093451 0.500000 0.412588
O O18 0.000000 0.777412 0.411328
O O19 0.500000 0.260295 0.670615
O O20 0.390020 0.000000 0.680725
#
# Coordination Sequence:
#
# PCOD8197700 Si02
#       7
#     8   8   8   4   8   8   8
#     4  10  20  34  53  81 117 155 196 238 278 322
#     4  10  20  33  51  76 106 138 171 211 263 325
#     4  10  21  36  53  74  98 127 166 211 261 320
#     4   9  18  34  54  80 117 159 202 240 276 319
#     4  12  22  34  55  80 109 142 178 223 275 328
#     4   9  17  31  51  74  99 127 161 202 254 319
#     4  11  24  39  54  73  96 129 173 217 271 332
#
# _framework density 18.421135
#
# number of rings (size 3 to 8) (size 9 to 14) (size 15 to 20)
#    0.000    1.769    2.308    2.769    0.000    5.231 
#    0.000    4.615    0.000    0.000    0.000    3.231 
#    0.000    1.231    0.000    3.231    0.000    0.154 
#
# Total GULP energy -644729.276934 kJ/mol
# GULP energy per Si atom -12398.639941 kJ/mol
# Density = 1.837921 g / cm^3
# Si number density = 18.421135 Si / 1000 Ang^3
#
#
#
# Elastic Constant Matrix: (Units=GPa)
#
#
# Indices 1 2 3 4 5 6 
#
# 1 99.0942 28.1430 31.6509 0.0000 0.0000 0.0000
# 2 28.1430 77.6038 26.0485 0.0000 0.0000 0.0000
# 3 31.6509 26.0485 86.4401 0.0000 0.0000 0.0000
# 4 0.0000 0.0000 0.0000 16.5586 0.0000 0.0000
# 5 0.0000 0.0000 0.0000 0.0000 13.9467 0.0000
# 6 0.0000 0.0000 0.0000 0.0000 0.0000 22.3249
#
#
#
# Elastic Compliance Matrix: (Units=1/GPa)
#
#
# Indices 1 2 3 4 5 6 
#
# 1 0.012115 -0.003231 -0.003462 0.000000 0.000000 0.000000
# 2 -0.003231 0.015198 -0.003397 0.000000 0.000000 0.000000
# 3 -0.003462 -0.003397 0.013860 0.000000 0.000000 0.000000
# 4 0.000000 0.000000 0.000000 0.060392 0.000000 0.000000
# 5 0.000000 0.000000 0.000000 0.000000 0.071702 0.000000
# 6 0.000000 0.000000 0.000000 0.000000 0.000000 0.044793
#
#
# Mechanical properties :
#
#
# Convention : Reuss Voigt Hill
#
# Bulk Modulus (GPa) = 47.63632 48.31365 47.97499
# Shear Modulus (GPa) = 20.38841 22.38575 21.38708
#
# Velocity S-wave (km/s) = 3.33046 3.48978 3.41105
# Velocity P-wave (km/s) = 6.38005 6.52092 6.45087
#
# Compressibility (1/GPa) = 0.02099238
#
# Stress axis : x y z
#
# Youngs Moduli (GPa) = 82.54257 65.79845 72.15000
#
# Poissons Ratio (x) = 0.21262 0.24980
# Poissons Ratio (y) = 0.26672 0.24507
# Poissons Ratio (z) = 0.28578 0.22350
#
# Static dielectric constant tensor:
#      x y z
#    x 3.573720 0.000000 0.000000 
#    y 0.000000 3.402320 0.000000 
#    z 0.000000 0.000000 3.105970 
# 
# 
# High freq. dielectric constant tensor:
#      x y z
#    x 1.709420 0.000000 0.000000 
#    y 0.000000 1.718980 0.000000 
#    z 0.000000 0.000000 1.674930 
# 
# From -- ./inp_files/25425.got.cif
#   From: 2010.03.12/outbox.cif.g09.slc.cpg/sg47_13_cif.got.tgz:25425.got - 2010.04.14 03:12:58.
