data_PCOD8197165
_publ_section_title
;
Structure prediction by ZEFSAII (Michael W. Deem and Ramdas Pophale) SiO2 
 PCOD8197165
Probable space group: P M M M
;
_chemical_formula_sum "Si O2"
_cell_formula_units_Z 48
_cell_length_a 30.984263
_cell_length_b 9.363127
_cell_length_c 9.321231
_cell_angle_alpha 90.000000
_cell_angle_beta 90.000000
_cell_angle_gamma 90.000000
_cell_volume 2704.178499
_symmetry_space_group_name_H-M "P M M M"
_symmetry_group_IT_number 47
_symmetry_cell_setting 'orthorhombic'
loop_
_space_group_symop_operation_xyz
x,y,z
-x,-y,z
x,-y,-z
-x,y,-z
-x,-y,-z
x,y,-z
-x,y,z
x,-y,z
loop_
_atom_site_type_symbol
_atom_site_label
_atom_site_fract_x
_atom_site_fract_y
_atom_site_fract_z
Si Si1 0.711811 0.665829 0.664788
Si Si2 0.047543 0.340107 0.329810
Si Si3 0.870800 0.167307 0.332206
Si Si4 0.547262 0.830235 0.161759
Si Si5 0.371557 0.834768 0.667144
Si Si6 0.797310 0.334279 0.168266
O O1 0.722642 0.705845 0.500000
O O2 0.700943 0.500000 0.680509
O O3 0.670561 0.752030 0.722332
O O4 0.751856 0.710646 0.763108
O O5 0.046579 0.339264 0.500000
O O6 0.058660 0.500000 0.274885
O O7 0.083751 0.230406 0.274984
O O8 0.000000 0.293977 0.272172
O O9 0.863639 0.201888 0.500000
O O10 0.833386 0.238636 0.241167
O O11 0.871066 0.000000 0.302231
O O12 0.500000 0.776488 0.216036
O O13 0.585851 0.768435 0.258578
O O14 0.547988 0.000000 0.169019
O O15 0.554877 0.777207 0.000000
O O16 0.378238 0.810628 0.500000
O O17 0.365107 0.000000 0.706899
O O18 0.807408 0.500000 0.199963
O O19 0.795691 0.301947 0.000000
#
# Coordination Sequence:
#
# PCOD8197165 Si02
#       6
#     8   8   8   8   8   8
#     4   9  18  33  51  69  92 123 155 189 235 289
#     4   8  14  26  46  72 100 130 165 203 240 280
#     4  10  20  32  49  75 104 133 163 197 242 292
#     4   8  14  25  41  62  89 120 152 185 223 269
#     4   9  17  28  44  68  93 115 145 188 232 272
#     4  10  21  36  53  72  94 124 164 205 243 287
#
# _framework density 17.750306999999999
#
# number of rings (size 3 to 8) (size 9 to 14) (size 15 to 20)
#    0.000    3.000    0.000    2.000    0.000    4.000 
#    0.000    5.000    0.000    1.000    0.000    7.000 
#    0.000    0.000    0.000    0.000    0.000    0.000 
#
# Total GULP energy -595037.814745 kJ/mol
# GULP energy per Si atom -12396.621141 kJ/mol
# Density = 1.770991 g / cm^3
# Si number density = 17.750307 Si / 1000 Ang^3
#
#
#
# Elastic Constant Matrix: (Units=GPa)
#
#
# Indices 1 2 3 4 5 6 
#
# 1 196.2789 80.7884 74.8823 0.0000 0.0000 0.0000
# 2 80.7884 68.0446 42.5983 0.0000 0.0000 0.0000
# 3 74.8823 42.5983 64.3960 0.0000 0.0000 0.0000
# 4 0.0000 0.0000 0.0000 17.1800 0.0000 0.0000
# 5 0.0000 0.0000 0.0000 0.0000 0.0484 0.0000
# 6 0.0000 0.0000 0.0000 0.0000 0.0000 24.1729
#
#
#
# Elastic Compliance Matrix: (Units=1/GPa)
#
#
# Indices 1 2 3 4 5 6 
#
# 1 0.011806 -0.009256 -0.007606 0.000000 0.000000 0.000000
# 2 -0.009256 0.032341 -0.010630 0.000000 0.000000 0.000000
# 3 -0.007606 -0.010630 0.031406 0.000000 0.000000 0.000000
# 4 0.000000 0.000000 0.000000 0.058207 0.000000 0.000000
# 5 0.000000 0.000000 0.000000 0.000000 20.645438 0.000000
# 6 0.000000 0.000000 0.000000 0.000000 0.000000 0.041369
#
#
# Mechanical properties :
#
#
# Convention : Reuss Voigt Hill
#
# Bulk Modulus (GPa) = 48.61946 80.58415 64.60181
# Shear Modulus (GPa) = 0.23944 16.97696 8.60820
#
# Velocity S-wave (km/s) = 0.36767 3.09598 2.20457
# Velocity P-wave (km/s) = 5.25647 7.63396 6.55393
#
# Compressibility (1/GPa) = 0.02056790
#
# Stress axis : x y z
#
# Youngs Moduli (GPa) = 84.70093 30.92096 31.84139
#
# Poissons Ratio (x) = 0.28620 0.24219
# Poissons Ratio (y) = 0.78397 0.33849
# Poissons Ratio (z) = 0.64424 0.32870
#
# Static dielectric constant tensor:
#      x y z
#    x 3.728440 0.000000 0.000000 
#    y 0.000000 3.128140 0.000000 
#    z 0.000000 0.000000 3.113270 
# 
# 
# High freq. dielectric constant tensor:
#      x y z
#    x 1.703810 0.000000 0.000000 
#    y 0.000000 1.662930 0.000000 
#    z 0.000000 0.000000 1.661810 
# 
# From -- ./inp_files/13790.got.cif
#   From: 2010.03.12/outbox.cif.g09.slc.cpg/sg47_7_cif.got.tgz:13790.got - 2010.04.14 03:12:58.
