data_PCOD8197578
_publ_section_title
;
Structure prediction by ZEFSAII (Michael W. Deem and Ramdas Pophale) SiO2 
 PCOD8197578
Probable space group: P M M M
;
_chemical_formula_sum "Si O2"
_cell_formula_units_Z 40
_cell_length_a 27.117409
_cell_length_b 9.393579
_cell_length_c 7.935720
_cell_angle_alpha 90.000000
_cell_angle_beta 90.000000
_cell_angle_gamma 90.000000
_cell_volume 2021.462176
_symmetry_space_group_name_H-M "P M M M"
_symmetry_group_IT_number 47
_symmetry_cell_setting 'orthorhombic'
loop_
_space_group_symop_operation_xyz
x,y,z
-x,-y,z
x,-y,-z
-x,y,-z
-x,-y,-z
x,y,-z
-x,y,z
x,-y,z
loop_
_atom_site_type_symbol
_atom_site_label
_atom_site_fract_x
_atom_site_fract_y
_atom_site_fract_z
Si Si1 0.000000 0.339357 0.798494
Si Si2 0.380392 0.835229 0.187813
Si Si3 0.291187 0.334374 0.306797
Si Si4 0.555186 0.830712 0.500000
Si Si5 0.909369 0.157766 0.195152
Si Si6 0.180041 0.340577 0.699332
O O1 0.048101 0.257753 0.725831
O O2 0.000000 0.500000 0.726449
O O3 0.000000 0.343655 0.000000
O O4 0.328483 0.754484 0.193158
O O5 0.417493 0.775161 0.330752
O O6 0.369666 0.000000 0.223276
O O7 0.403190 0.813364 0.000000
O O8 0.297775 0.287100 0.500000
O O9 0.303133 0.500000 0.285383
O O10 0.235622 0.301916 0.245175
O O11 0.500000 0.766916 0.500000
O O12 0.552844 0.000000 0.500000
O O13 0.856058 0.227278 0.217993
O O14 0.910282 0.000000 0.278880
O O15 0.920773 0.141028 0.000000
O O16 0.175479 0.333769 0.500000
O O17 0.166678 0.500000 0.762325
#
# Coordination Sequence:
#
# PCOD8197578 Si02
#       6
#     4   8   8   4   8   8
#     4   9  17  31  52  73  94 129 174 216 262 315
#     4  10  20  33  53  82 111 141 182 228 273 326
#     4   9  18  34  55  76 102 140 180 218 266 323
#     4   9  18  34  55  79 111 149 185 226 277 324
#     4  10  20  33  50  74 103 132 166 212 264 317
#     4   9  19  35  53  74 101 134 173 213 255 309
#
# _framework density 19.787656999999999
#
# number of rings (size 3 to 8) (size 9 to 14) (size 15 to 20)
#    0.000    2.600    1.000    2.100    0.000    5.200 
#    0.000    8.500    0.000    4.200    0.000    1.400 
#    0.000    0.000    0.000    0.000    0.000    0.000 
#
# Total GULP energy -495920.378016 kJ/mol
# GULP energy per Si atom -12398.009450 kJ/mol
# Density = 1.974262 g / cm^3
# Si number density = 19.787657 Si / 1000 Ang^3
#
#
#
# Elastic Constant Matrix: (Units=GPa)
#
#
# Indices 1 2 3 4 5 6 
#
# 1 141.5463 68.9761 41.9632 0.0000 0.0000 0.0000
# 2 68.9761 106.9271 28.6782 0.0000 0.0000 0.0000
# 3 41.9632 28.6782 70.7838 0.0000 0.0000 0.0000
# 4 0.0000 0.0000 0.0000 20.1874 0.0000 0.0000
# 5 0.0000 0.0000 0.0000 0.0000 23.8114 0.0000
# 6 0.0000 0.0000 0.0000 0.0000 0.0000 24.9286
#
#
#
# Elastic Compliance Matrix: (Units=1/GPa)
#
#
# Indices 1 2 3 4 5 6 
#
# 1 0.011322 -0.006174 -0.004210 0.000000 0.000000 0.000000
# 2 -0.006174 0.013859 -0.001955 0.000000 0.000000 0.000000
# 3 -0.004210 -0.001955 0.017416 0.000000 0.000000 0.000000
# 4 0.000000 0.000000 0.000000 0.049536 0.000000 0.000000
# 5 0.000000 0.000000 0.000000 0.000000 0.041997 0.000000
# 6 0.000000 0.000000 0.000000 0.000000 0.000000 0.040115
#
#
# Mechanical properties :
#
#
# Convention : Reuss Voigt Hill
#
# Bulk Modulus (GPa) = 55.81063 66.49914 61.15488
# Shear Modulus (GPa) = 24.40268 25.76144 25.08206
#
# Velocity S-wave (km/s) = 3.51554 3.61209 3.56414
# Velocity P-wave (km/s) = 6.68915 7.14672 6.92172
#
# Compressibility (1/GPa) = 0.01791773
#
# Stress axis : x y z
#
# Youngs Moduli (GPa) = 88.32549 72.15395 57.41951
#
# Poissons Ratio (x) = 0.44549 0.24176
# Poissons Ratio (y) = 0.54533 0.11225
# Poissons Ratio (z) = 0.37189 0.14105
#
# Static dielectric constant tensor:
#      x y z
#    x 3.687880 0.000000 0.000000 
#    y 0.000000 3.610890 0.000000 
#    z 0.000000 0.000000 3.407520 
# 
# 
# High freq. dielectric constant tensor:
#      x y z
#    x 1.769730 0.000000 0.000000 
#    y 0.000000 1.758750 0.000000 
#    z 0.000000 0.000000 1.755990 
# 
# From -- ./inp_files/13023.got.cif
#   From: 2010.03.12/outbox.cif.g09.slc.cpg/sg47_7_cif.got.tgz:13023.got - 2010.04.14 03:12:58.
