data_PCOD8197794
_publ_section_title
;
Structure prediction by ZEFSAII (Michael W. Deem and Ramdas Pophale) SiO2 
 PCOD8197794
Probable space group: P M M M
;
_chemical_formula_sum "Si O2"
_cell_formula_units_Z 64
_cell_length_a 14.704578
_cell_length_b 24.006028
_cell_length_c 9.440274
_cell_angle_alpha 90.000000
_cell_angle_beta 90.000000
_cell_angle_gamma 90.000000
_cell_volume 3332.402667
_symmetry_space_group_name_H-M "P M M M"
_symmetry_group_IT_number 47
_symmetry_cell_setting 'orthorhombic'
loop_
_space_group_symop_operation_xyz
x,y,z
-x,-y,z
x,-y,-z
-x,y,-z
-x,-y,-z
x,y,-z
-x,y,z
x,-y,z
loop_
_atom_site_type_symbol
_atom_site_label
_atom_site_fract_x
_atom_site_fract_y
_atom_site_fract_z
Si Si1 0.401938 0.065384 0.653766
Si Si2 0.602687 0.236379 0.163268
Si Si3 0.788214 0.819201 0.837218
Si Si4 0.764423 0.939356 0.163170
Si Si5 0.250922 0.563221 0.337297
Si Si6 0.106514 0.730614 0.662229
Si Si7 0.105795 0.378628 0.834468
Si Si8 0.396563 0.654612 0.664483
O O1 0.371074 0.089431 0.500000
O O2 0.500000 0.091086 0.696272
O O3 0.330700 0.079855 0.772997
O O4 0.411535 0.000000 0.639844
O O5 0.500000 0.216461 0.208088
O O6 0.679403 0.189037 0.191789
O O7 0.633124 0.290640 0.250606
O O8 0.602461 0.253948 0.000000
O O9 0.823410 0.883523 0.811276
O O10 0.845454 0.784161 0.726894
O O11 0.810107 0.802280 0.000000
O O12 0.801216 0.000000 0.224423
O O13 0.746654 0.948328 0.000000
O O14 0.222149 0.574585 0.500000
O O15 0.284574 0.500000 0.317791
O O16 0.163922 0.572169 0.235910
O O17 0.333233 0.603141 0.289864
O O18 0.137969 0.721556 0.500000
O O19 0.135319 0.677574 0.754376
O O20 0.000000 0.741375 0.671375
O O21 0.000000 0.392321 0.810586
O O22 0.128653 0.372384 0.000000
O O23 0.384915 0.668769 0.500000
O O24 0.500000 0.637660 0.700750
#
# Coordination Sequence:
#
# PCOD8197794 Si02
#       8
#     8   8   8   8   8   8   8   8
#     4   8  14  25  40  58  83 118 161 206 247 287
#     4   9  18  32  49  71 101 135 170 210 258 309
#     4  10  20  33  52  77 104 136 171 210 257 307
#     4   9  18  31  46  67  96 130 169 210 252 303
#     4  10  21  35  52  77 108 142 180 221 263 305
#     4  10  21  37  58  83 107 130 162 209 263 315
#     4  10  21  37  57  80 107 139 172 208 255 311
#     4   9  18  33  52  73  99 133 174 219 263 305
#
# _framework density 19.205362999999998
#
# number of rings (size 3 to 8) (size 9 to 14) (size 15 to 20)
#    0.000    2.625    0.000    1.875    0.000    6.500 
#    0.000    5.000    0.000    1.875    0.000    5.250 
#    0.000    0.000    0.000    0.000    0.000    0.000 
#
# Total GULP energy -792995.474962 kJ/mol
# GULP energy per Si atom -12390.554296 kJ/mol
# Density = 1.916165 g / cm^3
# Si number density = 19.205363 Si / 1000 Ang^3
#
#
#
# Elastic Constant Matrix: (Units=GPa)
#
#
# Indices 1 2 3 4 5 6 
#
# 1 43.1723 33.2563 28.4459 0.0000 0.0000 0.0000
# 2 33.2563 108.5574 45.6375 0.0000 0.0000 0.0000
# 3 28.4459 45.6375 58.1293 0.0000 0.0000 0.0000
# 4 0.0000 0.0000 0.0000 21.9437 0.0000 0.0000
# 5 0.0000 0.0000 0.0000 0.0000 29.3614 0.0000
# 6 0.0000 0.0000 0.0000 0.0000 0.0000 15.4052
#
#
#
# Elastic Compliance Matrix: (Units=1/GPa)
#
#
# Indices 1 2 3 4 5 6 
#
# 1 0.036217 -0.005440 -0.013452 0.000000 0.000000 0.000000
# 2 -0.005440 0.014567 -0.008775 0.000000 0.000000 0.000000
# 3 -0.013452 -0.008775 0.030675 0.000000 0.000000 0.000000
# 4 0.000000 0.000000 0.000000 0.045571 0.000000 0.000000
# 5 0.000000 0.000000 0.000000 0.000000 0.034058 0.000000
# 6 0.000000 0.000000 0.000000 0.000000 0.000000 0.064913
#
#
# Mechanical properties :
#
#
# Convention : Reuss Voigt Hill
#
# Bulk Modulus (GPa) = 38.27647 47.17094 42.72370
# Shear Modulus (GPa) = 17.23881 20.17668 18.70775
#
# Velocity S-wave (km/s) = 2.99925 3.24477 3.12443
# Velocity P-wave (km/s) = 5.65397 6.21713 5.94223
#
# Compressibility (1/GPa) = 0.02612571
#
# Stress axis : x y z
#
# Youngs Moduli (GPa) = 27.61143 68.64826 32.59982
#
# Poissons Ratio (x) = 0.37342 0.43854
# Poissons Ratio (y) = 0.15020 0.28605
# Poissons Ratio (z) = 0.37144 0.60237
#
# Static dielectric constant tensor:
#      x y z
#    x 3.498340 0.000000 0.000000 
#    y 0.000000 3.578180 0.000000 
#    z 0.000000 0.000000 3.602080 
# 
# 
# High freq. dielectric constant tensor:
#      x y z
#    x 1.726340 0.000000 0.000000 
#    y 0.000000 1.744530 0.000000 
#    z 0.000000 0.000000 1.747640 
# 
# From -- ./inp_files/7803.got.cif
#   From: 2010.03.12/outbox.cif.g09.slc.cpg/sg47_4_cif.got.tgz:7803.got - 2010.04.14 03:12:58.
