data_PCOD8197784
_publ_section_title
;
Structure prediction by ZEFSAII (Michael W. Deem and Ramdas Pophale) SiO2 
 PCOD8197784
Probable space group: P M M M
;
_chemical_formula_sum "Si O2"
_cell_formula_units_Z 48
_cell_length_a 8.579571
_cell_length_b 29.201837
_cell_length_c 9.884412
_cell_angle_alpha 90.000000
_cell_angle_beta 90.000000
_cell_angle_gamma 90.000000
_cell_volume 2476.433010
_symmetry_space_group_name_H-M "P M M M"
_symmetry_group_IT_number 47
_symmetry_cell_setting 'orthorhombic'
loop_
_space_group_symop_operation_xyz
x,y,z
-x,-y,z
x,-y,-z
-x,y,-z
-x,-y,-z
x,y,-z
-x,y,z
x,-y,z
loop_
_atom_site_type_symbol
_atom_site_label
_atom_site_fract_x
_atom_site_fract_y
_atom_site_fract_z
Si Si1 0.680098 0.197679 0.154870
Si Si2 0.315463 0.629817 0.653829
Si Si3 0.682955 0.053707 0.500000
Si Si4 0.814832 0.949124 0.000000
Si Si5 0.184001 0.107578 0.747442
Si Si6 0.314621 0.551203 0.151438
Si Si7 0.817710 0.294546 0.154210
O O1 0.500000 0.209078 0.180291
O O2 0.734380 0.157095 0.253510
O O3 0.780079 0.242279 0.191049
O O4 0.711816 0.182876 0.000000
O O5 0.247587 0.630560 0.500000
O O6 0.500000 0.626787 0.646685
O O7 0.246872 0.586121 0.736404
O O8 0.270248 0.674909 0.736103
O O9 0.500000 0.063403 0.500000
O O10 0.765722 0.077293 0.376241
O O11 0.720681 0.000000 0.500000
O O12 0.752686 0.921487 0.872572
O O13 0.000000 0.952359 0.000000
O O14 0.741816 0.000000 0.000000
O O15 0.000000 0.115338 0.750485
O O16 0.500000 0.552505 0.153312
O O17 0.255803 0.500000 0.187160
O O18 0.256490 0.564950 0.000000
O O19 0.000000 0.303327 0.167774
O O20 0.761015 0.305418 0.000000
#
# Coordination Sequence:
#
# PCOD8197784 Si02
#       7
#     8   8   4   4   8   8   8
#     4  10  20  36  60  88 117 145 179 227 285 342
#     4  10  20  33  51  79 114 149 186 229 281 336
#     4  11  25  43  59  81 117 157 195 235 280 331
#     4   9  18  32  55  87 117 145 181 227 274 323
#     4  11  21  37  61  87 117 150 189 233 279 335
#     4   8  14  26  47  76 109 146 188 232 277 329
#     4  10  21  37  58  81 106 141 187 233 279 333
#
# _framework density 19.382717
#
# number of rings (size 3 to 8) (size 9 to 14) (size 15 to 20)
#    0.000    2.167    0.833    3.250    0.000    4.333 
#    1.500    1.667    0.000    2.500    0.000    3.500 
#    0.000    0.000    0.000    0.000    0.000    0.000 
#
# Total GULP energy -595136.551522 kJ/mol
# GULP energy per Si atom -12398.678157 kJ/mol
# Density = 1.933860 g / cm^3
# Si number density = 19.382717 Si / 1000 Ang^3
#
#
#
# Elastic Constant Matrix: (Units=GPa)
#
#
# Indices 1 2 3 4 5 6 
#
# 1 28.1803 8.8971 14.0390 0.0000 0.0000 0.0000
# 2 8.8971 123.4666 70.6803 0.0000 0.0000 0.0000
# 3 14.0390 70.6803 142.3379 0.0000 0.0000 0.0000
# 4 0.0000 0.0000 0.0000 37.4174 0.0000 0.0000
# 5 0.0000 0.0000 0.0000 0.0000 22.9183 0.0000
# 6 0.0000 0.0000 0.0000 0.0000 0.0000 8.0195
#
#
#
# Elastic Compliance Matrix: (Units=1/GPa)
#
#
# Indices 1 2 3 4 5 6 
#
# 1 0.037378 -0.000815 -0.003282 0.000000 0.000000 0.000000
# 2 -0.000815 0.011334 -0.005548 0.000000 0.000000 0.000000
# 3 -0.003282 -0.005548 0.010104 0.000000 0.000000 0.000000
# 4 0.000000 0.000000 0.000000 0.026726 0.000000 0.000000
# 5 0.000000 0.000000 0.000000 0.000000 0.043633 0.000000
# 6 0.000000 0.000000 0.000000 0.000000 0.000000 0.124696
#
#
# Mechanical properties :
#
#
# Convention : Reuss Voigt Hill
#
# Bulk Modulus (GPa) = 25.29904 53.46862 39.38383
# Shear Modulus (GPa) = 17.46206 27.02895 22.24550
#
# Velocity S-wave (km/s) = 3.00477 3.73833 3.39144
# Velocity P-wave (km/s) = 5.01188 6.80288 5.97487
#
# Compressibility (1/GPa) = 0.03952719
#
# Stress axis : x y z
#
# Youngs Moduli (GPa) = 26.75364 88.23062 98.97003
#
# Poissons Ratio (x) = 0.07187 0.32483
# Poissons Ratio (y) = 0.02179 0.54906
# Poissons Ratio (z) = 0.08781 0.48948
#
# Static dielectric constant tensor:
#      x y z
#    x 3.266460 0.000000 0.000000 
#    y 0.000000 3.688460 0.000000 
#    z 0.000000 0.000000 3.658660 
# 
# 
# High freq. dielectric constant tensor:
#      x y z
#    x 1.730900 0.000000 0.000000 
#    y 0.000000 1.767920 0.000000 
#    z 0.000000 0.000000 1.749770 
# 
# From -- ./inp_files/2560.got.cif
#   From: 2010.03.12/outbox.cif.g09.slc.cpg/sg47_2_cif.got.tgz:2560.got - 2010.04.14 03:12:58.
