data_PCOD8197897
_publ_section_title
;
Structure prediction by ZEFSAII (Michael W. Deem and Ramdas Pophale) SiO2 
 PCOD8197897
Probable space group: P M M M
;
_chemical_formula_sum "Si O2"
_cell_formula_units_Z 64
_cell_length_a 9.437707
_cell_length_b 24.346322
_cell_length_c 14.783411
_cell_angle_alpha 90.000000
_cell_angle_beta 90.000000
_cell_angle_gamma 90.000000
_cell_volume 3396.835401
_symmetry_space_group_name_H-M "P M M M"
_symmetry_group_IT_number 47
_symmetry_cell_setting 'orthorhombic'
loop_
_space_group_symop_operation_xyz
x,y,z
-x,-y,z
x,-y,-z
-x,y,-z
-x,-y,-z
x,y,-z
-x,y,z
x,-y,z
loop_
_atom_site_type_symbol
_atom_site_label
_atom_site_fract_x
_atom_site_fract_y
_atom_site_fract_z
Si Si1 0.167586 0.365640 0.238562
Si Si2 0.163737 0.839238 0.897761
Si Si3 0.831633 0.561191 0.599513
Si Si4 0.334690 0.835406 0.606799
Si Si5 0.158979 0.060844 0.607341
Si Si6 0.661907 0.561970 0.106151
Si Si7 0.165292 0.240195 0.262073
Si Si8 0.341210 0.060014 0.892473
O O1 0.227593 0.396409 0.327251
O O2 0.239002 0.392763 0.151710
O O3 0.212586 0.302708 0.248797
O O4 0.000000 0.371963 0.227182
O O5 0.198040 0.787957 0.834101
O O6 0.240638 0.892322 0.854721
O O7 0.000000 0.854116 0.898428
O O8 0.216076 0.825414 0.000000
O O9 0.776199 0.578610 0.500000
O O10 0.777180 0.500000 0.623338
O O11 0.000000 0.561943 0.599959
O O12 0.309675 0.827411 0.500000
O O13 0.500000 0.835774 0.631203
O O14 0.267850 0.892925 0.642351
O O15 0.257656 0.785499 0.657523
O O16 0.160003 0.060318 0.500000
O O17 0.000000 0.074994 0.641811
O O18 0.204808 0.000000 0.642451
O O19 0.500000 0.571719 0.135860
O O20 0.708906 0.500000 0.133276
O O21 0.678859 0.570177 0.000000
O O22 0.000000 0.235040 0.288525
O O23 0.500000 0.071760 0.858423
O O24 0.290289 0.000000 0.857339
O O25 0.335705 0.060350 0.000000
#
# Coordination Sequence:
#
# PCOD8197897 Si02
#       8
#     8   8   8   8   8   8   8   8
#     4  10  20  33  53  80 105 134 177 224 262 299
#     4   9  18  33  51  70  96 130 166 206 252 302
#     4   8  14  26  46  74 106 133 158 198 254 308
#     4  10  21  36  54  76 103 137 177 222 267 309
#     4   8  14  27  50  78 104 131 165 208 264 327
#     4   9  19  36  56  79 110 146 178 209 255 316
#     4  10  22  37  52  74 104 139 178 217 259 309
#     4   8  14  26  46  72  98 122 153 198 252 306
#
# _framework density 18.841065
#
# number of rings (size 3 to 8) (size 9 to 14) (size 15 to 20)
#    0.000    3.000    0.000    2.250    0.000    4.250 
#    0.000    6.250    0.000    2.625    0.000    1.750 
#    0.000    0.000    0.000    0.000    0.000    0.000 
#
# Total GULP energy -793371.700617 kJ/mol
# GULP energy per Si atom -12396.432822 kJ/mol
# Density = 1.879818 g / cm^3
# Si number density = 18.841065 Si / 1000 Ang^3
#
#
#
# Elastic Constant Matrix: (Units=GPa)
#
#
# Indices 1 2 3 4 5 6 
#
# 1 72.5434 68.4307 40.5076 0.0000 0.0000 0.0000
# 2 68.4307 171.7024 62.6742 0.0000 0.0000 0.0000
# 3 40.5076 62.6742 68.9797 0.0000 0.0000 0.0000
# 4 0.0000 0.0000 0.0000 11.9065 0.0000 0.0000
# 5 0.0000 0.0000 0.0000 0.0000 23.0390 0.0000
# 6 0.0000 0.0000 0.0000 0.0000 0.0000 18.1320
#
#
#
# Elastic Compliance Matrix: (Units=1/GPa)
#
#
# Indices 1 2 3 4 5 6 
#
# 1 0.024975 -0.006883 -0.008413 0.000000 0.000000 0.000000
# 2 -0.006883 0.010611 -0.005599 0.000000 0.000000 0.000000
# 3 -0.008413 -0.005599 0.024524 0.000000 0.000000 0.000000
# 4 0.000000 0.000000 0.000000 0.083988 0.000000 0.000000
# 5 0.000000 0.000000 0.000000 0.000000 0.043405 0.000000
# 6 0.000000 0.000000 0.000000 0.000000 0.000000 0.055151
#
#
# Mechanical properties :
#
#
# Convention : Reuss Voigt Hill
#
# Bulk Modulus (GPa) = 54.58119 72.93894 63.76007
# Shear Modulus (GPa) = 17.20874 20.05636 18.63255
#
# Velocity S-wave (km/s) = 3.02547 3.26621 3.14814
# Velocity P-wave (km/s) = 6.42159 7.28155 6.86505
#
# Compressibility (1/GPa) = 0.01832133
#
# Stress axis : x y z
#
# Youngs Moduli (GPa) = 40.03993 94.24269 40.77561
#
# Poissons Ratio (x) = 0.64866 0.34303
# Poissons Ratio (y) = 0.27559 0.22830
# Poissons Ratio (z) = 0.33684 0.52767
#
# Static dielectric constant tensor:
#      x y z
#    x 3.308940 0.000000 0.000000 
#    y 0.000000 3.654200 0.000000 
#    z 0.000000 0.000000 3.394630 
# 
# 
# High freq. dielectric constant tensor:
#      x y z
#    x 1.710590 0.000000 0.000000 
#    y 0.000000 1.732800 0.000000 
#    z 0.000000 0.000000 1.725430 
# 
# From -- ./inp_files/21944.got.cif
#   From: 2010.03.12/outbox.cif.g09.slc.cpg/sg47_11_cif.got.tgz:21944.got - 2010.04.14 03:12:58.
