data_PCOD8197589
_publ_section_title
;
Structure prediction by ZEFSAII (Michael W. Deem and Ramdas Pophale) SiO2 
 PCOD8197589
Probable space group: P M M M
;
_chemical_formula_sum "Si O2"
_cell_formula_units_Z 48
_cell_length_a 30.990338
_cell_length_b 8.970145
_cell_length_c 9.077591
_cell_angle_alpha 90.000000
_cell_angle_beta 90.000000
_cell_angle_gamma 90.000000
_cell_volume 2523.459782
_symmetry_space_group_name_H-M "P M M M"
_symmetry_group_IT_number 47
_symmetry_cell_setting 'orthorhombic'
loop_
_space_group_symop_operation_xyz
x,y,z
-x,-y,z
x,-y,-z
-x,y,-z
-x,-y,-z
x,y,-z
-x,y,z
x,-y,z
loop_
_atom_site_type_symbol
_atom_site_label
_atom_site_fract_x
_atom_site_fract_y
_atom_site_fract_z
Si Si1 0.500000 0.168326 0.824573
Si Si2 0.169856 0.827862 0.172709
Si Si3 0.247403 0.674777 0.331205
Si Si4 0.000000 0.177968 0.833483
Si Si5 0.915997 0.177349 0.333890
Si Si6 0.414513 0.330824 0.825076
Si Si7 0.336055 0.825858 0.329740
O O1 0.457786 0.252692 0.764238
O O2 0.500000 0.000000 0.762980
O O3 0.500000 0.168430 0.000000
O O4 0.209567 0.730174 0.226625
O O5 0.126927 0.766998 0.251883
O O6 0.178502 0.000000 0.213518
O O7 0.163368 0.806226 0.000000
O O8 0.236426 0.716889 0.500000
O O9 0.253711 0.500000 0.310771
O O10 0.291168 0.753676 0.279398
O O11 0.957769 0.240660 0.750743
O O12 0.000000 0.000000 0.832558
O O13 0.000000 0.238695 0.000000
O O14 0.915953 0.240018 0.500000
O O15 0.917610 0.000000 0.333784
O O16 0.413684 0.500000 0.766894
O O17 0.373600 0.243126 0.766741
O O18 0.413509 0.325722 0.000000
O O19 0.345429 0.790759 0.500000
O O20 0.333401 0.000000 0.297424
#
# Coordination Sequence:
#
# PCOD8197589 Si02
#       7
#     4   8   8   4   8   8   8
#     4   9  17  31  52  77 106 141 180 222 266 311
#     4  10  20  33  50  74 103 134 169 211 259 308
#     4  10  21  37  56  76  99 131 170 210 255 309
#     4   9  15  23  37  61  96 133 168 211 262 311
#     4   9  16  26  42  65  95 132 172 212 256 308
#     4  10  20  34  54  80 109 141 177 217 262 313
#     4  10  21  37  57  80 106 137 173 214 261 312
#
# _framework density 19.021505000000001
#
# number of rings (size 3 to 8) (size 9 to 14) (size 15 to 20)
#    0.000    2.333    0.000    3.000    0.000    8.667 
#    0.000    0.417    0.000    2.500    0.000    0.583 
#    0.000    4.667    0.000    0.000    0.000    0.000 
#
# Total GULP energy -595341.893852 kJ/mol
# GULP energy per Si atom -12402.956122 kJ/mol
# Density = 1.897821 g / cm^3
# Si number density = 19.021505 Si / 1000 Ang^3
#
#
#
# Elastic Constant Matrix: (Units=GPa)
#
#
# Indices 1 2 3 4 5 6 
#
# 1 169.2362 54.9322 57.5025 0.0000 0.0000 0.0000
# 2 54.9322 77.2970 29.7374 0.0000 0.0000 0.0000
# 3 57.5025 29.7374 79.9120 0.0000 0.0000 0.0000
# 4 0.0000 0.0000 0.0000 21.3724 0.0000 0.0000
# 5 0.0000 0.0000 0.0000 0.0000 28.9048 0.0000
# 6 0.0000 0.0000 0.0000 0.0000 0.0000 -8.5389
#
#
#
# Elastic Compliance Matrix: (Units=1/GPa)
#
#
# Indices 1 2 3 4 5 6 
#
# 1 0.009019 -0.004566 -0.004790 0.000000 0.000000 0.000000
# 2 -0.004566 0.017411 -0.003193 0.000000 0.000000 0.000000
# 3 -0.004790 -0.003193 0.017149 0.000000 0.000000 0.000000
# 4 0.000000 0.000000 0.000000 0.046789 0.000000 0.000000
# 5 0.000000 0.000000 0.000000 0.000000 0.034596 0.000000
# 6 0.000000 0.000000 0.000000 0.000000 0.000000 -0.117111
#
#
# Mechanical properties :
#
#
# Convention : Reuss Voigt Hill
#
# Bulk Modulus (GPa) = 54.11632 67.86548 60.99090
# Shear Modulus (GPa) = 127.83757 20.63255 74.23506
#
# Velocity S-wave (km/s) = 8.20687 3.29704 6.25393
# Velocity P-wave (km/s) = 10.87729 7.08871 9.18056
#
# Compressibility (1/GPa) = 0.01847871
#
# Stress axis : x y z
#
# Youngs Moduli (GPa) = 110.88013 57.43594 58.31222
#
# Poissons Ratio (x) = 0.26227 0.27934
# Poissons Ratio (y) = 0.50632 0.18620
# Poissons Ratio (z) = 0.53116 0.18340
#
# Static dielectric constant tensor:
#      x y z
#    x 3.664030 0.000000 0.000000 
#    y 0.000000 3.312910 0.000000 
#    z 0.000000 0.000000 3.410040 
# 
# 
# High freq. dielectric constant tensor:
#      x y z
#    x 1.756730 0.000000 0.000000 
#    y 0.000000 1.717310 0.000000 
#    z 0.000000 0.000000 1.730570 
# 
# From -- ./inp_files/2601.got.cif
#   From: 2010.03.12/outbox.cif.g09.slc.cpg/sg47_2_cif.got.tgz:2601.got - 2010.04.14 03:12:58.
