data_PCOD8197984
_publ_section_title
;
Structure prediction by ZEFSAII (Michael W. Deem and Ramdas Pophale) SiO2 
 PCOD8197984
Probable space group: P M M M
;
_chemical_formula_sum "Si O2"
_cell_formula_units_Z 52
_cell_length_a 14.115410
_cell_length_b 15.244232
_cell_length_c 14.152545
_cell_angle_alpha 90.000000
_cell_angle_beta 90.000000
_cell_angle_gamma 90.000000
_cell_volume 3045.324605
_symmetry_space_group_name_H-M "P M M M"
_symmetry_group_IT_number 47
_symmetry_cell_setting 'orthorhombic'
loop_
_space_group_symop_operation_xyz
x,y,z
-x,-y,z
x,-y,-z
-x,y,-z
-x,-y,-z
x,y,-z
-x,y,z
x,-y,z
loop_
_atom_site_type_symbol
_atom_site_label
_atom_site_fract_x
_atom_site_fract_y
_atom_site_fract_z
Si Si1 0.275938 0.739811 0.388319
Si Si2 0.391515 0.397831 0.278699
Si Si3 0.887770 0.000000 0.606834
Si Si4 0.892471 0.258105 0.105233
Si Si5 0.263398 0.400231 0.893439
Si Si6 0.606134 0.096489 0.611897
Si Si7 0.109243 0.821679 0.702796
O O1 0.269272 0.739437 0.500000
O O2 0.330569 0.652822 0.356820
O O3 0.330000 0.825491 0.346766
O O4 0.169991 0.743883 0.345538
O O5 0.500000 0.365898 0.281578
O O6 0.383751 0.500000 0.303645
O O7 0.350793 0.377038 0.174742
O O8 0.852767 0.085550 0.663167
O O9 0.844773 0.000000 0.500000
O O10 0.000000 0.000000 0.601190
O O11 0.826312 0.340065 0.130047
O O12 0.877183 0.181755 0.183279
O O13 0.000000 0.293090 0.110308
O O14 0.870409 0.220290 0.000000
O O15 0.229558 0.500000 0.878111
O O16 0.299977 0.384872 0.000000
O O17 0.602217 0.105385 0.500000
O O18 0.500000 0.106277 0.652954
O O19 0.647431 0.000000 0.639890
O O20 0.000000 0.806473 0.674480
#
# Coordination Sequence:
#
# PCOD8197984 Si02
#       7
#     8   8   4   8   8   8   8
#     4  11  21  32  50  72  97 134 175 211 252 303
#     4  10  21  36  52  73 101 131 169 215 259 304
#     4   9  18  32  49  71 102 138 174 209 245 291
#     4   9  17  31  52  77 104 131 161 203 255 308
#     4   9  17  31  52  77 103 129 160 201 253 312
#     4   8  15  28  45  67  94 121 155 203 253 296
#     4  10  20  34  51  75 104 134 168 210 255 304
#
# _framework density 17.075354999999998
#
# number of rings (size 3 to 8) (size 9 to 14) (size 15 to 20)
#    0.000    2.538    1.538    1.385    1.077    2.769 
#    0.000    4.231    0.000    2.769    0.000    1.077 
#    0.000    0.000    0.000    8.308    0.000    0.615 
#
# Total GULP energy -644607.128528 kJ/mol
# GULP energy per Si atom -12396.290933 kJ/mol
# Density = 1.703649 g / cm^3
# Si number density = 17.075355 Si / 1000 Ang^3
#
#
#
# Elastic Constant Matrix: (Units=GPa)
#
#
# Indices 1 2 3 4 5 6 
#
# 1 84.8645 43.3154 45.4204 0.0000 0.0000 0.0000
# 2 43.3154 71.6947 49.1178 0.0000 0.0000 0.0000
# 3 45.4204 49.1178 101.8401 0.0000 0.0000 0.0000
# 4 0.0000 0.0000 0.0000 27.8341 0.0000 0.0000
# 5 0.0000 0.0000 0.0000 0.0000 21.4393 0.0000
# 6 0.0000 0.0000 0.0000 0.0000 0.0000 25.8432
#
#
#
# Elastic Compliance Matrix: (Units=1/GPa)
#
#
# Indices 1 2 3 4 5 6 
#
# 1 0.018162 -0.008100 -0.004194 0.000000 0.000000 0.000000
# 2 -0.008100 0.024444 -0.008177 0.000000 0.000000 0.000000
# 3 -0.004194 -0.008177 0.015633 0.000000 0.000000 0.000000
# 4 0.000000 0.000000 0.000000 0.035927 0.000000 0.000000
# 5 0.000000 0.000000 0.000000 0.000000 0.046643 0.000000
# 6 0.000000 0.000000 0.000000 0.000000 0.000000 0.038695
#
#
# Mechanical properties :
#
#
# Convention : Reuss Voigt Hill
#
# Bulk Modulus (GPa) = 57.80823 59.34515 58.57669
# Shear Modulus (GPa) = 22.10323 23.05968 22.58146
#
# Velocity S-wave (km/s) = 3.60175 3.67886 3.64051
# Velocity P-wave (km/s) = 7.15717 7.27156 7.21459
#
# Compressibility (1/GPa) = 0.01729858
#
# Stress axis : x y z
#
# Youngs Moduli (GPa) = 55.05927 40.91067 63.96593
#
# Poissons Ratio (x) = 0.33137 0.26825
# Poissons Ratio (y) = 0.44597 0.52303
# Poissons Ratio (z) = 0.23090 0.33451
#
# Static dielectric constant tensor:
#      x y z
#    x 3.314190 0.000000 0.000000 
#    y 0.000000 3.194560 0.000000 
#    z 0.000000 0.000000 3.160720 
# 
# 
# High freq. dielectric constant tensor:
#      x y z
#    x 1.665940 0.000000 0.000000 
#    y 0.000000 1.645120 0.000000 
#    z 0.000000 0.000000 1.644770 
# 
# From -- ./inp_files/23658.got.cif
#   From: 2010.03.12/outbox.cif.g09.slc.cpg/sg47_12_cif.got.tgz:23658.got - 2010.04.14 03:12:58.
