data_PCOD8197437
_publ_section_title
;
Structure prediction by ZEFSAII (Michael W. Deem and Ramdas Pophale) SiO2 
 PCOD8197437
Probable space group: P M M M
;
_chemical_formula_sum "Si O2"
_cell_formula_units_Z 40
_cell_length_a 27.526024
_cell_length_b 7.983266
_cell_length_c 9.836677
_cell_angle_alpha 90.000000
_cell_angle_beta 90.000000
_cell_angle_gamma 90.000000
_cell_volume 2161.585883
_symmetry_space_group_name_H-M "P M M M"
_symmetry_group_IT_number 47
_symmetry_cell_setting 'orthorhombic'
loop_
_space_group_symop_operation_xyz
x,y,z
-x,-y,z
x,-y,-z
-x,y,-z
-x,-y,-z
x,y,-z
-x,y,z
x,-y,z
loop_
_atom_site_type_symbol
_atom_site_label
_atom_site_fract_x
_atom_site_fract_y
_atom_site_fract_z
Si Si1 0.184764 0.804507 0.148574
Si Si2 0.000000 0.805954 0.341959
Si Si3 0.621412 0.194587 0.659438
Si Si4 0.708491 0.801880 0.151997
Si Si5 0.897872 0.693792 0.348079
Si Si6 0.553993 0.500000 0.339439
O O1 0.237737 0.731794 0.192030
O O2 0.144216 0.771122 0.259079
O O3 0.190922 0.000000 0.132753
O O4 0.169937 0.729874 0.000000
O O5 0.049388 0.728716 0.279299
O O6 0.000000 0.759686 0.500000
O O7 0.000000 0.000000 0.310423
O O8 0.632472 0.210303 0.500000
O O9 0.669252 0.258708 0.738336
O O10 0.579921 0.326107 0.706039
O O11 0.607075 0.000000 0.695045
O O12 0.709163 0.000000 0.153730
O O13 0.694696 0.738352 0.000000
O O14 0.895876 0.773929 0.500000
O O15 0.888199 0.500000 0.357024
O O16 0.500000 0.500000 0.274933
O O17 0.550588 0.500000 0.500000
#
# Coordination Sequence:
#
# PCOD8197437 Si02
#       6
#     8   4   8   8   8   4
#     4   9  18  33  52  73  98 129 165 204 246 296
#     4   9  17  31  52  73  92 121 162 204 246 293
#     4   9  17  30  50  75 100 130 169 209 250 297
#     4   8  15  30  51  72  96 128 163 200 246 295
#     4  10  20  33  49  72 101 130 160 198 246 297
#     4   9  18  32  49  73 105 135 165 208 255 294
#
# _framework density 18.504932
#
# number of rings (size 3 to 8) (size 9 to 14) (size 15 to 20)
#    0.000    3.000    0.000    2.100    0.000    4.000 
#    1.800    5.000    0.000    4.200    0.000    2.800 
#    0.000    0.000    0.000    0.000    0.000    0.000 
#
# Total GULP energy -495568.797303 kJ/mol
# GULP energy per Si atom -12389.219933 kJ/mol
# Density = 1.846281 g / cm^3
# Si number density = 18.504932 Si / 1000 Ang^3
#
#
#
# Elastic Constant Matrix: (Units=GPa)
#
#
# Indices 1 2 3 4 5 6 
#
# 1 149.6597 40.0857 71.7106 0.0000 0.0000 0.0000
# 2 40.0857 48.4423 15.8445 0.0000 0.0000 0.0000
# 3 71.7106 15.8445 64.0633 0.0000 0.0000 0.0000
# 4 0.0000 0.0000 0.0000 9.5984 0.0000 0.0000
# 5 0.0000 0.0000 0.0000 0.0000 0.1226 0.0000
# 6 0.0000 0.0000 0.0000 0.0000 0.0000 1.1552
#
#
#
# Elastic Compliance Matrix: (Units=1/GPa)
#
#
# Indices 1 2 3 4 5 6 
#
# 1 0.017191 -0.008630 -0.017109 0.000000 0.000000 0.000000
# 2 -0.008630 0.026792 0.003033 0.000000 0.000000 0.000000
# 3 -0.017109 0.003033 0.034010 0.000000 0.000000 0.000000
# 4 0.000000 0.000000 0.000000 0.104184 0.000000 0.000000
# 5 0.000000 0.000000 0.000000 0.000000 8.158829 0.000000
# 6 0.000000 0.000000 0.000000 0.000000 0.000000 0.865659
#
#
# Mechanical properties :
#
#
# Convention : Reuss Voigt Hill
#
# Bulk Modulus (GPa) = 30.69054 57.49408 44.09231
# Shear Modulus (GPa) = 0.53979 11.14353 5.84166
#
# Velocity S-wave (km/s) = 0.54068 2.45662 1.77867
# Velocity P-wave (km/s) = 4.12442 6.25969 5.30069
#
# Compressibility (1/GPa) = 0.03258333
#
# Stress axis : x y z
#
# Youngs Moduli (GPa) = 58.16978 37.32475 29.40269
#
# Poissons Ratio (x) = 0.32210 0.50305
# Poissons Ratio (y) = 0.50198 -0.08919
# Poissons Ratio (z) = 0.99522 -0.11322
#
# Static dielectric constant tensor:
#      x y z
#    x 3.577780 0.000000 0.000000 
#    y 0.000000 3.308380 0.000000 
#    z 0.000000 0.000000 5.387870 
# 
# 
# High freq. dielectric constant tensor:
#      x y z
#    x 1.722770 0.000000 0.000000 
#    y 0.000000 1.708810 0.000000 
#    z 0.000000 0.000000 1.688390 
# 
# From -- ./inp_files/1842.got.cif
#   From: 2010.03.12/outbox.cif.g09.slc.cpg/sg47_1_cif.got.tgz:1842.got - 2010.04.14 03:12:58.
