data_PCOD8197738
_publ_section_title
;
Structure prediction by ZEFSAII (Michael W. Deem and Ramdas Pophale) SiO2 
 PCOD8197738
Probable space group: P M M M
;
_chemical_formula_sum "Si O2"
_cell_formula_units_Z 56
_cell_length_a 21.751205
_cell_length_b 14.872379
_cell_length_c 9.171442
_cell_angle_alpha 90.000000
_cell_angle_beta 90.000000
_cell_angle_gamma 90.000000
_cell_volume 2966.889624
_symmetry_space_group_name_H-M "P M M M"
_symmetry_group_IT_number 47
_symmetry_cell_setting 'orthorhombic'
loop_
_space_group_symop_operation_xyz
x,y,z
-x,-y,z
x,-y,-z
-x,y,-z
-x,-y,-z
x,y,-z
-x,y,z
x,-y,z
loop_
_atom_site_type_symbol
_atom_site_label
_atom_site_fract_x
_atom_site_fract_y
_atom_site_fract_z
Si Si1 0.651357 0.758849 0.672458
Si Si2 0.208089 0.761989 0.670279
Si Si3 0.000000 0.893282 0.335415
Si Si4 0.000000 0.393157 0.163747
Si Si5 0.568728 0.400647 0.673399
Si Si6 0.569199 0.105109 0.166756
Si Si7 0.880651 0.397711 0.668830
Si Si8 0.878734 0.894667 0.829566
O O1 0.645854 0.762004 0.500000
O O2 0.721802 0.754249 0.721951
O O3 0.616753 0.671280 0.737192
O O4 0.619475 0.847423 0.733829
O O5 0.202235 0.786734 0.500000
O O6 0.177100 0.665737 0.703947
O O7 0.178749 0.841739 0.763992
O O8 0.060080 0.858682 0.250779
O O9 0.000000 0.854489 0.500000
O O10 0.000000 0.000000 0.337360
O O11 0.061056 0.358256 0.244029
O O12 0.000000 0.500000 0.168129
O O13 0.000000 0.355383 0.000000
O O14 0.570594 0.400094 0.500000
O O15 0.500000 0.375672 0.727036
O O16 0.586965 0.500000 0.730675
O O17 0.500000 0.130340 0.217555
O O18 0.580293 0.000000 0.185025
O O19 0.578717 0.134509 0.000000
O O20 0.898603 0.394924 0.500000
O O21 0.863939 0.500000 0.716229
O O22 0.867954 0.000000 0.800328
O O23 0.885684 0.874366 0.000000
#
# Coordination Sequence:
#
# PCOD8197738 Si02
#       8
#     8   8   4   4   8   8   8   8
#     4  10  20  33  51  77 107 137 172 214 256 300
#     4  10  22  36  50  74 106 140 176 212 256 306
#     4   9  17  32  57  84 106 130 162 208 267 317
#     4   9  17  30  51  78 102 126 164 216 267 305
#     4   8  14  26  47  76 106 133 163 204 256 308
#     4   9  19  36  56  77 102 134 171 210 256 309
#     4   9  18  34  54  74 100 135 172 209 252 306
#     4  10  21  37  56  77 102 134 174 217 257 304
#
# _framework density 18.874986
#
# number of rings (size 3 to 8) (size 9 to 14) (size 15 to 20)
#    0.000    2.714    0.000    2.143    0.000    6.571 
#    0.000    7.143    0.000    0.429    0.000    4.000 
#    0.000    0.000    0.000    0.000    0.000    0.000 
#
# Total GULP energy -694404.551334 kJ/mol
# GULP energy per Si atom -12400.081274 kJ/mol
# Density = 1.883203 g / cm^3
# Si number density = 18.874986 Si / 1000 Ang^3
#
#
#
# Elastic Constant Matrix: (Units=GPa)
#
#
# Indices 1 2 3 4 5 6 
#
# 1 172.8869 72.9398 60.1966 0.0000 0.0000 0.0000
# 2 72.9398 84.2224 40.9129 0.0000 0.0000 0.0000
# 3 60.1966 40.9129 65.3378 0.0000 0.0000 0.0000
# 4 0.0000 0.0000 0.0000 16.6030 0.0000 0.0000
# 5 0.0000 0.0000 0.0000 0.0000 22.1771 0.0000
# 6 0.0000 0.0000 0.0000 0.0000 0.0000 23.1920
#
#
#
# Elastic Compliance Matrix: (Units=1/GPa)
#
#
# Indices 1 2 3 4 5 6 
#
# 1 0.010392 -0.006250 -0.005661 0.000000 0.000000 0.000000
# 2 -0.006250 0.020823 -0.007280 0.000000 0.000000 0.000000
# 3 -0.005661 -0.007280 0.025079 0.000000 0.000000 0.000000
# 4 0.000000 0.000000 0.000000 0.060230 0.000000 0.000000
# 5 0.000000 0.000000 0.000000 0.000000 0.045091 0.000000
# 6 0.000000 0.000000 0.000000 0.000000 0.000000 0.043118
#
#
# Mechanical properties :
#
#
# Convention : Reuss Voigt Hill
#
# Bulk Modulus (GPa) = 55.82976 74.50508 65.16742
# Shear Modulus (GPa) = 20.07338 22.28762 21.18050
#
# Velocity S-wave (km/s) = 3.26466 3.44001 3.35348
# Velocity P-wave (km/s) = 6.62220 7.43887 7.04239
#
# Compressibility (1/GPa) = 0.01791159
#
# Stress axis : x y z
#
# Youngs Moduli (GPa) = 96.22887 48.02450 39.87393
#
# Poissons Ratio (x) = 0.30015 0.22571
# Poissons Ratio (y) = 0.60143 0.29030
# Poissons Ratio (z) = 0.54471 0.34964
#
# Static dielectric constant tensor:
#      x y z
#    x 3.539080 0.000000 0.000000 
#    y 0.000000 3.482030 0.000000 
#    z 0.000000 0.000000 3.291750 
# 
# 
# High freq. dielectric constant tensor:
#      x y z
#    x 1.732280 0.000000 0.000000 
#    y 0.000000 1.735520 0.000000 
#    z 0.000000 0.000000 1.713020 
# 
# From -- ./inp_files/11383.got.cif
#   From: 2010.03.12/outbox.cif.g09.slc.cpg/sg47_6_cif.got.tgz:11383.got - 2010.04.14 03:12:58.
