data_PCOD8197840
_publ_section_title
;
Structure prediction by ZEFSAII (Michael W. Deem and Ramdas Pophale) SiO2 
 PCOD8197840
Probable space group: P M M M
;
_chemical_formula_sum "Si O2"
_cell_formula_units_Z 48
_cell_length_a 9.306450
_cell_length_b 8.817131
_cell_length_c 30.631518
_cell_angle_alpha 90.000000
_cell_angle_beta 90.000000
_cell_angle_gamma 90.000000
_cell_volume 2513.505624
_symmetry_space_group_name_H-M "P M M M"
_symmetry_group_IT_number 47
_symmetry_cell_setting 'orthorhombic'
loop_
_space_group_symop_operation_xyz
x,y,z
-x,-y,z
x,-y,-z
-x,y,-z
-x,-y,-z
x,y,-z
-x,y,z
x,-y,z
loop_
_atom_site_type_symbol
_atom_site_label
_atom_site_fract_x
_atom_site_fract_y
_atom_site_fract_z
Si Si1 0.832971 0.676500 0.786351
Si Si2 0.338812 0.680320 0.451742
Si Si3 0.333481 0.177748 0.708690
Si Si4 0.331410 0.671694 0.950580
Si Si5 0.837713 0.319602 0.629718
Si Si6 0.835145 0.173560 0.875724
O O1 0.801709 0.500000 0.778948
O O2 0.736015 0.774072 0.754187
O O3 0.787969 0.721478 0.835308
O O4 0.000000 0.715267 0.777800
O O5 0.289706 0.736136 0.500000
O O6 0.500000 0.739469 0.441800
O O7 0.338217 0.500000 0.450570
O O8 0.230911 0.744863 0.415183
O O9 0.500000 0.224789 0.708719
O O10 0.254872 0.264008 0.669994
O O11 0.313147 0.000000 0.701994
O O12 0.500000 0.685828 0.943373
O O13 0.280599 0.500000 0.940981
O O14 0.255180 0.787029 0.918283
O O15 0.290446 0.717041 0.000000
O O16 0.836681 0.500000 0.629986
O O17 0.000000 0.257378 0.633395
O O18 0.000000 0.202963 0.887581
O O19 0.806867 0.000000 0.862541
#
# Coordination Sequence:
#
# PCOD8197840 Si02
#       6
#     8   8   8   8   8   8
#     4  10  21  38  60  83 106 135 173 215 261 314
#     4   8  14  26  46  73 105 140 176 215 260 308
#     4  11  24  39  55  77 105 138 176 216 261 314
#     4   9  19  36  56  78 106 142 184 227 269 313
#     4  10  20  33  52  79 108 139 176 217 263 314
#     4  10  21  36  55  81 112 144 177 215 262 316
#
# _framework density 19.096833
#
# number of rings (size 3 to 8) (size 9 to 14) (size 15 to 20)
#    0.000    2.333    0.000    3.500    0.000    8.333 
#    0.000    4.167    0.000    0.500    0.000    3.500 
#    0.000    0.000    0.000    0.000    0.000    0.000 
#
# Total GULP energy -595254.193759 kJ/mol
# GULP energy per Si atom -12401.129037 kJ/mol
# Density = 1.905337 g / cm^3
# Si number density = 19.096833 Si / 1000 Ang^3
#
#
#
# Elastic Constant Matrix: (Units=GPa)
#
#
# Indices 1 2 3 4 5 6 
#
# 1 97.4361 22.3801 63.2188 0.0000 0.0000 0.0000
# 2 22.3801 25.8012 14.7123 0.0000 0.0000 0.0000
# 3 63.2188 14.7123 119.9747 0.0000 0.0000 0.0000
# 4 0.0000 0.0000 0.0000 -2.9982 0.0000 0.0000
# 5 0.0000 0.0000 0.0000 0.0000 42.3445 0.0000
# 6 0.0000 0.0000 0.0000 0.0000 0.0000 25.7034
#
#
#
# Elastic Compliance Matrix: (Units=1/GPa)
#
#
# Indices 1 2 3 4 5 6 
#
# 1 0.018114 -0.011041 -0.008191 0.000000 0.000000 0.000000
# 2 -0.011041 0.048402 -0.000117 0.000000 0.000000 0.000000
# 3 -0.008191 -0.000117 0.012665 0.000000 0.000000 0.000000
# 4 0.000000 0.000000 0.000000 -0.333529 0.000000 0.000000
# 5 0.000000 0.000000 0.000000 0.000000 0.023616 0.000000
# 6 0.000000 0.000000 0.000000 0.000000 0.000000 0.038905
#
#
# Mechanical properties :
#
#
# Convention : Reuss Voigt Hill
#
# Bulk Modulus (GPa) = 24.70214 49.31492 37.00853
# Shear Modulus (GPa) = -35.80797 22.53667 -6.63565
#
# Velocity S-wave (km/s) = -4.33491 3.43902 -1.86609
# Velocity P-wave (km/s) = 3.47735 6.45359 3.84427
#
# Compressibility (1/GPa) = 0.04048233
#
# Stress axis : x y z
#
# Youngs Moduli (GPa) = 55.20742 20.66025 78.95506
#
# Poissons Ratio (x) = 0.22812 0.64669
# Poissons Ratio (y) = 0.60956 0.00927
# Poissons Ratio (z) = 0.45219 0.00243
#
# Static dielectric constant tensor:
#      x y z
#    x 3.599680 0.000000 0.000000 
#    y 0.000000 3.303950 0.000000 
#    z 0.000000 0.000000 3.663030 
# 
# 
# High freq. dielectric constant tensor:
#      x y z
#    x 1.742000 0.000000 0.000000 
#    y 0.000000 1.723270 0.000000 
#    z 0.000000 0.000000 1.756720 
# 
# From -- ./inp_files/2447.got.cif
#   From: 2010.03.12/outbox.cif.g09.slc.cpg/sg47_2_cif.got.tgz:2447.got - 2010.04.14 03:12:58.
