data_PCOD8197767
_publ_section_title
;
Structure prediction by ZEFSAII (Michael W. Deem and Ramdas Pophale) SiO2 
 PCOD8197767
Probable space group: P M M M
;
_chemical_formula_sum "Si O2"
_cell_formula_units_Z 40
_cell_length_a 7.926234
_cell_length_b 27.285419
_cell_length_c 9.158999
_cell_angle_alpha 90.000000
_cell_angle_beta 90.000000
_cell_angle_gamma 90.000000
_cell_volume 1980.822354
_symmetry_space_group_name_H-M "P M M M"
_symmetry_group_IT_number 47
_symmetry_cell_setting 'orthorhombic'
loop_
_space_group_symop_operation_xyz
x,y,z
-x,-y,z
x,-y,-z
-x,y,-z
-x,-y,-z
x,y,-z
-x,y,z
x,-y,z
loop_
_atom_site_type_symbol
_atom_site_label
_atom_site_fract_x
_atom_site_fract_y
_atom_site_fract_z
Si Si1 0.805786 0.908113 0.160434
Si Si2 0.188872 0.712441 0.672928
Si Si3 0.000000 0.442175 0.168242
Si Si4 0.695208 0.816651 0.333982
Si Si5 0.201891 0.000000 0.336360
Si Si6 0.690796 0.391629 0.328023
O O1 0.792474 0.855884 0.237954
O O2 0.000000 0.920863 0.140716
O O3 0.724293 0.951747 0.255897
O O4 0.719489 0.906194 0.000000
O O5 0.187689 0.714931 0.500000
O O6 0.271733 0.762510 0.732520
O O7 0.294976 0.665074 0.722608
O O8 0.000000 0.707227 0.735381
O O9 0.170810 0.423233 0.243599
O O10 0.000000 0.500000 0.183700
O O11 0.000000 0.425400 0.000000
O O12 0.762971 0.819896 0.500000
O O13 0.500000 0.829043 0.326827
O O14 0.274554 0.000000 0.500000
O O15 0.000000 0.000000 0.340139
O O16 0.727844 0.396840 0.500000
O O17 0.500000 0.409562 0.291207
#
# Coordination Sequence:
#
# PCOD8197767 Si02
#       6
#     8   8   4   8   4   8
#     4  10  20  34  52  75 104 138 176 220 272 330
#     4   9  16  30  56  87 116 146 183 233 290 344
#     4  11  25  43  61  85 123 169 211 252 301 362
#     4  10  20  33  51  78 110 143 181 224 271 328
#     4   9  17  31  54  79 100 127 170 224 278 333
#     4  10  20  37  64  95 124 156 201 257 311 361
#
# _framework density 20.193632000000001
#
# number of rings (size 3 to 8) (size 9 to 14) (size 15 to 20)
#    0.000    2.200    1.000    2.400    0.000    7.600 
#    0.000    3.500    0.000    5.400    0.000    0.000 
#    0.000    0.000    0.000    0.000    0.000    0.000 
#
# Total GULP energy -495894.735396 kJ/mol
# GULP energy per Si atom -12397.368385 kJ/mol
# Density = 2.014767 g / cm^3
# Si number density = 20.193632 Si / 1000 Ang^3
#
#
#
# Elastic Constant Matrix: (Units=GPa)
#
#
# Indices 1 2 3 4 5 6 
#
# 1 88.1757 37.6143 40.6240 0.0000 0.0000 0.0000
# 2 37.6143 129.8256 63.1238 0.0000 0.0000 0.0000
# 3 40.6240 63.1238 112.4996 0.0000 0.0000 0.0000
# 4 0.0000 0.0000 0.0000 5.8325 0.0000 0.0000
# 5 0.0000 0.0000 0.0000 0.0000 13.0232 0.0000
# 6 0.0000 0.0000 0.0000 0.0000 0.0000 3.8833
#
#
#
# Elastic Compliance Matrix: (Units=1/GPa)
#
#
# Indices 1 2 3 4 5 6 
#
# 1 0.014049 -0.002205 -0.003836 0.000000 0.000000 0.000000
# 2 -0.002205 0.010939 -0.005341 0.000000 0.000000 0.000000
# 3 -0.003836 -0.005341 0.013271 0.000000 0.000000 0.000000
# 4 0.000000 0.000000 0.000000 0.171453 0.000000 0.000000
# 5 0.000000 0.000000 0.000000 0.000000 0.076786 0.000000
# 6 0.000000 0.000000 0.000000 0.000000 0.000000 0.257512
#
#
# Mechanical properties :
#
#
# Convention : Reuss Voigt Hill
#
# Bulk Modulus (GPa) = 64.54182 68.13610 66.33896
# Shear Modulus (GPa) = 8.74220 17.15708 12.94964
#
# Velocity S-wave (km/s) = 2.08293 2.91800 2.53508
# Velocity P-wave (km/s) = 6.14944 6.72068 6.44140
#
# Compressibility (1/GPa) = 0.01549383
#
# Stress axis : x y z
#
# Youngs Moduli (GPa) = 71.17982 91.41878 75.35218
#
# Poissons Ratio (x) = 0.20162 0.28902
# Poissons Ratio (y) = 0.15698 0.40248
# Poissons Ratio (z) = 0.27302 0.48830
#
# Static dielectric constant tensor:
#      x y z
#    x 3.523850 0.000000 0.000000 
#    y 0.000000 3.776550 0.000000 
#    z 0.000000 0.000000 3.577540 
# 
# 
# High freq. dielectric constant tensor:
#      x y z
#    x 1.779970 0.000000 0.000000 
#    y 0.000000 1.797660 0.000000 
#    z 0.000000 0.000000 1.760700 
# 
# From -- ./inp_files/1708.got.cif
#   From: 2010.03.12/outbox.cif.g09.slc.cpg/sg47_1_cif.got.tgz:1708.got - 2010.04.14 03:12:58.
