data_PCOD8197535
_publ_section_title
;
Structure prediction by ZEFSAII (Michael W. Deem and Ramdas Pophale) SiO2 
 PCOD8197535
Probable space group: P M M M
;
_chemical_formula_sum "Si O2"
_cell_formula_units_Z 52
_cell_length_a 15.296669
_cell_length_b 20.542270
_cell_length_c 9.073505
_cell_angle_alpha 90.000000
_cell_angle_beta 90.000000
_cell_angle_gamma 90.000000
_cell_volume 2851.152094
_symmetry_space_group_name_H-M "P M M M"
_symmetry_group_IT_number 47
_symmetry_cell_setting 'orthorhombic'
loop_
_space_group_symop_operation_xyz
x,y,z
-x,-y,z
x,-y,-z
-x,y,-z
-x,-y,-z
x,y,-z
-x,y,z
x,-y,z
loop_
_atom_site_type_symbol
_atom_site_label
_atom_site_fract_x
_atom_site_fract_y
_atom_site_fract_z
Si Si1 0.596298 0.820254 0.166122
Si Si2 0.752553 0.597118 0.674269
Si Si3 0.840380 0.136354 0.170198
Si Si4 0.750867 0.731551 0.168685
Si Si5 0.099874 0.500000 0.674552
Si Si6 0.397674 0.500000 0.674912
Si Si7 0.000000 0.073866 0.674147
Si Si8 0.680656 0.074808 0.669490
O O1 0.500000 0.790687 0.169200
O O2 0.659335 0.762886 0.218829
O O3 0.599164 0.881649 0.277257
O O4 0.623439 0.842311 0.000000
O O5 0.749788 0.596766 0.500000
O O6 0.764409 0.669912 0.729631
O O7 0.841642 0.561371 0.727869
O O8 0.661259 0.562490 0.728370
O O9 0.825501 0.213713 0.192942
O O10 0.758325 0.094294 0.221818
O O11 0.918283 0.114260 0.271915
O O12 0.860069 0.120605 0.000000
O O13 0.748692 0.708237 0.000000
O O14 0.090888 0.500000 0.500000
O O15 0.000000 0.500000 0.741900
O O16 0.500000 0.500000 0.736868
O O17 0.404479 0.500000 0.500000
O O18 0.000000 0.071522 0.500000
O O19 0.000000 0.000000 0.736991
O O20 0.705373 0.089590 0.500000
O O21 0.655457 0.000000 0.690784
#
# Coordination Sequence:
#
# PCOD8197535 Si02
#       8
#     8   8   8   8   4   4   4   8
#     4   9  19  35  52  70  95 132 176 213 250 307
#     4   9  17  30  52  77  99 132 173 209 250 305
#     4  10  21  37  55  74 100 138 178 210 252 315
#     4   9  19  35  52  72 103 137 166 209 259 299
#     4   8  15  31  52  74 102 130 164 208 246 290
#     4   8  15  29  48  74 108 138 168 212 259 305
#     4  11  23  37  55  81 109 132 163 218 277 317
#     4  10  20  33  50  73 101 130 163 212 269 313
#
# _framework density 18.238242
#
# number of rings (size 3 to 8) (size 9 to 14) (size 15 to 20)
#    0.000    2.692    0.000    3.462    0.000    8.000 
#    1.385    3.077    0.000    0.923    0.000    0.000 
#    0.000    0.000    0.000    0.000    0.000    0.000 
#
# Total GULP energy -644344.812936 kJ/mol
# GULP energy per Si atom -12391.246403 kJ/mol
# Density = 1.819673 g / cm^3
# Si number density = 18.238242 Si / 1000 Ang^3
#
#
#
# Elastic Constant Matrix: (Units=GPa)
#
#
# Indices 1 2 3 4 5 6 
#
# 1 119.9370 51.9829 21.0545 0.0000 0.0000 0.0000
# 2 51.9829 124.7354 41.0629 0.0000 0.0000 0.0000
# 3 21.0545 41.0629 46.7913 0.0000 0.0000 0.0000
# 4 0.0000 0.0000 0.0000 18.1260 0.0000 0.0000
# 5 0.0000 0.0000 0.0000 0.0000 24.2017 0.0000
# 6 0.0000 0.0000 0.0000 0.0000 0.0000 15.3533
#
#
#
# Elastic Compliance Matrix: (Units=1/GPa)
#
#
# Indices 1 2 3 4 5 6 
#
# 1 0.010224 -0.003862 -0.001211 0.000000 0.000000 0.000000
# 2 -0.003862 0.012733 -0.009436 0.000000 0.000000 0.000000
# 3 -0.001211 -0.009436 0.030198 0.000000 0.000000 0.000000
# 4 0.000000 0.000000 0.000000 0.055169 0.000000 0.000000
# 5 0.000000 0.000000 0.000000 0.000000 0.041319 0.000000
# 6 0.000000 0.000000 0.000000 0.000000 0.000000 0.065132
#
#
# Mechanical properties :
#
#
# Convention : Reuss Voigt Hill
#
# Bulk Modulus (GPa) = 41.43286 57.74046 49.58666
# Shear Modulus (GPa) = 19.85383 23.36043 21.60713
#
# Velocity S-wave (km/s) = 3.30295 3.58278 3.44570
# Velocity P-wave (km/s) = 6.10842 6.98876 6.56337
#
# Compressibility (1/GPa) = 0.02413543
#
# Stress axis : x y z
#
# Youngs Moduli (GPa) = 97.80645 78.53639 33.11524
#
# Poissons Ratio (x) = 0.30332 0.04011
# Poissons Ratio (y) = 0.37775 0.31248
# Poissons Ratio (z) = 0.11846 0.74109
#
# Static dielectric constant tensor:
#      x y z
#    x 2.963140 0.000000 0.000000 
#    y 0.000000 3.352810 0.000000 
#    z 0.000000 0.000000 3.275080 
# 
# 
# High freq. dielectric constant tensor:
#      x y z
#    x 1.708430 0.000000 0.000000 
#    y 0.000000 1.701450 0.000000 
#    z 0.000000 0.000000 1.692160 
# 
# From -- ./inp_files/7174.got.cif
#   From: 2010.03.12/outbox.cif.g09.slc.cpg/sg47_4_cif.got.tgz:7174.got - 2010.04.14 03:12:58.
