data_PCOD8197364
_publ_section_title
;
Structure prediction by ZEFSAII (Michael W. Deem and Ramdas Pophale) SiO2 
 PCOD8197364
Probable space group: P M M M
;
_chemical_formula_sum "Si O2"
_cell_formula_units_Z 52
_cell_length_a 14.312268
_cell_length_b 23.461775
_cell_length_c 9.195177
_cell_angle_alpha 90.000000
_cell_angle_beta 90.000000
_cell_angle_gamma 90.000000
_cell_volume 3087.659625
_symmetry_space_group_name_H-M "P M M M"
_symmetry_group_IT_number 47
_symmetry_cell_setting 'orthorhombic'
loop_
_space_group_symop_operation_xyz
x,y,z
-x,-y,z
x,-y,-z
-x,y,-z
-x,-y,-z
x,y,-z
-x,y,z
x,-y,z
loop_
_atom_site_type_symbol
_atom_site_label
_atom_site_fract_x
_atom_site_fract_y
_atom_site_fract_z
Si Si1 0.723741 0.936535 0.830943
Si Si2 0.604517 0.168387 0.172813
Si Si3 0.392035 0.376416 0.327150
Si Si4 0.719704 0.278322 0.827249
Si Si5 0.893848 0.761391 0.331431
Si Si6 0.389862 0.500000 0.658123
Si Si7 0.104972 0.107159 0.331184
O O1 0.651871 0.889713 0.767275
O O2 0.824504 0.931913 0.757413
O O3 0.683281 0.000000 0.802450
O O4 0.739232 0.925012 0.000000
O O5 0.500000 0.172419 0.237919
O O6 0.663744 0.222473 0.226896
O O7 0.599985 0.167258 0.000000
O O8 0.374336 0.372118 0.500000
O O9 0.500000 0.363177 0.291724
O O10 0.328669 0.333173 0.239681
O O11 0.363148 0.439818 0.265909
O O12 0.825347 0.275787 0.768399
O O13 0.720673 0.283382 0.000000
O O14 0.868222 0.752356 0.500000
O O15 0.881985 0.827134 0.286996
O O16 0.000000 0.741420 0.301588
O O17 0.500000 0.500000 0.635229
O O18 0.341575 0.500000 0.500000
O O19 0.125904 0.098761 0.500000
O O20 0.000000 0.087236 0.293881
#
# Coordination Sequence:
#
# PCOD8197364 Si02
#       7
#     8   8   8   8   8   4   8
#     4  10  20  33  49  69  91 119 159 201 239 283
#     4   9  18  32  47  65  92 124 157 195 237 280
#     4   9  17  30  49  73 102 137 174 207 238 276
#     4  11  20  30  48  74 103 131 158 196 246 296
#     4   9  18  33  52  72  94 122 158 199 241 290
#     4   7  12  26  47  69  96 133 174 209 237 270
#     4   9  18  33  52  71  92 119 149 187 240 297
#
# _framework density 16.841235000000001
#
# number of rings (size 3 to 8) (size 9 to 14) (size 15 to 20)
#    0.000    2.692    1.538    2.769    0.000    2.462 
#    0.000    5.000    0.000    2.769    0.000    1.615 
#    0.000    4.308    0.000    0.000    0.000    0.000 
#
# Total GULP energy -644541.842445 kJ/mol
# GULP energy per Si atom -12395.035432 kJ/mol
# Density = 1.680290 g / cm^3
# Si number density = 16.841235 Si / 1000 Ang^3
#
#
#
# Elastic Constant Matrix: (Units=GPa)
#
#
# Indices 1 2 3 4 5 6 
#
# 1 102.6125 58.1838 35.3007 0.0000 0.0000 0.0000
# 2 58.1838 125.2443 37.6005 0.0000 0.0000 0.0000
# 3 35.3007 37.6005 41.1491 0.0000 0.0000 0.0000
# 4 0.0000 0.0000 0.0000 18.4052 0.0000 0.0000
# 5 0.0000 0.0000 0.0000 0.0000 23.1152 0.0000
# 6 0.0000 0.0000 0.0000 0.0000 0.0000 24.3048
#
#
#
# Elastic Compliance Matrix: (Units=1/GPa)
#
#
# Indices 1 2 3 4 5 6 
#
# 1 0.015401 -0.004393 -0.009197 0.000000 0.000000 0.000000
# 2 -0.004393 0.012256 -0.007430 0.000000 0.000000 0.000000
# 3 -0.009197 -0.007430 0.038981 0.000000 0.000000 0.000000
# 4 0.000000 0.000000 0.000000 0.054332 0.000000 0.000000
# 5 0.000000 0.000000 0.000000 0.000000 0.043261 0.000000
# 6 0.000000 0.000000 0.000000 0.000000 0.000000 0.041144
#
#
# Mechanical properties :
#
#
# Convention : Reuss Voigt Hill
#
# Bulk Modulus (GPa) = 40.65630 59.01955 49.83792
# Shear Modulus (GPa) = 19.56055 22.35978 20.96016
#
# Velocity S-wave (km/s) = 3.41173 3.64769 3.53168
# Velocity P-wave (km/s) = 6.30184 7.27060 6.80348
#
# Compressibility (1/GPa) = 0.02459643
#
# Stress axis : x y z
#
# Youngs Moduli (GPa) = 64.93257 81.59230 25.65321
#
# Poissons Ratio (x) = 0.35846 0.23594
# Poissons Ratio (y) = 0.28527 0.19061
# Poissons Ratio (z) = 0.59720 0.60625
#
# Static dielectric constant tensor:
#      x y z
#    x 3.141290 0.000000 0.000000 
#    y 0.000000 3.269110 0.000000 
#    z 0.000000 0.000000 2.874330 
# 
# 
# High freq. dielectric constant tensor:
#      x y z
#    x 1.639470 0.000000 0.000000 
#    y 0.000000 1.644380 0.000000 
#    z 0.000000 0.000000 1.624900 
# 
# From -- ./inp_files/7643.got.cif
#   From: 2010.03.12/outbox.cif.g09.slc.cpg/sg47_4_cif.got.tgz:7643.got - 2010.04.14 03:12:58.
