data_PCOD8197907
_publ_section_title
;
Structure prediction by ZEFSAII (Michael W. Deem and Ramdas Pophale) SiO2 
 PCOD8197907
Probable space group: P M M M
;
_chemical_formula_sum "Si O2"
_cell_formula_units_Z 64
_cell_length_a 15.501945
_cell_length_b 23.626635
_cell_length_c 9.109759
_cell_angle_alpha 90.000000
_cell_angle_beta 90.000000
_cell_angle_gamma 90.000000
_cell_volume 3336.529366
_symmetry_space_group_name_H-M "P M M M"
_symmetry_group_IT_number 47
_symmetry_cell_setting 'orthorhombic'
loop_
_space_group_symop_operation_xyz
x,y,z
-x,-y,z
x,-y,-z
-x,y,-z
-x,-y,-z
x,y,-z
-x,y,z
x,-y,z
loop_
_atom_site_type_symbol
_atom_site_label
_atom_site_fract_x
_atom_site_fract_y
_atom_site_fract_z
Si Si1 0.237696 0.137989 0.672957
Si Si2 0.905154 0.566439 0.337608
Si Si3 0.406121 0.123465 0.836475
Si Si4 0.599459 0.434328 0.328147
Si Si5 0.099645 0.934792 0.831925
Si Si6 0.241131 0.623430 0.172947
Si Si7 0.751970 0.266809 0.669843
Si Si8 0.593439 0.743143 0.160041
O O1 0.245688 0.135651 0.500000
O O2 0.324546 0.107959 0.734740
O O3 0.154766 0.103946 0.724772
O O4 0.224067 0.203332 0.724150
O O5 0.879131 0.589853 0.500000
O O6 0.911768 0.500000 0.346218
O O7 0.833250 0.580132 0.217472
O O8 0.000000 0.590785 0.293369
O O9 0.500000 0.099816 0.779007
O O10 0.414268 0.190087 0.842345
O O11 0.388655 0.099228 0.000000
O O12 0.615874 0.423984 0.500000
O O13 0.500000 0.419318 0.287258
O O14 0.617639 0.500000 0.289250
O O15 0.665792 0.394767 0.238295
O O16 0.000000 0.920729 0.802814
O O17 0.118732 0.000000 0.795592
O O18 0.124043 0.921424 0.000000
O O19 0.204156 0.683802 0.234864
O O20 0.250051 0.625804 0.000000
O O21 0.772886 0.275387 0.500000
O O22 0.650673 0.276635 0.703578
O O23 0.500000 0.715618 0.184440
O O24 0.630857 0.723293 0.000000
#
# Coordination Sequence:
#
# PCOD8197907 Si02
#       8
#     8   8   8   8   8   8   8   8
#     4  10  20  33  53  81 110 142 179 222 272 316
#     4   9  19  38  63  85 103 128 164 207 259 319
#     4   8  14  26  46  71 100 138 179 214 252 302
#     4   9  19  37  59  80 105 143 189 232 277 333
#     4   9  19  37  61  87 112 140 176 216 261 319
#     4  12  24  35  52  79 110 143 178 221 272 320
#     4  10  21  35  49  69 102 144 185 219 257 315
#     4   8  14  26  44  66  93 126 168 218 264 301
#
# _framework density 19.181609000000002
#
# number of rings (size 3 to 8) (size 9 to 14) (size 15 to 20)
#    0.000    2.625    0.000    4.125    0.000    5.500 
#    0.000    5.000    0.000    1.125    0.000    2.625 
#    0.000    0.000    0.000    0.000    0.000    0.000 
#
# Total GULP energy -792928.951947 kJ/mol
# GULP energy per Si atom -12389.514874 kJ/mol
# Density = 1.913795 g / cm^3
# Si number density = 19.181609 Si / 1000 Ang^3
#
#
#
# Elastic Constant Matrix: (Units=GPa)
#
#
# Indices 1 2 3 4 5 6 
#
# 1 102.9722 39.1191 45.1185 0.0000 0.0000 0.0000
# 2 39.1191 60.1068 34.9846 0.0000 0.0000 0.0000
# 3 45.1185 34.9846 85.1834 0.0000 0.0000 0.0000
# 4 0.0000 0.0000 0.0000 23.6002 0.0000 0.0000
# 5 0.0000 0.0000 0.0000 0.0000 20.1330 0.0000
# 6 0.0000 0.0000 0.0000 0.0000 0.0000 18.0833
#
#
#
# Elastic Compliance Matrix: (Units=1/GPa)
#
#
# Indices 1 2 3 4 5 6 
#
# 1 0.014325 -0.006448 -0.004939 0.000000 0.000000 0.000000
# 2 -0.006448 0.024766 -0.006756 0.000000 0.000000 0.000000
# 3 -0.004939 -0.006756 0.017130 0.000000 0.000000 0.000000
# 4 0.000000 0.000000 0.000000 0.042373 0.000000 0.000000
# 5 0.000000 0.000000 0.000000 0.000000 0.049670 0.000000
# 6 0.000000 0.000000 0.000000 0.000000 0.000000 0.055300
#
#
# Mechanical properties :
#
#
# Convention : Reuss Voigt Hill
#
# Bulk Modulus (GPa) = 50.16448 54.07853 52.12151
# Shear Modulus (GPa) = 20.28436 20.96597 20.62516
#
# Velocity S-wave (km/s) = 3.25544 3.30968 3.28267
# Velocity P-wave (km/s) = 6.35135 6.54671 6.44977
#
# Compressibility (1/GPa) = 0.01993443
#
# Stress axis : x y z
#
# Youngs Moduli (GPa) = 69.80646 40.37785 58.37679
#
# Poissons Ratio (x) = 0.26038 0.28834
# Poissons Ratio (y) = 0.45015 0.39438
# Poissons Ratio (z) = 0.34479 0.27279
#
# Static dielectric constant tensor:
#      x y z
#    x 3.722820 0.000000 0.000000 
#    y 0.000000 3.378630 0.000000 
#    z 0.000000 0.000000 3.448590 
# 
# 
# High freq. dielectric constant tensor:
#      x y z
#    x 1.742560 0.000000 0.000000 
#    y 0.000000 1.726210 0.000000 
#    z 0.000000 0.000000 1.737370 
# 
# From -- ./inp_files/7875.got.cif
#   From: 2010.03.12/outbox.cif.g09.slc.cpg/sg47_4_cif.got.tgz:7875.got - 2010.04.14 03:12:58.
