data_PCOD8197948
_publ_section_title
;
Structure prediction by ZEFSAII (Michael W. Deem and Ramdas Pophale) SiO2 
 PCOD8197948
Probable space group: P M M M
;
_chemical_formula_sum "Si O2"
_cell_formula_units_Z 52
_cell_length_a 27.221261
_cell_length_b 8.989616
_cell_length_c 15.398321
_cell_angle_alpha 90.000000
_cell_angle_beta 90.000000
_cell_angle_gamma 90.000000
_cell_volume 3768.102859
_symmetry_space_group_name_H-M "P M M M"
_symmetry_group_IT_number 47
_symmetry_cell_setting 'orthorhombic'
loop_
_space_group_symop_operation_xyz
x,y,z
-x,-y,z
x,-y,-z
-x,y,-z
-x,-y,-z
x,y,-z
-x,y,z
x,-y,z
loop_
_atom_site_type_symbol
_atom_site_label
_atom_site_fract_x
_atom_site_fract_y
_atom_site_fract_z
Si Si1 0.941770 0.831881 0.500000
Si Si2 0.058119 0.669695 0.000000
Si Si3 0.595813 0.166176 0.103640
Si Si4 0.500000 0.666862 0.103524
Si Si5 0.200895 0.325698 0.101077
Si Si6 0.941910 0.672612 0.325378
Si Si7 0.892844 0.823236 0.837277
Si Si8 0.689959 0.335190 0.896905
O O1 0.923500 0.741320 0.416126
O O2 0.000000 0.839229 0.500000
O O3 0.920171 0.000000 0.500000
O O4 0.076612 0.752601 0.084815
O O5 0.078106 0.500000 0.000000
O O6 0.000000 0.671364 0.000000
O O7 0.548903 0.254863 0.140033
O O8 0.646648 0.232743 0.141180
O O9 0.591333 0.000000 0.138972
O O10 0.596288 0.170865 0.000000
O O11 0.500000 0.500000 0.138776
O O12 0.500000 0.672076 0.000000
O O13 0.193840 0.500000 0.120442
O O14 0.163718 0.228275 0.157848
O O15 0.255963 0.274567 0.128110
O O16 0.190699 0.292699 0.000000
O O17 0.926534 0.500000 0.320743
O O18 0.915280 0.766203 0.251801
O O19 0.000000 0.690690 0.313591
O O20 0.896389 0.000000 0.842127
O O21 0.682425 0.500000 0.858387
O O22 0.686362 0.343005 0.000000
#
# Coordination Sequence:
#
# PCOD8197948 Si02
#       8
#     4   4   8   4   8   8   8   8
#     4   9  17  31  51  73  93 107 123 155 193 226
#     4  11  23  37  49  59  77 107 137 162 193 238
#     4   9  15  21  29  43  61  80 102 136 180 223
#     4   9  15  21  29  39  55  79 105 135 171 220
#     4   9  17  30  45  56  72 100 130 160 193 233
#     4  10  20  34  51  68  86 110 135 156 186 235
#     4  12  23  32  45  65  85 105 131 166 202 234
#     4   8  14  24  37  50  62  83 115 147 180 221
#
# _framework density 13.800049
#
# number of rings (size 3 to 8) (size 9 to 14) (size 15 to 20)
#    0.000    2.385    0.769    4.385    0.000    7.692 
#    0.000    1.538    0.000    0.000    0.000    0.000 
#    0.000    0.000    0.000    0.000    0.000    0.000 
#
# Total GULP energy -644670.684913 kJ/mol
# GULP energy per Si atom -12397.513171 kJ/mol
# Density = 1.376864 g / cm^3
# Si number density = 13.800049 Si / 1000 Ang^3
#
#
#
# Elastic Constant Matrix: (Units=GPa)
#
#
# Indices 1 2 3 4 5 6 
#
# 1 93.7815 58.2335 29.8466 0.0000 0.0000 0.0000
# 2 58.2335 122.7148 36.6934 0.0000 0.0000 0.0000
# 3 29.8466 36.6934 60.4351 0.0000 0.0000 0.0000
# 4 0.0000 0.0000 0.0000 19.2427 0.0000 0.0000
# 5 0.0000 0.0000 0.0000 0.0000 4.4521 0.0000
# 6 0.0000 0.0000 0.0000 0.0000 0.0000 19.1577
#
#
#
# Elastic Compliance Matrix: (Units=1/GPa)
#
#
# Indices 1 2 3 4 5 6 
#
# 1 0.015868 -0.006337 -0.003989 0.000000 0.000000 0.000000
# 2 -0.006337 0.012487 -0.004452 0.000000 0.000000 0.000000
# 3 -0.003989 -0.004452 0.021220 0.000000 0.000000 0.000000
# 4 0.000000 0.000000 0.000000 0.051968 0.000000 0.000000
# 5 0.000000 0.000000 0.000000 0.000000 0.224612 0.000000
# 6 0.000000 0.000000 0.000000 0.000000 0.000000 0.052198
#
#
# Mechanical properties :
#
#
# Convention : Reuss Voigt Hill
#
# Bulk Modulus (GPa) = 49.95343 58.49759 54.22551
# Shear Modulus (GPa) = 12.06035 18.71437 15.38736
#
# Velocity S-wave (km/s) = 2.95945 3.68653 3.34282
# Velocity P-wave (km/s) = 6.92491 7.78474 7.36738
#
# Compressibility (1/GPa) = 0.02001865
#
# Stress axis : x y z
#
# Youngs Moduli (GPa) = 63.02153 80.08018 47.12602
#
# Poissons Ratio (x) = 0.50748 0.18797
# Poissons Ratio (y) = 0.39938 0.20981
# Poissons Ratio (z) = 0.25138 0.35653
#
# Static dielectric constant tensor:
#      x y z
#    x 2.867070 0.000000 0.000000 
#    y 0.000000 2.920730 0.000000 
#    z 0.000000 0.000000 2.089570 
# 
# 
# High freq. dielectric constant tensor:
#      x y z
#    x 1.526210 0.000000 0.000000 
#    y 0.000000 1.542310 0.000000 
#    z 0.000000 0.000000 1.459630 
# 
# From -- ./inp_files/22045.got.cif
#   From: 2010.03.12/outbox.cif.g09.slc.cpg/sg47_12_cif.got.tgz:22045.got - 2010.04.14 03:12:58.
