data_PCOD8197172
_publ_section_title
;
Structure prediction by ZEFSAII (Michael W. Deem and Ramdas Pophale) SiO2 
 PCOD8197172
Probable space group: P M M M
;
_chemical_formula_sum "Si O2"
_cell_formula_units_Z 52
_cell_length_a 9.053162
_cell_length_b 18.989360
_cell_length_c 16.054344
_cell_angle_alpha 90.000000
_cell_angle_beta 90.000000
_cell_angle_gamma 90.000000
_cell_volume 2759.962519
_symmetry_space_group_name_H-M "P M M M"
_symmetry_group_IT_number 47
_symmetry_cell_setting 'orthorhombic'
loop_
_space_group_symop_operation_xyz
x,y,z
-x,-y,z
x,-y,-z
-x,y,-z
-x,-y,-z
x,y,-z
-x,y,z
x,-y,z
loop_
_atom_site_type_symbol
_atom_site_label
_atom_site_fract_x
_atom_site_fract_y
_atom_site_fract_z
Si Si1 0.674967 0.355154 0.837453
Si Si2 0.835849 0.198452 0.657613
Si Si3 0.830717 0.583259 0.000000
Si Si4 0.329593 0.806701 0.819289
Si Si5 0.668365 0.630995 0.500000
Si Si6 0.335288 0.799036 0.500000
Si Si7 0.167971 0.365618 0.333422
Si Si8 0.162505 0.076901 0.902947
O O1 0.500000 0.370194 0.835847
O O2 0.710167 0.272370 0.847119
O O3 0.745004 0.386042 0.751639
O O4 0.747567 0.391333 0.917214
O O5 0.760074 0.168354 0.739163
O O6 0.745946 0.169437 0.579664
O O7 0.834629 0.282358 0.658590
O O8 0.000000 0.168411 0.651697
O O9 0.827695 0.500000 0.000000
O O10 0.000000 0.611138 0.000000
O O11 0.500000 0.811860 0.797592
O O12 0.284069 0.862756 0.888603
O O13 0.500000 0.602387 0.500000
O O14 0.667916 0.714873 0.500000
O O15 0.750720 0.603175 0.415966
O O16 0.500000 0.828149 0.500000
O O17 0.000000 0.395250 0.329168
O O18 0.000000 0.098611 0.867523
O O19 0.209344 0.000000 0.865696
O O20 0.149534 0.068303 0.000000
#
# Coordination Sequence:
#
# PCOD8197172 Si02
#       8
#     8   8   4   8   4   4   8   8
#     4  10  21  36  54  78 108 139 174 218 267 316
#     4   9  16  26  41  63  93 130 169 206 249 301
#     4  11  25  43  61  81 104 135 178 221 261 310
#     4  10  20  32  49  75 105 133 168 211 257 304
#     4   9  15  23  39  65 100 139 172 207 258 313
#     4   9  15  23  37  59  92 129 164 205 254 299
#     4   9  16  27  44  69 101 136 174 214 257 307
#     4   9  19  35  52  71  97 131 170 209 252 305
#
# _framework density 18.840834999999998
#
# number of rings (size 3 to 8) (size 9 to 14) (size 15 to 20)
#    0.000    2.538    0.000    3.000    1.077    8.615 
#    0.000    0.769    0.000    0.000    0.000    1.077 
#    0.000    8.615    0.000    0.000    0.000    0.000 
#
# Total GULP energy -644528.014714 kJ/mol
# GULP energy per Si atom -12394.769514 kJ/mol
# Density = 1.879795 g / cm^3
# Si number density = 18.840835 Si / 1000 Ang^3
#
#
#
# Elastic Constant Matrix: (Units=GPa)
#
#
# Indices 1 2 3 4 5 6 
#
# 1 150.9896 31.8469 74.3944 0.0000 0.0000 0.0000
# 2 31.8469 39.6036 27.4787 0.0000 0.0000 0.0000
# 3 74.3944 27.4787 138.2468 0.0000 0.0000 0.0000
# 4 0.0000 0.0000 0.0000 -3.3209 0.0000 0.0000
# 5 0.0000 0.0000 0.0000 0.0000 39.6820 0.0000
# 6 0.0000 0.0000 0.0000 0.0000 0.0000 16.3370
#
#
#
# Elastic Compliance Matrix: (Units=1/GPa)
#
#
# Indices 1 2 3 4 5 6 
#
# 1 0.009763 -0.004878 -0.004284 0.000000 0.000000 0.000000
# 2 -0.004878 0.031727 -0.003681 0.000000 0.000000 0.000000
# 3 -0.004284 -0.003681 0.010270 0.000000 0.000000 0.000000
# 4 0.000000 0.000000 0.000000 -0.301124 0.000000 0.000000
# 5 0.000000 0.000000 0.000000 0.000000 0.025200 0.000000
# 6 0.000000 0.000000 0.000000 0.000000 0.000000 0.061211
#
#
# Mechanical properties :
#
#
# Convention : Reuss Voigt Hill
#
# Bulk Modulus (GPa) = 38.35289 66.25334 52.30311
# Shear Modulus (GPa) = -38.88784 23.54761 -7.67011
#
# Velocity S-wave (km/s) = -4.54808 3.53911 -2.01986
# Velocity P-wave (km/s) = 2.67947 7.20705 4.73085
#
# Compressibility (1/GPa) = 0.02607366
#
# Stress axis : x y z
#
# Youngs Moduli (GPa) = 102.43155 31.51871 97.36683
#
# Poissons Ratio (x) = 0.15375 0.41711
# Poissons Ratio (y) = 0.49968 0.35843
# Poissons Ratio (z) = 0.43881 0.11603
#
# Static dielectric constant tensor:
#      x y z
#    x 3.692500 0.000000 0.000000 
#    y 0.000000 2.979370 0.000000 
#    z 0.000000 0.000000 3.593130 
# 
# 
# High freq. dielectric constant tensor:
#      x y z
#    x 1.748340 0.000000 0.000000 
#    y 0.000000 1.677230 0.000000 
#    z 0.000000 0.000000 1.738870 
# 
# From -- ./inp_files/21495.got.cif
#   From: 2010.03.12/outbox.cif.g09.slc.cpg/sg47_11_cif.got.tgz:21495.got - 2010.04.14 03:12:58.
