data_PCOD8197911
_publ_section_title
;
Structure prediction by ZEFSAII (Michael W. Deem and Ramdas Pophale) SiO2 
 PCOD8197911
Probable space group: P M M M
;
_chemical_formula_sum "Si O2"
_cell_formula_units_Z 40
_cell_length_a 9.893572
_cell_length_b 27.346473
_cell_length_c 7.940623
_cell_angle_alpha 90.000000
_cell_angle_beta 90.000000
_cell_angle_gamma 90.000000
_cell_volume 2148.369694
_symmetry_space_group_name_H-M "P M M M"
_symmetry_group_IT_number 47
_symmetry_cell_setting 'orthorhombic'
loop_
_space_group_symop_operation_xyz
x,y,z
-x,-y,z
x,-y,-z
-x,y,-z
-x,-y,-z
x,y,-z
-x,y,z
x,-y,z
loop_
_atom_site_type_symbol
_atom_site_label
_atom_site_fract_x
_atom_site_fract_y
_atom_site_fract_z
Si Si1 0.156015 0.380051 0.310864
Si Si2 0.840002 0.445552 0.000000
Si Si3 0.148645 0.103880 0.302543
Si Si4 0.656301 0.296863 0.803485
Si Si5 0.649256 0.186801 0.801276
Si Si6 0.160925 0.000000 0.684590
O O1 0.170784 0.402314 0.500000
O O2 0.209038 0.418327 0.170317
O O3 0.246005 0.331515 0.302565
O O4 0.000000 0.366154 0.274637
O O5 0.776614 0.500000 0.000000
O O6 0.000000 0.449169 0.000000
O O7 0.135955 0.095039 0.500000
O O8 0.246761 0.148351 0.269983
O O9 0.202125 0.051601 0.223693
O O10 0.000000 0.116874 0.228461
O O11 0.500000 0.309433 0.765124
O O12 0.689413 0.241561 0.745315
O O13 0.687479 0.303961 0.000000
O O14 0.500000 0.174238 0.731234
O O15 0.648012 0.184165 0.000000
O O16 0.228810 0.000000 0.500000
O O17 0.000000 0.000000 0.669955
#
# Coordination Sequence:
#
# PCOD8197911 Si02
#       6
#     8   4   8   8   8   4
#     4  10  20  33  53  82 110 137 175 219 259 305
#     4   9  18  34  55  79 111 147 177 212 261 306
#     4   9  17  30  49  71  93 120 159 205 250 298
#     4   9  18  34  54  72  96 136 177 210 253 309
#     4   9  19  34  49  68  97 131 165 200 243 299
#     4   7  12  26  46  65  88 120 156 197 246 297
#
# _framework density 18.618767999999999
#
# number of rings (size 3 to 8) (size 9 to 14) (size 15 to 20)
#    0.000    3.000    1.000    2.400    0.000    3.200 
#    0.000    9.000    0.000    6.000    0.000    1.400 
#    0.000    0.000    0.000    0.000    0.000    0.000 
#
# Total GULP energy -495573.076736 kJ/mol
# GULP energy per Si atom -12389.326918 kJ/mol
# Density = 1.857639 g / cm^3
# Si number density = 18.618768 Si / 1000 Ang^3
#
#
#
# Elastic Constant Matrix: (Units=GPa)
#
#
# Indices 1 2 3 4 5 6 
#
# 1 71.1943 66.4864 28.4070 0.0000 0.0000 0.0000
# 2 66.4864 148.0891 49.4283 0.0000 0.0000 0.0000
# 3 28.4070 49.4283 70.4586 0.0000 0.0000 0.0000
# 4 0.0000 0.0000 0.0000 24.7249 0.0000 0.0000
# 5 0.0000 0.0000 0.0000 0.0000 21.9605 0.0000
# 6 0.0000 0.0000 0.0000 0.0000 0.0000 -23.6262
#
#
#
# Elastic Compliance Matrix: (Units=1/GPa)
#
#
# Indices 1 2 3 4 5 6 
#
# 1 0.024613 -0.010104 -0.002835 0.000000 0.000000 0.000000
# 2 -0.010104 0.012965 -0.005022 0.000000 0.000000 0.000000
# 3 -0.002835 -0.005022 0.018859 0.000000 0.000000 0.000000
# 4 0.000000 0.000000 0.000000 0.040445 0.000000 0.000000
# 5 0.000000 0.000000 0.000000 0.000000 0.045536 0.000000
# 6 0.000000 0.000000 0.000000 0.000000 0.000000 -0.042326
#
#
# Mechanical properties :
#
#
# Convention : Reuss Voigt Hill
#
# Bulk Modulus (GPa) = 48.74430 64.26502 56.50466
# Shear Modulus (GPa) = 35.00112 14.30654 24.65383
#
# Velocity S-wave (km/s) = 4.34047 2.77500 3.64282
# Velocity P-wave (km/s) = 7.16635 6.69766 6.93597
#
# Compressibility (1/GPa) = 0.02051522
#
# Stress axis : x y z
#
# Youngs Moduli (GPa) = 40.62849 77.12979 53.02627
#
# Poissons Ratio (x) = 0.77933 0.15034
# Poissons Ratio (y) = 0.41052 0.26628
# Poissons Ratio (z) = 0.11519 0.38732
#
# Static dielectric constant tensor:
#      x y z
#    x 2.877230 0.000000 0.000000 
#    y 0.000000 4.149700 0.000000 
#    z 0.000000 0.000000 3.276960 
# 
# 
# High freq. dielectric constant tensor:
#      x y z
#    x 1.694360 0.000000 0.000000 
#    y 0.000000 1.727520 0.000000 
#    z 0.000000 0.000000 1.709500 
# 
# From -- ./inp_files/1759.got.cif
#   From: 2010.03.12/outbox.cif.g09.slc.cpg/sg47_1_cif.got.tgz:1759.got - 2010.04.14 03:12:58.
