data_PCOD8197348
_publ_section_title
;
Structure prediction by ZEFSAII (Michael W. Deem and Ramdas Pophale) SiO2 
 PCOD8197348
Probable space group: P M M M
;
_chemical_formula_sum "Si O2"
_cell_formula_units_Z 52
_cell_length_a 9.251131
_cell_length_b 14.382057
_cell_length_c 23.509514
_cell_angle_alpha 90.000000
_cell_angle_beta 90.000000
_cell_angle_gamma 90.000000
_cell_volume 3127.947734
_symmetry_space_group_name_H-M "P M M M"
_symmetry_group_IT_number 47
_symmetry_cell_setting 'orthorhombic'
loop_
_space_group_symop_operation_xyz
x,y,z
-x,-y,z
x,-y,-z
-x,y,-z
-x,-y,-z
x,y,-z
-x,y,z
x,-y,z
loop_
_atom_site_type_symbol
_atom_site_label
_atom_site_fract_x
_atom_site_fract_y
_atom_site_fract_z
Si Si1 0.168462 0.608785 0.389518
Si Si2 0.332400 0.894432 0.113193
Si Si3 0.166971 0.732111 0.063639
Si Si4 0.827859 0.604417 0.165704
Si Si5 0.166327 0.896846 0.771018
Si Si6 0.169136 0.293197 0.277514
Si Si7 0.663090 0.389499 0.500000
O O1 0.194882 0.500000 0.378950
O O2 0.234026 0.663476 0.335162
O O3 0.254382 0.646748 0.444137
O O4 0.000000 0.629919 0.399718
O O5 0.500000 0.869204 0.117001
O O6 0.255704 0.827640 0.068137
O O7 0.264958 0.878355 0.174948
O O8 0.308277 0.000000 0.092580
O O9 0.226390 0.657177 0.108997
O O10 0.000000 0.754991 0.075977
O O11 0.187889 0.691776 0.000000
O O12 0.765330 0.500000 0.164623
O O13 0.765801 0.656738 0.221501
O O14 0.000000 0.602636 0.166788
O O15 0.202595 0.817598 0.724423
O O16 0.000000 0.886661 0.790793
O O17 0.195007 0.000000 0.745130
O O18 0.000000 0.313974 0.278597
O O19 0.664963 0.500000 0.500000
O O20 0.500000 0.350608 0.500000
#
# Coordination Sequence:
#
# PCOD8197348 Si02
#       7
#     8   8   8   8   8   8   4
#     4   9  16  26  43  67  93 122 156 189 220 261
#     4  10  20  33  49  68  90 117 149 187 233 283
#     4  10  20  33  49  69  91 117 152 191 232 280
#     4   9  16  27  45  69  95 119 147 188 232 271
#     4   9  16  28  48  71  95 121 148 183 229 279
#     4   9  15  25  44  71  96 118 148 187 229 270
#     4   9  17  29  43  61  92 129 158 186 223 263
#
# _framework density 16.624319
#
# number of rings (size 3 to 8) (size 9 to 14) (size 15 to 20)
#    0.000    2.692    1.538    1.154    0.000    4.615 
#    0.000    3.846    0.000    0.462    0.000    1.615 
#    0.000    4.308    0.000    0.000    0.000    0.000 
#
# Total GULP energy -644639.113425 kJ/mol
# GULP energy per Si atom -12396.906027 kJ/mol
# Density = 1.658648 g / cm^3
# Si number density = 16.624319 Si / 1000 Ang^3
#
#
#
# Elastic Constant Matrix: (Units=GPa)
#
#
# Indices 1 2 3 4 5 6 
#
# 1 47.8644 29.5851 36.6025 0.0000 0.0000 0.0000
# 2 29.5851 106.3529 66.4532 0.0000 0.0000 0.0000
# 3 36.6025 66.4532 142.5647 0.0000 0.0000 0.0000
# 4 0.0000 0.0000 0.0000 24.2533 0.0000 0.0000
# 5 0.0000 0.0000 0.0000 0.0000 6.2822 0.0000
# 6 0.0000 0.0000 0.0000 0.0000 0.0000 10.6919
#
#
#
# Elastic Compliance Matrix: (Units=1/GPa)
#
#
# Indices 1 2 3 4 5 6 
#
# 1 0.027483 -0.004566 -0.004928 0.000000 0.000000 0.000000
# 2 -0.004566 0.014025 -0.005365 0.000000 0.000000 0.000000
# 3 -0.004928 -0.005365 0.010780 0.000000 0.000000 0.000000
# 4 0.000000 0.000000 0.000000 0.041231 0.000000 0.000000
# 5 0.000000 0.000000 0.000000 0.000000 0.159181 0.000000
# 6 0.000000 0.000000 0.000000 0.000000 0.000000 0.093528
#
#
# Mechanical properties :
#
#
# Convention : Reuss Voigt Hill
#
# Bulk Modulus (GPa) = 44.30563 62.45153 53.37858
# Shear Modulus (GPa) = 13.03879 19.18823 16.11351
#
# Velocity S-wave (km/s) = 2.80361 3.40108 3.11669
# Velocity P-wave (km/s) = 6.09830 7.28499 6.71790
#
# Compressibility (1/GPa) = 0.02257049
#
# Stress axis : x y z
#
# Youngs Moduli (GPa) = 36.38620 71.30001 92.76126
#
# Poissons Ratio (x) = 0.32557 0.45709
# Poissons Ratio (y) = 0.16615 0.49768
# Poissons Ratio (z) = 0.17930 0.38254
#
# Static dielectric constant tensor:
#      x y z
#    x 2.893040 0.000000 0.000000 
#    y 0.000000 3.236620 0.000000 
#    z 0.000000 0.000000 3.149070 
# 
# 
# High freq. dielectric constant tensor:
#      x y z
#    x 1.607650 0.000000 0.000000 
#    y 0.000000 1.632170 0.000000 
#    z 0.000000 0.000000 1.629290 
# 
# From -- ./inp_files/7645.got.cif
#   From: 2010.03.12/outbox.cif.g09.slc.cpg/sg47_4_cif.got.tgz:7645.got - 2010.04.14 03:12:58.
