data_PCOD8197355
_publ_section_title
;
Structure prediction by ZEFSAII (Michael W. Deem and Ramdas Pophale) SiO2 
 PCOD8197355
Probable space group: P M M M
;
_chemical_formula_sum "Si O2"
_cell_formula_units_Z 64
_cell_length_a 28.581655
_cell_length_b 8.975269
_cell_length_c 13.933171
_cell_angle_alpha 90.000000
_cell_angle_beta 90.000000
_cell_angle_gamma 90.000000
_cell_volume 3574.249077
_symmetry_space_group_name_H-M "P M M M"
_symmetry_group_IT_number 47
_symmetry_cell_setting 'orthorhombic'
loop_
_space_group_symop_operation_xyz
x,y,z
-x,-y,z
x,-y,-z
-x,y,-z
-x,-y,-z
x,y,-z
-x,y,z
x,-y,z
loop_
_atom_site_type_symbol
_atom_site_label
_atom_site_fract_x
_atom_site_fract_y
_atom_site_fract_z
Si Si1 0.444547 0.334020 0.100827
Si Si2 0.945964 0.171314 0.110403
Si Si3 0.362926 0.830293 0.608834
Si Si4 0.865488 0.324079 0.216459
Si Si5 0.552712 0.677710 0.693391
Si Si6 0.782008 0.174087 0.108772
Si Si7 0.272635 0.825479 0.709608
Si Si8 0.179152 0.823402 0.390315
O O1 0.500000 0.345506 0.104054
O O2 0.423368 0.500000 0.097665
O O3 0.430004 0.257732 0.201716
O O4 0.429003 0.251693 0.000000
O O5 0.916425 0.278353 0.178985
O O6 0.000000 0.198087 0.135351
O O7 0.932052 0.000000 0.129199
O O8 0.935914 0.212685 0.000000
O O9 0.344991 0.820163 0.500000
O O10 0.411160 0.739499 0.616141
O O11 0.322241 0.756632 0.675715
O O12 0.373451 0.000000 0.638587
O O13 0.861384 0.500000 0.223366
O O14 0.827420 0.264382 0.140814
O O15 0.858966 0.254939 0.322463
O O16 0.500000 0.732219 0.668344
O O17 0.553756 0.500000 0.694642
O O18 0.738287 0.213230 0.178825
O O19 0.794516 0.000000 0.118020
O O20 0.768120 0.217068 0.000000
O O21 0.230309 0.766248 0.643184
O O22 0.277042 0.000000 0.692095
O O23 0.170388 0.775239 0.500000
O O24 0.174785 0.000000 0.376904
#
# Coordination Sequence:
#
# PCOD8197355 Si02
#       8
#     8   8   8   8   8   8   8   8
#     4   7  10  20  41  65  84 104 134 171 209 251
#     4   9  18  33  52  72  96 131 176 220 254 288
#     4  10  20  33  49  68  92 122 153 189 237 289
#     4  11  21  30  45  73 108 139 164 199 251 303
#     4   9  18  32  49  69  92 118 151 190 227 267
#     4   9  17  31  52  74  97 129 167 201 233 280
#     4   8  15  30  51  73  94 118 153 194 234 278
#     4   9  17  32  55  76  93 121 165 211 248 288
#
# _framework density 17.905860000000001
#
# number of rings (size 3 to 8) (size 9 to 14) (size 15 to 20)
#    0.000    3.000    0.000    4.125    0.000    4.750 
#    0.000    5.000    0.000    4.500    0.000    4.375 
#    0.000    0.000    0.000    0.000    0.000    0.000 
#
# Total GULP energy -793002.806150 kJ/mol
# GULP energy per Si atom -12390.668846 kJ/mol
# Density = 1.786511 g / cm^3
# Si number density = 17.905860 Si / 1000 Ang^3
#
#
#
# Elastic Constant Matrix: (Units=GPa)
#
#
# Indices 1 2 3 4 5 6 
#
# 1 97.7431 32.0368 56.8033 0.0000 0.0000 0.0000
# 2 32.0368 47.9064 37.1520 0.0000 0.0000 0.0000
# 3 56.8033 37.1520 129.4278 0.0000 0.0000 0.0000
# 4 0.0000 0.0000 0.0000 13.6514 0.0000 0.0000
# 5 0.0000 0.0000 0.0000 0.0000 27.7577 0.0000
# 6 0.0000 0.0000 0.0000 0.0000 0.0000 7.3903
#
#
#
# Elastic Compliance Matrix: (Units=1/GPa)
#
#
# Indices 1 2 3 4 5 6 
#
# 1 0.015113 -0.006384 -0.004800 0.000000 0.000000 0.000000
# 2 -0.006384 0.029548 -0.005680 0.000000 0.000000 0.000000
# 3 -0.004800 -0.005680 0.011463 0.000000 0.000000 0.000000
# 4 0.000000 0.000000 0.000000 0.073253 0.000000 0.000000
# 5 0.000000 0.000000 0.000000 0.000000 0.036026 0.000000
# 6 0.000000 0.000000 0.000000 0.000000 0.000000 0.135313
#
#
# Mechanical properties :
#
#
# Convention : Reuss Voigt Hill
#
# Bulk Modulus (GPa) = 44.65040 58.56238 51.60639
# Shear Modulus (GPa) = 14.62376 19.69890 17.16133
#
# Velocity S-wave (km/s) = 2.86090 3.32043 3.09919
# Velocity P-wave (km/s) = 5.99194 6.89036 6.45679
#
# Compressibility (1/GPa) = 0.02239621
#
# Stress axis : x y z
#
# Youngs Moduli (GPa) = 66.16802 33.84321 87.23341
#
# Poissons Ratio (x) = 0.21605 0.41875
# Poissons Ratio (y) = 0.42241 0.49548
# Poissons Ratio (z) = 0.31763 0.19223
#
# Static dielectric constant tensor:
#      x y z
#    x 3.170900 0.000000 0.000000 
#    y 0.000000 2.942430 0.000000 
#    z 0.000000 0.000000 3.666280 
# 
# 
# High freq. dielectric constant tensor:
#      x y z
#    x 1.672140 0.000000 0.000000 
#    y 0.000000 1.654510 0.000000 
#    z 0.000000 0.000000 1.702960 
# 
# From -- ./inp_files/25846.got.cif
#   From: 2010.03.12/outbox.cif.g09.slc.cpg/sg47_13_cif.got.tgz:25846.got - 2010.04.14 03:12:58.
