data_PCOD8197261
_publ_section_title
;
Structure prediction by ZEFSAII (Michael W. Deem and Ramdas Pophale) SiO2 
 PCOD8197261
Probable space group: P M M M
;
_chemical_formula_sum "Si O2"
_cell_formula_units_Z 64
_cell_length_a 14.787365
_cell_length_b 24.545474
_cell_length_c 9.199934
_cell_angle_alpha 90.000000
_cell_angle_beta 90.000000
_cell_angle_gamma 90.000000
_cell_volume 3339.234569
_symmetry_space_group_name_H-M "P M M M"
_symmetry_group_IT_number 47
_symmetry_cell_setting 'orthorhombic'
loop_
_space_group_symop_operation_xyz
x,y,z
-x,-y,z
x,-y,-z
-x,y,-z
-x,-y,-z
x,y,-z
-x,y,z
x,-y,z
loop_
_atom_site_type_symbol
_atom_site_label
_atom_site_fract_x
_atom_site_fract_y
_atom_site_fract_z
Si Si1 0.729397 0.860186 0.669090
Si Si2 0.606535 0.351705 0.170341
Si Si3 0.274176 0.435834 0.331127
Si Si4 0.273999 0.266345 0.670938
Si Si5 0.606543 0.060955 0.836042
Si Si6 0.099655 0.435461 0.836937
Si Si7 0.900434 0.733846 0.836758
Si Si8 0.901466 0.136902 0.162939
O O1 0.736066 0.868640 0.500000
O O2 0.713722 0.797138 0.709617
O O3 0.646290 0.894548 0.728343
O O4 0.822117 0.884776 0.734381
O O5 0.500000 0.351690 0.197650
O O6 0.646683 0.406035 0.243363
O O7 0.646968 0.298154 0.246576
O O8 0.630019 0.351105 0.000000
O O9 0.280266 0.420258 0.500000
O O10 0.286541 0.500000 0.305562
O O11 0.177077 0.414455 0.272219
O O12 0.280232 0.277705 0.500000
O O13 0.176491 0.288053 0.727582
O O14 0.500000 0.065432 0.823901
O O15 0.637895 0.000000 0.791940
O O16 0.638319 0.073837 0.000000
O O17 0.098804 0.500000 0.836297
O O18 0.000000 0.414151 0.787710
O O19 0.120922 0.414314 0.000000
O O20 0.902002 0.798423 0.833704
O O21 0.000000 0.711969 0.789078
O O22 0.878321 0.713395 0.000000
O O23 0.000000 0.115592 0.216788
O O24 0.883095 0.115831 0.000000
#
# Coordination Sequence:
#
# PCOD8197261 Si02
#       8
#     8   8   8   8   8   8   8   8
#     4  10  20  32  51  81 112 143 176 212 262 320
#     4  11  25  43  61  79 101 135 179 226 273 316
#     4  10  21  37  59  86 113 141 173 213 264 320
#     4  10  21  36  54  79 112 145 176 214 262 318
#     4   9  19  36  56  77 102 135 177 224 270 314
#     4   8  14  27  50  80 113 147 179 211 250 299
#     4   8  14  27  49  76 106 140 177 216 256 302
#     4   8  14  26  46  72 102 139 181 219 255 300
#
# _framework density 19.166069
#
# number of rings (size 3 to 8) (size 9 to 14) (size 15 to 20)
#    0.000    2.750    0.000    3.000    0.000    5.250 
#    0.000    8.750    0.000    4.125    0.000    2.625 
#    0.000    0.000    0.000    0.000    0.000    0.000 
#
# Total GULP energy -793333.082853 kJ/mol
# GULP energy per Si atom -12395.829420 kJ/mol
# Density = 1.912245 g / cm^3
# Si number density = 19.166069 Si / 1000 Ang^3
#
#
#
# Elastic Constant Matrix: (Units=GPa)
#
#
# Indices 1 2 3 4 5 6 
#
# 1 129.2954 45.2428 77.4555 0.0000 0.0000 0.0000
# 2 45.2428 68.0165 46.7914 0.0000 0.0000 0.0000
# 3 77.4555 46.7914 120.6548 0.0000 0.0000 0.0000
# 4 0.0000 0.0000 0.0000 23.6595 0.0000 0.0000
# 5 0.0000 0.0000 0.0000 0.0000 18.7205 0.0000
# 6 0.0000 0.0000 0.0000 0.0000 0.0000 -27.5075
#
#
#
# Elastic Compliance Matrix: (Units=1/GPa)
#
#
# Indices 1 2 3 4 5 6 
#
# 1 0.013345 -0.004069 -0.006989 0.000000 0.000000 0.000000
# 2 -0.004069 0.021293 -0.005646 0.000000 0.000000 0.000000
# 3 -0.006989 -0.005646 0.014964 0.000000 0.000000 0.000000
# 4 0.000000 0.000000 0.000000 0.042266 0.000000 0.000000
# 5 0.000000 0.000000 0.000000 0.000000 0.053417 0.000000
# 6 0.000000 0.000000 0.000000 0.000000 0.000000 -0.036354
#
#
# Mechanical properties :
#
#
# Convention : Reuss Voigt Hill
#
# Bulk Modulus (GPa) = 61.74703 72.99401 67.37052
# Shear Modulus (GPa) = 33.84422 12.87297 23.35859
#
# Velocity S-wave (km/s) = 4.20675 2.59444 3.49484
# Velocity P-wave (km/s) = 7.47546 6.86604 7.17722
#
# Compressibility (1/GPa) = 0.01619511
#
# Stress axis : x y z
#
# Youngs Moduli (GPa) = 74.93655 46.96488 66.82640
#
# Poissons Ratio (x) = 0.19108 0.46704
# Poissons Ratio (y) = 0.30488 0.37728
# Poissons Ratio (z) = 0.52372 0.26515
#
# Static dielectric constant tensor:
#      x y z
#    x 3.769590 0.000000 0.000000 
#    y 0.000000 3.264290 0.000000 
#    z 0.000000 0.000000 3.562840 
# 
# 
# High freq. dielectric constant tensor:
#      x y z
#    x 1.750760 0.000000 0.000000 
#    y 0.000000 1.723430 0.000000 
#    z 0.000000 0.000000 1.743560 
# 
# From -- ./inp_files/7944.got.cif
#   From: 2010.03.12/outbox.cif.g09.slc.cpg/sg47_4_cif.got.tgz:7944.got - 2010.04.14 03:12:58.
