data_PCOD8197650
_publ_section_title
;
Structure prediction by ZEFSAII (Michael W. Deem and Ramdas Pophale) SiO2 
 PCOD8197650
Probable space group: P M M M
;
_chemical_formula_sum "Si O2"
_cell_formula_units_Z 48
_cell_length_a 14.326002
_cell_length_b 20.292109
_cell_length_c 9.254881
_cell_angle_alpha 90.000000
_cell_angle_beta 90.000000
_cell_angle_gamma 90.000000
_cell_volume 2690.438276
_symmetry_space_group_name_H-M "P M M M"
_symmetry_group_IT_number 47
_symmetry_cell_setting 'orthorhombic'
loop_
_space_group_symop_operation_xyz
x,y,z
-x,-y,z
x,-y,-z
-x,y,-z
-x,-y,-z
x,y,-z
-x,y,z
x,-y,z
loop_
_atom_site_type_symbol
_atom_site_label
_atom_site_fract_x
_atom_site_fract_y
_atom_site_fract_z
Si Si1 0.205801 0.925610 0.829944
Si Si2 0.107549 0.189255 0.667934
Si Si3 0.779084 0.682514 0.670818
Si Si4 0.891583 0.424358 0.164361
Si Si5 0.399244 0.126940 0.171187
Si Si6 0.605428 0.277161 0.832640
O O1 0.135033 0.876458 0.753084
O O2 0.312013 0.915586 0.771344
O O3 0.174903 0.000000 0.793790
O O4 0.201685 0.911409 0.000000
O O5 0.125229 0.175711 0.500000
O O6 0.167987 0.251221 0.722746
O O7 0.000000 0.205632 0.699939
O O8 0.772065 0.679369 0.500000
O O9 0.834095 0.619020 0.724259
O O10 0.675685 0.679538 0.737795
O O11 0.862793 0.500000 0.188248
O O12 0.000000 0.414316 0.198325
O O13 0.869471 0.402954 0.000000
O O14 0.500000 0.100736 0.231295
O O15 0.385247 0.202030 0.220744
O O16 0.403301 0.123776 0.000000
O O17 0.500000 0.302763 0.807251
O O18 0.633246 0.283625 0.000000
#
# Coordination Sequence:
#
# PCOD8197650 Si02
#       6
#     8   8   8   8   8   8
#     4  10  20  33  51  75 100 127 166 218 268 311
#     4  10  22  38  52  69  97 135 176 213 254 309
#     4  11  21  33  54  82 110 139 173 217 263 308
#     4   9  19  36  57  82 112 145 179 213 254 308
#     4   8  14  27  48  73 100 128 160 203 256 311
#     4   9  17  31  53  78 104 137 176 215 257 311
#
# _framework density 17.840959999999999
#
# number of rings (size 3 to 8) (size 9 to 14) (size 15 to 20)
#    0.000    2.500    1.667    2.500    0.000    3.667 
#    0.000    4.167    0.000    1.000    0.000    4.667 
#    0.000    0.000    0.000    0.000    0.000    0.000 
#
# Total GULP energy -595123.959299 kJ/mol
# GULP energy per Si atom -12398.415819 kJ/mol
# Density = 1.780035 g / cm^3
# Si number density = 17.840960 Si / 1000 Ang^3
#
#
#
# Elastic Constant Matrix: (Units=GPa)
#
#
# Indices 1 2 3 4 5 6 
#
# 1 99.0395 47.1610 46.4374 0.0000 0.0000 0.0000
# 2 47.1610 84.2052 42.7689 0.0000 0.0000 0.0000
# 3 46.4374 42.7689 59.9940 0.0000 0.0000 0.0000
# 4 0.0000 0.0000 0.0000 26.3651 0.0000 0.0000
# 5 0.0000 0.0000 0.0000 0.0000 22.8568 0.0000
# 6 0.0000 0.0000 0.0000 0.0000 0.0000 26.2357
#
#
#
# Elastic Compliance Matrix: (Units=1/GPa)
#
#
# Indices 1 2 3 4 5 6 
#
# 1 0.016830 -0.004404 -0.009887 0.000000 0.000000 0.000000
# 2 -0.004404 0.019769 -0.010684 0.000000 0.000000 0.000000
# 3 -0.009887 -0.010684 0.031938 0.000000 0.000000 0.000000
# 4 0.000000 0.000000 0.000000 0.037929 0.000000 0.000000
# 5 0.000000 0.000000 0.000000 0.000000 0.043751 0.000000
# 6 0.000000 0.000000 0.000000 0.000000 0.000000 0.038116
#
#
# Mechanical properties :
#
#
# Convention : Reuss Voigt Hill
#
# Bulk Modulus (GPa) = 53.80432 57.33036 55.56734
# Shear Modulus (GPa) = 20.45160 22.21628 21.33394
#
# Velocity S-wave (km/s) = 3.38942 3.53262 3.46176
# Velocity P-wave (km/s) = 6.74839 6.98879 6.86964
#
# Compressibility (1/GPa) = 0.01858587
#
# Stress axis : x y z
#
# Youngs Moduli (GPa) = 59.41709 50.58428 31.31053
#
# Poissons Ratio (x) = 0.22278 0.30958
# Poissons Ratio (y) = 0.26168 0.33452
# Poissons Ratio (z) = 0.58749 0.54045
#
# Static dielectric constant tensor:
#      x y z
#    x 3.568430 0.000000 0.000000 
#    y 0.000000 3.138150 0.000000 
#    z 0.000000 0.000000 3.044650 
# 
# 
# High freq. dielectric constant tensor:
#      x y z
#    x 1.699400 0.000000 0.000000 
#    y 0.000000 1.673000 0.000000 
#    z 0.000000 0.000000 1.667590 
# 
# From -- ./inp_files/6326.got.cif
#   From: 2010.03.12/outbox.cif.g09.slc.cpg/sg47_4_cif.got.tgz:6326.got - 2010.04.14 03:12:58.
