data_PCOD8197278
_publ_section_title
;
Structure prediction by ZEFSAII (Michael W. Deem and Ramdas Pophale) SiO2 
 PCOD8197278
Probable space group: P M M M
;
_chemical_formula_sum "Si O2"
_cell_formula_units_Z 52
_cell_length_a 13.656816
_cell_length_b 25.063920
_cell_length_c 8.970489
_cell_angle_alpha 90.000000
_cell_angle_beta 90.000000
_cell_angle_gamma 90.000000
_cell_volume 3070.538674
_symmetry_space_group_name_H-M "P M M M"
_symmetry_group_IT_number 47
_symmetry_cell_setting 'orthorhombic'
loop_
_space_group_symop_operation_xyz
x,y,z
-x,-y,z
x,-y,-z
-x,y,-z
-x,-y,-z
x,y,-z
-x,y,z
x,-y,z
loop_
_atom_site_type_symbol
_atom_site_label
_atom_site_fract_x
_atom_site_fract_y
_atom_site_fract_z
Si Si1 0.383863 0.500000 0.833718
Si Si2 0.384321 0.895413 0.832946
Si Si3 0.616970 0.000000 0.331429
Si Si4 0.114937 0.500000 0.837467
Si Si5 0.613088 0.213488 0.676536
Si Si6 0.286819 0.689903 0.823647
Si Si7 0.109715 0.384032 0.822188
Si Si8 0.613435 0.600759 0.335614
O O1 0.500000 0.500000 0.835749
O O2 0.338511 0.550620 0.748665
O O3 0.342131 0.500000 0.000000
O O4 0.500000 0.900791 0.842311
O O5 0.355232 0.844297 0.735540
O O6 0.341328 0.947928 0.752919
O O7 0.340528 0.890500 0.000000
O O8 0.500000 0.000000 0.332026
O O9 0.657039 0.000000 0.500000
O O10 0.141757 0.443019 0.757259
O O11 0.000000 0.500000 0.859179
O O12 0.165863 0.500000 0.000000
O O13 0.623788 0.215031 0.500000
O O14 0.500000 0.226756 0.722588
O O15 0.692488 0.253377 0.747998
O O16 0.184835 0.662363 0.769205
O O17 0.374085 0.652277 0.767277
O O18 0.290666 0.696964 0.000000
O O19 0.000000 0.368705 0.766884
O O20 0.111102 0.387907 0.000000
O O21 0.660813 0.608483 0.500000
O O22 0.500000 0.589229 0.355108
#
# Coordination Sequence:
#
# PCOD8197278 Si02
#       8
#     4   8   4   4   8   8   8   8
#     4   9  17  30  47  64  81 103 136 178 215 247
#     4   9  16  26  41  61  85 114 151 194 231 260
#     4   9  15  23  37  59  87 119 154 187 222 265
#     4   7  10  21  42  63  83 105 126 155 203 264
#     4  10  20  33  46  60  84 120 157 191 228 268
#     4  11  21  30  45  67  87 111 145 183 218 256
#     4   8  15  28  45  66  90 112 136 172 221 274
#     4  10  20  33  46  60  83 114 142 170 210 259
#
# _framework density 16.935140000000001
#
# number of rings (size 3 to 8) (size 9 to 14) (size 15 to 20)
#    0.000    2.692    0.000    3.692    0.000    8.000 
#    0.000    1.538    0.000    1.846    0.000    0.000 
#    0.000    8.615    0.000    0.692    0.000   14.385 
#
# Total GULP energy -644265.315814 kJ/mol
# GULP energy per Si atom -12389.717612 kJ/mol
# Density = 1.689659 g / cm^3
# Si number density = 16.935140 Si / 1000 Ang^3
#
#
#
# Elastic Constant Matrix: (Units=GPa)
#
#
# Indices 1 2 3 4 5 6 
#
# 1 56.1706 37.4827 25.2104 0.0000 0.0000 0.0000
# 2 37.4827 149.9990 54.4631 0.0000 0.0000 0.0000
# 3 25.2104 54.4631 92.8027 0.0000 0.0000 0.0000
# 4 0.0000 0.0000 0.0000 29.3576 0.0000 0.0000
# 5 0.0000 0.0000 0.0000 0.0000 7.9961 0.0000
# 6 0.0000 0.0000 0.0000 0.0000 0.0000 17.8305
#
#
#
# Elastic Compliance Matrix: (Units=1/GPa)
#
#
# Indices 1 2 3 4 5 6 
#
# 1 0.022241 -0.004275 -0.003533 0.000000 0.000000 0.000000
# 2 -0.004275 0.009294 -0.004293 0.000000 0.000000 0.000000
# 3 -0.003533 -0.004293 0.014255 0.000000 0.000000 0.000000
# 4 0.000000 0.000000 0.000000 0.034063 0.000000 0.000000
# 5 0.000000 0.000000 0.000000 0.000000 0.125061 0.000000
# 6 0.000000 0.000000 0.000000 0.000000 0.000000 0.056084
#
#
# Mechanical properties :
#
#
# Convention : Reuss Voigt Hill
#
# Bulk Modulus (GPa) = 46.32252 59.25387 52.78819
# Shear Modulus (GPa) = 17.10017 23.15792 20.12904
#
# Velocity S-wave (km/s) = 3.18110 3.70191 3.45134
# Velocity P-wave (km/s) = 6.39568 7.30321 6.86446
#
# Compressibility (1/GPa) = 0.02158777
#
# Stress axis : x y z
#
# Youngs Moduli (GPa) = 44.96140 107.60031 70.15237
#
# Poissons Ratio (x) = 0.45999 0.24786
# Poissons Ratio (y) = 0.19221 0.30115
# Poissons Ratio (z) = 0.15885 0.46191
#
# Static dielectric constant tensor:
#      x y z
#    x 2.864060 0.000000 0.000000 
#    y 0.000000 3.322620 0.000000 
#    z 0.000000 0.000000 3.247140 
# 
# 
# High freq. dielectric constant tensor:
#      x y z
#    x 1.602430 0.000000 0.000000 
#    y 0.000000 1.651360 0.000000 
#    z 0.000000 0.000000 1.649210 
# 
# From -- ./inp_files/7724.got.cif
#   From: 2010.03.12/outbox.cif.g09.slc.cpg/sg47_4_cif.got.tgz:7724.got - 2010.04.14 03:12:58.
