data_PCOD8197748
_publ_section_title
;
Structure prediction by ZEFSAII (Michael W. Deem and Ramdas Pophale) SiO2 
 PCOD8197748
Probable space group: P M M M
;
_chemical_formula_sum "Si O2"
_cell_formula_units_Z 48
_cell_length_a 9.214435
_cell_length_b 9.048881
_cell_length_c 30.470749
_cell_angle_alpha 90.000000
_cell_angle_beta 90.000000
_cell_angle_gamma 90.000000
_cell_volume 2540.660979
_symmetry_space_group_name_H-M "P M M M"
_symmetry_group_IT_number 47
_symmetry_cell_setting 'orthorhombic'
loop_
_space_group_symop_operation_xyz
x,y,z
-x,-y,z
x,-y,-z
-x,y,-z
-x,-y,-z
x,y,-z
-x,y,z
x,-y,z
loop_
_atom_site_type_symbol
_atom_site_label
_atom_site_fract_x
_atom_site_fract_y
_atom_site_fract_z
Si Si1 0.672463 0.333374 0.500000
Si Si2 0.668638 0.826856 0.412907
Si Si3 0.335222 0.171116 0.158701
Si Si4 0.170463 0.670900 0.334441
Si Si5 0.164390 0.324961 0.084245
Si Si6 0.667980 0.830312 0.259850
Si Si7 0.663790 0.323836 0.000000
O O1 0.733249 0.500000 0.500000
O O2 0.500000 0.330694 0.500000
O O3 0.729852 0.250573 0.543242
O O4 0.500000 0.789228 0.405273
O O5 0.757697 0.768204 0.372008
O O6 0.693932 0.000000 0.418125
O O7 0.500000 0.220568 0.148986
O O8 0.227167 0.266074 0.129645
O O9 0.296648 0.201274 0.209214
O O10 0.314830 0.000000 0.147297
O O11 0.209036 0.500000 0.342154
O O12 0.232276 0.721384 0.287698
O O13 0.000000 0.698965 0.334824
O O14 0.172245 0.500000 0.085471
O O15 0.255737 0.262317 0.043166
O O16 0.000000 0.269490 0.078856
O O17 0.500000 0.797570 0.270148
O O18 0.703732 0.000000 0.271772
O O19 0.666450 0.500000 0.000000
O O20 0.500000 0.262879 0.000000
#
# Coordination Sequence:
#
# PCOD8197748 Si02
#       7
#     4   8   8   8   8   8   4
#     4   9  17  31  54  83 112 141 174 216 266 315
#     4  10  20  35  57  83 109 139 178 221 263 312
#     4   9  19  36  56  78 105 136 172 215 261 310
#     4  11  24  38  52  76 110 143 176 217 264 313
#     4  10  20  33  51  77 108 139 172 213 261 313
#     4   9  19  37  59  80 102 133 175 219 262 311
#     4   9  17  31  52  75 100 135 178 220 262 309
#
# _framework density 18.892721000000002
#
# number of rings (size 3 to 8) (size 9 to 14) (size 15 to 20)
#    0.000    2.333    0.000    3.500    0.000    9.333 
#    0.000    5.833    0.000    5.000    0.000    0.000 
#    0.000    0.000    0.000    0.000    0.000    0.000 
#
# Total GULP energy -595335.361722 kJ/mol
# GULP energy per Si atom -12402.820036 kJ/mol
# Density = 1.884972 g / cm^3
# Si number density = 18.892721 Si / 1000 Ang^3
#
#
#
# Elastic Constant Matrix: (Units=GPa)
#
#
# Indices 1 2 3 4 5 6 
#
# 1 106.5533 45.0782 64.3898 0.0000 0.0000 0.0000
# 2 45.0782 63.0213 43.0405 0.0000 0.0000 0.0000
# 3 64.3898 43.0405 121.0357 0.0000 0.0000 0.0000
# 4 0.0000 0.0000 0.0000 32.6415 0.0000 0.0000
# 5 0.0000 0.0000 0.0000 0.0000 4.5042 0.0000
# 6 0.0000 0.0000 0.0000 0.0000 0.0000 27.5075
#
#
#
# Elastic Compliance Matrix: (Units=1/GPa)
#
#
# Indices 1 2 3 4 5 6 
#
# 1 0.016132 -0.007499 -0.005915 0.000000 0.000000 0.000000
# 2 -0.007499 0.024443 -0.004703 0.000000 0.000000 0.000000
# 3 -0.005915 -0.004703 0.013081 0.000000 0.000000 0.000000
# 4 0.000000 0.000000 0.000000 0.030636 0.000000 0.000000
# 5 0.000000 0.000000 0.000000 0.000000 0.222015 0.000000
# 6 0.000000 0.000000 0.000000 0.000000 0.000000 0.036354
#
#
# Mechanical properties :
#
#
# Convention : Reuss Voigt Hill
#
# Bulk Modulus (GPa) = 57.39756 66.18079 61.78917
# Shear Modulus (GPa) = 12.99703 22.13745 17.56724
#
# Velocity S-wave (km/s) = 2.62570 3.42679 3.05264
# Velocity P-wave (km/s) = 6.29596 7.12482 6.72317
#
# Compressibility (1/GPa) = 0.01742234
#
# Stress axis : x y z
#
# Youngs Moduli (GPa) = 61.98759 40.91090 76.44524
#
# Poissons Ratio (x) = 0.30680 0.45221
# Poissons Ratio (y) = 0.46486 0.35949
# Poissons Ratio (z) = 0.36669 0.19239
#
# Static dielectric constant tensor:
#      x y z
#    x 3.401710 0.000000 0.000000 
#    y 0.000000 3.351670 0.000000 
#    z 0.000000 0.000000 3.561710 
# 
# 
# High freq. dielectric constant tensor:
#      x y z
#    x 1.724540 0.000000 0.000000 
#    y 0.000000 1.725080 0.000000 
#    z 0.000000 0.000000 1.748650 
# 
# From -- ./inp_files/13817.got.cif
#   From: 2010.03.12/outbox.cif.g09.slc.cpg/sg47_7_cif.got.tgz:13817.got - 2010.04.14 03:12:58.
