data_PCOD8197081
_publ_section_title
;
Structure prediction by ZEFSAII (Michael W. Deem and Ramdas Pophale) SiO2 
 PCOD8197081
Probable space group: P M M M
;
_chemical_formula_sum "Si O2"
_cell_formula_units_Z 44
_cell_length_a 9.366947
_cell_length_b 29.766356
_cell_length_c 7.662793
_cell_angle_alpha 90.000000
_cell_angle_beta 90.000000
_cell_angle_gamma 90.000000
_cell_volume 2136.539017
_symmetry_space_group_name_H-M "P M M M"
_symmetry_group_IT_number 47
_symmetry_cell_setting 'orthorhombic'
loop_
_space_group_symop_operation_xyz
x,y,z
-x,-y,z
x,-y,-z
-x,y,-z
-x,-y,-z
x,y,-z
-x,y,z
x,-y,z
loop_
_atom_site_type_symbol
_atom_site_label
_atom_site_fract_x
_atom_site_fract_y
_atom_site_fract_z
Si Si1 0.656824 0.367033 0.800398
Si Si2 0.160358 0.550466 0.705934
Si Si3 0.667892 0.897961 0.202003
Si Si4 0.840150 0.714548 0.208679
Si Si5 0.657534 0.796863 0.206510
Si Si6 0.163952 0.946900 0.500000
O O1 0.500000 0.368372 0.710287
O O2 0.729054 0.415605 0.790991
O O3 0.754810 0.328399 0.713903
O O4 0.636456 0.353828 0.000000
O O5 0.168921 0.554853 0.500000
O O6 0.201415 0.500000 0.764649
O O7 0.000000 0.561832 0.770250
O O8 0.500000 0.906651 0.230695
O O9 0.707304 0.846947 0.257158
O O10 0.758752 0.930226 0.324789
O O11 0.708676 0.907146 0.000000
O O12 0.767220 0.760059 0.281015
O O13 0.000000 0.712458 0.283890
O O14 0.842731 0.713958 0.000000
O O15 0.500000 0.787177 0.284372
O O16 0.648820 0.793184 0.000000
O O17 0.000000 0.930394 0.500000
O O18 0.173271 0.000000 0.500000
#
# Coordination Sequence:
#
# PCOD8197081 Si02
#       6
#     8   8   8   8   8   4
#     4  10  20  32  48  73 104 135 167 207 254 304
#     4   9  19  36  55  72  92 123 163 207 258 314
#     4   9  19  37  62  89 115 150 197 245 293 347
#     4   9  16  26  44  72 104 138 174 209 252 310
#     4   8  14  27  49  77 107 137 172 217 268 320
#     4  11  25  41  57  83 121 161 197 241 298 351
#
# _framework density 20.594054
#
# number of rings (size 3 to 8) (size 9 to 14) (size 15 to 20)
#    0.000    2.818    0.000    3.000    0.000    6.545 
#    0.000    6.364    2.000    0.000    0.000    0.000 
#    0.000    0.000    0.000    0.000    0.000    0.000 
#
# Total GULP energy -545431.557964 kJ/mol
# GULP energy per Si atom -12396.171772 kJ/mol
# Density = 2.054718 g / cm^3
# Si number density = 20.594054 Si / 1000 Ang^3
#
#
#
# Elastic Constant Matrix: (Units=GPa)
#
#
# Indices 1 2 3 4 5 6 
#
# 1 164.9108 91.2349 34.8656 0.0000 0.0000 0.0000
# 2 91.2349 133.9059 28.3677 0.0000 0.0000 0.0000
# 3 34.8656 28.3677 50.2539 0.0000 0.0000 0.0000
# 4 0.0000 0.0000 0.0000 -88.1423 0.0000 0.0000
# 5 0.0000 0.0000 0.0000 0.0000 14.4774 0.0000
# 6 0.0000 0.0000 0.0000 0.0000 0.0000 42.0911
#
#
#
# Elastic Compliance Matrix: (Units=1/GPa)
#
#
# Indices 1 2 3 4 5 6 
#
# 1 0.010278 -0.006238 -0.003609 0.000000 0.000000 0.000000
# 2 -0.006238 0.012269 -0.002597 0.000000 0.000000 0.000000
# 3 -0.003609 -0.002597 0.023869 0.000000 0.000000 0.000000
# 4 0.000000 0.000000 0.000000 -0.011345 0.000000 0.000000
# 5 0.000000 0.000000 0.000000 0.000000 0.069073 0.000000
# 6 0.000000 0.000000 0.000000 0.000000 0.000000 0.023758
#
#
# Mechanical properties :
#
#
# Convention : Reuss Voigt Hill
#
# Bulk Modulus (GPa) = 46.45582 73.11188 59.78385
# Shear Modulus (GPa) = 31.25630 6.65874 18.95752
#
# Velocity S-wave (km/s) = 3.90004 1.80010 3.03732
# Velocity P-wave (km/s) = 6.54884 6.31656 6.43375
#
# Compressibility (1/GPa) = 0.02152583
#
# Stress axis : x y z
#
# Youngs Moduli (GPa) = 97.29279 81.50921 41.89465
#
# Poissons Ratio (x) = 0.50848 0.15122
# Poissons Ratio (y) = 0.60694 0.10882
# Poissons Ratio (z) = 0.35118 0.21171
#
# Static dielectric constant tensor:
#      x y z
#    x 3.987520 0.000000 0.000000 
#    y 0.000000 3.878660 0.000000 
#    z 0.000000 0.000000 3.295990 
# 
# 
# High freq. dielectric constant tensor:
#      x y z
#    x 1.805730 0.000000 0.000000 
#    y 0.000000 1.808770 0.000000 
#    z 0.000000 0.000000 1.776420 
# 
# From -- ./inp_files/2014.got.cif
#   From: 2010.03.12/outbox.cif.g09.slc.cpg/sg47_2_cif.got.tgz:2014.got - 2010.04.14 03:12:58.
