data_PCOD8197667
_publ_section_title
;
Structure prediction by ZEFSAII (Michael W. Deem and Ramdas Pophale) SiO2 
 PCOD8197667
Probable space group: P M M M
;
_chemical_formula_sum "Si O2"
_cell_formula_units_Z 56
_cell_length_a 19.555290
_cell_length_b 9.329204
_cell_length_c 15.860352
_cell_angle_alpha 90.000000
_cell_angle_beta 90.000000
_cell_angle_gamma 90.000000
_cell_volume 2893.487912
_symmetry_space_group_name_H-M "P M M M"
_symmetry_group_IT_number 47
_symmetry_cell_setting 'orthorhombic'
loop_
_space_group_symop_operation_xyz
x,y,z
-x,-y,z
x,-y,-z
-x,y,-z
-x,-y,-z
x,y,-z
-x,y,z
x,-y,z
loop_
_atom_site_type_symbol
_atom_site_label
_atom_site_fract_x
_atom_site_fract_y
_atom_site_fract_z
Si Si1 0.661704 0.166703 0.405440
Si Si2 0.077360 0.163690 0.900880
Si Si3 0.785351 0.663876 0.659099
Si Si4 0.205031 0.664204 0.850435
Si Si5 0.329498 0.165058 0.906329
Si Si6 0.926540 0.670021 0.404487
Si Si7 0.576429 0.829612 0.245924
O O1 0.632096 0.193926 0.500000
O O2 0.733612 0.246268 0.397440
O O3 0.609365 0.224445 0.334147
O O4 0.675801 0.000000 0.390279
O O5 0.129644 0.268272 0.853913
O O6 0.000000 0.206772 0.875286
O O7 0.092188 0.000000 0.874360
O O8 0.087585 0.182262 0.000000
O O9 0.782132 0.500000 0.627414
O O10 0.765401 0.676122 0.756392
O O11 0.862043 0.727959 0.648390
O O12 0.200145 0.500000 0.880469
O O13 0.258481 0.748680 0.908295
O O14 0.381393 0.226323 0.835589
O O15 0.312028 0.000000 0.886217
O O16 0.362490 0.180259 0.000000
O O17 0.917159 0.722324 0.500000
O O18 0.928013 0.500000 0.399924
O O19 0.000000 0.728548 0.369377
O O20 0.500000 0.765342 0.240453
O O21 0.573369 0.000000 0.244406
#
# Coordination Sequence:
#
# PCOD8197667 Si02
#       7
#     8   8   8   8   8   8   8
#     4  10  20  34  55  82 110 142 177 216 267 322
#     4   9  19  36  55  74 100 139 186 231 277 331
#     4  10  20  33  51  75 104 141 181 221 265 316
#     4  11  22  33  50  78 109 142 182 229 277 323
#     4  10  20  35  57  81 106 142 182 220 269 325
#     4   8  14  26  45  68  93 124 166 214 258 299
#     4   9  18  34  56  83 113 140 171 218 269 319
#
# _framework density 19.353805999999999
#
# number of rings (size 3 to 8) (size 9 to 14) (size 15 to 20)
#    0.000    2.429    1.429    2.143    0.000    5.143 
#    0.000    5.000    0.000    2.143    0.000    4.000 
#    0.000    0.000    0.000    0.000    0.000    0.000 
#
# Total GULP energy -694188.298538 kJ/mol
# GULP energy per Si atom -12396.219617 kJ/mol
# Density = 1.930976 g / cm^3
# Si number density = 19.353806 Si / 1000 Ang^3
#
#
#
# Elastic Constant Matrix: (Units=GPa)
#
#
# Indices 1 2 3 4 5 6 
#
# 1 140.9505 41.0541 55.1053 0.0000 0.0000 0.0000
# 2 41.0541 57.2904 28.7468 0.0000 0.0000 0.0000
# 3 55.1053 28.7468 105.1747 0.0000 0.0000 0.0000
# 4 0.0000 0.0000 0.0000 17.2352 0.0000 0.0000
# 5 0.0000 0.0000 0.0000 0.0000 28.2497 0.0000
# 6 0.0000 0.0000 0.0000 0.0000 0.0000 16.9459
#
#
#
# Elastic Compliance Matrix: (Units=1/GPa)
#
#
# Indices 1 2 3 4 5 6 
#
# 1 0.010161 -0.005343 -0.003864 0.000000 0.000000 0.000000
# 2 -0.005343 0.023039 -0.003498 0.000000 0.000000 0.000000
# 3 -0.003864 -0.003498 0.012488 0.000000 0.000000 0.000000
# 4 0.000000 0.000000 0.000000 0.058021 0.000000 0.000000
# 5 0.000000 0.000000 0.000000 0.000000 0.035399 0.000000
# 6 0.000000 0.000000 0.000000 0.000000 0.000000 0.059011
#
#
# Mechanical properties :
#
#
# Convention : Reuss Voigt Hill
#
# Bulk Modulus (GPa) = 49.30977 61.46980 55.38978
# Shear Modulus (GPa) = 21.71196 24.38677 23.04937
#
# Velocity S-wave (km/s) = 3.35303 3.55357 3.45475
# Velocity P-wave (km/s) = 6.36583 6.97619 6.67799
#
# Compressibility (1/GPa) = 0.02027996
#
# Stress axis : x y z
#
# Youngs Moduli (GPa) = 98.41142 43.40515 80.07503
#
# Poissons Ratio (x) = 0.23191 0.30938
# Poissons Ratio (y) = 0.52581 0.28007
# Poissons Ratio (z) = 0.38022 0.15182
#
# Static dielectric constant tensor:
#      x y z
#    x 3.818370 0.000000 0.000000 
#    y 0.000000 3.162910 0.000000 
#    z 0.000000 0.000000 3.555750 
# 
# 
# High freq. dielectric constant tensor:
#      x y z
#    x 1.753680 0.000000 0.000000 
#    y 0.000000 1.712450 0.000000 
#    z 0.000000 0.000000 1.756690 
# 
# From -- ./inp_files/7216.got.cif
#   From: 2010.03.12/outbox.cif.g09.slc.cpg/sg47_4_cif.got.tgz:7216.got - 2010.04.14 03:12:58.
