data_PCOD8197312
_publ_section_title
;
Structure prediction by ZEFSAII (Michael W. Deem and Ramdas Pophale) SiO2 
 PCOD8197312
Probable space group: P M M M
;
_chemical_formula_sum "Si O2"
_cell_formula_units_Z 56
_cell_length_a 15.409303
_cell_length_b 30.229346
_cell_length_c 9.105875
_cell_angle_alpha 90.000000
_cell_angle_beta 90.000000
_cell_angle_gamma 90.000000
_cell_volume 4241.636336
_symmetry_space_group_name_H-M "P M M M"
_symmetry_group_IT_number 47
_symmetry_cell_setting 'orthorhombic'
loop_
_space_group_symop_operation_xyz
x,y,z
-x,-y,z
x,-y,-z
-x,y,-z
-x,-y,-z
x,y,-z
-x,y,z
x,-y,z
loop_
_atom_site_type_symbol
_atom_site_label
_atom_site_fract_x
_atom_site_fract_y
_atom_site_fract_z
Si Si1 0.000000 0.552432 0.665987
Si Si2 0.396064 0.141373 0.665490
Si Si3 0.598581 0.688576 0.669075
Si Si4 0.402567 0.953154 0.674652
Si Si5 0.603390 0.225964 0.165144
Si Si6 0.172879 0.447865 0.171287
Si Si7 0.500000 0.552332 0.167156
Si Si8 0.336581 0.593143 0.672626
O O1 0.084019 0.568862 0.754755
O O2 0.000000 0.500000 0.659427
O O3 0.000000 0.571850 0.500000
O O4 0.363780 0.149510 0.500000
O O5 0.500000 0.140045 0.670753
O O6 0.360033 0.093588 0.727805
O O7 0.358330 0.181505 0.761735
O O8 0.599792 0.702226 0.500000
O O9 0.500000 0.678042 0.719591
O O10 0.638951 0.729911 0.756700
O O11 0.656242 0.645567 0.699887
O O12 0.405486 0.950414 0.500000
O O13 0.500000 0.955411 0.736644
O O14 0.355600 0.000000 0.722868
O O15 0.500000 0.225423 0.176896
O O16 0.637086 0.226922 0.000000
O O17 0.186525 0.500000 0.193098
O O18 0.248650 0.422420 0.253500
O O19 0.171820 0.435342 0.000000
O O20 0.500000 0.500000 0.165077
O O21 0.584365 0.568262 0.252069
O O22 0.500000 0.570695 0.000000
O O23 0.337007 0.581817 0.500000
#
# Coordination Sequence:
#
# PCOD8197312 Si02
#       8
#     4   8   8   8   8   8   4   8
#     4   9  17  31  51  71  87 105 129 155 181 211
#     4   8  12  18  28  40  53  71  94 123 160 198
#     4   9  17  30  42  52  68  90 118 150 183 215
#     4   7   9  13  22  36  51  66  88 118 151 191
#     4   9  16  23  32  46  60  77 103 135 170 207
#     4  10  20  33  48  67  89 109 127 150 183 221
#     4  11  23  35  45  59  81 107 131 155 184 219
#     4  11  21  33  47  63  80 102 131 160 187 219
#
# _framework density 13.202451999999999
#
# number of rings (size 3 to 8) (size 9 to 14) (size 15 to 20)
#    0.000    2.857    0.714    3.429    0.000    6.857 
#    0.000    0.000    0.000    0.429    0.000    3.000 
#    0.000    0.000    0.000    0.000    0.000    0.000 
#
# Total GULP energy -693844.502783 kJ/mol
# GULP energy per Si atom -12390.080407 kJ/mol
# Density = 1.317240 g / cm^3
# Si number density = 13.202452 Si / 1000 Ang^3
#
#
#
# Elastic Constant Matrix: (Units=GPa)
#
#
# Indices 1 2 3 4 5 6 
#
# 1 61.0310 33.0888 36.4211 0.0000 0.0000 0.0000
# 2 33.0888 100.5357 57.5223 0.0000 0.0000 0.0000
# 3 36.4211 57.5223 92.6705 0.0000 0.0000 0.0000
# 4 0.0000 0.0000 0.0000 7.9375 0.0000 0.0000
# 5 0.0000 0.0000 0.0000 0.0000 15.4010 0.0000
# 6 0.0000 0.0000 0.0000 0.0000 0.0000 2.2320
#
#
#
# Elastic Compliance Matrix: (Units=1/GPa)
#
#
# Indices 1 2 3 4 5 6 
#
# 1 0.022211 -0.003591 -0.006500 0.000000 0.000000 0.000000
# 2 -0.003591 0.016005 -0.008524 0.000000 0.000000 0.000000
# 3 -0.006500 -0.008524 0.018636 0.000000 0.000000 0.000000
# 4 0.000000 0.000000 0.000000 0.125985 0.000000 0.000000
# 5 0.000000 0.000000 0.000000 0.000000 0.064931 0.000000
# 6 0.000000 0.000000 0.000000 0.000000 0.000000 0.448034
#
#
# Mechanical properties :
#
#
# Convention : Reuss Voigt Hill
#
# Bulk Modulus (GPa) = 50.96013 56.47794 53.71904
# Shear Modulus (GPa) = 6.76065 13.59441 10.17753
#
# Velocity S-wave (km/s) = 2.26536 3.21236 2.77949
# Velocity P-wave (km/s) = 6.74724 7.52531 7.14687
#
# Compressibility (1/GPa) = 0.01962318
#
# Stress axis : x y z
#
# Youngs Moduli (GPa) = 45.02232 62.47881 53.65840
#
# Poissons Ratio (x) = 0.22436 0.34880
# Poissons Ratio (y) = 0.16168 0.45736
# Poissons Ratio (z) = 0.29266 0.53254
#
# Static dielectric constant tensor:
#      x y z
#    x 2.385060 0.000000 0.000000 
#    y 0.000000 2.936970 0.000000 
#    z 0.000000 0.000000 2.726220 
# 
# 
# High freq. dielectric constant tensor:
#      x y z
#    x 1.431070 0.000000 0.000000 
#    y 0.000000 1.508870 0.000000 
#    z 0.000000 0.000000 1.506440 
# 
# From -- ./inp_files/8191.got.cif
#   From: 2010.03.12/outbox.cif.g09.slc.cpg/sg47_5_cif.got.tgz:8191.got - 2010.04.14 03:12:58.
