data_PCOD8197095
_publ_section_title
;
Structure prediction by ZEFSAII (Michael W. Deem and Ramdas Pophale) SiO2 
 PCOD8197095
Probable space group: P M M M
;
_chemical_formula_sum "Si O2"
_cell_formula_units_Z 56
_cell_length_a 15.511767
_cell_length_b 23.168694
_cell_length_c 9.178669
_cell_angle_alpha 90.000000
_cell_angle_beta 90.000000
_cell_angle_gamma 90.000000
_cell_volume 3298.697832
_symmetry_space_group_name_H-M "P M M M"
_symmetry_group_IT_number 47
_symmetry_cell_setting 'orthorhombic'
loop_
_space_group_symop_operation_xyz
x,y,z
-x,-y,z
x,-y,-z
-x,y,-z
-x,-y,-z
x,y,-z
-x,y,z
x,-y,z
loop_
_atom_site_type_symbol
_atom_site_label
_atom_site_fract_x
_atom_site_fract_y
_atom_site_fract_z
Si Si1 0.377896 0.641495 0.663987
Si Si2 0.500000 0.432335 0.837169
Si Si3 0.101250 0.436416 0.161458
Si Si4 0.906455 0.000000 0.328463
Si Si5 0.406156 0.243965 0.167005
Si Si6 0.816702 0.336108 0.334898
Si Si7 0.102241 0.874501 0.330154
Si Si8 0.216326 0.218958 0.828655
O O1 0.412918 0.639210 0.500000
O O2 0.414722 0.588243 0.754279
O O3 0.411149 0.700595 0.732332
O O4 0.276361 0.635395 0.669247
O O5 0.500000 0.500000 0.839673
O O6 0.500000 0.406783 0.000000
O O7 0.135171 0.500000 0.214058
O O8 0.121801 0.385099 0.272061
O O9 0.000000 0.439478 0.150002
O O10 0.139618 0.423028 0.000000
O O11 0.862116 0.061016 0.286330
O O12 0.920028 0.000000 0.500000
O O13 0.000000 0.000000 0.253000
O O14 0.500000 0.211076 0.187673
O O15 0.318906 0.208034 0.207607
O O16 0.396612 0.264029 0.000000
O O17 0.844870 0.320722 0.500000
O O18 0.818736 0.278059 0.240278
O O19 0.118644 0.861653 0.500000
O O20 0.159667 0.832304 0.234953
O O21 0.000000 0.868158 0.295455
O O22 0.200339 0.221991 0.000000
#
# Coordination Sequence:
#
# PCOD8197095 Si02
#       8
#     8   4   8   4   8   8   8   8
#     4  10  20  33  49  69  91 115 146 188 236 281
#     4  11  23  35  47  65  89 119 153 184 223 284
#     4   9  19  36  55  72  90 116 154 199 244 291
#     4   7  12  26  49  73  96 131 176 210 241 287
#     4   9  17  31  51  70  91 123 160 197 239 291
#     4  10  21  35  51  72  97 124 156 196 243 294
#     4   9  17  31  51  74 103 138 173 208 245 290
#     4  10  20  32  48  74 104 132 164 203 249 298
#
# _framework density 16.976396000000001
#
# number of rings (size 3 to 8) (size 9 to 14) (size 15 to 20)
#    0.000    2.571    0.714    2.786    0.000    4.857 
#    0.000    3.929    0.000    1.286    0.000    0.500 
#    0.000    4.000    0.000    0.000    0.000    0.000 
#
# Total GULP energy -693732.671946 kJ/mol
# GULP energy per Si atom -12388.083428 kJ/mol
# Density = 1.693776 g / cm^3
# Si number density = 16.976396 Si / 1000 Ang^3
#
#
#
# Elastic Constant Matrix: (Units=GPa)
#
#
# Indices 1 2 3 4 5 6 
#
# 1 71.8558 50.9218 40.5425 0.0000 0.0000 0.0000
# 2 50.9218 112.9676 58.9318 0.0000 0.0000 0.0000
# 3 40.5425 58.9318 104.8328 0.0000 0.0000 0.0000
# 4 0.0000 0.0000 0.0000 36.9381 0.0000 0.0000
# 5 0.0000 0.0000 0.0000 0.0000 71.5645 0.0000
# 6 0.0000 0.0000 0.0000 0.0000 0.0000 14.4061
#
#
#
# Elastic Compliance Matrix: (Units=1/GPa)
#
#
# Indices 1 2 3 4 5 6 
#
# 1 0.021615 -0.007616 -0.004078 0.000000 0.000000 0.000000
# 2 -0.007616 0.015209 -0.005604 0.000000 0.000000 0.000000
# 3 -0.004078 -0.005604 0.014266 0.000000 0.000000 0.000000
# 4 0.000000 0.000000 0.000000 0.027072 0.000000 0.000000
# 5 0.000000 0.000000 0.000000 0.000000 0.013973 0.000000
# 6 0.000000 0.000000 0.000000 0.000000 0.000000 0.069415
#
#
# Mechanical properties :
#
#
# Convention : Reuss Voigt Hill
#
# Bulk Modulus (GPa) = 60.62860 65.60538 63.11699
# Shear Modulus (GPa) = 24.79615 33.86575 29.33095
#
# Velocity S-wave (km/s) = 3.82596 4.47125 4.16113
# Velocity P-wave (km/s) = 7.43695 8.08610 7.76831
#
# Compressibility (1/GPa) = 0.01649386
#
# Stress axis : x y z
#
# Youngs Moduli (GPa) = 46.26485 65.75233 70.09435
#
# Poissons Ratio (x) = 0.50076 0.28584
# Poissons Ratio (y) = 0.35234 0.39282
# Poissons Ratio (z) = 0.18866 0.36849
#
# Static dielectric constant tensor:
#      x y z
#    x 3.463780 0.000000 0.000000 
#    y 0.000000 3.099780 0.000000 
#    z 0.000000 0.000000 3.329290 
# 
# 
# High freq. dielectric constant tensor:
#      x y z
#    x 1.649560 0.000000 0.000000 
#    y 0.000000 1.631560 0.000000 
#    z 0.000000 0.000000 1.659160 
# 
# From -- ./inp_files/7410.got.cif
#   From: 2010.03.12/outbox.cif.g09.slc.cpg/sg47_4_cif.got.tgz:7410.got - 2010.04.14 03:12:58.
