data_PCOD8197415
_publ_section_title
;
Structure prediction by ZEFSAII (Michael W. Deem and Ramdas Pophale) SiO2 
 PCOD8197415
Probable space group: P M M M
;
_chemical_formula_sum "Si O2"
_cell_formula_units_Z 52
_cell_length_a 9.400593
_cell_length_b 33.440227
_cell_length_c 9.021054
_cell_angle_alpha 90.000000
_cell_angle_beta 90.000000
_cell_angle_gamma 90.000000
_cell_volume 2835.840167
_symmetry_space_group_name_H-M "P M M M"
_symmetry_group_IT_number 47
_symmetry_cell_setting 'orthorhombic'
loop_
_space_group_symop_operation_xyz
x,y,z
-x,-y,z
x,-y,-z
-x,y,-z
-x,-y,-z
x,y,-z
-x,y,z
x,-y,z
loop_
_atom_site_type_symbol
_atom_site_label
_atom_site_fract_x
_atom_site_fract_y
_atom_site_fract_z
Si Si1 0.169117 0.078288 0.667005
Si Si2 0.830179 0.000000 0.167527
Si Si3 0.165462 0.158502 0.826211
Si Si4 0.667840 0.770927 0.328359
Si Si5 0.165334 0.454114 0.831031
Si Si6 0.330907 0.308636 0.167081
Si Si7 0.335089 0.387471 0.672058
O O1 0.229475 0.079435 0.500000
O O2 0.229707 0.039147 0.749342
O O3 0.221243 0.117511 0.753523
O O4 0.000000 0.076495 0.665697
O O5 0.000000 0.000000 0.168335
O O6 0.772265 0.000000 0.000000
O O7 0.254826 0.194219 0.758717
O O8 0.000000 0.165626 0.790329
O O9 0.193866 0.155837 0.000000
O O10 0.710418 0.772487 0.500000
O O11 0.500000 0.775869 0.305351
O O12 0.723268 0.729050 0.261737
O O13 0.201603 0.500000 0.795032
O O14 0.254173 0.427242 0.719434
O O15 0.000000 0.445663 0.805161
O O16 0.207687 0.444023 0.000000
O O17 0.500000 0.309519 0.168809
O O18 0.272390 0.349343 0.240015
O O19 0.271694 0.305207 0.000000
O O20 0.309929 0.379245 0.500000
O O21 0.500000 0.393901 0.709060
#
# Coordination Sequence:
#
# PCOD8197415 Si02
#       7
#     8   4   8   8   8   8   8
#     4   9  16  26  41  62  90 124 160 199 245 294
#     4   9  15  23  37  59  88 121 158 199 242 291
#     4  10  20  33  49  71 100 132 165 203 248 294
#     4  10  20  34  53  76 101 130 165 204 246 294
#     4   9  19  36  55  74  99 133 171 208 246 290
#     4   9  17  31  52  75  99 129 164 202 245 291
#     4  10  20  33  51  77 106 132 161 201 247 293
#
# _framework density 18.336718999999999
#
# number of rings (size 3 to 8) (size 9 to 14) (size 15 to 20)
#    0.000    2.538    0.000    3.000    0.000    8.308 
#    0.000    3.077    0.000    4.615    0.000    0.538 
#    0.000    4.308    0.000    0.000    0.000    0.000 
#
# Total GULP energy -644868.373519 kJ/mol
# GULP energy per Si atom -12401.314875 kJ/mol
# Density = 1.829498 g / cm^3
# Si number density = 18.336719 Si / 1000 Ang^3
#
#
#
# Elastic Constant Matrix: (Units=GPa)
#
#
# Indices 1 2 3 4 5 6 
#
# 1 24.4214 33.7976 28.1413 0.0000 0.0000 0.0000
# 2 33.7976 145.8756 67.2153 0.0000 0.0000 0.0000
# 3 28.1413 67.2153 124.6094 0.0000 0.0000 0.0000
# 4 0.0000 0.0000 0.0000 42.7710 0.0000 0.0000
# 5 0.0000 0.0000 0.0000 0.0000 23.0098 0.0000
# 6 0.0000 0.0000 0.0000 0.0000 0.0000 27.6233
#
#
#
# Elastic Compliance Matrix: (Units=1/GPa)
#
#
# Indices 1 2 3 4 5 6 
#
# 1 0.067096 -0.011396 -0.009006 0.000000 0.000000 0.000000
# 2 -0.011396 0.011058 -0.003391 0.000000 0.000000 0.000000
# 3 -0.009006 -0.003391 0.011888 0.000000 0.000000 0.000000
# 4 0.000000 0.000000 0.000000 0.023380 0.000000 0.000000
# 5 0.000000 0.000000 0.000000 0.000000 0.043460 0.000000
# 6 0.000000 0.000000 0.000000 0.000000 0.000000 0.036201
#
#
# Mechanical properties :
#
#
# Convention : Reuss Voigt Hill
#
# Bulk Modulus (GPa) = 23.55331 61.46833 42.51082
# Shear Modulus (GPa) = 19.62157 29.73096 24.67626
#
# Velocity S-wave (km/s) = 3.27474 4.03102 3.67240
# Velocity P-wave (km/s) = 5.21261 7.43372 6.41995
#
# Compressibility (1/GPa) = 0.04245688
#
# Stress axis : x y z
#
# Youngs Moduli (GPa) = 14.90395 90.43237 84.11744
#
# Poissons Ratio (x) = 1.03055 0.75754
# Poissons Ratio (y) = 0.16984 0.28526
# Poissons Ratio (z) = 0.13422 0.30667
#
# Static dielectric constant tensor:
#      x y z
#    x 2.898230 0.000000 0.000000 
#    y 0.000000 3.555080 0.000000 
#    z 0.000000 0.000000 3.557090 
# 
# 
# High freq. dielectric constant tensor:
#      x y z
#    x 1.656990 0.000000 0.000000 
#    y 0.000000 1.728000 0.000000 
#    z 0.000000 0.000000 1.727890 
# 
# From -- ./inp_files/4574.got.cif
#   From: 2010.03.12/outbox.cif.g09.slc.cpg/sg47_3_cif.got.tgz:4574.got - 2010.04.14 03:12:58.
