data_PCOD8197004
_publ_section_title
;
Structure prediction by ZEFSAII (Michael W. Deem and Ramdas Pophale) SiO2 
 PCOD8197004
Probable space group: P M M M
;
_chemical_formula_sum "Si O2"
_cell_formula_units_Z 44
_cell_length_a 14.110988
_cell_length_b 19.078850
_cell_length_c 9.364834
_cell_angle_alpha 90.000000
_cell_angle_beta 90.000000
_cell_angle_gamma 90.000000
_cell_volume 2521.213939
_symmetry_space_group_name_H-M "P M M M"
_symmetry_group_IT_number 47
_symmetry_cell_setting 'orthorhombic'
loop_
_space_group_symop_operation_xyz
x,y,z
-x,-y,z
x,-y,-z
-x,y,-z
-x,-y,-z
x,y,-z
-x,y,z
x,-y,z
loop_
_atom_site_type_symbol
_atom_site_label
_atom_site_fract_x
_atom_site_fract_y
_atom_site_fract_z
Si Si1 0.892254 0.330206 0.665838
Si Si2 0.752389 0.207672 0.666700
Si Si3 0.500000 0.924619 0.832468
Si Si4 0.249525 0.420737 0.164817
Si Si5 0.609574 0.700118 0.834486
Si Si6 0.706198 0.918011 0.833598
O O1 0.886212 0.348977 0.500000
O O2 0.843955 0.255328 0.697042
O O3 0.840025 0.392217 0.748472
O O4 0.000000 0.325459 0.719541
O O5 0.733083 0.197458 0.500000
O O6 0.660193 0.242278 0.737633
O O7 0.773755 0.131691 0.738936
O O8 0.599835 0.888382 0.793789
O O9 0.500000 0.000000 0.755536
O O10 0.500000 0.937511 0.000000
O O11 0.271454 0.500000 0.212963
O O12 0.343884 0.375706 0.195275
O O13 0.220747 0.416741 0.000000
O O14 0.500000 0.695782 0.790412
O O15 0.621224 0.722027 0.000000
O O16 0.718360 0.000000 0.792682
O O17 0.729249 0.907473 0.000000
#
# Coordination Sequence:
#
# PCOD8197004 Si02
#       6
#     8   8   4   8   8   8
#     4   9  19  36  54  70  92 126 164 197 236 291
#     4  10  20  32  48  71  97 123 157 205 248 280
#     4   7  12  24  41  61  85 117 154 183 210 257
#     4   9  18  32  50  75 103 125 153 198 244 281
#     4   9  18  32  49  68  94 133 171 194 223 278
#     4   9  17  30  48  69  95 128 163 195 232 283
#
# _framework density 17.451910000000002
#
# number of rings (size 3 to 8) (size 9 to 14) (size 15 to 20)
#    0.000    3.000    0.000    1.636    1.273    2.909 
#    0.000    3.636    0.000    2.182    0.000    8.909 
#    0.000    0.000    0.000    0.000    0.000    0.000 
#
# Total GULP energy -545293.145038 kJ/mol
# GULP energy per Si atom -12393.026024 kJ/mol
# Density = 1.741219 g / cm^3
# Si number density = 17.451910 Si / 1000 Ang^3
#
#
#
# Elastic Constant Matrix: (Units=GPa)
#
#
# Indices 1 2 3 4 5 6 
#
# 1 96.6283 38.1968 37.1718 0.0000 0.0000 0.0000
# 2 38.1968 117.9605 54.1779 0.0000 0.0000 0.0000
# 3 37.1718 54.1779 62.7872 0.0000 0.0000 0.0000
# 4 0.0000 0.0000 0.0000 26.9396 0.0000 0.0000
# 5 0.0000 0.0000 0.0000 0.0000 23.5362 0.0000
# 6 0.0000 0.0000 0.0000 0.0000 0.0000 11.2409
#
#
#
# Elastic Compliance Matrix: (Units=1/GPa)
#
#
# Indices 1 2 3 4 5 6 
#
# 1 0.013496 -0.001160 -0.006989 0.000000 0.000000 0.000000
# 2 -0.001160 0.014142 -0.011516 0.000000 0.000000 0.000000
# 3 -0.006989 -0.011516 0.030002 0.000000 0.000000 0.000000
# 4 0.000000 0.000000 0.000000 0.037120 0.000000 0.000000
# 5 0.000000 0.000000 0.000000 0.000000 0.042488 0.000000
# 6 0.000000 0.000000 0.000000 0.000000 0.000000 0.088961
#
#
# Mechanical properties :
#
#
# Convention : Reuss Voigt Hill
#
# Bulk Modulus (GPa) = 54.61730 59.60766 57.11248
# Shear Modulus (GPa) = 18.40653 22.19865 20.30259
#
# Velocity S-wave (km/s) = 3.25114 3.57037 3.41448
# Velocity P-wave (km/s) = 6.74218 7.15725 6.95281
#
# Compressibility (1/GPa) = 0.01830922
#
# Stress axis : x y z
#
# Youngs Moduli (GPa) = 74.09529 70.70925 33.33150
#
# Poissons Ratio (x) = 0.08204 0.23295
# Poissons Ratio (y) = 0.08597 0.38386
# Poissons Ratio (z) = 0.51785 0.81431
#
# Static dielectric constant tensor:
#      x y z
#    x 3.215100 0.000000 0.000000 
#    y 0.000000 3.333620 0.000000 
#    z 0.000000 0.000000 3.132040 
# 
# 
# High freq. dielectric constant tensor:
#      x y z
#    x 1.653390 0.000000 0.000000 
#    y 0.000000 1.680760 0.000000 
#    z 0.000000 0.000000 1.661180 
# 
# From -- ./inp_files/6201.got.cif
#   From: 2010.03.12/outbox.cif.g09.slc.cpg/sg47_4_cif.got.tgz:6201.got - 2010.04.14 03:12:58.
