data_PCOD8197754
_publ_section_title
;
Structure prediction by ZEFSAII (Michael W. Deem and Ramdas Pophale) SiO2 
 PCOD8197754
Probable space group: P M M M
;
_chemical_formula_sum "Si O2"
_cell_formula_units_Z 64
_cell_length_a 9.131675
_cell_length_b 14.703212
_cell_length_c 23.753771
_cell_angle_alpha 90.000000
_cell_angle_beta 90.000000
_cell_angle_gamma 90.000000
_cell_volume 3189.298957
_symmetry_space_group_name_H-M "P M M M"
_symmetry_group_IT_number 47
_symmetry_cell_setting 'orthorhombic'
loop_
_space_group_symop_operation_xyz
x,y,z
-x,-y,z
x,-y,-z
-x,y,-z
-x,-y,-z
x,y,-z
-x,y,z
x,-y,z
loop_
_atom_site_type_symbol
_atom_site_label
_atom_site_fract_x
_atom_site_fract_y
_atom_site_fract_z
Si Si1 0.334403 0.645715 0.062674
Si Si2 0.832482 0.169752 0.061956
Si Si3 0.672072 0.275508 0.436523
Si Si4 0.326592 0.397342 0.335949
Si Si5 0.165036 0.099386 0.433121
Si Si6 0.834744 0.598583 0.161545
Si Si7 0.169546 0.101946 0.816343
Si Si8 0.327322 0.267600 0.763395
O O1 0.500000 0.639982 0.086700
O O2 0.282106 0.749324 0.064284
O O3 0.220252 0.584970 0.097887
O O4 0.330615 0.606354 0.000000
O O5 0.794952 0.108336 0.116554
O O6 0.000000 0.205297 0.067313
O O7 0.814694 0.120342 0.000000
O O8 0.729367 0.294706 0.500000
O O9 0.500000 0.261648 0.436077
O O10 0.718355 0.360926 0.397876
O O11 0.737091 0.182248 0.410259
O O12 0.500000 0.402843 0.329473
O O13 0.261559 0.500000 0.327685
O O14 0.266170 0.322919 0.291222
O O15 0.170422 0.100166 0.500000
O O16 0.000000 0.114490 0.411640
O O17 0.222112 0.000000 0.411773
O O18 0.828045 0.500000 0.191927
O O19 0.718458 0.669628 0.184904
O O20 0.000000 0.637563 0.164576
O O21 0.257089 0.169021 0.774280
O O22 0.000000 0.122576 0.805785
O O23 0.211313 0.000000 0.797671
O O24 0.500000 0.254879 0.759943
#
# Coordination Sequence:
#
# PCOD8197754 Si02
#       8
#     8   8   8   8   8   8   8   8
#     4  10  20  33  51  77 109 143 179 222 273 327
#     4   9  17  31  53  79 109 145 181 220 271 331
#     4   9  17  30  52  83 114 143 178 224 277 329
#     4   9  19  36  57  82 111 142 179 224 275 333
#     4   8  14  26  45  70 104 147 187 218 254 304
#     4  11  23  37  55  79 106 139 181 228 278 331
#     4  10  21  37  58  84 114 147 183 226 277 333
#     4  11  22  38  60  81 105 141 183 229 275 322
#
# _framework density 20.067105999999999
#
# number of rings (size 3 to 8) (size 9 to 14) (size 15 to 20)
#    0.000    2.375    1.250    1.875    0.000    3.500 
#    0.000    6.875    0.000    5.625    0.000    4.375 
#    0.000    0.000    0.000    0.000    0.000    0.000 
#
# Total GULP energy -792872.553076 kJ/mol
# GULP energy per Si atom -12388.633642 kJ/mol
# Density = 2.002143 g / cm^3
# Si number density = 20.067106 Si / 1000 Ang^3
#
#
#
# Elastic Constant Matrix: (Units=GPa)
#
#
# Indices 1 2 3 4 5 6 
#
# 1 53.4761 39.4231 28.5518 0.0000 0.0000 0.0000
# 2 39.4231 145.1598 59.9385 0.0000 0.0000 0.0000
# 3 28.5518 59.9385 88.5783 0.0000 0.0000 0.0000
# 4 0.0000 0.0000 0.0000 20.8401 0.0000 0.0000
# 5 0.0000 0.0000 0.0000 0.0000 15.9259 0.0000
# 6 0.0000 0.0000 0.0000 0.0000 0.0000 14.5617
#
#
#
# Elastic Compliance Matrix: (Units=1/GPa)
#
#
# Indices 1 2 3 4 5 6 
#
# 1 0.024747 -0.004756 -0.004758 0.000000 0.000000 0.000000
# 2 -0.004756 0.010474 -0.005555 0.000000 0.000000 0.000000
# 3 -0.004758 -0.005555 0.016582 0.000000 0.000000 0.000000
# 4 0.000000 0.000000 0.000000 0.047984 0.000000 0.000000
# 5 0.000000 0.000000 0.000000 0.000000 0.062791 0.000000
# 6 0.000000 0.000000 0.000000 0.000000 0.000000 0.068673
#
#
# Mechanical properties :
#
#
# Convention : Reuss Voigt Hill
#
# Bulk Modulus (GPa) = 46.15795 60.33790 53.24793
# Shear Modulus (GPa) = 18.61428 20.88559 19.74994
#
# Velocity S-wave (km/s) = 3.04896 3.22962 3.14059
# Velocity P-wave (km/s) = 5.95371 6.63631 6.30425
#
# Compressibility (1/GPa) = 0.02166474
#
# Stress axis : x y z
#
# Youngs Moduli (GPa) = 40.40935 95.47302 60.30677
#
# Poissons Ratio (x) = 0.45407 0.28697
# Poissons Ratio (y) = 0.19219 0.33498
# Poissons Ratio (z) = 0.19229 0.53031
#
# Static dielectric constant tensor:
#      x y z
#    x 3.463300 0.000000 0.000000 
#    y 0.000000 3.768140 0.000000 
#    z 0.000000 0.000000 3.741050 
# 
# 
# High freq. dielectric constant tensor:
#      x y z
#    x 1.762950 0.000000 0.000000 
#    y 0.000000 1.780170 0.000000 
#    z 0.000000 0.000000 1.768250 
# 
# From -- ./inp_files/32140.got.cif
#   From: 2010.03.12/outbox.cif.g09.slc.cpg/sg47_17_cif.got.tgz:32140.got - 2010.04.14 03:12:58.
