data_PCOD8197837
_publ_section_title
;
Structure prediction by ZEFSAII (Michael W. Deem and Ramdas Pophale) SiO2 
 PCOD8197837
Probable space group: P M M M
;
_chemical_formula_sum "Si O2"
_cell_formula_units_Z 44
_cell_length_a 9.133408
_cell_length_b 9.043936
_cell_length_c 28.385477
_cell_angle_alpha 90.000000
_cell_angle_beta 90.000000
_cell_angle_gamma 90.000000
_cell_volume 2344.695962
_symmetry_space_group_name_H-M "P M M M"
_symmetry_group_IT_number 47
_symmetry_cell_setting 'orthorhombic'
loop_
_space_group_symop_operation_xyz
x,y,z
-x,-y,z
x,-y,-z
-x,y,-z
-x,-y,-z
x,y,-z
-x,y,z
x,-y,z
loop_
_atom_site_type_symbol
_atom_site_label
_atom_site_fract_x
_atom_site_fract_y
_atom_site_fract_z
Si Si1 0.329064 0.327736 0.227989
Si Si2 0.831414 0.174032 0.312655
Si Si3 0.173845 0.334209 0.948192
Si Si4 0.173605 0.169106 0.143141
Si Si5 0.665173 0.675906 0.500000
Si Si6 0.829657 0.329712 0.408238
O O1 0.500000 0.295284 0.222690
O O2 0.294930 0.500000 0.233570
O O3 0.270754 0.244962 0.273657
O O4 0.248014 0.269310 0.182090
O O5 0.781471 0.235688 0.363102
O O6 0.000000 0.216619 0.302311
O O7 0.808289 0.000000 0.312129
O O8 0.231278 0.500000 0.937495
O O9 0.230944 0.223163 0.907998
O O10 0.000000 0.334704 0.948265
O O11 0.230199 0.282488 0.000000
O O12 0.000000 0.187249 0.147852
O O13 0.221665 0.000000 0.150036
O O14 0.674208 0.500000 0.500000
O O15 0.500000 0.734643 0.500000
O O16 0.744235 0.735848 0.546835
O O17 0.788327 0.500000 0.398485
O O18 0.000000 0.311661 0.419277
#
# Coordination Sequence:
#
# PCOD8197837 Si02
#       6
#     8   8   8   8   4   8
#     4  11  24  39  55  76 102 135 175 216 259 309
#     4  10  21  37  57  81 107 135 170 213 262 314
#     4   8  14  26  46  73 104 137 173 213 256 301
#     4  10  20  33  52  79 108 138 172 211 258 311
#     4   9  17  29  48  75 104 134 172 217 256 293
#     4   9  17  31  52  76 102 134 171 210 254 303
#
# _framework density 18.76576
#
# number of rings (size 3 to 8) (size 9 to 14) (size 15 to 20)
#    0.000    2.455    0.000    3.000    0.000    8.000 
#    0.000    4.091    0.000    3.273    0.000    3.818 
#    0.000    0.000    0.000    0.000    0.000    0.000 
#
# Total GULP energy -545610.619646 kJ/mol
# GULP energy per Si atom -12400.241356 kJ/mol
# Density = 1.872305 g / cm^3
# Si number density = 18.765760 Si / 1000 Ang^3
#
#
#
# Elastic Constant Matrix: (Units=GPa)
#
#
# Indices 1 2 3 4 5 6 
#
# 1 47.2134 29.8363 46.3508 0.0000 0.0000 0.0000
# 2 29.8363 71.8561 51.0573 0.0000 0.0000 0.0000
# 3 46.3508 51.0573 152.2712 0.0000 0.0000 0.0000
# 4 0.0000 0.0000 0.0000 -21.9985 0.0000 0.0000
# 5 0.0000 0.0000 0.0000 0.0000 -6.2667 0.0000
# 6 0.0000 0.0000 0.0000 0.0000 0.0000 19.6803
#
#
#
# Elastic Compliance Matrix: (Units=1/GPa)
#
#
# Indices 1 2 3 4 5 6 
#
# 1 0.034047 -0.008891 -0.007382 0.000000 0.000000 0.000000
# 2 -0.008891 0.020591 -0.004198 0.000000 0.000000 0.000000
# 3 -0.007382 -0.004198 0.010222 0.000000 0.000000 0.000000
# 4 0.000000 0.000000 0.000000 -0.045458 0.000000 0.000000
# 5 0.000000 0.000000 0.000000 0.000000 -0.159572 0.000000
# 6 0.000000 0.000000 0.000000 0.000000 0.000000 0.050812
#
#
# Mechanical properties :
#
#
# Convention : Reuss Voigt Hill
#
# Bulk Modulus (GPa) = 41.81167 58.42550 50.11859
# Shear Modulus (GPa) = -123.63373 7.88944 -57.87214
#
# Velocity S-wave (km/s) = -8.12562 2.05263 -5.55933
# Velocity P-wave (km/s) = 8.10586 6.06790 3.80037
#
# Compressibility (1/GPa) = 0.02391677
#
# Stress axis : x y z
#
# Youngs Moduli (GPa) = 29.37134 48.56385 97.82861
#
# Poissons Ratio (x) = 0.43180 0.72221
# Poissons Ratio (y) = 0.26115 0.41067
# Poissons Ratio (z) = 0.21683 0.20387
#
# Static dielectric constant tensor:
#      x y z
#    x 3.231070 0.000000 0.000000 
#    y 0.000000 3.433250 0.000000 
#    z 0.000000 0.000000 3.813770 
# 
# 
# High freq. dielectric constant tensor:
#      x y z
#    x 1.701290 0.000000 0.000000 
#    y 0.000000 1.721920 0.000000 
#    z 0.000000 0.000000 1.748090 
# 
# From -- ./inp_files/2186.got.cif
#   From: 2010.03.12/outbox.cif.g09.slc.cpg/sg47_2_cif.got.tgz:2186.got - 2010.04.14 03:12:58.
