data_PCOD8197480
_publ_section_title
;
Structure prediction by ZEFSAII (Michael W. Deem and Ramdas Pophale) SiO2 
 PCOD8197480
Probable space group: P M M M
;
_chemical_formula_sum "Si O2"
_cell_formula_units_Z 56
_cell_length_a 13.339483
_cell_length_b 14.778053
_cell_length_c 14.243076
_cell_angle_alpha 90.000000
_cell_angle_beta 90.000000
_cell_angle_gamma 90.000000
_cell_volume 2807.760172
_symmetry_space_group_name_H-M "P M M M"
_symmetry_group_IT_number 47
_symmetry_cell_setting 'orthorhombic'
loop_
_space_group_symop_operation_xyz
x,y,z
-x,-y,z
x,-y,-z
-x,y,-z
-x,-y,-z
x,y,-z
-x,y,z
x,-y,z
loop_
_atom_site_type_symbol
_atom_site_label
_atom_site_fract_x
_atom_site_fract_y
_atom_site_fract_z
Si Si1 0.891890 0.101444 0.716721
Si Si2 0.701662 0.892148 0.609633
Si Si3 0.730811 0.600607 0.747802
Si Si4 0.112891 0.640452 0.894874
Si Si5 0.206758 0.834265 0.106061
Si Si6 0.614212 0.777475 0.230181
Si Si7 0.109874 0.392236 0.604302
O O1 0.811545 0.143080 0.643680
O O2 0.849617 0.098496 0.823233
O O3 0.000000 0.152550 0.710020
O O4 0.909667 0.000000 0.684616
O O5 0.685586 0.869414 0.500000
O O6 0.624078 0.834998 0.673074
O O7 0.687684 0.000000 0.628034
O O8 0.688726 0.500000 0.722477
O O9 0.802522 0.587255 0.837686
O O10 0.640001 0.670739 0.757928
O O11 0.802371 0.646342 0.669260
O O12 0.138888 0.745696 0.893034
O O13 0.000000 0.625306 0.854299
O O14 0.117269 0.602389 0.000000
O O15 0.318261 0.816975 0.146128
O O16 0.214912 0.873861 0.000000
O O17 0.500000 0.783467 0.196873
O O18 0.130762 0.356546 0.500000
O O19 0.113483 0.500000 0.607769
O O20 0.000000 0.358914 0.638199
#
# Coordination Sequence:
#
# PCOD8197480 Si02
#       7
#     8   8   8   8   8   8   8
#     4   9  17  29  49  81 117 147 173 201 239 299
#     4   9  19  37  60  84 109 137 170 211 259 307
#     4  10  20  33  50  72 101 136 170 208 258 313
#     4   9  17  29  47  72 101 134 172 212 254 303
#     4   9  18  33  51  71 101 140 179 220 264 310
#     4  10  22  38  55  76 100 129 174 230 277 318
#     4   8  14  26  45  68  94 126 162 196 234 289
#
# _framework density 19.944721999999999
#
# number of rings (size 3 to 8) (size 9 to 14) (size 15 to 20)
#    0.000    2.857    0.000    1.286    0.000    4.286 
#    0.000    4.286    0.000    0.000    0.000   11.000 
#    0.000    0.000    0.000    0.000    0.000    0.000 
#
# Total GULP energy -693834.412093 kJ/mol
# GULP energy per Si atom -12389.900216 kJ/mol
# Density = 1.989933 g / cm^3
# Si number density = 19.944722 Si / 1000 Ang^3
#
#
#
# Elastic Constant Matrix: (Units=GPa)
#
#
# Indices 1 2 3 4 5 6 
#
# 1 104.2471 14.2369 12.0203 0.0000 0.0000 0.0000
# 2 14.2369 47.4018 8.6703 0.0000 0.0000 0.0000
# 3 12.0203 8.6703 86.5567 0.0000 0.0000 0.0000
# 4 0.0000 0.0000 0.0000 21.7335 0.0000 0.0000
# 5 0.0000 0.0000 0.0000 0.0000 15.6971 0.0000
# 6 0.0000 0.0000 0.0000 0.0000 0.0000 1.0429
#
#
#
# Elastic Compliance Matrix: (Units=1/GPa)
#
#
# Indices 1 2 3 4 5 6 
#
# 1 0.010108 -0.002831 -0.001120 0.000000 0.000000 0.000000
# 2 -0.002831 0.022283 -0.001839 0.000000 0.000000 0.000000
# 3 -0.001120 -0.001839 0.011893 0.000000 0.000000 0.000000
# 4 0.000000 0.000000 0.000000 0.046012 0.000000 0.000000
# 5 0.000000 0.000000 0.000000 0.000000 0.063706 0.000000
# 6 0.000000 0.000000 0.000000 0.000000 0.000000 0.958887
#
#
# Mechanical properties :
#
#
# Convention : Reuss Voigt Hill
#
# Bulk Modulus (GPa) = 30.57748 34.22896 32.40322
# Shear Modulus (GPa) = 4.40385 21.24656 12.82520
#
# Velocity S-wave (km/s) = 1.48755 3.26739 2.53857
# Velocity P-wave (km/s) = 4.27958 5.60657 4.98741
#
# Compressibility (1/GPa) = 0.03270380
#
# Stress axis : x y z
#
# Youngs Moduli (GPa) = 98.92762 44.87740 84.08384
#
# Poissons Ratio (x) = 0.12705 0.09419
# Poissons Ratio (y) = 0.28008 0.15462
# Poissons Ratio (z) = 0.11082 0.08253
#
# Static dielectric constant tensor:
#      x y z
#    x 3.551810 0.000000 0.000000 
#    y 0.000000 3.367310 0.000000 
#    z 0.000000 0.000000 3.821370 
# 
# 
# High freq. dielectric constant tensor:
#      x y z
#    x 1.756870 0.000000 0.000000 
#    y 0.000000 1.764630 0.000000 
#    z 0.000000 0.000000 1.776810 
# 
# From -- ./inp_files/17676.got.cif
#   From: 2010.03.12/outbox.cif.g09.slc.cpg/sg47_9_cif.got.tgz:17676.got - 2010.04.14 03:12:58.
