data_PCOD8197511
_publ_section_title
;
Structure prediction by ZEFSAII (Michael W. Deem and Ramdas Pophale) SiO2 
 PCOD8197511
Probable space group: P M M M
;
_chemical_formula_sum "Si O2"
_cell_formula_units_Z 64
_cell_length_a 20.230756
_cell_length_b 9.235793
_cell_length_c 17.800314
_cell_angle_alpha 90.000000
_cell_angle_beta 90.000000
_cell_angle_gamma 90.000000
_cell_volume 3325.936599
_symmetry_space_group_name_H-M "P M M M"
_symmetry_group_IT_number 47
_symmetry_cell_setting 'orthorhombic'
loop_
_space_group_symop_operation_xyz
x,y,z
-x,-y,z
x,-y,-z
-x,y,-z
-x,-y,-z
x,y,-z
-x,y,z
x,-y,z
loop_
_atom_site_type_symbol
_atom_site_label
_atom_site_fract_x
_atom_site_fract_y
_atom_site_fract_z
Si Si1 0.740365 0.666815 0.125599
Si Si2 0.074883 0.832826 0.647373
Si Si3 0.132114 0.835527 0.084798
Si Si4 0.075418 0.342790 0.789002
Si Si5 0.299114 0.668308 0.293355
Si Si6 0.573134 0.833123 0.755706
Si Si7 0.616586 0.163774 0.917734
Si Si8 0.787766 0.832968 0.584601
O O1 0.751586 0.500000 0.105185
O O2 0.796967 0.763293 0.090398
O O3 0.739226 0.692012 0.215225
O O4 0.674314 0.719347 0.085917
O O5 0.103106 0.747152 0.719233
O O6 0.132492 0.803030 0.586651
O O7 0.000000 0.784529 0.620968
O O8 0.071608 0.000000 0.669953
O O9 0.081072 0.746362 0.134713
O O10 0.136284 0.000000 0.113590
O O11 0.105885 0.829168 0.000000
O O12 0.112078 0.500000 0.794810
O O13 0.000000 0.371976 0.772680
O O14 0.309370 0.500000 0.311293
O O15 0.372036 0.738698 0.287167
O O16 0.255541 0.736896 0.359374
O O17 0.500000 0.791744 0.725270
O O18 0.569816 0.806816 0.846182
O O19 0.589465 0.000000 0.738337
O O20 0.645071 0.000000 0.911732
O O21 0.581134 0.183024 0.000000
O O22 0.764859 0.797166 0.500000
O O23 0.774289 0.000000 0.605061
#
# Coordination Sequence:
#
# PCOD8197511 Si02
#       8
#     8   8   8   8   8   8   8   8
#     4  10  20  33  50  72  98 131 173 216 257 306
#     4   9  18  34  57  83 111 144 178 211 251 303
#     4  11  23  35  48  68  94 126 167 217 270 318
#     4  10  21  36  53  72  95 126 166 211 257 307
#     4  10  21  36  55  79 107 141 179 219 263 313
#     4   9  18  33  54  79 106 140 182 225 270 319
#     4   9  17  29  46  71 105 141 175 214 260 309
#     4  10  21  36  56  84 115 144 174 211 256 307
#
# _framework density 19.242699999999999
#
# number of rings (size 3 to 8) (size 9 to 14) (size 15 to 20)
#    0.000    2.250    0.000    2.625    0.000    8.750 
#    0.000    3.750    0.000    0.375    0.000    8.750 
#    0.000    0.000    0.000    0.000    0.000    0.000 
#
# Total GULP energy -793141.079735 kJ/mol
# GULP energy per Si atom -12392.829371 kJ/mol
# Density = 1.919890 g / cm^3
# Si number density = 19.242700 Si / 1000 Ang^3
#
#
#
# Elastic Constant Matrix: (Units=GPa)
#
#
# Indices 1 2 3 4 5 6 
#
# 1 76.4539 34.4189 34.5255 0.0000 0.0000 0.0000
# 2 34.4189 103.1567 43.6848 0.0000 0.0000 0.0000
# 3 34.5255 43.6848 85.5244 0.0000 0.0000 0.0000
# 4 0.0000 0.0000 0.0000 21.0020 0.0000 0.0000
# 5 0.0000 0.0000 0.0000 0.0000 6.0061 0.0000
# 6 0.0000 0.0000 0.0000 0.0000 0.0000 19.8694
#
#
#
# Elastic Compliance Matrix: (Units=1/GPa)
#
#
# Indices 1 2 3 4 5 6 
#
# 1 0.016940 -0.003517 -0.005042 0.000000 0.000000 0.000000
# 2 -0.003517 0.013100 -0.005271 0.000000 0.000000 0.000000
# 3 -0.005042 -0.005271 0.016421 0.000000 0.000000 0.000000
# 4 0.000000 0.000000 0.000000 0.047615 0.000000 0.000000
# 5 0.000000 0.000000 0.000000 0.000000 0.166498 0.000000
# 6 0.000000 0.000000 0.000000 0.000000 0.000000 0.050329
#
#
# Mechanical properties :
#
#
# Convention : Reuss Voigt Hill
#
# Bulk Modulus (GPa) = 53.19315 54.48816 53.84066
# Shear Modulus (GPa) = 14.49994 19.54253 17.02124
#
# Velocity S-wave (km/s) = 2.74803 3.19028 2.97737
# Velocity P-wave (km/s) = 6.14591 6.47675 6.31349
#
# Compressibility (1/GPa) = 0.01879941
#
# Stress axis : x y z
#
# Youngs Moduli (GPa) = 59.03177 76.33713 60.89892
#
# Poissons Ratio (x) = 0.26847 0.30706
# Poissons Ratio (y) = 0.20761 0.32103
# Poissons Ratio (z) = 0.29765 0.40241
#
# Static dielectric constant tensor:
#      x y z
#    x 3.439320 0.000000 0.000000 
#    y 0.000000 3.774640 0.000000 
#    z 0.000000 0.000000 3.384690 
# 
# 
# High freq. dielectric constant tensor:
#      x y z
#    x 1.737800 0.000000 0.000000 
#    y 0.000000 1.753860 0.000000 
#    z 0.000000 0.000000 1.731010 
# 
# From -- ./inp_files/28784.got.cif
#   From: 2010.03.12/outbox.cif.g09.slc.cpg/sg47_15_cif.got.tgz:28784.got - 2010.04.14 03:12:58.
