data_PCOD8197471
_publ_section_title
;
Structure prediction by ZEFSAII (Michael W. Deem and Ramdas Pophale) SiO2 
 PCOD8197471
Probable space group: P M M M
;
_chemical_formula_sum "Si O2"
_cell_formula_units_Z 44
_cell_length_a 9.047082
_cell_length_b 9.277363
_cell_length_c 28.412256
_cell_angle_alpha 90.000000
_cell_angle_beta 90.000000
_cell_angle_gamma 90.000000
_cell_volume 2384.727696
_symmetry_space_group_name_H-M "P M M M"
_symmetry_group_IT_number 47
_symmetry_cell_setting 'orthorhombic'
loop_
_space_group_symop_operation_xyz
x,y,z
-x,-y,z
x,-y,-z
-x,y,-z
-x,-y,-z
x,y,-z
-x,y,z
x,-y,z
loop_
_atom_site_type_symbol
_atom_site_label
_atom_site_fract_x
_atom_site_fract_y
_atom_site_fract_z
Si Si1 0.828867 0.333093 0.409665
Si Si2 0.824177 0.161881 0.052001
Si Si3 0.823994 0.661897 0.139643
Si Si4 0.827477 0.168244 0.231196
Si Si5 0.824116 0.837216 0.500000
Si Si6 0.674222 0.664821 0.686196
O O1 0.805574 0.500000 0.421948
O O2 0.765004 0.242532 0.453434
O O3 0.737913 0.286347 0.363928
O O4 0.000000 0.297913 0.399945
O O5 0.758815 0.267154 0.091939
O O6 0.000000 0.161810 0.054571
O O7 0.765951 0.000000 0.061347
O O8 0.772953 0.214525 0.000000
O O9 0.761507 0.500000 0.143815
O O10 0.769154 0.753402 0.184230
O O11 0.000000 0.661375 0.137733
O O12 0.739166 0.229914 0.274991
O O13 0.000000 0.198631 0.239305
O O14 0.794090 0.000000 0.225744
O O15 0.000000 0.830943 0.500000
O O16 0.764300 0.000000 0.500000
O O17 0.500000 0.682372 0.684860
O O18 0.721191 0.500000 0.697335
#
# Coordination Sequence:
#
# PCOD8197471 Si02
#       6
#     8   8   8   8   4   8
#     4   9  17  31  52  75  99 129 163 197 236 284
#     4   8  13  21  33  51  80 118 154 188 232 287
#     4   9  16  25  39  60  86 117 155 199 242 285
#     4  10  20  33  50  71  95 126 164 204 246 293
#     4   9  17  29  48  75 102 126 158 201 240 275
#     4  10  21  36  53  74 100 129 162 202 248 295
#
# _framework density 18.450742999999999
#
# number of rings (size 3 to 8) (size 9 to 14) (size 15 to 20)
#    0.000    2.818    0.000    2.455    0.000    6.545 
#    0.000    4.091    0.000    2.727    0.000    0.000 
#    0.000    0.727    0.000    7.636    0.000   10.545 
#
# Total GULP energy -545561.567865 kJ/mol
# GULP energy per Si atom -12399.126542 kJ/mol
# Density = 1.840875 g / cm^3
# Si number density = 18.450743 Si / 1000 Ang^3
#
#
#
# Elastic Constant Matrix: (Units=GPa)
#
#
# Indices 1 2 3 4 5 6 
#
# 1 30.2474 31.5123 38.0240 0.0000 0.0000 0.0000
# 2 31.5123 127.8193 102.0152 0.0000 0.0000 0.0000
# 3 38.0240 102.0152 184.7039 0.0000 0.0000 0.0000
# 4 0.0000 0.0000 0.0000 40.0083 0.0000 0.0000
# 5 0.0000 0.0000 0.0000 0.0000 -3.2474 0.0000
# 6 0.0000 0.0000 0.0000 0.0000 0.0000 14.0653
#
#
#
# Elastic Compliance Matrix: (Units=1/GPa)
#
#
# Indices 1 2 3 4 5 6 
#
# 1 0.047907 -0.007045 -0.005971 0.000000 0.000000 0.000000
# 2 -0.007045 0.015027 -0.006849 0.000000 0.000000 0.000000
# 3 -0.005971 -0.006849 0.010426 0.000000 0.000000 0.000000
# 4 0.000000 0.000000 0.000000 0.024995 0.000000 0.000000
# 5 0.000000 0.000000 0.000000 0.000000 -0.307942 0.000000
# 6 0.000000 0.000000 0.000000 0.000000 0.000000 0.071097
#
#
# Mechanical properties :
#
#
# Convention : Reuss Voigt Hill
#
# Bulk Modulus (GPa) = 29.73638 76.20820 52.97229
# Shear Modulus (GPa) = -57.11097 21.57985 -17.76556
#
# Velocity S-wave (km/s) = -5.56960 3.42364 -3.10637
# Velocity P-wave (km/s) = 5.02085 7.55127 3.98828
#
# Compressibility (1/GPa) = 0.03362884
#
# Stress axis : x y z
#
# Youngs Moduli (GPa) = 20.87388 66.54667 95.91086
#
# Poissons Ratio (x) = 0.46883 0.57270
# Poissons Ratio (y) = 0.14706 0.65693
# Poissons Ratio (z) = 0.12464 0.45580
#
# Static dielectric constant tensor:
#      x y z
#    x 2.839670 0.000000 0.000000 
#    y 0.000000 3.528510 0.000000 
#    z 0.000000 0.000000 3.657670 
# 
# 
# High freq. dielectric constant tensor:
#      x y z
#    x 1.655660 0.000000 0.000000 
#    y 0.000000 1.718750 0.000000 
#    z 0.000000 0.000000 1.733380 
# 
# From -- ./inp_files/33913.got.cif
#   From: 2010.03.12/outbox.cif.g09.slc.cpg/sg47_17_cif.got.tgz:33913.got - 2010.04.14 03:12:58.
