data_PCOD8197050
_publ_section_title
;
Structure prediction by ZEFSAII (Michael W. Deem and Ramdas Pophale) SiO2 
 PCOD8197050
Probable space group: P M M M
;
_chemical_formula_sum "Si O2"
_cell_formula_units_Z 40
_cell_length_a 9.829332
_cell_length_b 9.349012
_cell_length_c 25.518986
_cell_angle_alpha 90.000000
_cell_angle_beta 90.000000
_cell_angle_gamma 90.000000
_cell_volume 2345.055552
_symmetry_space_group_name_H-M "P M M M"
_symmetry_group_IT_number 47
_symmetry_cell_setting 'orthorhombic'
loop_
_space_group_symop_operation_xyz
x,y,z
-x,-y,z
x,-y,-z
-x,y,-z
-x,-y,-z
x,y,-z
-x,y,z
x,-y,z
loop_
_atom_site_type_symbol
_atom_site_label
_atom_site_fract_x
_atom_site_fract_y
_atom_site_fract_z
Si Si1 0.847708 0.329863 0.941833
Si Si2 0.844777 0.336113 0.561215
Si Si3 0.338344 0.341135 0.738080
Si Si4 0.651643 0.670559 0.147055
Si Si5 0.658870 0.832883 0.361371
O O1 0.846034 0.500000 0.938412
O O2 0.747951 0.263594 0.898033
O O3 0.000000 0.273290 0.930994
O O4 0.799797 0.281626 0.000000
O O5 0.823503 0.308799 0.500000
O O6 0.810599 0.500000 0.575380
O O7 0.741980 0.232727 0.590846
O O8 0.000000 0.300631 0.577154
O O9 0.500000 0.348453 0.739306
O O10 0.279592 0.500000 0.726539
O O11 0.290492 0.285373 0.795447
O O12 0.286995 0.234555 0.693017
O O13 0.500000 0.732369 0.138149
O O14 0.647335 0.500000 0.144085
O O15 0.500000 0.798814 0.370210
O O16 0.687550 0.000000 0.358841
#
# Coordination Sequence:
#
# PCOD8197050 Si02
#       5
#     8   8   8   8   8
#     4   8  13  20  29  44  71 104 131 160 207 262
#     4   9  19  36  55  73  94 122 156 191 227 269
#     4   8  14  26  43  61  84 115 148 183 223 263
#     4   8  13  21  34  51  70  98 138 176 208 249
#     4  10  20  32  48  72  99 125 154 188 227 273
#
# _framework density 17.057165000000001
#
# number of rings (size 3 to 8) (size 9 to 14) (size 15 to 20)
#    0.000    3.400    0.000    3.000    0.000    2.800 
#    0.000    6.000    0.000    3.600    0.000    0.000 
#    0.000    0.800    0.000   10.000    0.000   11.600 
#
# Total GULP energy -495739.820139 kJ/mol
# GULP energy per Si atom -12393.495503 kJ/mol
# Density = 1.701834 g / cm^3
# Si number density = 17.057165 Si / 1000 Ang^3
#
#
#
# Elastic Constant Matrix: (Units=GPa)
#
#
# Indices 1 2 3 4 5 6 
#
# 1 71.6382 38.9974 67.3236 0.0000 0.0000 0.0000
# 2 38.9974 61.3642 54.3828 0.0000 0.0000 0.0000
# 3 67.3236 54.3828 133.6018 0.0000 0.0000 0.0000
# 4 0.0000 0.0000 0.0000 2.1282 0.0000 0.0000
# 5 0.0000 0.0000 0.0000 0.0000 13.2244 0.0000
# 6 0.0000 0.0000 0.0000 0.0000 0.0000 15.6330
#
#
#
# Elastic Compliance Matrix: (Units=1/GPa)
#
#
# Indices 1 2 3 4 5 6 
#
# 1 0.029166 -0.008620 -0.011188 0.000000 0.000000 0.000000
# 2 -0.008620 0.028040 -0.007070 0.000000 0.000000 0.000000
# 3 -0.011188 -0.007070 0.016001 0.000000 0.000000 0.000000
# 4 0.000000 0.000000 0.000000 0.469889 0.000000 0.000000
# 5 0.000000 0.000000 0.000000 0.000000 0.075618 0.000000
# 6 0.000000 0.000000 0.000000 0.000000 0.000000 0.063967
#
#
# Mechanical properties :
#
#
# Convention : Reuss Voigt Hill
#
# Bulk Modulus (GPa) = 51.41350 65.33464 58.37407
# Shear Modulus (GPa) = 6.73021 13.25715 9.99368
#
# Velocity S-wave (km/s) = 1.98853 2.79089 2.42315
# Velocity P-wave (km/s) = 5.95648 6.98369 6.49044
#
# Compressibility (1/GPa) = 0.01945014
#
# Stress axis : x y z
#
# Youngs Moduli (GPa) = 34.28676 35.66374 62.49697
#
# Poissons Ratio (x) = 0.30741 0.69924
# Poissons Ratio (y) = 0.29554 0.44186
# Poissons Ratio (z) = 0.38361 0.25214
#
# Static dielectric constant tensor:
#      x y z
#    x 3.140480 0.000000 0.000000 
#    y 0.000000 2.788430 0.000000 
#    z 0.000000 0.000000 3.524740 
# 
# 
# High freq. dielectric constant tensor:
#      x y z
#    x 1.636800 0.000000 0.000000 
#    y 0.000000 1.609510 0.000000 
#    z 0.000000 0.000000 1.672740 
# 
# From -- ./inp_files/1648.got.cif
#   From: 2010.03.12/outbox.cif.g09.slc.cpg/sg47_1_cif.got.tgz:1648.got - 2010.04.14 03:12:58.
