data_PCOD8197941
_publ_section_title
;
Structure prediction by ZEFSAII (Michael W. Deem and Ramdas Pophale) SiO2 
 PCOD8197941
Probable space group: P M M M
;
_chemical_formula_sum "Si O2"
_cell_formula_units_Z 64
_cell_length_a 8.905956
_cell_length_b 14.192972
_cell_length_c 31.321584
_cell_angle_alpha 90.000000
_cell_angle_beta 90.000000
_cell_angle_gamma 90.000000
_cell_volume 3959.110364
_symmetry_space_group_name_H-M "P M M M"
_symmetry_group_IT_number 47
_symmetry_cell_setting 'orthorhombic'
loop_
_space_group_symop_operation_xyz
x,y,z
-x,-y,z
x,-y,-z
-x,y,-z
-x,-y,-z
x,y,-z
-x,y,z
x,-y,z
loop_
_atom_site_type_symbol
_atom_site_label
_atom_site_fract_x
_atom_site_fract_y
_atom_site_fract_z
Si Si1 0.331603 0.611984 0.545196
Si Si2 0.325915 0.106822 0.841885
Si Si3 0.327912 0.391537 0.950892
Si Si4 0.824938 0.390775 0.795385
Si Si5 0.322073 0.282143 0.281905
Si Si6 0.175741 0.893369 0.248094
Si Si7 0.175137 0.723434 0.879524
Si Si8 0.320378 0.605930 0.363493
O O1 0.250157 0.642951 0.500000
O O2 0.500000 0.652239 0.543170
O O3 0.337191 0.500000 0.547526
O O4 0.257043 0.644853 0.590333
O O5 0.500000 0.125461 0.832363
O O6 0.234314 0.128008 0.799092
O O7 0.265075 0.177946 0.877658
O O8 0.298902 0.000000 0.857790
O O9 0.500000 0.374286 0.937318
O O10 0.283989 0.500000 0.943650
O O11 0.218476 0.327644 0.923122
O O12 0.303921 0.363359 0.000000
O O13 0.781122 0.500000 0.798593
O O14 0.731124 0.343892 0.757805
O O15 0.779329 0.342749 0.839902
O O16 0.000000 0.376603 0.785540
O O17 0.500000 0.277564 0.281208
O O18 0.256395 0.176671 0.280879
O O19 0.260832 0.327987 0.325655
O O20 0.000000 0.873196 0.248188
O O21 0.213714 0.000000 0.262043
O O22 0.000000 0.746068 0.879907
O O23 0.500000 0.605623 0.365313
O O24 0.261809 0.500000 0.354524
#
# Coordination Sequence:
#
# PCOD8197941 Si02
#       8
#     8   8   8   8   8   8   8   8
#     4   7   9  15  29  48  73 109 149 185 221 262
#     4  10  20  34  53  76  98 121 154 194 235 279
#     4   9  19  36  56  77 102 132 164 198 236 277
#     4  10  21  34  45  62  93 130 163 192 221 261
#     4  11  20  29  44  65  91 123 155 188 230 276
#     4  10  20  34  50  66  87 117 153 193 235 276
#     4  11  21  33  52  76 101 129 160 194 234 276
#     4   8  14  23  34  54  86 120 153 186 221 267
#
# _framework density 16.165247000000001
#
# number of rings (size 3 to 8) (size 9 to 14) (size 15 to 20)
#    0.000    2.500    1.250    3.750    0.000    3.750 
#    0.000    0.625    0.000    0.375    0.000    2.625 
#    0.000    2.500    0.000   20.375    0.000   12.750 
#
# Total GULP energy -793239.287258 kJ/mol
# GULP energy per Si atom -12394.363863 kJ/mol
# Density = 1.612845 g / cm^3
# Si number density = 16.165247 Si / 1000 Ang^3
#
#
#
# Elastic Constant Matrix: (Units=GPa)
#
#
# Indices 1 2 3 4 5 6 
#
# 1 47.1829 33.5861 32.5883 0.0000 0.0000 0.0000
# 2 33.5861 96.5896 53.3770 0.0000 0.0000 0.0000
# 3 32.5883 53.3770 111.5780 0.0000 0.0000 0.0000
# 4 0.0000 0.0000 0.0000 11.3900 0.0000 0.0000
# 5 0.0000 0.0000 0.0000 0.0000 1.3171 0.0000
# 6 0.0000 0.0000 0.0000 0.0000 0.0000 24.4409
#
#
#
# Elastic Compliance Matrix: (Units=1/GPa)
#
#
# Indices 1 2 3 4 5 6 
#
# 1 0.030205 -0.007650 -0.005162 0.000000 0.000000 0.000000
# 2 -0.007650 0.016011 -0.005425 0.000000 0.000000 0.000000
# 3 -0.005162 -0.005425 0.013065 0.000000 0.000000 0.000000
# 4 0.000000 0.000000 0.000000 0.087796 0.000000 0.000000
# 5 0.000000 0.000000 0.000000 0.000000 0.759252 0.000000
# 6 0.000000 0.000000 0.000000 0.000000 0.000000 0.040915
#
#
# Mechanical properties :
#
#
# Convention : Reuss Voigt Hill
#
# Bulk Modulus (GPa) = 43.84685 54.93926 49.39305
# Shear Modulus (GPa) = 5.04377 16.48286 10.76331
#
# Velocity S-wave (km/s) = 1.76830 3.19666 2.58317
# Velocity P-wave (km/s) = 5.59931 6.90541 6.28637
#
# Compressibility (1/GPa) = 0.02280666
#
# Stress axis : x y z
#
# Youngs Moduli (GPa) = 33.10690 62.45619 76.53838
#
# Poissons Ratio (x) = 0.47780 0.39511
# Poissons Ratio (y) = 0.25327 0.41523
# Poissons Ratio (z) = 0.17091 0.33883
#
# Static dielectric constant tensor:
#      x y z
#    x 2.877210 0.000000 0.000000 
#    y 0.000000 3.063860 0.000000 
#    z 0.000000 0.000000 3.273700 
# 
# 
# High freq. dielectric constant tensor:
#      x y z
#    x 1.606300 0.000000 0.000000 
#    y 0.000000 1.604740 0.000000 
#    z 0.000000 0.000000 1.615680 
# 
# From -- ./inp_files/8321.got.cif
#   From: 2010.03.12/outbox.cif.g09.slc.cpg/sg47_5_cif.got.tgz:8321.got - 2010.04.14 03:12:58.
