data_PCOD8197169
_publ_section_title
;
Structure prediction by ZEFSAII (Michael W. Deem and Ramdas Pophale) SiO2 
 PCOD8197169
Probable space group: P M M M
;
_chemical_formula_sum "Si O2"
_cell_formula_units_Z 44
_cell_length_a 28.229094
_cell_length_b 9.034329
_cell_length_c 9.229461
_cell_angle_alpha 90.000000
_cell_angle_beta 90.000000
_cell_angle_gamma 90.000000
_cell_volume 2353.797954
_symmetry_space_group_name_H-M "P M M M"
_symmetry_group_IT_number 47
_symmetry_cell_setting 'orthorhombic'
loop_
_space_group_symop_operation_xyz
x,y,z
-x,-y,z
x,-y,-z
-x,y,-z
-x,-y,-z
x,y,-z
-x,y,z
x,-y,z
loop_
_atom_site_type_symbol
_atom_site_label
_atom_site_fract_x
_atom_site_fract_y
_atom_site_fract_z
Si Si1 0.915534 0.672996 0.667741
Si Si2 0.725501 0.827907 0.168858
Si Si3 0.000000 0.171757 0.170238
Si Si4 0.552274 0.675951 0.837417
Si Si5 0.641596 0.676012 0.663713
Si Si6 0.819383 0.170450 0.333239
O O1 0.925986 0.708855 0.500000
O O2 0.918616 0.500000 0.699674
O O3 0.863768 0.729921 0.712420
O O4 0.953449 0.755393 0.764720
O O5 0.684678 0.734147 0.242323
O O6 0.775512 0.778340 0.235689
O O7 0.716126 0.000000 0.199833
O O8 0.726357 0.790985 0.000000
O O9 0.000000 0.000000 0.210681
O O10 0.000000 0.199110 0.000000
O O11 0.500000 0.730694 0.786889
O O12 0.553337 0.500000 0.836854
O O13 0.592356 0.738424 0.729865
O O14 0.562762 0.733797 0.000000
O O15 0.645846 0.735206 0.500000
O O16 0.642495 0.500000 0.668516
O O17 0.805303 0.196638 0.500000
O O18 0.832802 0.000000 0.304366
#
# Coordination Sequence:
#
# PCOD8197169 Si02
#       6
#     8   8   4   8   8   8
#     4  10  21  37  58  84 112 141 174 214 261 312
#     4  10  21  36  54  76 103 137 175 214 258 309
#     4  11  24  39  56  80 110 145 184 223 260 302
#     4   8  14  26  45  69  98 132 168 207 254 308
#     4  10  20  32  49  75 104 134 170 213 259 307
#     4   9  18  34  55  77 103 137 175 213 254 304
#
# _framework density 18.693193999999998
#
# number of rings (size 3 to 8) (size 9 to 14) (size 15 to 20)
#    0.000    2.455    0.000    2.727    0.000    6.909 
#    0.000    5.455    0.000    0.545    0.000    3.818 
#    0.000    0.000    0.000    0.000    0.000    0.000 
#
# Total GULP energy -545650.962982 kJ/mol
# GULP energy per Si atom -12401.158250 kJ/mol
# Density = 1.865065 g / cm^3
# Si number density = 18.693194 Si / 1000 Ang^3
#
#
#
# Elastic Constant Matrix: (Units=GPa)
#
#
# Indices 1 2 3 4 5 6 
#
# 1 159.6591 54.3143 89.4414 0.0000 0.0000 0.0000
# 2 54.3143 54.7617 43.3170 0.0000 0.0000 0.0000
# 3 89.4414 43.3170 112.9944 0.0000 0.0000 0.0000
# 4 0.0000 0.0000 0.0000 24.4334 0.0000 0.0000
# 5 0.0000 0.0000 0.0000 0.0000 119.9795 0.0000
# 6 0.0000 0.0000 0.0000 0.0000 0.0000 42.2196
#
#
#
# Elastic Compliance Matrix: (Units=1/GPa)
#
#
# Indices 1 2 3 4 5 6 
#
# 1 0.012763 -0.006699 -0.007535 0.000000 0.000000 0.000000
# 2 -0.006699 0.029724 -0.006092 0.000000 0.000000 0.000000
# 3 -0.007535 -0.006092 0.017150 0.000000 0.000000 0.000000
# 4 0.000000 0.000000 0.000000 0.040928 0.000000 0.000000
# 5 0.000000 0.000000 0.000000 0.000000 0.008335 0.000000
# 6 0.000000 0.000000 0.000000 0.000000 0.000000 0.023686
#
#
# Mechanical properties :
#
#
# Convention : Reuss Voigt Hill
#
# Bulk Modulus (GPa) = 52.67282 77.95119 65.31200
# Shear Modulus (GPa) = 27.84498 46.68268 37.26383
#
# Velocity S-wave (km/s) = 3.86369 5.00273 4.46964
# Velocity P-wave (km/s) = 6.93851 8.66952 7.85186
#
# Compressibility (1/GPa) = 0.01898512
#
# Stress axis : x y z
#
# Youngs Moduli (GPa) = 78.35016 33.64253 58.31001
#
# Poissons Ratio (x) = 0.22537 0.43935
# Poissons Ratio (y) = 0.52486 0.35525
# Poissons Ratio (z) = 0.59035 0.20496
#
# Static dielectric constant tensor:
#      x y z
#    x 3.650420 0.000000 0.000000 
#    y 0.000000 3.221610 0.000000 
#    z 0.000000 0.000000 3.565590 
# 
# 
# High freq. dielectric constant tensor:
#      x y z
#    x 1.741450 0.000000 0.000000 
#    y 0.000000 1.701610 0.000000 
#    z 0.000000 0.000000 1.728400 
# 
# From -- ./inp_files/13563.got.cif
#   From: 2010.03.12/outbox.cif.g09.slc.cpg/sg47_7_cif.got.tgz:13563.got - 2010.04.14 03:12:58.
