data_PCOD8197576
_publ_section_title
;
Structure prediction by ZEFSAII (Michael W. Deem and Ramdas Pophale) SiO2 
 PCOD8197576
Probable space group: P M M M
;
_chemical_formula_sum "Si O2"
_cell_formula_units_Z 40
_cell_length_a 27.219407
_cell_length_b 8.057981
_cell_length_c 9.718174
_cell_angle_alpha 90.000000
_cell_angle_beta 90.000000
_cell_angle_gamma 90.000000
_cell_volume 2131.520771
_symmetry_space_group_name_H-M "P M M M"
_symmetry_group_IT_number 47
_symmetry_cell_setting 'orthorhombic'
loop_
_space_group_symop_operation_xyz
x,y,z
-x,-y,z
x,-y,-z
-x,y,-z
-x,-y,-z
x,y,-z
-x,y,z
x,-y,z
loop_
_atom_site_type_symbol
_atom_site_label
_atom_site_fract_x
_atom_site_fract_y
_atom_site_fract_z
Si Si1 0.812823 0.807053 0.350922
Si Si2 0.000000 0.809667 0.161869
Si Si3 0.554804 0.000000 0.162947
Si Si4 0.381282 0.687125 0.159683
Si Si5 0.896900 0.307750 0.154957
Si Si6 0.704364 0.807880 0.339110
O O1 0.828026 0.729708 0.500000
O O2 0.854511 0.778271 0.239943
O O3 0.759369 0.739322 0.305456
O O4 0.805165 0.000000 0.371600
O O5 0.049568 0.727492 0.222554
O O6 0.000000 0.000000 0.203981
O O7 0.000000 0.777838 0.000000
O O8 0.581456 0.169635 0.213062
O O9 0.500000 0.000000 0.226407
O O10 0.551839 0.000000 0.000000
O O11 0.403322 0.500000 0.179424
O O12 0.331742 0.697924 0.247657
O O13 0.368444 0.718093 0.000000
O O14 0.886076 0.500000 0.154930
O O15 0.895339 0.234744 0.000000
O O16 0.692517 0.783014 0.500000
O O17 0.698171 0.000000 0.296717
#
# Coordination Sequence:
#
# PCOD8197576 Si02
#       6
#     8   4   4   8   8   8
#     4   9  19  35  53  74 101 134 173 213 253 303
#     4   9  17  31  52  73  94 125 166 208 252 305
#     4   9  18  34  55  79 111 147 179 218 269 314
#     4  10  20  33  53  82 111 140 179 223 265 314
#     4  10  20  33  50  74 103 132 164 206 256 308
#     4   9  18  34  55  76 102 140 180 217 263 316
#
# _framework density 18.765946
#
# number of rings (size 3 to 8) (size 9 to 14) (size 15 to 20)
#    0.000    2.600    1.000    2.100    0.000    5.200 
#    0.000    8.500    0.000    4.200    0.000    1.400 
#    0.000    0.000    0.000    0.000    0.000    0.000 
#
# Total GULP energy -495768.304391 kJ/mol
# GULP energy per Si atom -12394.207610 kJ/mol
# Density = 1.872323 g / cm^3
# Si number density = 18.765946 Si / 1000 Ang^3
#
#
#
# Elastic Constant Matrix: (Units=GPa)
#
#
# Indices 1 2 3 4 5 6 
#
# 1 142.8243 43.0859 52.5535 0.0000 0.0000 0.0000
# 2 43.0859 78.9293 20.9269 0.0000 0.0000 0.0000
# 3 52.5535 20.9269 51.8558 0.0000 0.0000 0.0000
# 4 0.0000 0.0000 0.0000 17.0625 0.0000 0.0000
# 5 0.0000 0.0000 0.0000 0.0000 4.6063 0.0000
# 6 0.0000 0.0000 0.0000 0.0000 0.0000 16.2434
#
#
#
# Elastic Compliance Matrix: (Units=1/GPa)
#
#
# Indices 1 2 3 4 5 6 
#
# 1 0.012081 -0.003750 -0.010730 0.000000 0.000000 0.000000
# 2 -0.003750 0.015352 -0.002395 0.000000 0.000000 0.000000
# 3 -0.010730 -0.002395 0.031126 0.000000 0.000000 0.000000
# 4 0.000000 0.000000 0.000000 0.058608 0.000000 0.000000
# 5 0.000000 0.000000 0.000000 0.000000 0.217094 0.000000
# 6 0.000000 0.000000 0.000000 0.000000 0.000000 0.061564
#
#
# Mechanical properties :
#
#
# Convention : Reuss Voigt Hill
#
# Bulk Modulus (GPa) = 40.30992 56.30465 48.30729
# Shear Modulus (GPa) = 11.41959 18.05198 14.73578
#
# Velocity S-wave (km/s) = 2.46951 3.10490 2.80525
# Velocity P-wave (km/s) = 5.44594 6.55154 6.02416
#
# Compressibility (1/GPa) = 0.02480779
#
# Stress axis : x y z
#
# Youngs Moduli (GPa) = 82.77318 65.14014 32.12794
#
# Poissons Ratio (x) = 0.24427 0.34475
# Poissons Ratio (y) = 0.31039 0.07694
# Poissons Ratio (z) = 0.88819 0.15601
#
# Static dielectric constant tensor:
#      x y z
#    x 3.593290 0.000000 0.000000 
#    y 0.000000 3.407120 0.000000 
#    z 0.000000 0.000000 3.246330 
# 
# 
# High freq. dielectric constant tensor:
#      x y z
#    x 1.730540 0.000000 0.000000 
#    y 0.000000 1.729180 0.000000 
#    z 0.000000 0.000000 1.697790 
# 
# From -- ./inp_files/1765.got.cif
#   From: 2010.03.12/outbox.cif.g09.slc.cpg/sg47_1_cif.got.tgz:1765.got - 2010.04.14 03:12:58.
