data_PCOD8197279
_publ_section_title
;
Structure prediction by ZEFSAII (Michael W. Deem and Ramdas Pophale) SiO2 
 PCOD8197279
Probable space group: P M M M
;
_chemical_formula_sum "Si O2"
_cell_formula_units_Z 40
_cell_length_a 9.308709
_cell_length_b 12.747515
_cell_length_c 19.040979
_cell_angle_alpha 90.000000
_cell_angle_beta 90.000000
_cell_angle_gamma 90.000000
_cell_volume 2259.457932
_symmetry_space_group_name_H-M "P M M M"
_symmetry_group_IT_number 47
_symmetry_cell_setting 'orthorhombic'
loop_
_space_group_symop_operation_xyz
x,y,z
-x,-y,z
x,-y,-z
-x,y,-z
-x,-y,-z
x,y,-z
-x,y,z
x,-y,z
loop_
_atom_site_type_symbol
_atom_site_label
_atom_site_fract_x
_atom_site_fract_y
_atom_site_fract_z
Si Si1 0.670184 0.000000 0.076976
Si Si2 0.170958 0.116371 0.421357
Si Si3 0.664581 0.227085 0.916423
Si Si4 0.828864 0.693475 0.331618
Si Si5 0.828636 0.500000 0.578590
Si Si6 0.170181 0.378979 0.819096
O O1 0.714088 0.888947 0.113499
O O2 0.500000 0.000000 0.068263
O O3 0.741421 0.000000 0.000000
O O4 0.223318 0.147138 0.500000
O O5 0.231726 0.197471 0.363476
O O6 0.000000 0.118659 0.420438
O O7 0.226835 0.000000 0.401738
O O8 0.500000 0.249127 0.895589
O O9 0.762052 0.317608 0.884082
O O10 0.683632 0.229447 0.000000
O O11 0.769536 0.601533 0.381192
O O12 0.773274 0.675182 0.252593
O O13 0.000000 0.691765 0.331847
O O14 0.766383 0.500000 0.500000
O O15 0.000000 0.500000 0.577490
O O16 0.219787 0.500000 0.820883
O O17 0.000000 0.371317 0.825150
#
# Coordination Sequence:
#
# PCOD8197279 Si02
#       6
#     4   8   8   8   4   8
#     4   7  12  28  53  75  93 113 140 185 242 282
#     4   8  13  21  34  53  79 113 151 190 232 276
#     4   9  18  34  56  77  94 117 155 199 237 279
#     4   9  15  25  37  53  84 122 154 187 229 276
#     4   9  14  20  36  58  76 107 158 200 223 255
#     4  10  20  33  46  64  99 138 162 190 238 286
#
# _framework density 17.703361999999998
#
# number of rings (size 3 to 8) (size 9 to 14) (size 15 to 20)
#    0.000    3.200    1.000    2.400    0.000    3.600 
#    1.800    2.500    0.000    1.800    0.000    0.000 
#    0.000    4.000    0.000    2.200    0.000    2.000 
#
# Total GULP energy -495585.262183 kJ/mol
# GULP energy per Si atom -12389.631555 kJ/mol
# Density = 1.766307 g / cm^3
# Si number density = 17.703362 Si / 1000 Ang^3
#
#
#
# Elastic Constant Matrix: (Units=GPa)
#
#
# Indices 1 2 3 4 5 6 
#
# 1 13.6937 26.2160 18.0714 0.0000 0.0000 0.0000
# 2 26.2160 162.9914 64.8228 0.0000 0.0000 0.0000
# 3 18.0714 64.8228 76.9980 0.0000 0.0000 0.0000
# 4 0.0000 0.0000 0.0000 31.9600 0.0000 0.0000
# 5 0.0000 0.0000 0.0000 0.0000 -0.1257 0.0000
# 6 0.0000 0.0000 0.0000 0.0000 0.0000 16.9466
#
#
#
# Elastic Compliance Matrix: (Units=1/GPa)
#
#
# Indices 1 2 3 4 5 6 
#
# 1 0.119964 -0.012174 -0.017907 0.000000 0.000000 0.000000
# 2 -0.012174 0.010459 -0.005948 0.000000 0.000000 0.000000
# 3 -0.017907 -0.005948 0.022197 0.000000 0.000000 0.000000
# 4 0.000000 0.000000 0.000000 0.031289 0.000000 0.000000
# 5 0.000000 0.000000 0.000000 0.000000 -7.955863 0.000000
# 6 0.000000 0.000000 0.000000 0.000000 0.000000 0.059009
#
#
# Mechanical properties :
#
#
# Convention : Reuss Voigt Hill
#
# Bulk Modulus (GPa) = 12.41256 52.43372 32.42314
# Shear Modulus (GPa) = -0.65668 19.39437 9.36885
#
# Velocity S-wave (km/s) = -0.60971 3.31345 2.30296
# Velocity P-wave (km/s) = 2.55558 6.65739 5.04241
#
# Compressibility (1/GPa) = 0.08056354
#
# Stress axis : x y z
#
# Youngs Moduli (GPa) = 8.33585 95.61255 45.05018
#
# Poissons Ratio (x) = 1.16396 0.80670
# Poissons Ratio (y) = 0.10148 0.26796
# Poissons Ratio (z) = 0.14927 0.56870
#
# Static dielectric constant tensor:
#      x y z
#    x 2.577120 0.000000 0.000000 
#    y 0.000000 3.707360 0.000000 
#    z 0.000000 0.000000 3.252420 
# 
# 
# High freq. dielectric constant tensor:
#      x y z
#    x 1.608750 0.000000 0.000000 
#    y 0.000000 1.705800 0.000000 
#    z 0.000000 0.000000 1.675830 
# 
# From -- ./inp_files/29333.got.cif
#   From: 2010.03.12/outbox.cif.g09.slc.cpg/sg47_15_cif.got.tgz:29333.got - 2010.04.14 03:12:58.
