data_PCOD8197428
_publ_section_title
;
Structure prediction by ZEFSAII (Michael W. Deem and Ramdas Pophale) SiO2 
 PCOD8197428
Probable space group: P M M M
;
_chemical_formula_sum "Si O2"
_cell_formula_units_Z 56
_cell_length_a 22.076900
_cell_length_b 13.403972
_cell_length_c 9.205438
_cell_angle_alpha 90.000000
_cell_angle_beta 90.000000
_cell_angle_gamma 90.000000
_cell_volume 2724.056178
_symmetry_space_group_name_H-M "P M M M"
_symmetry_group_IT_number 47
_symmetry_cell_setting 'orthorhombic'
loop_
_space_group_symop_operation_xyz
x,y,z
-x,-y,z
x,-y,-z
-x,y,-z
-x,-y,-z
x,y,-z
-x,y,z
x,-y,z
loop_
_atom_site_type_symbol
_atom_site_label
_atom_site_fract_x
_atom_site_fract_y
_atom_site_fract_z
Si Si1 0.885592 0.618951 0.162112
Si Si2 0.881673 0.881608 0.335913
Si Si3 0.000000 0.618591 0.338099
Si Si4 0.429761 0.385774 0.332414
Si Si5 0.673180 0.289704 0.170224
Si Si6 0.238646 0.113604 0.168312
Si Si7 0.774113 0.384777 0.660052
Si Si8 0.000000 0.881195 0.164904
O O1 0.884393 0.500000 0.155177
O O2 0.942779 0.658999 0.250348
O O3 0.828106 0.664379 0.246628
O O4 0.886406 0.663303 0.000000
O O5 0.883556 0.839179 0.500000
O O6 0.818843 0.848169 0.260138
O O7 0.939856 0.840567 0.247114
O O8 0.884575 0.000000 0.337532
O O9 0.000000 0.500000 0.345660
O O10 0.000000 0.663518 0.500000
O O11 0.411029 0.372386 0.500000
O O12 0.500000 0.361315 0.309933
O O13 0.416183 0.500000 0.283830
O O14 0.393889 0.304340 0.235563
O O15 0.702419 0.181371 0.204741
O O16 0.712631 0.373510 0.250648
O O17 0.671628 0.311415 0.000000
O O18 0.256303 0.000000 0.208199
O O19 0.220677 0.122970 0.000000
O O20 0.769982 0.334724 0.500000
O O21 0.788680 0.500000 0.639931
O O22 0.000000 0.000000 0.164764
O O23 0.000000 0.840500 0.000000
#
# Coordination Sequence:
#
# PCOD8197428 Si02
#       8
#     8   8   4   8   8   8   8   4
#     4   9  16  26  41  62  89 122 164 214 260 302
#     4   9  16  26  43  69  98 128 170 225 277 325
#     4   9  15  23  37  58  85 120 164 209 256 313
#     4   9  19  37  60  86 118 154 185 212 251 308
#     4  11  22  34  54  83 110 139 177 220 263 307
#     4   9  19  36  54  73 103 143 184 225 272 326
#     4  10  20  33  49  71 102 138 171 205 253 314
#     4   9  15  23  39  64  95 132 170 211 270 341
#
# _framework density 20.557579
#
# number of rings (size 3 to 8) (size 9 to 14) (size 15 to 20)
#    0.000    2.571    0.000    3.000    0.000    9.429 
#    0.000    0.714    0.000    1.286    0.000    4.000 
#    0.000    0.000    0.000    0.000    0.000    1.143 
#
# Total GULP energy -694310.875564 kJ/mol
# GULP energy per Si atom -12398.408492 kJ/mol
# Density = 2.051079 g / cm^3
# Si number density = 20.557579 Si / 1000 Ang^3
#
#
#
# Elastic Constant Matrix: (Units=GPa)
#
#
# Indices 1 2 3 4 5 6 
#
# 1 133.4530 33.8576 81.8380 0.0000 0.0000 0.0000
# 2 33.8576 59.7301 43.7025 0.0000 0.0000 0.0000
# 3 81.8380 43.7025 176.2397 0.0000 0.0000 0.0000
# 4 0.0000 0.0000 0.0000 18.7014 0.0000 0.0000
# 5 0.0000 0.0000 0.0000 0.0000 43.0759 0.0000
# 6 0.0000 0.0000 0.0000 0.0000 0.0000 61.2661
#
#
#
# Elastic Compliance Matrix: (Units=1/GPa)
#
#
# Indices 1 2 3 4 5 6 
#
# 1 0.010907 -0.003026 -0.004314 0.000000 0.000000 0.000000
# 2 -0.003026 0.021292 -0.003875 0.000000 0.000000 0.000000
# 3 -0.004314 -0.003875 0.008638 0.000000 0.000000 0.000000
# 4 0.000000 0.000000 0.000000 0.053472 0.000000 0.000000
# 5 0.000000 0.000000 0.000000 0.000000 0.023215 0.000000
# 6 0.000000 0.000000 0.000000 0.000000 0.000000 0.016322
#
#
# Mechanical properties :
#
#
# Convention : Reuss Voigt Hill
#
# Bulk Modulus (GPa) = 54.32597 76.46877 65.39737
# Shear Modulus (GPa) = 30.78600 38.61031 34.69816
#
# Velocity S-wave (km/s) = 3.87402 4.33847 4.11281
# Velocity P-wave (km/s) = 6.81867 7.89776 7.37797
#
# Compressibility (1/GPa) = 0.01840740
#
# Stress axis : x y z
#
# Youngs Moduli (GPa) = 91.68797 46.96561 115.76375
#
# Poissons Ratio (x) = 0.14211 0.49943
# Poissons Ratio (y) = 0.27742 0.44857
# Poissons Ratio (z) = 0.39556 0.18198
#
# Static dielectric constant tensor:
#      x y z
#    x 3.723380 0.000000 0.000000 
#    y 0.000000 3.463190 0.000000 
#    z 0.000000 0.000000 3.970690 
# 
# 
# High freq. dielectric constant tensor:
#      x y z
#    x 1.785700 0.000000 0.000000 
#    y 0.000000 1.794520 0.000000 
#    z 0.000000 0.000000 1.815540 
# 
# From -- ./inp_files/11362.got.cif
#   From: 2010.03.12/outbox.cif.g09.slc.cpg/sg47_6_cif.got.tgz:11362.got - 2010.04.14 03:12:58.
