data_PCOD8197310
_publ_section_title
;
Structure prediction by ZEFSAII (Michael W. Deem and Ramdas Pophale) SiO2 
 PCOD8197310
Probable space group: P M M M
;
_chemical_formula_sum "Si O2"
_cell_formula_units_Z 52
_cell_length_a 14.393371
_cell_length_b 23.318589
_cell_length_c 9.103702
_cell_angle_alpha 90.000000
_cell_angle_beta 90.000000
_cell_angle_gamma 90.000000
_cell_volume 3055.503748
_symmetry_space_group_name_H-M "P M M M"
_symmetry_group_IT_number 47
_symmetry_cell_setting 'orthorhombic'
loop_
_space_group_symop_operation_xyz
x,y,z
-x,-y,z
x,-y,-z
-x,y,-z
-x,-y,-z
x,y,-z
-x,y,z
x,-y,z
loop_
_atom_site_type_symbol
_atom_site_label
_atom_site_fract_x
_atom_site_fract_y
_atom_site_fract_z
Si Si1 0.893288 0.174709 0.326608
Si Si2 0.600587 0.114644 0.325737
Si Si3 0.788375 0.936999 0.674624
Si Si4 0.889480 0.500000 0.665876
Si Si5 0.395202 0.753988 0.329103
Si Si6 0.217797 0.724391 0.826381
Si Si7 0.106878 0.387871 0.828623
O O1 0.878110 0.182097 0.500000
O O2 0.861617 0.111184 0.274388
O O3 0.831449 0.221139 0.245296
O O4 0.000000 0.182842 0.281247
O O5 0.599516 0.111192 0.500000
O O6 0.500000 0.092601 0.265827
O O7 0.685349 0.077169 0.261856
O O8 0.615303 0.180288 0.278938
O O9 0.783915 0.937732 0.500000
O O10 0.818571 0.000000 0.733556
O O11 0.852845 0.500000 0.500000
O O12 0.851535 0.556976 0.745164
O O13 0.000000 0.500000 0.675381
O O14 0.370455 0.746838 0.500000
O O15 0.500000 0.732128 0.297881
O O16 0.322853 0.717610 0.232473
O O17 0.163554 0.667548 0.777621
O O18 0.217343 0.732346 0.000000
O O19 0.000000 0.376752 0.785796
O O20 0.117910 0.400067 0.000000
#
# Coordination Sequence:
#
# PCOD8197310 Si02
#       7
#     8   8   8   4   8   8   8
#     4  10  20  33  48  66  92 126 163 206 254 298
#     4   8  13  23  41  64  89 115 144 186 242 298
#     4   9  16  26  42  65  91 118 154 201 250 300
#     4   9  17  29  47  73 102 131 166 205 239 274
#     4   9  17  31  51  72  97 128 159 196 245 298
#     4  11  21  32  50  75 101 129 164 205 243 288
#     4   9  18  32  48  68  99 138 171 198 235 282
#
# _framework density 17.018471000000002
#
# number of rings (size 3 to 8) (size 9 to 14) (size 15 to 20)
#    0.000    2.692    1.538    2.077    0.000    4.000 
#    0.000    4.615    0.000    0.462    0.000    1.615 
#    0.000    6.769    0.000    0.000    0.000    0.000 
#
# Total GULP energy -644579.497256 kJ/mol
# GULP energy per Si atom -12395.759563 kJ/mol
# Density = 1.697974 g / cm^3
# Si number density = 17.018471 Si / 1000 Ang^3
#
#
#
# Elastic Constant Matrix: (Units=GPa)
#
#
# Indices 1 2 3 4 5 6 
#
# 1 99.8296 51.3341 31.4239 0.0000 0.0000 0.0000
# 2 51.3341 118.2177 38.8690 0.0000 0.0000 0.0000
# 3 31.4239 38.8690 38.6994 0.0000 0.0000 0.0000
# 4 0.0000 0.0000 0.0000 13.7987 0.0000 0.0000
# 5 0.0000 0.0000 0.0000 0.0000 19.2746 0.0000
# 6 0.0000 0.0000 0.0000 0.0000 0.0000 19.6200
#
#
#
# Elastic Compliance Matrix: (Units=1/GPa)
#
#
# Indices 1 2 3 4 5 6 
#
# 1 0.014414 -0.003600 -0.008089 0.000000 0.000000 0.000000
# 2 -0.003600 0.013529 -0.010665 0.000000 0.000000 0.000000
# 3 -0.008089 -0.010665 0.043120 0.000000 0.000000 0.000000
# 4 0.000000 0.000000 0.000000 0.072471 0.000000 0.000000
# 5 0.000000 0.000000 0.000000 0.000000 0.051882 0.000000
# 6 0.000000 0.000000 0.000000 0.000000 0.000000 0.050968
#
#
# Mechanical properties :
#
#
# Convention : Reuss Voigt Hill
#
# Bulk Modulus (GPa) = 37.94223 55.55562 46.74893
# Shear Modulus (GPa) = 16.67353 19.54663 18.11008
#
# Velocity S-wave (km/s) = 3.13346 3.39271 3.26566
# Velocity P-wave (km/s) = 5.95269 6.93271 6.46131
#
# Compressibility (1/GPa) = 0.02635586
#
# Stress axis : x y z
#
# Youngs Moduli (GPa) = 69.37577 73.91752 23.19093
#
# Poissons Ratio (x) = 0.26607 0.18759
# Poissons Ratio (y) = 0.24972 0.24733
# Poissons Ratio (z) = 0.56118 0.78833
#
# Static dielectric constant tensor:
#      x y z
#    x 3.379330 0.000000 0.000000 
#    y 0.000000 3.241460 0.000000 
#    z 0.000000 0.000000 2.865320 
# 
# 
# High freq. dielectric constant tensor:
#      x y z
#    x 1.653320 0.000000 0.000000 
#    y 0.000000 1.645540 0.000000 
#    z 0.000000 0.000000 1.621400 
# 
# From -- ./inp_files/7013.got.cif
#   From: 2010.03.12/outbox.cif.g09.slc.cpg/sg47_4_cif.got.tgz:7013.got - 2010.04.14 03:12:58.
