data_PCOD8197570
_publ_section_title
;
Structure prediction by ZEFSAII (Michael W. Deem and Ramdas Pophale) SiO2 
 PCOD8197570
Probable space group: P M M M
;
_chemical_formula_sum "Si O2"
_cell_formula_units_Z 44
_cell_length_a 28.376135
_cell_length_b 9.205990
_cell_length_c 9.653291
_cell_angle_alpha 90.000000
_cell_angle_beta 90.000000
_cell_angle_gamma 90.000000
_cell_volume 2521.733215
_symmetry_space_group_name_H-M "P M M M"
_symmetry_group_IT_number 47
_symmetry_cell_setting 'orthorhombic'
loop_
_space_group_symop_operation_xyz
x,y,z
-x,-y,z
x,-y,-z
-x,y,-z
-x,-y,-z
x,y,-z
-x,y,z
x,-y,z
loop_
_atom_site_type_symbol
_atom_site_label
_atom_site_fract_x
_atom_site_fract_y
_atom_site_fract_z
Si Si1 0.000000 0.336046 0.335616
Si Si2 0.725215 0.672217 0.847143
Si Si3 0.358282 0.328677 0.341497
Si Si4 0.551568 0.836083 0.335399
Si Si5 0.168783 0.332336 0.162521
Si Si6 0.092541 0.170062 0.338474
O O1 0.953882 0.251876 0.282487
O O2 0.000000 0.500000 0.275789
O O3 0.000000 0.337856 0.500000
O O4 0.721751 0.500000 0.852999
O O5 0.686522 0.735229 0.741306
O O6 0.777843 0.714416 0.799579
O O7 0.714938 0.736185 0.000000
O O8 0.351453 0.280246 0.500000
O O9 0.361918 0.500000 0.326811
O O10 0.406439 0.263836 0.276783
O O11 0.551673 0.828422 0.500000
O O12 0.500000 0.782303 0.281679
O O13 0.560435 0.000000 0.284704
O O14 0.159447 0.500000 0.203182
O O15 0.136420 0.227468 0.251908
O O16 0.159135 0.309158 0.000000
O O17 0.101457 0.203223 0.500000
O O18 0.085618 0.000000 0.311913
#
# Coordination Sequence:
#
# PCOD8197570 Si02
#       6
#     4   8   8   8   8   8
#     4   9  17  31  52  75  98 127 162 196 232 277
#     4   8  15  29  47  65  88 119 150 181 223 273
#     4   9  16  25  41  67  91 109 139 185 226 258
#     4   8  14  25  40  58  83 115 145 173 214 267
#     4   9  18  33  52  72  94 124 163 201 235 276
#     4  10  20  33  50  74 103 131 158 192 236 282
#
# _framework density 17.448316999999999
#
# number of rings (size 3 to 8) (size 9 to 14) (size 15 to 20)
#    0.000    3.182    0.000    2.455    0.000    3.636 
#    0.000    5.000    0.000    7.091    0.000    3.818 
#    0.000    0.000    0.000    0.000    0.000    0.000 
#
# Total GULP energy -545377.693242 kJ/mol
# GULP energy per Si atom -12394.947574 kJ/mol
# Density = 1.740860 g / cm^3
# Si number density = 17.448317 Si / 1000 Ang^3
#
#
#
# Elastic Constant Matrix: (Units=GPa)
#
#
# Indices 1 2 3 4 5 6 
#
# 1 172.1495 59.8535 62.1367 0.0000 0.0000 0.0000
# 2 59.8535 66.9991 32.5650 0.0000 0.0000 0.0000
# 3 62.1367 32.5650 49.8653 0.0000 0.0000 0.0000
# 4 0.0000 0.0000 0.0000 17.0554 0.0000 0.0000
# 5 0.0000 0.0000 0.0000 0.0000 4.2875 0.0000
# 6 0.0000 0.0000 0.0000 0.0000 0.0000 14.9889
#
#
#
# Elastic Compliance Matrix: (Units=1/GPa)
#
#
# Indices 1 2 3 4 5 6 
#
# 1 0.011548 -0.004867 -0.011211 0.000000 0.000000 0.000000
# 2 -0.004867 0.023918 -0.009555 0.000000 0.000000 0.000000
# 3 -0.011211 -0.009555 0.040264 0.000000 0.000000 0.000000
# 4 0.000000 0.000000 0.000000 0.058632 0.000000 0.000000
# 5 0.000000 0.000000 0.000000 0.000000 0.233235 0.000000
# 6 0.000000 0.000000 0.000000 0.000000 0.000000 0.066716
#
#
# Mechanical properties :
#
#
# Convention : Reuss Voigt Hill
#
# Bulk Modulus (GPa) = 40.87749 66.45825 53.66787
# Shear Modulus (GPa) = 10.12693 16.23028 13.17860
#
# Velocity S-wave (km/s) = 2.41175 3.05321 2.75124
# Velocity P-wave (km/s) = 5.58874 7.11342 6.39667
#
# Compressibility (1/GPa) = 0.02446334
#
# Stress axis : x y z
#
# Youngs Moduli (GPa) = 86.59799 41.81011 24.83615
#
# Poissons Ratio (x) = 0.20349 0.27844
# Poissons Ratio (y) = 0.42147 0.23731
# Poissons Ratio (z) = 0.97085 0.39950
#
# Static dielectric constant tensor:
#      x y z
#    x 3.646740 0.000000 0.000000 
#    y 0.000000 3.084320 0.000000 
#    z 0.000000 0.000000 3.073530 
# 
# 
# High freq. dielectric constant tensor:
#      x y z
#    x 1.690750 0.000000 0.000000 
#    y 0.000000 1.654440 0.000000 
#    z 0.000000 0.000000 1.638660 
# 
# From -- ./inp_files/13617.got.cif
#   From: 2010.03.12/outbox.cif.g09.slc.cpg/sg47_7_cif.got.tgz:13617.got - 2010.04.14 03:12:58.
