data_PCOD8197564
_publ_section_title
;
Structure prediction by ZEFSAII (Michael W. Deem and Ramdas Pophale) SiO2 
 PCOD8197564
Probable space group: P M M M
;
_chemical_formula_sum "Si O2"
_cell_formula_units_Z 48
_cell_length_a 9.228460
_cell_length_b 9.298873
_cell_length_c 31.002209
_cell_angle_alpha 90.000000
_cell_angle_beta 90.000000
_cell_angle_gamma 90.000000
_cell_volume 2660.432167
_symmetry_space_group_name_H-M "P M M M"
_symmetry_group_IT_number 47
_symmetry_cell_setting 'orthorhombic'
loop_
_space_group_symop_operation_xyz
x,y,z
-x,-y,z
x,-y,-z
-x,y,-z
-x,-y,-z
x,y,-z
-x,y,z
x,-y,z
loop_
_atom_site_type_symbol
_atom_site_label
_atom_site_fract_x
_atom_site_fract_y
_atom_site_fract_z
Si Si1 0.672326 0.337311 0.832465
Si Si2 0.171898 0.658942 0.579611
Si Si3 0.328495 0.165306 0.250413
Si Si4 0.669292 0.832730 0.083991
Si Si5 0.168919 0.332882 0.323766
Si Si6 0.826762 0.839546 0.500000
Si Si7 0.163390 0.829104 0.000000
O O1 0.500000 0.336724 0.831954
O O2 0.732991 0.500000 0.831661
O O3 0.731636 0.252067 0.790927
O O4 0.727626 0.256933 0.875277
O O5 0.235413 0.500000 0.571105
O O6 0.214633 0.711006 0.627557
O O7 0.235298 0.763784 0.543031
O O8 0.000000 0.652299 0.576350
O O9 0.500000 0.179655 0.253917
O O10 0.260850 0.231788 0.293081
O O11 0.280642 0.000000 0.245692
O O12 0.500000 0.807064 0.075599
O O13 0.701517 0.000000 0.092962
O O14 0.754301 0.773177 0.042439
O O15 0.205391 0.500000 0.315206
O O16 0.000000 0.303647 0.315856
O O17 0.000000 0.836854 0.500000
O O18 0.765685 0.000000 0.500000
O O19 0.000000 0.768932 0.000000
O O20 0.165755 0.000000 0.000000
#
# Coordination Sequence:
#
# PCOD8197564 Si02
#       7
#     8   8   8   8   8   4   4
#     4   9  17  30  49  71  93 119 154 196 237 274
#     4   8  14  25  40  58  84 118 152 187 230 279
#     4  10  20  33  50  73  99 127 160 197 238 286
#     4   9  16  28  48  71  92 116 150 190 228 268
#     4   9  18  32  49  70  96 126 160 197 238 285
#     4   9  15  21  33  57  86 115 150 191 232 274
#     4   9  17  29  46  69  96 124 152 183 222 270
#
# _framework density 18.042182
#
# number of rings (size 3 to 8) (size 9 to 14) (size 15 to 20)
#    0.000    3.000    0.000    2.500    0.000    6.000 
#    0.000    2.917    0.000    6.000    0.000    0.583 
#    0.000    4.667    0.000    0.000    0.000    0.000 
#
# Total GULP energy -595087.278144 kJ/mol
# GULP energy per Si atom -12397.651628 kJ/mol
# Density = 1.800112 g / cm^3
# Si number density = 18.042182 Si / 1000 Ang^3
#
#
#
# Elastic Constant Matrix: (Units=GPa)
#
#
# Indices 1 2 3 4 5 6 
#
# 1 27.8203 28.6067 36.4424 0.0000 0.0000 0.0000
# 2 28.6067 126.6884 97.8039 0.0000 0.0000 0.0000
# 3 36.4424 97.8039 185.4635 0.0000 0.0000 0.0000
# 4 0.0000 0.0000 0.0000 34.6894 0.0000 0.0000
# 5 0.0000 0.0000 0.0000 0.0000 22.6599 0.0000
# 6 0.0000 0.0000 0.0000 0.0000 0.0000 16.6083
#
#
#
# Elastic Compliance Matrix: (Units=1/GPa)
#
#
# Indices 1 2 3 4 5 6 
#
# 1 0.051319 -0.006415 -0.006701 0.000000 0.000000 0.000000
# 2 -0.006415 0.014115 -0.006183 0.000000 0.000000 0.000000
# 3 -0.006701 -0.006183 0.009969 0.000000 0.000000 0.000000
# 4 0.000000 0.000000 0.000000 0.028827 0.000000 0.000000
# 5 0.000000 0.000000 0.000000 0.000000 0.044131 0.000000
# 6 0.000000 0.000000 0.000000 0.000000 0.000000 0.060211
#
#
# Mechanical properties :
#
#
# Convention : Reuss Voigt Hill
#
# Bulk Modulus (GPa) = 27.16992 73.96423 50.56707
# Shear Modulus (GPa) = 19.27238 26.59948 22.93593
#
# Velocity S-wave (km/s) = 3.27185 3.84382 3.56931
# Velocity P-wave (km/s) = 5.41896 7.79642 6.71376
#
# Compressibility (1/GPa) = 0.03680541
#
# Stress axis : x y z
#
# Youngs Moduli (GPa) = 19.48606 70.84490 100.30774
#
# Poissons Ratio (x) = 0.45445 0.67216
# Poissons Ratio (y) = 0.12500 0.62023
# Poissons Ratio (z) = 0.13058 0.43805
#
# Static dielectric constant tensor:
#      x y z
#    x 2.854240 0.000000 0.000000 
#    y 0.000000 3.406310 0.000000 
#    z 0.000000 0.000000 3.580390 
# 
# 
# High freq. dielectric constant tensor:
#      x y z
#    x 1.644330 0.000000 0.000000 
#    y 0.000000 1.692910 0.000000 
#    z 0.000000 0.000000 1.716710 
# 
# From -- ./inp_files/34045.got.cif
#   From: 2010.03.12/outbox.cif.g09.slc.cpg/sg47_18_cif.got.tgz:34045.got - 2010.04.14 03:12:58.
