data_PCOD8197336
_publ_section_title
;
Structure prediction by ZEFSAII (Michael W. Deem and Ramdas Pophale) SiO2 
 PCOD8197336
Probable space group: P M M M
;
_chemical_formula_sum "Si O2"
_cell_formula_units_Z 48
_cell_length_a 13.829386
_cell_length_b 14.881423
_cell_length_c 12.614301
_cell_angle_alpha 90.000000
_cell_angle_beta 90.000000
_cell_angle_gamma 90.000000
_cell_volume 2596.035040
_symmetry_space_group_name_H-M "P M M M"
_symmetry_group_IT_number 47
_symmetry_cell_setting 'orthorhombic'
loop_
_space_group_symop_operation_xyz
x,y,z
-x,-y,z
x,-y,-z
-x,y,-z
-x,-y,-z
x,y,-z
-x,y,z
x,-y,z
loop_
_atom_site_type_symbol
_atom_site_label
_atom_site_fract_x
_atom_site_fract_y
_atom_site_fract_z
Si Si1 0.115232 0.000000 0.881843
Si Si2 0.886455 0.500000 0.379978
Si Si3 0.722762 0.895492 0.384770
Si Si4 0.757028 0.400987 0.000000
Si Si5 0.109442 0.836939 0.738228
Si Si6 0.889630 0.365420 0.799717
Si Si7 0.386255 0.099769 0.820485
Si Si8 0.615212 0.765050 0.000000
O O1 0.151143 0.089679 0.821673
O O2 0.000000 0.000000 0.886843
O O3 0.158918 0.000000 0.000000
O O4 0.839430 0.500000 0.500000
O O5 0.855294 0.587681 0.310732
O O6 0.000000 0.500000 0.397045
O O7 0.682700 0.866493 0.500000
O O8 0.822531 0.841806 0.364435
O O9 0.642617 0.870353 0.297850
O O10 0.748000 0.000000 0.382678
O O11 0.822905 0.394421 0.896149
O O12 0.670565 0.329245 0.000000
O O13 0.708920 0.500000 0.000000
O O14 0.117256 0.741024 0.791993
O O15 0.000000 0.859103 0.703669
O O16 0.000000 0.394927 0.824035
O O17 0.500000 0.092801 0.827494
O O18 0.343118 0.000000 0.848701
O O19 0.349896 0.176776 0.899381
O O20 0.500000 0.746747 0.000000
#
# Coordination Sequence:
#
# PCOD8197336 Si02
#       8
#     4   4   8   4   8   8   8   4
#     4   9  18  32  47  67 100 143 189 230 262 302
#     4   9  18  35  55  75 101 133 176 228 276 318
#     4  10  20  33  48  72 107 144 185 225 259 306
#     4  12  23  36  57  81 111 141 171 209 267 333
#     4  10  20  34  50  72 106 146 190 226 262 311
#     4  10  21  35  54  80 107 140 179 223 271 316
#     4   9  18  35  58  82 107 138 173 215 271 320
#     4  10  21  38  59  83 112 138 172 218 260 320
#
# _framework density 18.489735
#
# number of rings (size 3 to 8) (size 9 to 14) (size 15 to 20)
#    0.000    2.167    1.667    1.500    1.167    2.833 
#    1.500    4.167    0.000    0.000    0.000    0.000 
#    0.000    0.667    0.000    0.000    0.000    0.000 
#
# Total GULP energy -595017.590420 kJ/mol
# GULP energy per Si atom -12396.199800 kJ/mol
# Density = 1.844765 g / cm^3
# Si number density = 18.489735 Si / 1000 Ang^3
#
#
#
# Elastic Constant Matrix: (Units=GPa)
#
#
# Indices 1 2 3 4 5 6 
#
# 1 30.9297 34.6399 30.7128 0.0000 0.0000 0.0000
# 2 34.6399 127.3870 59.4652 0.0000 0.0000 0.0000
# 3 30.7128 59.4652 144.5728 0.0000 0.0000 0.0000
# 4 0.0000 0.0000 0.0000 19.4658 0.0000 0.0000
# 5 0.0000 0.0000 0.0000 0.0000 23.4195 0.0000
# 6 0.0000 0.0000 0.0000 0.0000 0.0000 19.9570
#
#
#
# Elastic Compliance Matrix: (Units=1/GPa)
#
#
# Indices 1 2 3 4 5 6 
#
# 1 0.050762 -0.010853 -0.006320 0.000000 0.000000 0.000000
# 2 -0.010853 0.012036 -0.002645 0.000000 0.000000 0.000000
# 3 -0.006320 -0.002645 0.009347 0.000000 0.000000 0.000000
# 4 0.000000 0.000000 0.000000 0.051372 0.000000 0.000000
# 5 0.000000 0.000000 0.000000 0.000000 0.042699 0.000000
# 6 0.000000 0.000000 0.000000 0.000000 0.000000 0.050108
#
#
# Mechanical properties :
#
#
# Convention : Reuss Voigt Hill
#
# Bulk Modulus (GPa) = 30.76030 61.39172 46.07601
# Shear Modulus (GPa) = 18.74082 24.43991 21.59036
#
# Velocity S-wave (km/s) = 3.18713 3.63961 3.42086
# Velocity P-wave (km/s) = 5.49693 7.13706 6.37000
#
# Compressibility (1/GPa) = 0.03250943
#
# Stress axis : x y z
#
# Youngs Moduli (GPa) = 19.69978 83.08319 106.98200
#
# Poissons Ratio (x) = 0.90174 0.67608
# Poissons Ratio (y) = 0.21381 0.28296
# Poissons Ratio (z) = 0.12449 0.21975
#
# Static dielectric constant tensor:
#      x y z
#    x 3.190490 0.000000 0.000000 
#    y 0.000000 3.504110 0.000000 
#    z 0.000000 0.000000 3.619700 
# 
# 
# High freq. dielectric constant tensor:
#      x y z
#    x 1.697860 0.000000 0.000000 
#    y 0.000000 1.711500 0.000000 
#    z 0.000000 0.000000 1.719400 
# 
# From -- ./inp_files/17631.got.cif
#   From: 2010.03.12/outbox.cif.g09.slc.cpg/sg47_9_cif.got.tgz:17631.got - 2010.04.14 03:12:58.
