data_PCOD8197372
_publ_section_title
;
Structure prediction by ZEFSAII (Michael W. Deem and Ramdas Pophale) SiO2 
 PCOD8197372
Probable space group: P M M M
;
_chemical_formula_sum "Si O2"
_cell_formula_units_Z 40
_cell_length_a 9.105519
_cell_length_b 8.939424
_cell_length_c 26.259889
_cell_angle_alpha 90.000000
_cell_angle_beta 90.000000
_cell_angle_gamma 90.000000
_cell_volume 2137.504942
_symmetry_space_group_name_H-M "P M M M"
_symmetry_group_IT_number 47
_symmetry_cell_setting 'orthorhombic'
loop_
_space_group_symop_operation_xyz
x,y,z
-x,-y,z
x,-y,-z
-x,y,-z
-x,-y,-z
x,y,-z
-x,y,z
x,-y,z
loop_
_atom_site_type_symbol
_atom_site_label
_atom_site_fract_x
_atom_site_fract_y
_atom_site_fract_z
Si Si1 0.665301 0.820770 0.890896
Si Si2 0.667257 0.177532 0.306007
Si Si3 0.829814 0.323926 0.600425
Si Si4 0.665901 0.322147 0.500000
Si Si5 0.164937 0.178166 0.206530
Si Si6 0.674592 0.835858 0.000000
O O1 0.500000 0.766609 0.878987
O O2 0.769450 0.758314 0.846323
O O3 0.719759 0.756000 0.946381
O O4 0.669032 0.000000 0.893227
O O5 0.500000 0.234878 0.309212
O O6 0.760657 0.243191 0.351644
O O7 0.737054 0.236587 0.253347
O O8 0.674728 0.000000 0.308919
O O9 0.806717 0.500000 0.606675
O O10 0.749650 0.262783 0.549880
O O11 0.000000 0.281249 0.596302
O O12 0.666382 0.500000 0.500000
O O13 0.500000 0.259221 0.500000
O O14 0.000000 0.239708 0.212971
O O15 0.166496 0.000000 0.205344
O O16 0.500000 0.852178 0.000000
O O17 0.747495 0.000000 0.000000
#
# Coordination Sequence:
#
# PCOD8197372 Si02
#       6
#     8   8   8   4   8   4
#     4   8  12  19  31  46  66  96 136 178 218 263
#     4  10  20  33  49  69  93 123 159 196 232 272
#     4  10  20  34  53  76 100 125 153 187 229 275
#     4   9  17  31  52  75  98 125 156 188 222 265
#     4   9  16  25  37  54  78 109 144 182 225 272
#     4   7  10  16  27  43  63  91 130 175 218 259
#
# _framework density 18.713408000000001
#
# number of rings (size 3 to 8) (size 9 to 14) (size 15 to 20)
#    0.000    3.000    0.000    3.300    0.000    6.000 
#    0.000    1.000    0.000    6.000    0.000    0.000 
#    0.000    0.000    0.000    0.900    0.000   18.400 
#
# Total GULP energy -495718.596617 kJ/mol
# GULP energy per Si atom -12392.964915 kJ/mol
# Density = 1.867082 g / cm^3
# Si number density = 18.713408 Si / 1000 Ang^3
#
#
#
# Elastic Constant Matrix: (Units=GPa)
#
#
# Indices 1 2 3 4 5 6 
#
# 1 120.6321 13.3134 70.1789 0.0000 0.0000 0.0000
# 2 13.3134 5.8950 14.4142 0.0000 0.0000 0.0000
# 3 70.1789 14.4142 184.6366 0.0000 0.0000 0.0000
# 4 0.0000 0.0000 0.0000 -21.3349 0.0000 0.0000
# 5 0.0000 0.0000 0.0000 0.0000 24.4399 0.0000
# 6 0.0000 0.0000 0.0000 0.0000 0.0000 14.9695
#
#
#
# Elastic Compliance Matrix: (Units=1/GPa)
#
#
# Indices 1 2 3 4 5 6 
#
# 1 0.012332 -0.020257 -0.003106 0.000000 0.000000 0.000000
# 2 -0.020257 0.242931 -0.011266 0.000000 0.000000 0.000000
# 3 -0.003106 -0.011266 0.007476 0.000000 0.000000 0.000000
# 4 0.000000 0.000000 0.000000 -0.046872 0.000000 0.000000
# 5 0.000000 0.000000 0.000000 0.000000 0.040917 0.000000
# 6 0.000000 0.000000 0.000000 0.000000 0.000000 0.066802
#
#
# Mechanical properties :
#
#
# Convention : Reuss Voigt Hill
#
# Bulk Modulus (GPa) = 5.16843 56.33075 30.74959
# Shear Modulus (GPa) = 10.93284 17.83207 14.38246
#
# Velocity S-wave (km/s) = 2.41970 3.09026 2.77531
# Velocity P-wave (km/s) = 3.25184 6.54982 5.17081
#
# Compressibility (1/GPa) = 0.19348238
#
# Stress axis : x y z
#
# Youngs Moduli (GPa) = 81.08846 4.11639 133.75998
#
# Poissons Ratio (x) = 0.08339 0.41545
# Poissons Ratio (y) = 1.64260 1.50689
# Poissons Ratio (z) = 0.25186 0.04637
#
# Static dielectric constant tensor:
#      x y z
#    x 3.554630 0.000000 0.000000 
#    y 0.000000 2.721200 0.000000 
#    z 0.000000 0.000000 3.897600 
# 
# 
# High freq. dielectric constant tensor:
#      x y z
#    x 1.726770 0.000000 0.000000 
#    y 0.000000 1.644710 0.000000 
#    z 0.000000 0.000000 1.754480 
# 
# From -- ./inp_files/33072.got.cif
#   From: 2010.03.12/outbox.cif.g09.slc.cpg/sg47_17_cif.got.tgz:33072.got - 2010.04.14 03:12:58.
