data_PCOD8197396
_publ_section_title
;
Structure prediction by ZEFSAII (Michael W. Deem and Ramdas Pophale) SiO2 
 PCOD8197396
Probable space group: P M M M
;
_chemical_formula_sum "Si O2"
_cell_formula_units_Z 44
_cell_length_a 9.094234
_cell_length_b 9.552145
_cell_length_c 28.664556
_cell_angle_alpha 90.000000
_cell_angle_beta 90.000000
_cell_angle_gamma 90.000000
_cell_volume 2490.073980
_symmetry_space_group_name_H-M "P M M M"
_symmetry_group_IT_number 47
_symmetry_cell_setting 'orthorhombic'
loop_
_space_group_symop_operation_xyz
x,y,z
-x,-y,z
x,-y,-z
-x,y,-z
-x,-y,-z
x,y,-z
-x,y,z
x,-y,z
loop_
_atom_site_type_symbol
_atom_site_label
_atom_site_fract_x
_atom_site_fract_y
_atom_site_fract_z
Si Si1 0.827402 0.338482 0.179229
Si Si2 0.330716 0.166894 0.101099
Si Si3 0.326766 0.152010 0.000000
Si Si4 0.172116 0.662481 0.636765
Si Si5 0.665798 0.333611 0.271637
Si Si6 0.174765 0.842697 0.448593
O O1 0.784497 0.500000 0.169808
O O2 0.775459 0.244694 0.136463
O O3 0.750016 0.279988 0.225816
O O4 0.000000 0.321099 0.186129
O O5 0.500000 0.204479 0.112488
O O6 0.285314 0.225962 0.049193
O O7 0.307149 0.000000 0.103756
O O8 0.500000 0.129201 0.000000
O O9 0.250006 0.000000 0.000000
O O10 0.206323 0.500000 0.629378
O O11 0.253636 0.723751 0.682217
O O12 0.236960 0.740812 0.591346
O O13 0.000000 0.690431 0.643802
O O14 0.500000 0.275566 0.270480
O O15 0.669516 0.500000 0.272618
O O16 0.230819 0.794543 0.500000
O O17 0.000000 0.837471 0.448076
O O18 0.229655 0.000000 0.438296
#
# Coordination Sequence:
#
# PCOD8197396 Si02
#       6
#     8   8   4   8   8   8
#     4  10  20  33  49  70  97 128 160 194 235 283
#     4   9  17  31  52  75  97 123 158 198 237 278
#     4   7  12  26  48  71  94 122 156 193 232 275
#     4   9  16  26  43  67  90 111 142 186 227 261
#     4   9  17  30  48  67  88 118 154 189 228 276
#     4   8  14  25  41  62  89 119 147 175 213 263
#
# _framework density 17.670157
#
# number of rings (size 3 to 8) (size 9 to 14) (size 15 to 20)
#    0.000    3.182    0.000    2.727    0.000    4.000 
#    0.000    3.636    0.000    8.727    0.000    3.818 
#    0.000    0.000    0.000    0.000    0.000    0.000 
#
# Total GULP energy -545265.254465 kJ/mol
# GULP energy per Si atom -12392.392147 kJ/mol
# Density = 1.762994 g / cm^3
# Si number density = 17.670157 Si / 1000 Ang^3
#
#
#
# Elastic Constant Matrix: (Units=GPa)
#
#
# Indices 1 2 3 4 5 6 
#
# 1 63.6667 26.7938 56.8431 0.0000 0.0000 0.0000
# 2 26.7938 43.1778 55.4681 0.0000 0.0000 0.0000
# 3 56.8431 55.4681 188.4373 0.0000 0.0000 0.0000
# 4 0.0000 0.0000 0.0000 15.5047 0.0000 0.0000
# 5 0.0000 0.0000 0.0000 0.0000 20.8857 0.0000
# 6 0.0000 0.0000 0.0000 0.0000 0.0000 16.9782
#
#
#
# Elastic Compliance Matrix: (Units=1/GPa)
#
#
# Indices 1 2 3 4 5 6 
#
# 1 0.023392 -0.008766 -0.004476 0.000000 0.000000 0.000000
# 2 -0.008766 0.040528 -0.009286 0.000000 0.000000 0.000000
# 3 -0.004476 -0.009286 0.009390 0.000000 0.000000 0.000000
# 4 0.000000 0.000000 0.000000 0.064496 0.000000 0.000000
# 5 0.000000 0.000000 0.000000 0.000000 0.047880 0.000000
# 6 0.000000 0.000000 0.000000 0.000000 0.000000 0.058899
#
#
# Mechanical properties :
#
#
# Convention : Reuss Voigt Hill
#
# Bulk Modulus (GPa) = 35.39077 63.72130 49.55604
# Shear Modulus (GPa) = 16.71907 21.08551 18.90229
#
# Velocity S-wave (km/s) = 3.07933 3.45814 3.27422
# Velocity P-wave (km/s) = 5.71971 7.21698 6.51152
#
# Compressibility (1/GPa) = 0.02825596
#
# Stress axis : x y z
#
# Youngs Moduli (GPa) = 42.74937 24.67408 106.49227
#
# Poissons Ratio (x) = 0.21629 0.47667
# Poissons Ratio (y) = 0.37473 0.98885
# Poissons Ratio (z) = 0.19135 0.22911
#
# Static dielectric constant tensor:
#      x y z
#    x 3.025270 0.000000 0.000000 
#    y 0.000000 2.994690 0.000000 
#    z 0.000000 0.000000 3.735010 
# 
# 
# High freq. dielectric constant tensor:
#      x y z
#    x 1.655200 0.000000 0.000000 
#    y 0.000000 1.645110 0.000000 
#    z 0.000000 0.000000 1.705220 
# 
# From -- ./inp_files/13583.got.cif
#   From: 2010.03.12/outbox.cif.g09.slc.cpg/sg47_7_cif.got.tgz:13583.got - 2010.04.14 03:12:58.
