data_PCOD8197330
_publ_section_title
;
Structure prediction by ZEFSAII (Michael W. Deem and Ramdas Pophale) SiO2 
 PCOD8197330
Probable space group: P M M M
;
_chemical_formula_sum "Si O2"
_cell_formula_units_Z 52
_cell_length_a 9.264871
_cell_length_b 20.829074
_cell_length_c 15.241130
_cell_angle_alpha 90.000000
_cell_angle_beta 90.000000
_cell_angle_gamma 90.000000
_cell_volume 2941.213205
_symmetry_space_group_name_H-M "P M M M"
_symmetry_group_IT_number 47
_symmetry_cell_setting 'orthorhombic'
loop_
_space_group_symop_operation_xyz
x,y,z
-x,-y,z
x,-y,-z
-x,y,-z
-x,-y,-z
x,y,-z
-x,y,z
x,-y,z
loop_
_atom_site_type_symbol
_atom_site_label
_atom_site_fract_x
_atom_site_fract_y
_atom_site_fract_z
Si Si1 0.828944 0.925512 0.500000
Si Si2 0.330226 0.133817 0.338355
Si Si3 0.160752 0.198449 0.901566
Si Si4 0.331186 0.738489 0.754190
Si Si5 0.671330 0.500000 0.400078
Si Si6 0.836811 0.928441 0.813994
Si Si7 0.671192 0.500000 0.897614
Si Si8 0.328281 0.595848 0.746995
O O1 0.763773 0.888539 0.418699
O O2 0.000000 0.918893 0.500000
O O3 0.781776 0.000000 0.500000
O O4 0.500000 0.124046 0.355675
O O5 0.292603 0.209083 0.320616
O O6 0.281802 0.089479 0.258089
O O7 0.275471 0.237288 0.846740
O O8 0.180174 0.121438 0.893654
O O9 0.000000 0.217579 0.870303
O O10 0.188582 0.219226 0.000000
O O11 0.500000 0.731930 0.763664
O O12 0.264983 0.667930 0.737230
O O13 0.500000 0.500000 0.408382
O O14 0.736818 0.500000 0.500000
O O15 0.724807 0.560787 0.342231
O O16 0.000000 0.924669 0.774206
O O17 0.804846 0.000000 0.849097
O O18 0.500000 0.500000 0.904958
O O19 0.723248 0.438257 0.838754
O O20 0.732500 0.500000 0.000000
O O21 0.500000 0.594706 0.748170
#
# Coordination Sequence:
#
# PCOD8197330 Si02
#       8
#     4   8   8   8   4   8   4   8
#     4  11  23  37  53  71  91 118 155 198 242 289
#     4  10  20  33  48  69  96 123 153 190 236 287
#     4   9  18  31  46  66  92 122 157 196 235 277
#     4   9  18  32  48  68  96 128 158 190 231 281
#     4   8  13  23  40  65  93 122 152 186 232 276
#     4   9  17  30  48  67  88 118 155 194 237 282
#     4   8  13  21  36  61  93 125 157 196 236 270
#     4   8  14  25  40  62  94 125 157 192 228 278
#
# _framework density 17.679779
#
# number of rings (size 3 to 8) (size 9 to 14) (size 15 to 20)
#    0.000    3.000    0.000    2.077    0.000    4.615 
#    1.385    3.077    0.000    0.000    0.000    6.462 
#    0.000    6.154    0.000    0.000    0.000    0.000 
#
# Total GULP energy -644192.478745 kJ/mol
# GULP energy per Si atom -12388.316899 kJ/mol
# Density = 1.763954 g / cm^3
# Si number density = 17.679779 Si / 1000 Ang^3
#
#
#
# Elastic Constant Matrix: (Units=GPa)
#
#
# Indices 1 2 3 4 5 6 
#
# 1 22.9052 27.3553 16.9899 0.0000 0.0000 0.0000
# 2 27.3553 153.0677 49.2044 0.0000 0.0000 0.0000
# 3 16.9899 49.2044 99.5706 0.0000 0.0000 0.0000
# 4 0.0000 0.0000 0.0000 18.2011 0.0000 0.0000
# 5 0.0000 0.0000 0.0000 0.0000 18.8351 0.0000
# 6 0.0000 0.0000 0.0000 0.0000 0.0000 11.6260
#
#
#
# Elastic Compliance Matrix: (Units=1/GPa)
#
#
# Indices 1 2 3 4 5 6 
#
# 1 0.058091 -0.008554 -0.005685 0.000000 0.000000 0.000000
# 2 -0.008554 0.009026 -0.003001 0.000000 0.000000 0.000000
# 3 -0.005685 -0.003001 0.012496 0.000000 0.000000 0.000000
# 4 0.000000 0.000000 0.000000 0.054942 0.000000 0.000000
# 5 0.000000 0.000000 0.000000 0.000000 0.053092 0.000000
# 6 0.000000 0.000000 0.000000 0.000000 0.000000 0.086014
#
#
# Mechanical properties :
#
#
# Convention : Reuss Voigt Hill
#
# Bulk Modulus (GPa) = 22.15648 51.40474 36.78061
# Shear Modulus (GPa) = 15.47093 21.86537 18.66815
#
# Velocity S-wave (km/s) = 2.96136 3.52055 3.25299
# Velocity P-wave (km/s) = 4.92465 6.75754 5.91255
#
# Compressibility (1/GPa) = 0.04513351
#
# Stress axis : x y z
#
# Youngs Moduli (GPa) = 17.21430 110.78508 80.02480
#
# Poissons Ratio (x) = 0.94768 0.45494
# Poissons Ratio (y) = 0.14726 0.24015
# Poissons Ratio (z) = 0.09786 0.33246
#
# Static dielectric constant tensor:
#      x y z
#    x 3.000870 0.000000 0.000000 
#    y 0.000000 3.714410 0.000000 
#    z 0.000000 0.000000 2.729280 
# 
# 
# High freq. dielectric constant tensor:
#      x y z
#    x 1.649320 0.000000 0.000000 
#    y 0.000000 1.690690 0.000000 
#    z 0.000000 0.000000 1.675750 
# 
# From -- ./inp_files/21559.got.cif
#   From: 2010.03.12/outbox.cif.g09.slc.cpg/sg47_11_cif.got.tgz:21559.got - 2010.04.14 03:12:58.
