data_PCOD8197712
_publ_section_title
;
Structure prediction by ZEFSAII (Michael W. Deem and Ramdas Pophale) SiO2 
 PCOD8197712
Probable space group: P M M M
;
_chemical_formula_sum "Si O2"
_cell_formula_units_Z 48
_cell_length_a 34.489267
_cell_length_b 7.765303
_cell_length_c 9.304470
_cell_angle_alpha 90.000000
_cell_angle_beta 90.000000
_cell_angle_gamma 90.000000
_cell_volume 2491.919513
_symmetry_space_group_name_H-M "P M M M"
_symmetry_group_IT_number 47
_symmetry_cell_setting 'orthorhombic'
loop_
_space_group_symop_operation_xyz
x,y,z
-x,-y,z
x,-y,-z
-x,y,-z
-x,-y,-z
x,y,-z
-x,y,z
x,-y,z
loop_
_atom_site_type_symbol
_atom_site_label
_atom_site_fract_x
_atom_site_fract_y
_atom_site_fract_z
Si Si1 0.095509 0.000000 0.827933
Si Si2 0.685623 0.295975 0.660629
Si Si3 0.384960 0.302278 0.158115
Si Si4 0.817762 0.000000 0.830198
Si Si5 0.543615 0.796993 0.661917
Si Si6 0.956559 0.691203 0.829132
Si Si7 0.761999 0.697533 0.831531
O O1 0.139022 0.000000 0.764446
O O2 0.073522 0.168948 0.767580
O O3 0.095730 0.000000 0.000000
O O4 0.687355 0.217411 0.500000
O O5 0.682020 0.500000 0.651471
O O6 0.648150 0.215786 0.742053
O O7 0.723879 0.243051 0.747118
O O8 0.373876 0.500000 0.138939
O O9 0.427112 0.290636 0.228681
O O10 0.385485 0.214164 0.000000
O O11 0.796082 0.825530 0.780140
O O12 0.820787 0.000000 0.000000
O O13 0.552881 0.734553 0.500000
O O14 0.500000 0.741343 0.704295
O O15 0.548180 0.000000 0.672302
O O16 0.944130 0.500000 0.776676
O O17 0.000000 0.734259 0.774122
O O18 0.956333 0.697578 0.000000
O O19 0.773845 0.500000 0.795345
O O20 0.753155 0.718182 0.000000
#
# Coordination Sequence:
#
# PCOD8197712 Si02
#       7
#     4   8   8   4   8   8   8
#     4   9  15  22  33  49  73 105 144 193 241 280
#     4   9  17  31  52  74  94 119 153 192 234 281
#     4  10  20  33  51  77 105 129 157 195 240 291
#     4   9  18  29  41  62  87 115 157 201 240 292
#     4   9  19  36  54  71  96 131 168 203 238 280
#     4   8  13  20  30  46  70 103 145 192 239 283
#     4   9  17  31  49  66  90 123 154 191 242 293
#
# _framework density 19.262257999999999
#
# number of rings (size 3 to 8) (size 9 to 14) (size 15 to 20)
#    0.000    3.000    0.000    2.250    0.000    5.667 
#    1.500    6.250    0.000    0.000    0.000    0.000 
#    0.000    0.000    0.000    0.000    0.000    6.667 
#
# Total GULP energy -594970.702059 kJ/mol
# GULP energy per Si atom -12395.222960 kJ/mol
# Density = 1.921842 g / cm^3
# Si number density = 19.262258 Si / 1000 Ang^3
#
#
#
# Elastic Constant Matrix: (Units=GPa)
#
#
# Indices 1 2 3 4 5 6 
#
# 1 172.6633 65.5085 59.6564 0.0000 0.0000 0.0000
# 2 65.5085 82.9261 26.9824 0.0000 0.0000 0.0000
# 3 59.6564 26.9824 81.0849 0.0000 0.0000 0.0000
# 4 0.0000 0.0000 0.0000 8.5280 0.0000 0.0000
# 5 0.0000 0.0000 0.0000 0.0000 5.0550 0.0000
# 6 0.0000 0.0000 0.0000 0.0000 0.0000 4.3293
#
#
#
# Elastic Compliance Matrix: (Units=1/GPa)
#
#
# Indices 1 2 3 4 5 6 
#
# 1 0.009942 -0.006138 -0.005272 0.000000 0.000000 0.000000
# 2 -0.006138 0.017313 -0.001245 0.000000 0.000000 0.000000
# 3 -0.005272 -0.001245 0.016626 0.000000 0.000000 0.000000
# 4 0.000000 0.000000 0.000000 0.117261 0.000000 0.000000
# 5 0.000000 0.000000 0.000000 0.000000 0.197823 0.000000
# 6 0.000000 0.000000 0.000000 0.000000 0.000000 0.230983
#
#
# Mechanical properties :
#
#
# Convention : Reuss Voigt Hill
#
# Bulk Modulus (GPa) = 53.84993 71.21875 62.53434
# Shear Modulus (GPa) = 8.04571 15.88426 11.96498
#
# Velocity S-wave (km/s) = 2.04597 2.87475 2.49502
# Velocity P-wave (km/s) = 5.79640 6.93343 6.39025
#
# Compressibility (1/GPa) = 0.01857013
#
# Stress axis : x y z
#
# Youngs Moduli (GPa) = 100.58279 57.75936 60.14754
#
# Poissons Ratio (x) = 0.35455 0.31710
# Poissons Ratio (y) = 0.61742 0.07489
# Poissons Ratio (z) = 0.53027 0.07191
#
# Static dielectric constant tensor:
#      x y z
#    x 3.708500 0.000000 0.000000 
#    y 0.000000 3.468160 0.000000 
#    z 0.000000 0.000000 3.307640 
# 
# 
# High freq. dielectric constant tensor:
#      x y z
#    x 1.749380 0.000000 0.000000 
#    y 0.000000 1.741060 0.000000 
#    z 0.000000 0.000000 1.706910 
# 
# From -- ./inp_files/13993.got.cif
#   From: 2010.03.12/outbox.cif.g09.slc.cpg/sg47_7_cif.got.tgz:13993.got - 2010.04.14 03:12:58.
