data_PCOD8197017
_publ_section_title
;
Structure prediction by ZEFSAII (Michael W. Deem and Ramdas Pophale) SiO2 
 PCOD8197017
Probable space group: P M M M
;
_chemical_formula_sum "Si O2"
_cell_formula_units_Z 44
_cell_length_a 9.647821
_cell_length_b 30.053221
_cell_length_c 8.246445
_cell_angle_alpha 90.000000
_cell_angle_beta 90.000000
_cell_angle_gamma 90.000000
_cell_volume 2391.041032
_symmetry_space_group_name_H-M "P M M M"
_symmetry_group_IT_number 47
_symmetry_cell_setting 'orthorhombic'
loop_
_space_group_symop_operation_xyz
x,y,z
-x,-y,z
x,-y,-z
-x,y,-z
-x,-y,-z
x,y,-z
-x,y,z
x,-y,z
loop_
_atom_site_type_symbol
_atom_site_label
_atom_site_fract_x
_atom_site_fract_y
_atom_site_fract_z
Si Si1 0.163201 0.952343 0.186978
Si Si2 0.836896 0.393913 0.686632
Si Si3 0.164037 0.549739 0.000000
Si Si4 0.847916 0.861275 0.313169
Si Si5 0.343203 0.308353 0.687126
Si Si6 0.656029 0.785221 0.186902
O O1 0.228261 0.907773 0.264788
O O2 0.000000 0.950858 0.217852
O O3 0.219358 0.000000 0.258629
O O4 0.201062 0.951056 0.000000
O O5 0.800908 0.410264 0.500000
O O6 0.787414 0.427545 0.829637
O O7 0.759256 0.348419 0.727885
O O8 0.000000 0.385121 0.699497
O O9 0.226560 0.500000 0.000000
O O10 0.000000 0.548244 0.000000
O O11 0.874692 0.862879 0.500000
O O12 0.753663 0.819351 0.277010
O O13 0.000000 0.856306 0.226960
O O14 0.335760 0.295340 0.500000
O O15 0.500000 0.322147 0.736726
O O16 0.292210 0.265286 0.786385
O O17 0.500000 0.789627 0.256424
O O18 0.660828 0.797311 0.000000
#
# Coordination Sequence:
#
# PCOD8197017 Si02
#       6
#     8   8   4   8   8   8
#     4   8  14  26  45  68  94 124 157 195 241 292
#     4   9  18  32  51  76 104 134 170 211 252 297
#     4   9  18  32  51  77 107 137 171 211 254 299
#     4  10  20  32  48  72 100 129 162 201 245 293
#     4   9  18  33  52  73  98 129 163 201 248 299
#     4  10  21  35  51  72  97 129 168 205 246 300
#
# _framework density 18.402028000000001
#
# number of rings (size 3 to 8) (size 9 to 14) (size 15 to 20)
#    0.000    2.818    0.000    1.636    1.273    3.636 
#    0.000    5.455    0.000    1.636    0.000    6.364 
#    0.000    0.000    0.000    0.000    0.000    0.000 
#
# Total GULP energy -545132.637696 kJ/mol
# GULP energy per Si atom -12389.378129 kJ/mol
# Density = 1.836014 g / cm^3
# Si number density = 18.402028 Si / 1000 Ang^3
#
#
#
# Elastic Constant Matrix: (Units=GPa)
#
#
# Indices 1 2 3 4 5 6 
#
# 1 39.5485 47.0430 20.1853 0.0000 0.0000 0.0000
# 2 47.0430 145.2399 52.8166 0.0000 0.0000 0.0000
# 3 20.1853 52.8166 72.0636 0.0000 0.0000 0.0000
# 4 0.0000 0.0000 0.0000 21.6146 0.0000 0.0000
# 5 0.0000 0.0000 0.0000 0.0000 16.8924 0.0000
# 6 0.0000 0.0000 0.0000 0.0000 0.0000 -7.8673
#
#
#
# Elastic Compliance Matrix: (Units=1/GPa)
#
#
# Indices 1 2 3 4 5 6 
#
# 1 0.041439 -0.012544 -0.002413 0.000000 0.000000 0.000000
# 2 -0.012544 0.013184 -0.006149 0.000000 0.000000 0.000000
# 3 -0.002413 -0.006149 0.019060 0.000000 0.000000 0.000000
# 4 0.000000 0.000000 0.000000 0.046265 0.000000 0.000000
# 5 0.000000 0.000000 0.000000 0.000000 0.059198 0.000000
# 6 0.000000 0.000000 0.000000 0.000000 0.000000 -0.127108
#
#
# Mechanical properties :
#
#
# Convention : Reuss Voigt Hill
#
# Bulk Modulus (GPa) = 31.77745 55.21574 43.49660
# Shear Modulus (GPa) = 47.73654 15.24840 31.49247
#
# Velocity S-wave (km/s) = 5.09875 2.88171 4.14135
# Velocity P-wave (km/s) = 7.20895 6.41426 6.82318
#
# Compressibility (1/GPa) = 0.03146885
#
# Stress axis : x y z
#
# Youngs Moduli (GPa) = 24.13209 75.84668 52.46708
#
# Poissons Ratio (x) = 0.95145 0.12661
# Poissons Ratio (y) = 0.30272 0.32264
# Poissons Ratio (z) = 0.05823 0.46641
#
# Static dielectric constant tensor:
#      x y z
#    x 3.158490 0.000000 0.000000 
#    y 0.000000 3.602950 0.000000 
#    z 0.000000 0.000000 3.492640 
# 
# 
# High freq. dielectric constant tensor:
#      x y z
#    x 1.671660 0.000000 0.000000 
#    y 0.000000 1.720990 0.000000 
#    z 0.000000 0.000000 1.717120 
# 
# From -- ./inp_files/2185.got.cif
#   From: 2010.03.12/outbox.cif.g09.slc.cpg/sg47_2_cif.got.tgz:2185.got - 2010.04.14 03:12:58.
