data_PCOD8197380
_publ_section_title
;
Structure prediction by ZEFSAII (Michael W. Deem and Ramdas Pophale) SiO2 
 PCOD8197380
Probable space group: P M M M
;
_chemical_formula_sum "Si O2"
_cell_formula_units_Z 36
_cell_length_a 9.850349
_cell_length_b 8.968003
_cell_length_c 24.607355
_cell_angle_alpha 90.000000
_cell_angle_beta 90.000000
_cell_angle_gamma 90.000000
_cell_volume 2173.763527
_symmetry_space_group_name_H-M "P M M M"
_symmetry_group_IT_number 47
_symmetry_cell_setting 'orthorhombic'
loop_
_space_group_symop_operation_xyz
x,y,z
-x,-y,z
x,-y,-z
-x,y,-z
-x,-y,-z
x,y,-z
-x,y,z
x,-y,z
loop_
_atom_site_type_symbol
_atom_site_label
_atom_site_fract_x
_atom_site_fract_y
_atom_site_fract_z
Si Si1 0.155905 0.675021 0.654787
Si Si2 0.500000 0.176419 0.062517
Si Si3 0.347756 0.322797 0.560219
Si Si4 0.842154 0.826318 0.233940
Si Si5 0.649704 0.330561 0.850188
O O1 0.179556 0.500000 0.663160
O O2 0.243747 0.740581 0.604883
O O3 0.205127 0.755824 0.709258
O O4 0.000000 0.712032 0.641638
O O5 0.365560 0.246069 0.091561
O O6 0.500000 0.000000 0.069975
O O7 0.500000 0.224407 0.000000
O O8 0.306921 0.264257 0.500000
O O9 0.500000 0.269144 0.574685
O O10 0.341345 0.500000 0.560271
O O11 0.759691 0.752917 0.185506
O O12 0.000000 0.793351 0.223472
O O13 0.809624 0.000000 0.235709
O O14 0.500000 0.327523 0.821497
O O15 0.697966 0.500000 0.859926
#
# Coordination Sequence:
#
# PCOD8197380 Si02
#       5
#     8   4   8   8   8
#     4   9  17  28  43  64  89 117 151 194 241 291
#     4   9  17  31  53  79 107 137 166 199 238 281
#     4   8  14  25  41  62  87 114 146 189 241 292
#     4  10  20  33  49  69  97 132 166 203 250 301
#     4   9  19  32  50  76 101 130 166 204 243 285
#
# _framework density 16.561138
#
# number of rings (size 3 to 8) (size 9 to 14) (size 15 to 20)
#    0.667    2.333    0.000    2.000    0.000    3.556 
#    0.000    4.444    0.000    1.333    0.000    9.333 
#    0.000    0.000    0.000    0.000    0.000    0.000 
#
# Total GULP energy -446167.378350 kJ/mol
# GULP energy per Si atom -12393.538287 kJ/mol
# Density = 1.652344 g / cm^3
# Si number density = 16.561138 Si / 1000 Ang^3
#
#
#
# Elastic Constant Matrix: (Units=GPa)
#
#
# Indices 1 2 3 4 5 6 
#
# 1 68.7913 37.4994 76.2450 0.0000 0.0000 0.0000
# 2 37.4994 66.0807 60.3917 0.0000 0.0000 0.0000
# 3 76.2450 60.3917 163.9260 0.0000 0.0000 0.0000
# 4 0.0000 0.0000 0.0000 6.2825 0.0000 0.0000
# 5 0.0000 0.0000 0.0000 0.0000 20.5299 0.0000
# 6 0.0000 0.0000 0.0000 0.0000 0.0000 20.7063
#
#
#
# Elastic Compliance Matrix: (Units=1/GPa)
#
#
# Indices 1 2 3 4 5 6 
#
# 1 0.031941 -0.006857 -0.012330 0.000000 0.000000 0.000000
# 2 -0.006857 0.024287 -0.005758 0.000000 0.000000 0.000000
# 3 -0.012330 -0.005758 0.013956 0.000000 0.000000 0.000000
# 4 0.000000 0.000000 0.000000 0.159173 0.000000 0.000000
# 5 0.000000 0.000000 0.000000 0.000000 0.048710 0.000000
# 6 0.000000 0.000000 0.000000 0.000000 0.000000 0.048295
#
#
# Mechanical properties :
#
#
# Convention : Reuss Voigt Hill
#
# Bulk Modulus (GPa) = 49.27689 71.89669 60.58679
# Shear Modulus (GPa) = 13.05428 17.81450 15.43439
#
# Velocity S-wave (km/s) = 2.81062 3.28332 3.05612
# Velocity P-wave (km/s) = 6.35232 7.60794 7.00830
#
# Compressibility (1/GPa) = 0.02029349
#
# Stress axis : x y z
#
# Youngs Moduli (GPa) = 31.30806 41.17496 71.65126
#
# Poissons Ratio (x) = 0.28235 0.88346
# Poissons Ratio (y) = 0.21469 0.41257
# Poissons Ratio (z) = 0.38603 0.23708
#
# Static dielectric constant tensor:
#      x y z
#    x 3.075540 0.000000 0.000000 
#    y 0.000000 2.966160 0.000000 
#    z 0.000000 0.000000 3.163420 
# 
# 
# High freq. dielectric constant tensor:
#      x y z
#    x 1.624790 0.000000 0.000000 
#    y 0.000000 1.625910 0.000000 
#    z 0.000000 0.000000 1.633150 
# 
# From -- ./inp_files/33868.got.cif
#   From: 2010.03.12/outbox.cif.g09.slc.cpg/sg47_17_cif.got.tgz:33868.got - 2010.04.14 03:12:58.
