data_PCOD8197978
_publ_section_title
;
Structure prediction by ZEFSAII (Michael W. Deem and Ramdas Pophale) SiO2 
 PCOD8197978
Probable space group: P M M M
;
_chemical_formula_sum "Si O2"
_cell_formula_units_Z 52
_cell_length_a 8.821483
_cell_length_b 20.904343
_cell_length_c 15.190394
_cell_angle_alpha 90.000000
_cell_angle_beta 90.000000
_cell_angle_gamma 90.000000
_cell_volume 2801.219641
_symmetry_space_group_name_H-M "P M M M"
_symmetry_group_IT_number 47
_symmetry_cell_setting 'orthorhombic'
loop_
_space_group_symop_operation_xyz
x,y,z
-x,-y,z
x,-y,-z
-x,y,-z
-x,-y,-z
x,y,-z
-x,y,z
x,-y,z
loop_
_atom_site_type_symbol
_atom_site_label
_atom_site_fract_x
_atom_site_fract_y
_atom_site_fract_z
Si Si1 0.822249 0.928492 0.500000
Si Si2 0.322395 0.137650 0.337786
Si Si3 0.168858 0.199071 0.901630
Si Si4 0.323787 0.735745 0.750727
Si Si5 0.678232 0.500000 0.399640
Si Si6 0.827332 0.928872 0.818926
Si Si7 0.819141 0.500000 0.894463
Si Si8 0.318887 0.593266 0.753173
O O1 0.771729 0.887567 0.418093
O O2 0.000000 0.935416 0.500000
O O3 0.749643 0.000000 0.500000
O O4 0.500000 0.136609 0.358633
O O5 0.263760 0.210323 0.317638
O O6 0.288579 0.090305 0.257462
O O7 0.291706 0.238500 0.847952
O O8 0.193870 0.122314 0.897169
O O9 0.000000 0.215626 0.866551
O O10 0.189873 0.222343 0.000000
O O11 0.500000 0.728667 0.736615
O O12 0.253256 0.665113 0.741079
O O13 0.500000 0.500000 0.412544
O O14 0.750245 0.500000 0.500000
O O15 0.728246 0.560404 0.339590
O O16 0.000000 0.927173 0.782494
O O17 0.787115 0.000000 0.853583
O O18 0.755172 0.438354 0.840812
O O19 0.000000 0.500000 0.888449
O O20 0.771464 0.500000 0.000000
O O21 0.500000 0.589800 0.766901
#
# Coordination Sequence:
#
# PCOD8197978 Si02
#       8
#     4   8   8   8   4   8   4   8
#     4  11  23  37  53  73  99 132 171 214 259 311
#     4  10  20  34  51  73 100 128 163 208 257 306
#     4   9  18  31  47  69  96 128 166 207 251 298
#     4   9  19  35  52  73 101 134 169 205 249 301
#     4   8  14  28  52  81 102 121 157 202 242 284
#     4   9  17  30  48  68  92 125 163 204 252 304
#     4  10  21  35  52  79 112 143 177 218 262 304
#     4   9  18  34  55  78 105 138 174 209 252 305
#
# _framework density 18.563343
#
# number of rings (size 3 to 8) (size 9 to 14) (size 15 to 20)
#    0.000    2.692    0.000    1.846    0.000    5.846 
#    1.385    4.615    0.000    3.692    0.000    4.308 
#    0.000    0.000    0.000    0.000    0.000    0.000 
#
# Total GULP energy -644221.302522 kJ/mol
# GULP energy per Si atom -12388.871202 kJ/mol
# Density = 1.852109 g / cm^3
# Si number density = 18.563343 Si / 1000 Ang^3
#
#
#
# Elastic Constant Matrix: (Units=GPa)
#
#
# Indices 1 2 3 4 5 6 
#
# 1 32.0429 23.3523 20.8903 0.0000 0.0000 0.0000
# 2 23.3523 165.3321 52.8951 0.0000 0.0000 0.0000
# 3 20.8903 52.8951 112.2759 0.0000 0.0000 0.0000
# 4 0.0000 0.0000 0.0000 13.4790 0.0000 0.0000
# 5 0.0000 0.0000 0.0000 0.0000 24.7273 0.0000
# 6 0.0000 0.0000 0.0000 0.0000 0.0000 20.4498
#
#
#
# Elastic Compliance Matrix: (Units=1/GPa)
#
#
# Indices 1 2 3 4 5 6 
#
# 1 0.037236 -0.003583 -0.005240 0.000000 0.000000 0.000000
# 2 -0.003583 0.007467 -0.002851 0.000000 0.000000 0.000000
# 3 -0.005240 -0.002851 0.011225 0.000000 0.000000 0.000000
# 4 0.000000 0.000000 0.000000 0.074189 0.000000 0.000000
# 5 0.000000 0.000000 0.000000 0.000000 0.040441 0.000000
# 6 0.000000 0.000000 0.000000 0.000000 0.000000 0.048900
#
#
# Mechanical properties :
#
#
# Convention : Reuss Voigt Hill
#
# Bulk Modulus (GPa) = 30.69474 55.99181 43.34328
# Shear Modulus (GPa) = 19.71100 25.89877 22.80488
#
# Velocity S-wave (km/s) = 3.26210 3.73923 3.50878
# Velocity P-wave (km/s) = 5.54612 6.99075 6.30991
#
# Compressibility (1/GPa) = 0.03257888
#
# Stress axis : x y z
#
# Youngs Moduli (GPa) = 26.85606 133.92945 89.08841
#
# Poissons Ratio (x) = 0.47984 0.46684
# Poissons Ratio (y) = 0.09622 0.25399
# Poissons Ratio (z) = 0.14073 0.38184
#
# Static dielectric constant tensor:
#      x y z
#    x 3.276860 0.000000 0.000000 
#    y 0.000000 3.813950 0.000000 
#    z 0.000000 0.000000 3.226700 
# 
# 
# High freq. dielectric constant tensor:
#      x y z
#    x 1.702380 0.000000 0.000000 
#    y 0.000000 1.729070 0.000000 
#    z 0.000000 0.000000 1.709000 
# 
# From -- ./inp_files/21560.got.cif
#   From: 2010.03.12/outbox.cif.g09.slc.cpg/sg47_11_cif.got.tgz:21560.got - 2010.04.14 03:12:58.
