data_PCOD8197063
_publ_section_title
;
Structure prediction by ZEFSAII (Michael W. Deem and Ramdas Pophale) SiO2 
 PCOD8197063
Probable space group: P M M M
;
_chemical_formula_sum "Si O2"
_cell_formula_units_Z 64
_cell_length_a 15.338844
_cell_length_b 9.314798
_cell_length_c 23.425844
_cell_angle_alpha 90.000000
_cell_angle_beta 90.000000
_cell_angle_gamma 90.000000
_cell_volume 3347.043207
_symmetry_space_group_name_H-M "P M M M"
_symmetry_group_IT_number 47
_symmetry_cell_setting 'orthorhombic'
loop_
_space_group_symop_operation_xyz
x,y,z
-x,-y,z
x,-y,-z
-x,y,-z
-x,-y,-z
x,y,-z
-x,y,z
x,-y,z
loop_
_atom_site_type_symbol
_atom_site_label
_atom_site_fract_x
_atom_site_fract_y
_atom_site_fract_z
Si Si1 0.232503 0.829058 0.562255
Si Si2 0.398338 0.330224 0.153011
Si Si3 0.901810 0.655006 0.773569
Si Si4 0.276407 0.165802 0.065353
Si Si5 0.160234 0.838443 0.320397
Si Si6 0.348809 0.162757 0.734480
Si Si7 0.406416 0.170213 0.385858
Si Si8 0.900819 0.833957 0.879176
O O1 0.201001 0.771297 0.500000
O O2 0.169780 0.781949 0.614171
O O3 0.329281 0.765702 0.575039
O O4 0.236643 0.000000 0.561430
O O5 0.500000 0.292660 0.142262
O O6 0.383333 0.500000 0.153921
O O7 0.339478 0.263814 0.103037
O O8 0.367077 0.267291 0.213235
O O9 0.853055 0.500000 0.770689
O O10 0.903860 0.731354 0.711906
O O11 0.862519 0.753757 0.823359
O O12 0.000000 0.627457 0.791596
O O13 0.172393 0.198523 0.073063
O O14 0.294655 0.000000 0.081151
O O15 0.299284 0.198733 0.000000
O O16 0.248800 0.832530 0.284516
O O17 0.122528 0.000000 0.320803
O O18 0.402745 0.221115 0.680004
O O19 0.375422 0.000000 0.751518
O O20 0.500000 0.216372 0.411816
O O21 0.394688 0.000000 0.384658
O O22 0.000000 0.787046 0.898170
O O23 0.903050 0.000000 0.862634
#
# Coordination Sequence:
#
# PCOD8197063 Si02
#       8
#     8   8   8   8   8   8   8   8
#     4   8  14  24  38  59  88 121 157 196 235 276
#     4  11  24  38  52  73 101 134 173 217 262 301
#     4  10  20  32  48  73 102 128 156 192 235 286
#     4  10  22  39  58  80 104 133 171 208 242 289
#     4   9  17  29  47  71  97 126 160 198 242 292
#     4   9  17  30  49  72  97 125 159 200 246 296
#     4   8  13  21  36  61  91 121 152 187 231 283
#     4   9  18  34  57  84 112 137 159 191 241 299
#
# _framework density 19.121354
#
# number of rings (size 3 to 8) (size 9 to 14) (size 15 to 20)
#    0.000    2.750    0.000    3.375    0.000    7.250 
#    0.000    3.750    0.000    0.750    0.000    5.250 
#    0.000    0.000    0.000   13.250    0.000   10.000 
#
# Total GULP energy -792899.999416 kJ/mol
# GULP energy per Si atom -12389.062491 kJ/mol
# Density = 1.907783 g / cm^3
# Si number density = 19.121354 Si / 1000 Ang^3
#
#
#
# Elastic Constant Matrix: (Units=GPa)
#
#
# Indices 1 2 3 4 5 6 
#
# 1 49.8178 23.9873 27.8054 0.0000 0.0000 0.0000
# 2 23.9873 66.5897 38.4908 0.0000 0.0000 0.0000
# 3 27.8054 38.4908 108.4148 0.0000 0.0000 0.0000
# 4 0.0000 0.0000 0.0000 3.2338 0.0000 0.0000
# 5 0.0000 0.0000 0.0000 0.0000 18.0750 0.0000
# 6 0.0000 0.0000 0.0000 0.0000 0.0000 18.0873
#
#
#
# Elastic Compliance Matrix: (Units=1/GPa)
#
#
# Indices 1 2 3 4 5 6 
#
# 1 0.025693 -0.006852 -0.004157 0.000000 0.000000 0.000000
# 2 -0.006852 0.020723 -0.005600 0.000000 0.000000 0.000000
# 3 -0.004157 -0.005600 0.012278 0.000000 0.000000 0.000000
# 4 0.000000 0.000000 0.000000 0.309238 0.000000 0.000000
# 5 0.000000 0.000000 0.000000 0.000000 0.055325 0.000000
# 6 0.000000 0.000000 0.000000 0.000000 0.000000 0.055288
#
#
# Mechanical properties :
#
#
# Convention : Reuss Voigt Hill
#
# Bulk Modulus (GPa) = 39.25330 45.04324 42.14827
# Shear Modulus (GPa) = 9.61070 16.84847 13.22959
#
# Velocity S-wave (km/s) = 2.24434 2.97161 2.63321
# Velocity P-wave (km/s) = 5.22390 5.94824 5.59780
#
# Compressibility (1/GPa) = 0.02547557
#
# Stress axis : x y z
#
# Youngs Moduli (GPa) = 38.92172 48.25651 81.44675
#
# Poissons Ratio (x) = 0.33068 0.33854
# Poissons Ratio (y) = 0.26671 0.45608
# Poissons Ratio (z) = 0.16178 0.27022
#
# Static dielectric constant tensor:
#      x y z
#    x 3.523190 0.000000 0.000000 
#    y 0.000000 3.413300 0.000000 
#    z 0.000000 0.000000 3.662590 
# 
# 
# High freq. dielectric constant tensor:
#      x y z
#    x 1.736620 0.000000 0.000000 
#    y 0.000000 1.706400 0.000000 
#    z 0.000000 0.000000 1.740840 
# 
# From -- ./inp_files/32779.got.cif
#   From: 2010.03.12/outbox.cif.g09.slc.cpg/sg47_17_cif.got.tgz:32779.got - 2010.04.14 03:12:58.
