data_PCOD8197092
_publ_section_title
;
Structure prediction by ZEFSAII (Michael W. Deem and Ramdas Pophale) SiO2 
 PCOD8197092
Probable space group: P M M M
;
_chemical_formula_sum "Si O2"
_cell_formula_units_Z 52
_cell_length_a 23.371500
_cell_length_b 9.133438
_cell_length_c 13.868512
_cell_angle_alpha 90.000000
_cell_angle_beta 90.000000
_cell_angle_gamma 90.000000
_cell_volume 2960.402336
_symmetry_space_group_name_H-M "P M M M"
_symmetry_group_IT_number 47
_symmetry_cell_setting 'orthorhombic'
loop_
_space_group_symop_operation_xyz
x,y,z
-x,-y,z
x,-y,-z
-x,y,-z
-x,-y,-z
x,y,-z
-x,y,z
x,-y,z
loop_
_atom_site_type_symbol
_atom_site_label
_atom_site_fract_x
_atom_site_fract_y
_atom_site_fract_z
Si Si1 0.226006 0.672566 0.721940
Si Si2 0.000000 0.832356 0.615086
Si Si3 0.111714 0.670968 0.610106
Si Si4 0.826090 0.829219 0.112088
Si Si5 0.437008 0.335824 0.385544
Si Si6 0.062645 0.663773 0.885664
Si Si7 0.326927 0.831775 0.385897
O O1 0.233575 0.500000 0.732080
O O2 0.168619 0.717235 0.665824
O O3 0.222910 0.745180 0.828023
O O4 0.279241 0.735110 0.664461
O O5 0.942914 0.754031 0.656257
O O6 0.000000 0.815709 0.500000
O O7 0.000000 0.000000 0.648464
O O8 0.121139 0.719362 0.500000
O O9 0.099094 0.500000 0.618388
O O10 0.888138 0.773508 0.149132
O O11 0.822183 0.000000 0.133213
O O12 0.816323 0.792728 0.000000
O O13 0.437443 0.335718 0.500000
O O14 0.500000 0.286215 0.347879
O O15 0.423301 0.500000 0.348305
O O16 0.388703 0.224177 0.348114
O O17 0.076732 0.500000 0.846577
O O18 0.000000 0.715487 0.847369
O O19 0.060844 0.659923 0.000000
O O20 0.320884 0.810371 0.500000
O O21 0.320056 0.000000 0.355593
#
# Coordination Sequence:
#
# PCOD8197092 Si02
#       7
#     8   4   8   8   8   8   8
#     4  11  22  35  52  72  94 126 166 205 244 292
#     4   9  17  29  47  69  90 115 148 189 237 284
#     4   9  18  33  51  69  90 118 153 193 236 283
#     4  10  21  36  52  70  94 122 153 196 251 305
#     4   8  14  26  45  69  99 137 177 210 238 274
#     4   8  14  27  48  70  89 111 142 181 228 287
#     4  10  20  32  48  73 106 140 170 205 247 289
#
# _framework density 17.565179000000001
#
# number of rings (size 3 to 8) (size 9 to 14) (size 15 to 20)
#    0.000    2.692    0.000    3.000    0.000    5.231 
#    1.385    4.615    0.000    0.000    0.000    0.000 
#    0.000    0.615    0.000    6.462    0.000    3.077 
#
# Total GULP energy -644693.510113 kJ/mol
# GULP energy per Si atom -12397.952118 kJ/mol
# Density = 1.752520 g / cm^3
# Si number density = 17.565179 Si / 1000 Ang^3
#
#
#
# Elastic Constant Matrix: (Units=GPa)
#
#
# Indices 1 2 3 4 5 6 
#
# 1 124.4872 67.7989 36.1119 0.0000 0.0000 0.0000
# 2 67.7989 100.3742 31.6106 0.0000 0.0000 0.0000
# 3 36.1119 31.6106 40.6867 0.0000 0.0000 0.0000
# 4 0.0000 0.0000 0.0000 19.1810 0.0000 0.0000
# 5 0.0000 0.0000 0.0000 0.0000 10.3662 0.0000
# 6 0.0000 0.0000 0.0000 0.0000 0.0000 24.8069
#
#
#
# Elastic Compliance Matrix: (Units=1/GPa)
#
#
# Indices 1 2 3 4 5 6 
#
# 1 0.013966 -0.007321 -0.006708 0.000000 0.000000 0.000000
# 2 -0.007321 0.017028 -0.006731 0.000000 0.000000 0.000000
# 3 -0.006708 -0.006731 0.035761 0.000000 0.000000 0.000000
# 4 0.000000 0.000000 0.000000 0.052135 0.000000 0.000000
# 5 0.000000 0.000000 0.000000 0.000000 0.096468 0.000000
# 6 0.000000 0.000000 0.000000 0.000000 0.000000 0.040311
#
#
# Mechanical properties :
#
#
# Convention : Reuss Voigt Hill
#
# Bulk Modulus (GPa) = 39.62802 59.62122 49.62462
# Shear Modulus (GPa) = 16.36119 19.53925 17.95022
#
# Velocity S-wave (km/s) = 3.05529 3.33886 3.20022
# Velocity P-wave (km/s) = 5.92080 6.99146 6.47829
#
# Compressibility (1/GPa) = 0.02523467
#
# Stress axis : x y z
#
# Youngs Moduli (GPa) = 71.60248 58.72779 27.96313
#
# Poissons Ratio (x) = 0.42995 0.18757
# Poissons Ratio (y) = 0.52420 0.18823
# Poissons Ratio (z) = 0.48029 0.39532
#
# Static dielectric constant tensor:
#      x y z
#    x 3.447250 0.000000 0.000000 
#    y 0.000000 3.302610 0.000000 
#    z 0.000000 0.000000 3.056140 
# 
# 
# High freq. dielectric constant tensor:
#      x y z
#    x 1.668130 0.000000 0.000000 
#    y 0.000000 1.682960 0.000000 
#    z 0.000000 0.000000 1.649880 
# 
# From -- ./inp_files/11067.got.cif
#   From: 2010.03.12/outbox.cif.g09.slc.cpg/sg47_6_cif.got.tgz:11067.got - 2010.04.14 03:12:58.
