data_PCOD8197010
_publ_section_title
;
Structure prediction by ZEFSAII (Michael W. Deem and Ramdas Pophale) SiO2 
 PCOD8197010
Probable space group: P M M M
;
_chemical_formula_sum "Si O2"
_cell_formula_units_Z 40
_cell_length_a 9.265583
_cell_length_b 9.194007
_cell_length_c 25.973700
_cell_angle_alpha 90.000000
_cell_angle_beta 90.000000
_cell_angle_gamma 90.000000
_cell_volume 2212.643269
_symmetry_space_group_name_H-M "P M M M"
_symmetry_group_IT_number 47
_symmetry_cell_setting 'orthorhombic'
loop_
_space_group_symop_operation_xyz
x,y,z
-x,-y,z
x,-y,-z
-x,y,-z
-x,-y,-z
x,y,-z
-x,y,z
x,-y,z
loop_
_atom_site_type_symbol
_atom_site_label
_atom_site_fract_x
_atom_site_fract_y
_atom_site_fract_z
Si Si1 0.328334 0.663395 0.556791
Si Si2 0.168850 0.830221 0.845024
Si Si3 0.338258 0.827409 0.943378
Si Si4 0.328290 0.837035 0.653473
Si Si5 0.668061 0.329604 0.245304
O O1 0.279019 0.718264 0.500000
O O2 0.500000 0.663010 0.559825
O O3 0.271020 0.500000 0.566286
O O4 0.264122 0.767804 0.600967
O O5 0.229528 0.771334 0.899574
O O6 0.242161 0.738230 0.800660
O O7 0.000000 0.800626 0.844322
O O8 0.205537 0.000000 0.836906
O O9 0.500000 0.771661 0.930785
O O10 0.336948 0.000000 0.944398
O O11 0.289992 0.769357 0.000000
O O12 0.500000 0.838563 0.650885
O O13 0.276395 0.742265 0.701848
O O14 0.266845 0.000000 0.659098
O O15 0.500000 0.295775 0.235936
O O16 0.698465 0.500000 0.248813
#
# Coordination Sequence:
#
# PCOD8197010 Si02
#       5
#     8   8   8   8   8
#     4   8  13  21  33  51  80 118 154 187 228 281
#     4  10  20  32  48  72 100 128 158 195 240 287
#     4   8  14  26  46  72 100 129 160 193 230 275
#     4   9  16  25  39  60  85 114 151 196 242 286
#     4  10  20  33  49  67  89 122 163 203 243 289
#
# _framework density 18.077925
#
# number of rings (size 3 to 8) (size 9 to 14) (size 15 to 20)
#    0.000    3.000    0.000    3.000    0.000    5.600 
#    0.000    4.000    0.000    0.600    0.000    4.200 
#    0.000    0.800    0.000    8.400    0.000   11.600 
#
# Total GULP energy -495806.516647 kJ/mol
# GULP energy per Si atom -12395.162916 kJ/mol
# Density = 1.803678 g / cm^3
# Si number density = 18.077925 Si / 1000 Ang^3
#
#
#
# Elastic Constant Matrix: (Units=GPa)
#
#
# Indices 1 2 3 4 5 6 
#
# 1 48.5064 39.6123 57.1147 0.0000 0.0000 0.0000
# 2 39.6123 95.5446 82.7680 0.0000 0.0000 0.0000
# 3 57.1147 82.7680 193.6620 0.0000 0.0000 0.0000
# 4 0.0000 0.0000 0.0000 11.7406 0.0000 0.0000
# 5 0.0000 0.0000 0.0000 0.0000 -1.2256 0.0000
# 6 0.0000 0.0000 0.0000 0.0000 0.0000 14.0466
#
#
#
# Elastic Compliance Matrix: (Units=1/GPa)
#
#
# Indices 1 2 3 4 5 6 
#
# 1 0.035944 -0.009081 -0.006719 0.000000 0.000000 0.000000
# 2 -0.009081 0.018914 -0.005405 0.000000 0.000000 0.000000
# 3 -0.006719 -0.005405 0.009455 0.000000 0.000000 0.000000
# 4 0.000000 0.000000 0.000000 0.085174 0.000000 0.000000
# 5 0.000000 0.000000 0.000000 0.000000 -0.815948 0.000000
# 6 0.000000 0.000000 0.000000 0.000000 0.000000 0.071191
#
#
# Mechanical properties :
#
#
# Convention : Reuss Voigt Hill
#
# Bulk Modulus (GPa) = 45.65943 77.41144 61.53543
# Shear Modulus (GPa) = -9.16494 15.46021 3.14763
#
# Velocity S-wave (km/s) = -2.25404 2.92755 1.32096
# Velocity P-wave (km/s) = 4.30553 7.37166 6.03651
#
# Compressibility (1/GPa) = 0.02190128
#
# Stress axis : x y z
#
# Youngs Moduli (GPa) = 27.82127 52.87157 105.75999
#
# Poissons Ratio (x) = 0.48014 0.71063
# Poissons Ratio (y) = 0.25265 0.57165
# Poissons Ratio (z) = 0.18694 0.28578
#
# Static dielectric constant tensor:
#      x y z
#    x 2.905910 0.000000 0.000000 
#    y 0.000000 3.248620 0.000000 
#    z 0.000000 0.000000 3.798600 
# 
# 
# High freq. dielectric constant tensor:
#      x y z
#    x 1.646110 0.000000 0.000000 
#    y 0.000000 1.679880 0.000000 
#    z 0.000000 0.000000 1.722210 
# 
# From -- ./inp_files/1427.got.cif
#   From: 2010.03.12/outbox.cif.g09.slc.cpg/sg47_1_cif.got.tgz:1427.got - 2010.04.14 03:12:58.
