data_PCOD8197373
_publ_section_title
;
Structure prediction by ZEFSAII (Michael W. Deem and Ramdas Pophale) SiO2 
 PCOD8197373
Probable space group: P M M M
;
_chemical_formula_sum "Si O2"
_cell_formula_units_Z 44
_cell_length_a 28.981399
_cell_length_b 9.112229
_cell_length_c 9.262702
_cell_angle_alpha 90.000000
_cell_angle_beta 90.000000
_cell_angle_gamma 90.000000
_cell_volume 2446.141995
_symmetry_space_group_name_H-M "P M M M"
_symmetry_group_IT_number 47
_symmetry_cell_setting 'orthorhombic'
loop_
_space_group_symop_operation_xyz
x,y,z
-x,-y,z
x,-y,-z
-x,y,-z
-x,-y,-z
x,y,-z
-x,y,z
x,-y,z
loop_
_atom_site_type_symbol
_atom_site_label
_atom_site_fract_x
_atom_site_fract_y
_atom_site_fract_z
Si Si1 0.048770 0.164244 0.171253
Si Si2 0.229648 0.332167 0.671163
Si Si3 0.500000 0.325451 0.163003
Si Si4 0.589241 0.671509 0.667804
Si Si5 0.148519 0.174559 0.833489
Si Si6 0.680247 0.834411 0.328254
O O1 0.097717 0.235090 0.219309
O O2 0.000000 0.244089 0.219768
O O3 0.047032 0.000000 0.233741
O O4 0.050466 0.156651 0.000000
O O5 0.226989 0.319708 0.500000
O O6 0.231279 0.500000 0.722505
O O7 0.185217 0.253939 0.734632
O O8 0.275407 0.252431 0.731446
O O9 0.500000 0.500000 0.166496
O O10 0.545382 0.267425 0.244664
O O11 0.500000 0.264915 0.000000
O O12 0.580187 0.704221 0.500000
O O13 0.597594 0.500000 0.694720
O O14 0.633956 0.755985 0.727702
O O15 0.151447 0.000000 0.811630
O O16 0.157684 0.215702 0.000000
O O17 0.680665 0.831992 0.500000
O O18 0.681782 0.000000 0.268357
#
# Coordination Sequence:
#
# PCOD8197373 Si02
#       6
#     8   8   4   8   8   8
#     4   7  10  19  38  64  91 117 147 186 231 276
#     4  10  20  33  49  69  94 126 162 196 233 281
#     4   9  17  29  46  69  96 124 152 181 216 262
#     4   9  16  28  48  71  92 116 150 189 224 261
#     4   9  17  29  47  72  98 122 152 193 239 284
#     4   9  17  30  49  71  92 116 151 195 237 274
#
# _framework density 17.987508999999999
#
# number of rings (size 3 to 8) (size 9 to 14) (size 15 to 20)
#    0.000    3.182    0.000    3.000    0.000    4.727 
#    0.000    1.364    0.000    7.636    0.000    6.364 
#    0.000    0.000    0.000    0.000    0.000    0.000 
#
# Total GULP energy -545140.052003 kJ/mol
# GULP energy per Si atom -12389.546636 kJ/mol
# Density = 1.794657 g / cm^3
# Si number density = 17.987509 Si / 1000 Ang^3
#
#
#
# Elastic Constant Matrix: (Units=GPa)
#
#
# Indices 1 2 3 4 5 6 
#
# 1 204.9617 59.5033 38.2712 0.0000 0.0000 0.0000
# 2 59.5033 65.3818 18.8631 0.0000 0.0000 0.0000
# 3 38.2712 18.8631 29.9710 0.0000 0.0000 0.0000
# 4 0.0000 0.0000 0.0000 15.0205 0.0000 0.0000
# 5 0.0000 0.0000 0.0000 0.0000 5.6431 0.0000
# 6 0.0000 0.0000 0.0000 0.0000 0.0000 12.6340
#
#
#
# Elastic Compliance Matrix: (Units=1/GPa)
#
#
# Indices 1 2 3 4 5 6 
#
# 1 0.007539 -0.004990 -0.006486 0.000000 0.000000 0.000000
# 2 -0.004990 0.021991 -0.007469 0.000000 0.000000 0.000000
# 3 -0.006486 -0.007469 0.046349 0.000000 0.000000 0.000000
# 4 0.000000 0.000000 0.000000 0.066576 0.000000 0.000000
# 5 0.000000 0.000000 0.000000 0.000000 0.177207 0.000000
# 6 0.000000 0.000000 0.000000 0.000000 0.000000 0.079152
#
#
# Mechanical properties :
#
#
# Convention : Reuss Voigt Hill
#
# Bulk Modulus (GPa) = 26.32365 59.28777 42.80571
# Shear Modulus (GPa) = 11.12681 18.90463 15.01572
#
# Velocity S-wave (km/s) = 2.48984 3.24541 2.89240
# Velocity P-wave (km/s) = 4.78872 6.86117 5.91640
#
# Compressibility (1/GPa) = 0.03798866
#
# Stress axis : x y z
#
# Youngs Moduli (GPa) = 132.65078 45.47397 21.57553
#
# Poissons Ratio (x) = 0.22689 0.13994
# Poissons Ratio (y) = 0.66187 0.16115
# Poissons Ratio (z) = 0.86038 0.33965
#
# Static dielectric constant tensor:
#      x y z
#    x 3.860150 0.000000 0.000000 
#    y 0.000000 3.103670 0.000000 
#    z 0.000000 0.000000 2.910350 
# 
# 
# High freq. dielectric constant tensor:
#      x y z
#    x 1.726370 0.000000 0.000000 
#    y 0.000000 1.663340 0.000000 
#    z 0.000000 0.000000 1.648260 
# 
# From -- ./inp_files/1980.got.cif
#   From: 2010.03.12/outbox.cif.g09.slc.cpg/sg47_1_cif.got.tgz:1980.got - 2010.04.14 03:12:58.
