data_PCOD8197695
_publ_section_title
;
Structure prediction by ZEFSAII (Michael W. Deem and Ramdas Pophale) SiO2 
 PCOD8197695
Probable space group: P M M M
;
_chemical_formula_sum "Si O2"
_cell_formula_units_Z 64
_cell_length_a 24.266021
_cell_length_b 13.557224
_cell_length_c 9.270274
_cell_angle_alpha 90.000000
_cell_angle_beta 90.000000
_cell_angle_gamma 90.000000
_cell_volume 3049.733649
_symmetry_space_group_name_H-M "P M M M"
_symmetry_group_IT_number 47
_symmetry_cell_setting 'orthorhombic'
loop_
_space_group_symop_operation_xyz
x,y,z
-x,-y,z
x,-y,-z
-x,y,-z
-x,-y,-z
x,y,-z
-x,y,z
x,-y,z
loop_
_atom_site_type_symbol
_atom_site_label
_atom_site_fract_x
_atom_site_fract_y
_atom_site_fract_z
Si Si1 0.439109 0.882949 0.162640
Si Si2 0.065287 0.891603 0.839099
Si Si3 0.747465 0.714014 0.329968
Si Si4 0.667655 0.111960 0.331452
Si Si5 0.842601 0.612546 0.831057
Si Si6 0.658037 0.614874 0.157669
Si Si7 0.064624 0.296146 0.667548
Si Si8 0.439293 0.617256 0.340633
O O1 0.500000 0.847644 0.219479
O O2 0.387848 0.844231 0.258498
O O3 0.438007 0.000000 0.167415
O O4 0.430237 0.845064 0.000000
O O5 0.084946 0.811237 0.723072
O O6 0.000000 0.895606 0.840698
O O7 0.088261 0.000000 0.794776
O O8 0.086463 0.863387 0.000000
O O9 0.756646 0.700959 0.500000
O O10 0.720734 0.820566 0.291028
O O11 0.804718 0.694298 0.247985
O O12 0.706726 0.630543 0.270678
O O13 0.656306 0.116264 0.500000
O O14 0.680868 0.000000 0.280792
O O15 0.821696 0.500000 0.807532
O O16 0.903132 0.621624 0.759767
O O17 0.845135 0.637356 0.000000
O O18 0.649280 0.500000 0.138149
O O19 0.602257 0.662508 0.223054
O O20 0.670447 0.662291 0.000000
O O21 0.079755 0.305086 0.500000
O O22 0.000000 0.312907 0.694638
O O23 0.423943 0.657268 0.500000
O O24 0.500000 0.652558 0.295526
O O25 0.435968 0.500000 0.343652
#
# Coordination Sequence:
#
# PCOD8197695 Si02
#       8
#     8   8   8   8   8   8   8   8
#     4   8  14  26  47  77 111 146 185 229 279 335
#     4   8  14  27  50  81 119 163 205 241 277 319
#     4  11  23  39  60  83 108 142 183 228 280 336
#     4   9  19  36  57  82 112 146 186 233 285 340
#     4  11  25  44  65  88 115 149 190 238 291 347
#     4  10  20  33  51  76 105 137 175 221 271 323
#     4  10  21  37  60  92 127 161 197 238 287 346
#     4   8  14  26  45  69  98 133 173 218 269 323
#
# _framework density 20.985439
#
# number of rings (size 3 to 8) (size 9 to 14) (size 15 to 20)
#    0.000    2.625    0.000    3.000    0.000    6.000 
#    0.000    6.250    0.000    3.000    0.000    0.000 
#    0.000    0.000    0.000    0.000    0.000    0.000 
#
# Total GULP energy -793155.223436 kJ/mol
# GULP energy per Si atom -12393.050366 kJ/mol
# Density = 2.093768 g / cm^3
# Si number density = 20.985439 Si / 1000 Ang^3
#
#
#
# Elastic Constant Matrix: (Units=GPa)
#
#
# Indices 1 2 3 4 5 6 
#
# 1 103.8391 36.8867 65.5367 0.0000 0.0000 0.0000
# 2 36.8867 72.7290 47.3798 0.0000 0.0000 0.0000
# 3 65.5367 47.3798 127.0914 0.0000 0.0000 0.0000
# 4 0.0000 0.0000 0.0000 26.9041 0.0000 0.0000
# 5 0.0000 0.0000 0.0000 0.0000 33.5487 0.0000
# 6 0.0000 0.0000 0.0000 0.0000 0.0000 48.5216
#
#
#
# Elastic Compliance Matrix: (Units=1/GPa)
#
#
# Indices 1 2 3 4 5 6 
#
# 1 0.014875 -0.003364 -0.006416 0.000000 0.000000 0.000000
# 2 -0.003364 0.018921 -0.005319 0.000000 0.000000 0.000000
# 3 -0.006416 -0.005319 0.013160 0.000000 0.000000 0.000000
# 4 0.000000 0.000000 0.000000 0.037169 0.000000 0.000000
# 5 0.000000 0.000000 0.000000 0.000000 0.029807 0.000000
# 6 0.000000 0.000000 0.000000 0.000000 0.000000 0.020609
#
#
# Mechanical properties :
#
#
# Convention : Reuss Voigt Hill
#
# Bulk Modulus (GPa) = 59.67713 67.02953 63.35333
# Shear Modulus (GPa) = 29.35540 32.05196 30.70368
#
# Velocity S-wave (km/s) = 3.74417 3.91236 3.82919
# Velocity P-wave (km/s) = 6.86956 7.24010 7.05727
#
# Compressibility (1/GPa) = 0.01675684
#
# Stress axis : x y z
#
# Youngs Moduli (GPa) = 67.22716 52.85124 75.98844
#
# Poissons Ratio (x) = 0.17781 0.48756
# Poissons Ratio (y) = 0.22618 0.40417
# Poissons Ratio (z) = 0.43135 0.28111
#
# Static dielectric constant tensor:
#      x y z
#    x 3.768040 0.000000 0.000000 
#    y 0.000000 3.786750 0.000000 
#    z 0.000000 0.000000 3.992310 
# 
# 
# High freq. dielectric constant tensor:
#      x y z
#    x 1.804630 0.000000 0.000000 
#    y 0.000000 1.816670 0.000000 
#    z 0.000000 0.000000 1.823570 
# 
# From -- ./inp_files/12702.got.cif
#   From: 2010.03.12/outbox.cif.g09.slc.cpg/sg47_7_cif.got.tgz:12702.got - 2010.04.14 03:12:58.
