data_PCOD8197615
_publ_section_title
;
Structure prediction by ZEFSAII (Michael W. Deem and Ramdas Pophale) SiO2 
 PCOD8197615
Probable space group: P M M M
;
_chemical_formula_sum "Si O2"
_cell_formula_units_Z 64
_cell_length_a 9.321721
_cell_length_b 20.640999
_cell_length_c 19.390539
_cell_angle_alpha 90.000000
_cell_angle_beta 90.000000
_cell_angle_gamma 90.000000
_cell_volume 3730.926509
_symmetry_space_group_name_H-M "P M M M"
_symmetry_group_IT_number 47
_symmetry_cell_setting 'orthorhombic'
loop_
_space_group_symop_operation_xyz
x,y,z
-x,-y,z
x,-y,-z
-x,y,-z
-x,-y,-z
x,y,-z
-x,y,z
x,-y,z
loop_
_atom_site_type_symbol
_atom_site_label
_atom_site_fract_x
_atom_site_fract_y
_atom_site_fract_z
Si Si1 0.170017 0.315099 0.705297
Si Si2 0.330339 0.622458 0.074170
Si Si3 0.164986 0.072049 0.702551
Si Si4 0.666678 0.769108 0.077994
Si Si5 0.667067 0.426537 0.218081
Si Si6 0.665951 0.117514 0.577396
Si Si7 0.830973 0.189982 0.794511
Si Si8 0.665577 0.267532 0.578489
O O1 0.236365 0.380346 0.735843
O O2 0.215871 0.253545 0.751583
O O3 0.232007 0.308145 0.628455
O O4 0.000000 0.322385 0.701218
O O5 0.500000 0.623370 0.069005
O O6 0.276673 0.695697 0.085886
O O7 0.280834 0.578526 0.138201
O O8 0.269785 0.596413 0.000000
O O9 0.244460 0.074422 0.629707
O O10 0.225158 0.125949 0.755014
O O11 0.000000 0.087355 0.687350
O O12 0.185953 0.000000 0.734159
O O13 0.500000 0.774143 0.097307
O O14 0.755966 0.812439 0.131143
O O15 0.693674 0.793988 0.000000
O O16 0.500000 0.406373 0.224637
O O17 0.691003 0.500000 0.242855
O O18 0.703628 0.094973 0.500000
O O19 0.500000 0.106030 0.593006
O O20 0.705703 0.192542 0.586704
O O21 0.000000 0.188279 0.806235
O O22 0.693530 0.290275 0.500000
O O23 0.500000 0.279550 0.598517
#
# Coordination Sequence:
#
# PCOD8197615 Si02
#       8
#     8   8   8   8   8   8   8   8
#     4  11  21  33  52  77 104 135 171 212 254 298
#     4   8  14  26  45  71 101 130 164 204 243 288
#     4  10  21  36  51  70 101 138 175 214 253 298
#     4   9  17  30  51  77 101 128 164 208 257 302
#     4  10  20  33  51  75 103 138 176 210 250 302
#     4   9  18  32  50  74 104 136 169 206 250 301
#     4  10  20  33  50  75 101 131 171 211 254 299
#     4   9  18  33  54  79 104 131 166 209 255 301
#
# _framework density 17.153915999999999
#
# number of rings (size 3 to 8) (size 9 to 14) (size 15 to 20)
#    0.000    2.500    2.500    1.875    0.000    2.750 
#    0.000    3.750    0.000    1.125    0.000    6.125 
#    0.000    0.000    0.000    0.000    0.000    0.000 
#
# Total GULP energy -793450.923618 kJ/mol
# GULP energy per Si atom -12397.670682 kJ/mol
# Density = 1.711487 g / cm^3
# Si number density = 17.153916 Si / 1000 Ang^3
#
#
#
# Elastic Constant Matrix: (Units=GPa)
#
#
# Indices 1 2 3 4 5 6 
#
# 1 52.5422 37.5279 46.4514 0.0000 0.0000 0.0000
# 2 37.5279 88.7360 50.8903 0.0000 0.0000 0.0000
# 3 46.4514 50.8903 105.1642 0.0000 0.0000 0.0000
# 4 0.0000 0.0000 0.0000 19.1436 0.0000 0.0000
# 5 0.0000 0.0000 0.0000 0.0000 23.9995 0.0000
# 6 0.0000 0.0000 0.0000 0.0000 0.0000 22.1773
#
#
#
# Elastic Compliance Matrix: (Units=1/GPa)
#
#
# Indices 1 2 3 4 5 6 
#
# 1 0.035098 -0.008239 -0.011516 0.000000 0.000000 0.000000
# 2 -0.008239 0.017532 -0.004845 0.000000 0.000000 0.000000
# 3 -0.011516 -0.004845 0.016940 0.000000 0.000000 0.000000
# 4 0.000000 0.000000 0.000000 0.052237 0.000000 0.000000
# 5 0.000000 0.000000 0.000000 0.000000 0.041667 0.000000
# 6 0.000000 0.000000 0.000000 0.000000 0.000000 0.045091
#
#
# Mechanical properties :
#
#
# Convention : Reuss Voigt Hill
#
# Bulk Modulus (GPa) = 49.09026 57.35350 53.22188
# Shear Modulus (GPa) = 18.89958 20.50227 19.70092
#
# Velocity S-wave (km/s) = 3.32289 3.46091 3.39260
# Velocity P-wave (km/s) = 6.58800 7.03404 6.81467
#
# Compressibility (1/GPa) = 0.02037064
#
# Stress axis : x y z
#
# Youngs Moduli (GPa) = 28.49159 57.03724 59.03158
#
# Poissons Ratio (x) = 0.46994 0.67980
# Poissons Ratio (y) = 0.23475 0.28600
# Poissons Ratio (z) = 0.32811 0.27634
#
# Static dielectric constant tensor:
#      x y z
#    x 2.980530 0.000000 0.000000 
#    y 0.000000 3.046920 0.000000 
#    z 0.000000 0.000000 3.421200 
# 
# 
# High freq. dielectric constant tensor:
#      x y z
#    x 1.645000 0.000000 0.000000 
#    y 0.000000 1.640220 0.000000 
#    z 0.000000 0.000000 1.664520 
# 
# From -- ./inp_files/9919.got.cif
#   From: 2010.03.12/outbox.cif.g09.slc.cpg/sg47_5_cif.got.tgz:9919.got - 2010.04.14 03:12:58.
