data_PCOD8197859
_publ_section_title
;
Structure prediction by ZEFSAII (Michael W. Deem and Ramdas Pophale) SiO2 
 PCOD8197859
Probable space group: P M M M
;
_chemical_formula_sum "Si O2"
_cell_formula_units_Z 52
_cell_length_a 11.652206
_cell_length_b 28.179630
_cell_length_c 8.999513
_cell_angle_alpha 90.000000
_cell_angle_beta 90.000000
_cell_angle_gamma 90.000000
_cell_volume 2955.033775
_symmetry_space_group_name_H-M "P M M M"
_symmetry_group_IT_number 47
_symmetry_cell_setting 'orthorhombic'
loop_
_space_group_symop_operation_xyz
x,y,z
-x,-y,z
x,-y,-z
-x,y,-z
-x,-y,-z
x,y,-z
-x,y,z
x,-y,z
loop_
_atom_site_type_symbol
_atom_site_label
_atom_site_fract_x
_atom_site_fract_y
_atom_site_fract_z
Si Si1 0.500000 0.287942 0.825687
Si Si2 0.751242 0.594321 0.671039
Si Si3 0.500000 0.617937 0.666594
Si Si4 0.870345 0.500000 0.676738
Si Si5 0.867181 0.682751 0.825890
Si Si6 0.370154 0.856222 0.326676
Si Si7 0.636318 0.948443 0.831841
Si Si8 0.279982 0.756370 0.675468
O O1 0.500000 0.343761 0.796918
O O2 0.610646 0.267203 0.748300
O O3 0.500000 0.276876 0.000000
O O4 0.788170 0.602209 0.500000
O O5 0.614378 0.586423 0.685336
O O6 0.809264 0.547206 0.738881
O O7 0.791519 0.639969 0.762524
O O8 0.500000 0.641067 0.500000
O O9 0.863087 0.500000 0.500000
O O10 0.000000 0.500000 0.735270
O O11 0.832511 0.732365 0.747045
O O12 0.000000 0.672724 0.792153
O O13 0.842345 0.687522 0.000000
O O14 0.377738 0.864216 0.500000
O O15 0.500000 0.846408 0.265326
O O16 0.313841 0.903977 0.259338
O O17 0.286013 0.812478 0.287573
O O18 0.500000 0.947064 0.822052
O O19 0.678882 0.000000 0.769941
O O20 0.678475 0.942755 0.000000
O O21 0.281361 0.747040 0.500000
#
# Coordination Sequence:
#
# PCOD8197859 Si02
#       8
#     4   8   4   4   8   8   8   8
#     4  12  22  32  51  77 106 138 169 206 255 303
#     4  10  20  35  57  80 106 137 171 212 256 305
#     4  10  20  33  52  80 108 136 170 208 251 304
#     4   9  18  33  54  80 105 135 180 222 253 298
#     4  11  24  39  54  76 104 133 171 214 257 309
#     4   9  17  28  42  64  94 126 163 207 249 293
#     4   8  14  24  37  56  86 125 167 206 243 290
#     4  11  21  35  53  74 103 135 173 214 254 306
#
# _framework density 17.597090000000001
#
# number of rings (size 3 to 8) (size 9 to 14) (size 15 to 20)
#    0.000    2.077    2.308    2.538    0.000    3.692 
#    0.000    3.462    0.000    1.385    0.000    1.615 
#    0.000    0.615    0.000    6.769    0.000    5.231 
#
# Total GULP energy -644594.621188 kJ/mol
# GULP energy per Si atom -12396.050407 kJ/mol
# Density = 1.755704 g / cm^3
# Si number density = 17.597090 Si / 1000 Ang^3
#
#
#
# Elastic Constant Matrix: (Units=GPa)
#
#
# Indices 1 2 3 4 5 6 
#
# 1 84.8344 46.9971 32.1753 0.0000 0.0000 0.0000
# 2 46.9971 147.0232 47.9509 0.0000 0.0000 0.0000
# 3 32.1753 47.9509 65.2206 0.0000 0.0000 0.0000
# 4 0.0000 0.0000 0.0000 9.9303 0.0000 0.0000
# 5 0.0000 0.0000 0.0000 0.0000 21.5007 0.0000
# 6 0.0000 0.0000 0.0000 0.0000 0.0000 17.3628
#
#
#
# Elastic Compliance Matrix: (Units=1/GPa)
#
#
# Indices 1 2 3 4 5 6 
#
# 1 0.015604 -0.003259 -0.005302 0.000000 0.000000 0.000000
# 2 -0.003259 0.009628 -0.005471 0.000000 0.000000 0.000000
# 3 -0.005302 -0.005471 0.021970 0.000000 0.000000 0.000000
# 4 0.000000 0.000000 0.000000 0.100702 0.000000 0.000000
# 5 0.000000 0.000000 0.000000 0.000000 0.046510 0.000000
# 6 0.000000 0.000000 0.000000 0.000000 0.000000 0.057594
#
#
# Mechanical properties :
#
#
# Convention : Reuss Voigt Hill
#
# Bulk Modulus (GPa) = 52.24944 61.25830 56.75387
# Shear Modulus (GPa) = 17.45503 21.08910 19.27206
#
# Velocity S-wave (km/s) = 3.15290 3.46561 3.31295
# Velocity P-wave (km/s) = 6.55827 7.13450 6.85245
#
# Compressibility (1/GPa) = 0.01913896
#
# Stress axis : x y z
#
# Youngs Moduli (GPa) = 64.08679 103.86875 45.51590
#
# Poissons Ratio (x) = 0.33847 0.24133
# Poissons Ratio (y) = 0.20884 0.24900
# Poissons Ratio (z) = 0.33979 0.56823
#
# Static dielectric constant tensor:
#      x y z
#    x 2.958150 0.000000 0.000000 
#    y 0.000000 3.649030 0.000000 
#    z 0.000000 0.000000 3.221530 
# 
# 
# High freq. dielectric constant tensor:
#      x y z
#    x 1.645410 0.000000 0.000000 
#    y 0.000000 1.686070 0.000000 
#    z 0.000000 0.000000 1.672600 
# 
# From -- ./inp_files/4608.got.cif
#   From: 2010.03.12/outbox.cif.g09.slc.cpg/sg47_3_cif.got.tgz:4608.got - 2010.04.14 03:12:58.
