data_PCOD8197427
_publ_section_title
;
Structure prediction by ZEFSAII (Michael W. Deem and Ramdas Pophale) SiO2 
 PCOD8197427
Probable space group: P M M M
;
_chemical_formula_sum "Si O2"
_cell_formula_units_Z 56
_cell_length_a 14.169703
_cell_length_b 15.767704
_cell_length_c 14.184973
_cell_angle_alpha 90.000000
_cell_angle_beta 90.000000
_cell_angle_gamma 90.000000
_cell_volume 3169.258906
_symmetry_space_group_name_H-M "P M M M"
_symmetry_group_IT_number 47
_symmetry_cell_setting 'orthorhombic'
loop_
_space_group_symop_operation_xyz
x,y,z
-x,-y,z
x,-y,-z
-x,y,-z
-x,-y,-z
x,y,-z
-x,y,z
x,-y,z
loop_
_atom_site_type_symbol
_atom_site_label
_atom_site_fract_x
_atom_site_fract_y
_atom_site_fract_z
Si Si1 0.295831 0.905567 0.108478
Si Si2 0.279313 0.595414 0.109094
Si Si3 0.103917 0.172338 0.893541
Si Si4 0.395550 0.325563 0.395278
Si Si5 0.200429 0.596719 0.606011
Si Si6 0.607155 0.748114 0.797953
Si Si7 0.108113 0.656887 0.214057
O O1 0.182779 0.899062 0.122225
O O2 0.347341 0.835817 0.170504
O O3 0.326379 0.000000 0.140539
O O4 0.323746 0.890263 0.000000
O O5 0.320315 0.500000 0.122726
O O6 0.343215 0.664486 0.161074
O O7 0.173889 0.595587 0.151976
O O8 0.274614 0.620351 0.000000
O O9 0.122692 0.247592 0.820653
O O10 0.000000 0.132275 0.876651
O O11 0.111138 0.209331 0.000000
O O12 0.385389 0.284483 0.500000
O O13 0.500000 0.368551 0.385296
O O14 0.313434 0.394633 0.379487
O O15 0.385397 0.252976 0.315820
O O16 0.171676 0.623180 0.500000
O O17 0.173538 0.500000 0.626561
O O18 0.140917 0.655117 0.676936
O O19 0.500000 0.746040 0.833680
O O20 0.000000 0.626945 0.203867
#
# Coordination Sequence:
#
# PCOD8197427 Si02
#       7
#     8   8   8   8   8   8   8
#     4  10  20  34  54  80 109 141 177 215 259 316
#     4  11  23  37  53  75 104 140 185 226 260 307
#     4   9  17  31  53  78 103 134 173 217 265 314
#     4   9  18  33  55  80 101 128 171 219 267 319
#     4  10  20  33  49  71 102 137 174 221 273 320
#     4  11  22  37  57  78 107 143 174 216 271 318
#     4  11  21  34  53  74 101 139 180 219 264 315
#
# _framework density 17.669744999999999
#
# number of rings (size 3 to 8) (size 9 to 14) (size 15 to 20)
#    0.000    1.857    2.857    1.286    0.000    4.571 
#    0.000    7.143    0.000    0.429    0.000    2.000 
#    0.000    0.000    0.000   12.286    0.000    0.286 
#
# Total GULP energy -694112.891986 kJ/mol
# GULP energy per Si atom -12394.873071 kJ/mol
# Density = 1.762953 g / cm^3
# Si number density = 17.669745 Si / 1000 Ang^3
#
#
#
# Elastic Constant Matrix: (Units=GPa)
#
#
# Indices 1 2 3 4 5 6 
#
# 1 102.7841 41.9092 41.6901 0.0000 0.0000 0.0000
# 2 41.9092 87.8355 44.7398 0.0000 0.0000 0.0000
# 3 41.6901 44.7398 109.2048 0.0000 0.0000 0.0000
# 4 0.0000 0.0000 0.0000 12.3816 0.0000 0.0000
# 5 0.0000 0.0000 0.0000 0.0000 26.6731 0.0000
# 6 0.0000 0.0000 0.0000 0.0000 0.0000 13.1036
#
#
#
# Elastic Compliance Matrix: (Units=1/GPa)
#
#
# Indices 1 2 3 4 5 6 
#
# 1 0.012821 -0.004580 -0.003018 0.000000 0.000000 0.000000
# 2 -0.004580 0.016023 -0.004816 0.000000 0.000000 0.000000
# 3 -0.003018 -0.004816 0.012282 0.000000 0.000000 0.000000
# 4 0.000000 0.000000 0.000000 0.080765 0.000000 0.000000
# 5 0.000000 0.000000 0.000000 0.000000 0.037491 0.000000
# 6 0.000000 0.000000 0.000000 0.000000 0.000000 0.076315
#
#
# Mechanical properties :
#
#
# Convention : Reuss Voigt Hill
#
# Bulk Modulus (GPa) = 61.35664 61.83363 61.59514
# Shear Modulus (GPa) = 18.79995 21.86400 20.33197
#
# Velocity S-wave (km/s) = 3.26538 3.52144 3.39583
# Velocity P-wave (km/s) = 7.00118 7.18360 7.09297
#
# Compressibility (1/GPa) = 0.01629815
#
# Stress axis : x y z
#
# Youngs Moduli (GPa) = 77.99879 62.40925 81.41720
#
# Poissons Ratio (x) = 0.28583 0.24573
# Poissons Ratio (y) = 0.35722 0.39211
# Poissons Ratio (z) = 0.23541 0.30057
#
# Static dielectric constant tensor:
#      x y z
#    x 3.501940 0.000000 0.000000 
#    y 0.000000 2.950960 0.000000 
#    z 0.000000 0.000000 3.480730 
# 
# 
# High freq. dielectric constant tensor:
#      x y z
#    x 1.695010 0.000000 0.000000 
#    y 0.000000 1.647770 0.000000 
#    z 0.000000 0.000000 1.686980 
# 
# From -- ./inp_files/23810.got.cif
#   From: 2010.03.12/outbox.cif.g09.slc.cpg/sg47_12_cif.got.tgz:23810.got - 2010.04.14 03:12:58.
