data_PCOD8197352
_publ_section_title
;
Structure prediction by ZEFSAII (Michael W. Deem and Ramdas Pophale) SiO2 
 PCOD8197352
Probable space group: P M M M
;
_chemical_formula_sum "Si O2"
_cell_formula_units_Z 48
_cell_length_a 9.079872
_cell_length_b 9.555118
_cell_length_c 31.534301
_cell_angle_alpha 90.000000
_cell_angle_beta 90.000000
_cell_angle_gamma 90.000000
_cell_volume 2735.892253
_symmetry_space_group_name_H-M "P M M M"
_symmetry_group_IT_number 47
_symmetry_cell_setting 'orthorhombic'
loop_
_space_group_symop_operation_xyz
x,y,z
-x,-y,z
x,-y,-z
-x,y,-z
-x,-y,-z
x,y,-z
-x,y,z
x,-y,z
loop_
_atom_site_type_symbol
_atom_site_label
_atom_site_fract_x
_atom_site_fract_y
_atom_site_fract_z
Si Si1 0.324954 0.157252 0.453267
Si Si2 0.327035 0.338492 0.791787
Si Si3 0.327539 0.662353 0.624270
Si Si4 0.829659 0.166694 0.863323
Si Si5 0.833958 0.333669 0.707647
Si Si6 0.825401 0.156398 0.955196
O O1 0.268871 0.205392 0.500000
O O2 0.500000 0.162468 0.452774
O O3 0.262583 0.259109 0.416974
O O4 0.269963 0.000000 0.443913
O O5 0.500000 0.320739 0.785949
O O6 0.284054 0.500000 0.800238
O O7 0.273442 0.244932 0.830478
O O8 0.250661 0.280129 0.749256
O O9 0.500000 0.689843 0.630583
O O10 0.292760 0.500000 0.617550
O O11 0.246377 0.723733 0.665650
O O12 0.777073 0.223718 0.910178
O O13 0.000000 0.205340 0.854586
O O14 0.807060 0.000000 0.860146
O O15 0.830235 0.500000 0.706714
O O16 0.000000 0.275647 0.708822
O O17 0.000000 0.148482 0.953788
O O18 0.761023 0.000000 0.956779
O O19 0.775828 0.232742 0.000000
#
# Coordination Sequence:
#
# PCOD8197352 Si02
#       6
#     8   8   8   8   8   8
#     4   8  14  25  41  62  89 119 147 174 208 253
#     4  10  20  33  49  68  91 122 159 193 227 274
#     4   9  16  26  43  67  90 110 139 182 223 256
#     4   9  17  29  47  72  98 121 149 189 234 276
#     4   9  17  30  48  67  87 114 148 185 226 271
#     4   7  10  19  38  64  91 117 146 182 224 268
#
# _framework density 17.544550000000001
#
# number of rings (size 3 to 8) (size 9 to 14) (size 15 to 20)
#    0.000    3.333    0.000    3.000    0.000    3.667 
#    0.000    2.500    0.000    5.000    0.000    9.333 
#    0.000    0.000    0.000    0.000    0.000    0.000 
#
# Total GULP energy -594632.228582 kJ/mol
# GULP energy per Si atom -12388.171429 kJ/mol
# Density = 1.750462 g / cm^3
# Si number density = 17.544550 Si / 1000 Ang^3
#
#
#
# Elastic Constant Matrix: (Units=GPa)
#
#
# Indices 1 2 3 4 5 6 
#
# 1 56.2348 23.5031 53.7542 0.0000 0.0000 0.0000
# 2 23.5031 38.3002 53.2367 0.0000 0.0000 0.0000
# 3 53.7542 53.2367 199.9820 0.0000 0.0000 0.0000
# 4 0.0000 0.0000 0.0000 25.2694 0.0000 0.0000
# 5 0.0000 0.0000 0.0000 0.0000 23.9768 0.0000
# 6 0.0000 0.0000 0.0000 0.0000 0.0000 15.5528
#
#
#
# Elastic Compliance Matrix: (Units=1/GPa)
#
#
# Indices 1 2 3 4 5 6 
#
# 1 0.026121 -0.009953 -0.004372 0.000000 0.000000 0.000000
# 2 -0.009953 0.045237 -0.009367 0.000000 0.000000 0.000000
# 3 -0.004372 -0.009367 0.008669 0.000000 0.000000 0.000000
# 4 0.000000 0.000000 0.000000 0.039574 0.000000 0.000000
# 5 0.000000 0.000000 0.000000 0.000000 0.041707 0.000000
# 6 0.000000 0.000000 0.000000 0.000000 0.000000 0.064297
#
#
# Mechanical properties :
#
#
# Convention : Reuss Voigt Hill
#
# Bulk Modulus (GPa) = 30.63322 61.72275 46.17798
# Shear Modulus (GPa) = 17.61368 23.89467 20.75418
#
# Velocity S-wave (km/s) = 3.17194 3.69445 3.44312
# Velocity P-wave (km/s) = 5.55995 7.31133 6.49495
#
# Compressibility (1/GPa) = 0.03264430
#
# Stress axis : x y z
#
# Youngs Moduli (GPa) = 38.28312 22.10560 115.35086
#
# Poissons Ratio (x) = 0.22001 0.50429
# Poissons Ratio (y) = 0.38102 1.08053
# Poissons Ratio (z) = 0.16736 0.20707
#
# Static dielectric constant tensor:
#      x y z
#    x 2.947830 0.000000 0.000000 
#    y 0.000000 2.920220 0.000000 
#    z 0.000000 0.000000 3.862120 
# 
# 
# High freq. dielectric constant tensor:
#      x y z
#    x 1.642730 0.000000 0.000000 
#    y 0.000000 1.630890 0.000000 
#    z 0.000000 0.000000 1.706040 
# 
# From -- ./inp_files/2524.got.cif
#   From: 2010.03.12/outbox.cif.g09.slc.cpg/sg47_2_cif.got.tgz:2524.got - 2010.04.14 03:12:58.
