data_PCOD8197161
_publ_section_title
;
Structure prediction by ZEFSAII (Michael W. Deem and Ramdas Pophale) SiO2 
 PCOD8197161
Probable space group: P M M M
;
_chemical_formula_sum "Si O2"
_cell_formula_units_Z 64
_cell_length_a 8.861767
_cell_length_b 20.575723
_cell_length_c 18.604168
_cell_angle_alpha 90.000000
_cell_angle_beta 90.000000
_cell_angle_gamma 90.000000
_cell_volume 3392.233075
_symmetry_space_group_name_H-M "P M M M"
_symmetry_group_IT_number 47
_symmetry_cell_setting 'orthorhombic'
loop_
_space_group_symop_operation_xyz
x,y,z
-x,-y,z
x,-y,-z
-x,y,-z
-x,-y,-z
x,y,-z
-x,y,z
x,-y,z
loop_
_atom_site_type_symbol
_atom_site_label
_atom_site_fract_x
_atom_site_fract_y
_atom_site_fract_z
Si Si1 0.820636 0.191265 0.418409
Si Si2 0.679303 0.428179 0.919546
Si Si3 0.820614 0.072120 0.325666
Si Si4 0.678696 0.690925 0.827599
Si Si5 0.174208 0.425313 0.582992
Si Si6 0.179273 0.804645 0.918640
Si Si7 0.820726 0.071417 0.164468
Si Si8 0.677124 0.310955 0.662746
O O1 0.762160 0.189269 0.500000
O O2 0.755034 0.127227 0.378593
O O3 0.761530 0.255824 0.381259
O O4 0.000000 0.192641 0.415134
O O5 0.500000 0.428384 0.918418
O O6 0.739097 0.500000 0.897689
O O7 0.742052 0.375364 0.863443
O O8 0.735840 0.410499 0.000000
O O9 0.762104 0.086922 0.245033
O O10 0.000000 0.074151 0.327385
O O11 0.765649 0.000000 0.350020
O O12 0.500000 0.695452 0.835631
O O13 0.751695 0.750752 0.867999
O O14 0.730108 0.692355 0.745194
O O15 0.211096 0.410924 0.500000
O O16 0.209973 0.500000 0.601593
O O17 0.280190 0.381368 0.632249
O O18 0.000000 0.409185 0.598866
O O19 0.239341 0.874478 0.890671
O O20 0.000000 0.800718 0.914097
O O21 0.236517 0.795118 0.000000
O O22 0.000000 0.071386 0.165398
O O23 0.762303 0.000000 0.140096
O O24 0.500000 0.300305 0.655316
#
# Coordination Sequence:
#
# PCOD8197161 Si02
#       8
#     8   8   8   8   8   8   8   8
#     4  10  20  33  51  74 100 133 169 206 255 311
#     4   8  14  27  49  73  93 117 153 194 233 277
#     4   8  14  26  46  72  99 127 163 207 252 300
#     4  10  21  35  51  72  99 133 169 204 246 296
#     4   9  19  37  59  80 103 134 171 208 250 305
#     4  10  20  32  49  75 103 131 166 208 251 295
#     4   8  14  26  45  69  98 131 163 197 243 297
#     4  11  23  35  50  75 104 135 173 215 255 296
#
# _framework density 18.866629
#
# number of rings (size 3 to 8) (size 9 to 14) (size 15 to 20)
#    0.000    2.750    0.000    3.375    0.000    6.000 
#    0.000    4.375    0.000    1.125    0.000    7.000 
#    0.000    0.000    0.000    0.000    0.000    0.000 
#
# Total GULP energy -793421.237454 kJ/mol
# GULP energy per Si atom -12397.206835 kJ/mol
# Density = 1.882369 g / cm^3
# Si number density = 18.866629 Si / 1000 Ang^3
#
#
#
# Elastic Constant Matrix: (Units=GPa)
#
#
# Indices 1 2 3 4 5 6 
#
# 1 11.1930 17.4739 22.0146 0.0000 0.0000 0.0000
# 2 17.4739 141.0841 80.2210 0.0000 0.0000 0.0000
# 3 22.0146 80.2210 136.5547 0.0000 0.0000 0.0000
# 4 0.0000 0.0000 0.0000 44.3567 0.0000 0.0000
# 5 0.0000 0.0000 0.0000 0.0000 17.0269 0.0000
# 6 0.0000 0.0000 0.0000 0.0000 0.0000 6.7606
#
#
#
# Elastic Compliance Matrix: (Units=1/GPa)
#
#
# Indices 1 2 3 4 5 6 
#
# 1 0.134690 -0.006510 -0.017890 0.000000 0.000000 0.000000
# 2 -0.006510 0.010958 -0.005388 0.000000 0.000000 0.000000
# 3 -0.017890 -0.005388 0.013372 0.000000 0.000000 0.000000
# 4 0.000000 0.000000 0.000000 0.022544 0.000000 0.000000
# 5 0.000000 0.000000 0.000000 0.000000 0.058731 0.000000
# 6 0.000000 0.000000 0.000000 0.000000 0.000000 0.147915
#
#
# Mechanical properties :
#
#
# Convention : Reuss Voigt Hill
#
# Bulk Modulus (GPa) = 10.05580 58.69454 34.37517
# Shear Modulus (GPa) = 10.39646 24.90367 17.65006
#
# Velocity S-wave (km/s) = 2.34999 3.63710 3.06194
# Velocity P-wave (km/s) = 3.56438 6.98683 5.54620
#
# Compressibility (1/GPa) = 0.09944510
#
# Stress axis : x y z
#
# Youngs Moduli (GPa) = 7.42448 91.25939 74.78132
#
# Poissons Ratio (x) = 0.59408 1.33782
# Poissons Ratio (y) = 0.04833 0.40291
# Poissons Ratio (z) = 0.13282 0.49169
#
# Static dielectric constant tensor:
#      x y z
#    x 2.976760 0.000000 0.000000 
#    y 0.000000 3.831040 0.000000 
#    z 0.000000 0.000000 3.688660 
# 
# 
# High freq. dielectric constant tensor:
#      x y z
#    x 1.682960 0.000000 0.000000 
#    y 0.000000 1.751590 0.000000 
#    z 0.000000 0.000000 1.737690 
# 
# From -- ./inp_files/27032.got.cif
#   From: 2010.03.12/outbox.cif.g09.slc.cpg/sg47_14_cif.got.tgz:27032.got - 2010.04.14 03:12:58.
