data_PCOD8197036
_publ_section_title
;
Structure prediction by ZEFSAII (Michael W. Deem and Ramdas Pophale) SiO2 
 PCOD8197036
Probable space group: P M M M
;
_chemical_formula_sum "Si O2"
_cell_formula_units_Z 44
_cell_length_a 14.286121
_cell_length_b 7.744761
_cell_length_c 19.761873
_cell_angle_alpha 90.000000
_cell_angle_beta 90.000000
_cell_angle_gamma 90.000000
_cell_volume 2186.504867
_symmetry_space_group_name_H-M "P M M M"
_symmetry_group_IT_number 47
_symmetry_cell_setting 'orthorhombic'
loop_
_space_group_symop_operation_xyz
x,y,z
-x,-y,z
x,-y,-z
-x,y,-z
-x,-y,-z
x,y,-z
-x,y,z
x,-y,z
loop_
_atom_site_type_symbol
_atom_site_label
_atom_site_fract_x
_atom_site_fract_y
_atom_site_fract_z
Si Si1 0.603609 0.699167 0.717517
Si Si2 0.107714 0.000000 0.579900
Si Si3 0.787860 0.304009 0.073627
Si Si4 0.603608 0.195362 0.134305
Si Si5 0.104830 0.704928 0.201011
Si Si6 0.203533 0.702301 0.339336
O O1 0.500000 0.744412 0.687593
O O2 0.609485 0.500000 0.738880
O O3 0.623898 0.804389 0.785483
O O4 0.684352 0.738389 0.662274
O O5 0.157722 0.175351 0.604699
O O6 0.114841 0.000000 0.500000
O O7 0.000000 0.000000 0.604280
O O8 0.821080 0.500000 0.067501
O O9 0.678389 0.304603 0.092551
O O10 0.847464 0.212842 0.133592
O O11 0.804275 0.213993 0.000000
O O12 0.500000 0.271965 0.120274
O O13 0.610390 0.000000 0.108626
O O14 0.105334 0.500000 0.195163
O O15 0.162219 0.759868 0.267018
O O16 0.000000 0.778387 0.207008
O O17 0.181834 0.500000 0.355631
#
# Coordination Sequence:
#
# PCOD8197036 Si02
#       6
#     8   4   8   8   8   8
#     4   9  17  31  55  87 119 149 186 236 288 339
#     4  11  26  44  63  93 126 156 194 235 283 347
#     4  10  20  33  49  70  99 138 182 231 287 340
#     4  10  20  32  48  72 103 141 184 232 286 342
#     4   9  17  31  52  78 106 138 182 232 280 334
#     4  10  20  37  63  91 120 156 196 240 289 340
#
# _framework density 20.123442000000001
#
# number of rings (size 3 to 8) (size 9 to 14) (size 15 to 20)
#    0.000    2.273    1.818    1.091    1.273    3.636 
#    0.000    4.545    0.000    1.091    0.000    3.818 
#    0.000    0.000    0.000    0.000    0.000    0.000 
#
# Total GULP energy -545351.770353 kJ/mol
# GULP energy per Si atom -12394.358417 kJ/mol
# Density = 2.007764 g / cm^3
# Si number density = 20.123442 Si / 1000 Ang^3
#
#
#
# Elastic Constant Matrix: (Units=GPa)
#
#
# Indices 1 2 3 4 5 6 
#
# 1 143.3656 26.3092 54.3947 0.0000 0.0000 0.0000
# 2 26.3092 52.2495 28.5945 0.0000 0.0000 0.0000
# 3 54.3947 28.5945 89.5369 0.0000 0.0000 0.0000
# 4 0.0000 0.0000 0.0000 15.2414 0.0000 0.0000
# 5 0.0000 0.0000 0.0000 0.0000 25.9092 0.0000
# 6 0.0000 0.0000 0.0000 0.0000 0.0000 13.2326
#
#
#
# Elastic Compliance Matrix: (Units=1/GPa)
#
#
# Indices 1 2 3 4 5 6 
#
# 1 0.009219 -0.001911 -0.004991 0.000000 0.000000 0.000000
# 2 -0.001911 0.023589 -0.006372 0.000000 0.000000 0.000000
# 3 -0.004991 -0.006372 0.016235 0.000000 0.000000 0.000000
# 4 0.000000 0.000000 0.000000 0.065611 0.000000 0.000000
# 5 0.000000 0.000000 0.000000 0.000000 0.038596 0.000000
# 6 0.000000 0.000000 0.000000 0.000000 0.000000 0.075571
#
#
# Mechanical properties :
#
#
# Convention : Reuss Voigt Hill
#
# Bulk Modulus (GPa) = 44.45309 55.97209 50.21259
# Shear Modulus (GPa) = 19.02099 22.60022 20.81061
#
# Velocity S-wave (km/s) = 3.07777 3.35487 3.21931
# Velocity P-wave (km/s) = 5.89647 6.54841 6.23097
#
# Compressibility (1/GPa) = 0.02249563
#
# Stress axis : x y z
#
# Youngs Moduli (GPa) = 108.46748 42.39352 61.59365
#
# Poissons Ratio (x) = 0.08102 0.30739
# Poissons Ratio (y) = 0.20729 0.39249
# Poissons Ratio (z) = 0.54131 0.27014
#
# Static dielectric constant tensor:
#      x y z
#    x 4.026260 0.000000 0.000000 
#    y 0.000000 3.386410 0.000000 
#    z 0.000000 0.000000 3.400230 
# 
# 
# High freq. dielectric constant tensor:
#      x y z
#    x 1.799300 0.000000 0.000000 
#    y 0.000000 1.766920 0.000000 
#    z 0.000000 0.000000 1.746230 
# 
# From -- ./inp_files/6105.got.cif
#   From: 2010.03.12/outbox.cif.g09.slc.cpg/sg47_4_cif.got.tgz:6105.got - 2010.04.14 03:12:58.
