data_PCOD8197929
_publ_section_title
;
Structure prediction by ZEFSAII (Michael W. Deem and Ramdas Pophale) SiO2 
 PCOD8197929
Probable space group: P M M M
;
_chemical_formula_sum "Si O2"
_cell_formula_units_Z 64
_cell_length_a 23.721737
_cell_length_b 9.574308
_cell_length_c 14.538795
_cell_angle_alpha 90.000000
_cell_angle_beta 90.000000
_cell_angle_gamma 90.000000
_cell_volume 3302.039727
_symmetry_space_group_name_H-M "P M M M"
_symmetry_group_IT_number 47
_symmetry_cell_setting 'orthorhombic'
loop_
_space_group_symop_operation_xyz
x,y,z
-x,-y,z
x,-y,-z
-x,y,-z
-x,-y,-z
x,y,-z
-x,y,z
x,-y,z
loop_
_atom_site_type_symbol
_atom_site_label
_atom_site_fract_x
_atom_site_fract_y
_atom_site_fract_z
Si Si1 0.657330 0.350878 0.397479
Si Si2 0.671049 0.656360 0.105236
Si Si3 0.143834 0.161589 0.273178
Si Si4 0.562500 0.151653 0.638594
Si Si5 0.066467 0.339877 0.396144
Si Si6 0.249598 0.155030 0.608837
Si Si7 0.436695 0.157585 0.855417
Si Si8 0.777661 0.163368 0.892959
O O1 0.679194 0.376675 0.500000
O O2 0.651611 0.500000 0.345970
O O3 0.597781 0.275815 0.404074
O O4 0.703059 0.255260 0.345974
O O5 0.668674 0.500000 0.151097
O O6 0.610742 0.733760 0.112562
O O7 0.723165 0.749757 0.143507
O O8 0.684875 0.635182 0.000000
O O9 0.091801 0.252780 0.310107
O O10 0.190405 0.195558 0.349323
O O11 0.168383 0.202786 0.171818
O O12 0.125375 0.000000 0.273176
O O13 0.500000 0.170052 0.599570
O O14 0.562832 0.160611 0.746969
O O15 0.586387 0.000000 0.607254
O O16 0.084082 0.288362 0.500000
O O17 0.085622 0.500000 0.384428
O O18 0.000000 0.325512 0.386041
O O19 0.245542 0.168979 0.500000
O O20 0.267236 0.000000 0.639059
O O21 0.500000 0.199933 0.890785
O O22 0.422608 0.000000 0.890567
O O23 0.762956 0.000000 0.879350
O O24 0.792926 0.194659 0.000000
#
# Coordination Sequence:
#
# PCOD8197929 Si02
#       8
#     8   8   8   8   8   8   8   8
#     4  10  21  34  47  67  95 125 158 200 252 308
#     4  10  21  35  51  74 103 132 165 210 265 324
#     4  10  20  33  55  85 110 142 188 232 271 311
#     4   9  19  35  52  68  87 116 157 203 250 304
#     4   9  19  36  57  84 121 160 191 221 264 320
#     4   9  18  32  48  70 103 136 167 210 261 312
#     4   9  19  35  53  72  94 123 162 208 259 321
#     4   9  19  36  55  77 109 147 186 229 276 325
#
# _framework density 19.381958999999998
#
# number of rings (size 3 to 8) (size 9 to 14) (size 15 to 20)
#    0.000    2.625    0.000    2.250    1.750    5.000 
#    0.000    5.625    0.000    0.375    0.000    2.625 
#    0.000    0.000    0.000    0.000    0.000    0.000 
#
# Total GULP energy -792859.887874 kJ/mol
# GULP energy per Si atom -12388.435748 kJ/mol
# Density = 1.933784 g / cm^3
# Si number density = 19.381959 Si / 1000 Ang^3
#
#
#
# Elastic Constant Matrix: (Units=GPa)
#
#
# Indices 1 2 3 4 5 6 
#
# 1 79.6647 57.0603 34.5486 0.0000 0.0000 0.0000
# 2 57.0603 118.2988 29.6103 0.0000 0.0000 0.0000
# 3 34.5486 29.6103 61.8412 0.0000 0.0000 0.0000
# 4 0.0000 0.0000 0.0000 11.0483 0.0000 0.0000
# 5 0.0000 0.0000 0.0000 0.0000 31.7227 0.0000
# 6 0.0000 0.0000 0.0000 0.0000 0.0000 -6.6851
#
#
#
# Elastic Compliance Matrix: (Units=1/GPa)
#
#
# Indices 1 2 3 4 5 6 
#
# 1 0.022423 -0.008726 -0.008349 0.000000 0.000000 0.000000
# 2 -0.008726 0.013000 -0.001350 0.000000 0.000000 0.000000
# 3 -0.008349 -0.001350 0.021481 0.000000 0.000000 0.000000
# 4 0.000000 0.000000 0.000000 0.090512 0.000000 0.000000
# 5 0.000000 0.000000 0.000000 0.000000 0.031523 0.000000
# 6 0.000000 0.000000 0.000000 0.000000 0.000000 -0.149587
#
#
# Mechanical properties :
#
#
# Convention : Reuss Voigt Hill
#
# Bulk Modulus (GPa) = 49.86295 55.80482 52.83388
# Shear Modulus (GPa) = 68.59993 16.45622 42.52808
#
# Velocity S-wave (km/s) = 5.95572 2.91700 4.68932
# Velocity P-wave (km/s) = 8.54847 6.34034 7.52583
#
# Compressibility (1/GPa) = 0.02005497
#
# Stress axis : x y z
#
# Youngs Moduli (GPa) = 44.59621 76.92400 46.55265
#
# Poissons Ratio (x) = 0.67123 0.38868
# Poissons Ratio (y) = 0.38914 0.06283
# Poissons Ratio (z) = 0.37234 0.10382
#
# Static dielectric constant tensor:
#      x y z
#    x 3.519120 0.000000 0.000000 
#    y 0.000000 3.959240 0.000000 
#    z 0.000000 0.000000 3.546270 
# 
# 
# High freq. dielectric constant tensor:
#      x y z
#    x 1.732800 0.000000 0.000000 
#    y 0.000000 1.755190 0.000000 
#    z 0.000000 0.000000 1.750510 
# 
# From -- ./inp_files/7814.got.cif
#   From: 2010.03.12/outbox.cif.g09.slc.cpg/sg47_4_cif.got.tgz:7814.got - 2010.04.14 03:12:58.
