data_PCOD8197498
_publ_section_title
;
Structure prediction by ZEFSAII (Michael W. Deem and Ramdas Pophale) SiO2 
 PCOD8197498
Probable space group: P M M M
;
_chemical_formula_sum "Si O2"
_cell_formula_units_Z 52
_cell_length_a 9.201236
_cell_length_b 10.304879
_cell_length_c 30.602297
_cell_angle_alpha 90.000000
_cell_angle_beta 90.000000
_cell_angle_gamma 90.000000
_cell_volume 2901.637079
_symmetry_space_group_name_H-M "P M M M"
_symmetry_group_IT_number 47
_symmetry_cell_setting 'orthorhombic'
loop_
_space_group_symop_operation_xyz
x,y,z
-x,-y,z
x,-y,-z
-x,y,-z
-x,-y,-z
x,y,-z
-x,y,z
x,-y,z
loop_
_atom_site_type_symbol
_atom_site_label
_atom_site_fract_x
_atom_site_fract_y
_atom_site_fract_z
Si Si1 0.329596 0.649213 0.205872
Si Si2 0.162586 0.346258 0.293100
Si Si3 0.662551 0.000000 0.551555
Si Si4 0.837160 0.153900 0.047767
Si Si5 0.328966 0.148477 0.867784
Si Si6 0.171404 0.255129 0.550493
Si Si7 0.340087 0.646422 0.626461
O O1 0.500000 0.663317 0.215210
O O2 0.292205 0.500000 0.192468
O O3 0.245610 0.692644 0.249165
O O4 0.276763 0.750315 0.169028
O O5 0.153147 0.500000 0.297879
O O6 0.249299 0.284944 0.334524
O O7 0.000000 0.287120 0.292275
O O8 0.755318 0.122489 0.566876
O O9 0.500000 0.000000 0.572064
O O10 0.649778 0.000000 0.500000
O O11 0.734518 0.202906 0.086654
O O12 0.000000 0.205376 0.056412
O O13 0.836429 0.000000 0.047232
O O14 0.782559 0.204357 0.000000
O O15 0.500000 0.151418 0.872601
O O16 0.276809 0.000000 0.857269
O O17 0.206142 0.287562 0.500000
O O18 0.247309 0.359881 0.581496
O O19 0.000000 0.249305 0.558359
O O20 0.500000 0.712519 0.620138
O O21 0.366478 0.500000 0.641081
#
# Coordination Sequence:
#
# PCOD8197498 Si02
#       7
#     8   8   4   8   8   8   8
#     4   9  17  30  48  68  91 120 154 191 232 282
#     4   9  17  30  49  71  92 116 151 193 232 272
#     4   9  17  31  51  71  91 119 157 195 229 271
#     4   8  14  25  41  62  89 121 156 192 230 274
#     4   9  17  28  44  68  95 121 151 191 236 277
#     4  10  20  33  50  72  98 127 158 195 237 279
#     4  10  20  33  50  72  98 127 158 193 235 284
#
# _framework density 17.920918
#
# number of rings (size 3 to 8) (size 9 to 14) (size 15 to 20)
#    0.000    2.846    0.000    2.077    0.000    5.846 
#    0.000    3.077    1.692    0.462    0.000    3.231 
#    0.000    0.000    0.000    0.000    0.000    0.000 
#
# Total GULP energy -644401.750940 kJ/mol
# GULP energy per Si atom -12392.341364 kJ/mol
# Density = 1.788013 g / cm^3
# Si number density = 17.920918 Si / 1000 Ang^3
#
#
#
# Elastic Constant Matrix: (Units=GPa)
#
#
# Indices 1 2 3 4 5 6 
#
# 1 102.4338 24.2113 73.7257 0.0000 0.0000 0.0000
# 2 24.2113 41.5473 37.5671 0.0000 0.0000 0.0000
# 3 73.7257 37.5671 149.3535 0.0000 0.0000 0.0000
# 4 0.0000 0.0000 0.0000 20.7169 0.0000 0.0000
# 5 0.0000 0.0000 0.0000 0.0000 35.5953 0.0000
# 6 0.0000 0.0000 0.0000 0.0000 0.0000 17.1986
#
#
#
# Elastic Compliance Matrix: (Units=1/GPa)
#
#
# Indices 1 2 3 4 5 6 
#
# 1 0.015375 -0.002715 -0.006907 0.000000 0.000000 0.000000
# 2 -0.002715 0.031634 -0.006617 0.000000 0.000000 0.000000
# 3 -0.006907 -0.006617 0.011769 0.000000 0.000000 0.000000
# 4 0.000000 0.000000 0.000000 0.048270 0.000000 0.000000
# 5 0.000000 0.000000 0.000000 0.000000 0.028094 0.000000
# 6 0.000000 0.000000 0.000000 0.000000 0.000000 0.058144
#
#
# Mechanical properties :
#
#
# Convention : Reuss Voigt Hill
#
# Bulk Modulus (GPa) = 38.02040 62.70475 50.36258
# Shear Modulus (GPa) = 21.31926 25.22420 23.27173
#
# Velocity S-wave (km/s) = 3.45284 3.75577 3.60749
# Velocity P-wave (km/s) = 6.09573 7.33985 6.74653
#
# Compressibility (1/GPa) = 0.02630167
#
# Stress axis : x y z
#
# Youngs Moduli (GPa) = 65.03997 31.61176 84.96644
#
# Poissons Ratio (x) = 0.08581 0.58685
# Poissons Ratio (y) = 0.17655 0.56222
# Poissons Ratio (z) = 0.44922 0.20917
#
# Static dielectric constant tensor:
#      x y z
#    x 3.530760 0.000000 0.000000 
#    y 0.000000 3.053480 0.000000 
#    z 0.000000 0.000000 3.456740 
# 
# 
# High freq. dielectric constant tensor:
#      x y z
#    x 1.703710 0.000000 0.000000 
#    y 0.000000 1.644880 0.000000 
#    z 0.000000 0.000000 1.694420 
# 
# From -- ./inp_files/4581.got.cif
#   From: 2010.03.12/outbox.cif.g09.slc.cpg/sg47_3_cif.got.tgz:4581.got - 2010.04.14 03:12:58.
