data_PCOD8197178
_publ_section_title
;
Structure prediction by ZEFSAII (Michael W. Deem and Ramdas Pophale) SiO2 
 PCOD8197178
Probable space group: P M M M
;
_chemical_formula_sum "Si O2"
_cell_formula_units_Z 44
_cell_length_a 9.126327
_cell_length_b 9.193496
_cell_length_c 28.251124
_cell_angle_alpha 90.000000
_cell_angle_beta 90.000000
_cell_angle_gamma 90.000000
_cell_volume 2370.349841
_symmetry_space_group_name_H-M "P M M M"
_symmetry_group_IT_number 47
_symmetry_cell_setting 'orthorhombic'
loop_
_space_group_symop_operation_xyz
x,y,z
-x,-y,z
x,-y,-z
-x,y,-z
-x,-y,-z
x,y,-z
-x,y,z
x,-y,z
loop_
_atom_site_type_symbol
_atom_site_label
_atom_site_fract_x
_atom_site_fract_y
_atom_site_fract_z
Si Si1 0.670751 0.830535 0.584180
Si Si2 0.329936 0.829857 0.142746
Si Si3 0.173272 0.667928 0.500000
Si Si4 0.669207 0.666733 0.678830
Si Si5 0.171803 0.332561 0.226256
Si Si6 0.674030 0.663600 0.051914
O O1 0.500000 0.803882 0.573380
O O2 0.764852 0.745091 0.546187
O O3 0.713715 0.769546 0.635489
O O4 0.710579 0.000000 0.582048
O O5 0.500000 0.788655 0.149159
O O6 0.240709 0.764492 0.185749
O O7 0.265951 0.767057 0.093378
O O8 0.304297 0.000000 0.141773
O O9 0.222320 0.500000 0.500000
O O10 0.000000 0.683980 0.500000
O O11 0.500000 0.686770 0.692506
O O12 0.703439 0.500000 0.664796
O O13 0.764093 0.717614 0.723458
O O14 0.212718 0.500000 0.216430
O O15 0.000000 0.306276 0.227294
O O16 0.500000 0.668008 0.051555
O O17 0.729267 0.500000 0.061981
O O18 0.731388 0.715430 0.000000
#
# Coordination Sequence:
#
# PCOD8197178 Si02
#       6
#     8   8   4   8   8   8
#     4  10  21  37  58  84 112 141 174 214 261 313
#     4  10  20  32  49  75 105 137 172 211 257 309
#     4  11  24  39  56  80 110 145 184 223 260 302
#     4   9  18  34  56  80 106 138 176 217 260 307
#     4  10  21  36  54  76 103 137 176 217 260 307
#     4   8  14  26  46  72 100 130 166 209 256 305
#
# _framework density 18.562660999999999
#
# number of rings (size 3 to 8) (size 9 to 14) (size 15 to 20)
#    0.000    2.455    0.000    2.727    0.000    6.909 
#    0.000    5.455    0.000    0.545    0.000    3.818 
#    0.000    0.000    0.000    0.000    0.000    0.000 
#
# Total GULP energy -545639.908637 kJ/mol
# GULP energy per Si atom -12400.907014 kJ/mol
# Density = 1.852041 g / cm^3
# Si number density = 18.562661 Si / 1000 Ang^3
#
#
#
# Elastic Constant Matrix: (Units=GPa)
#
#
# Indices 1 2 3 4 5 6 
#
# 1 58.3021 51.0436 64.3069 0.0000 0.0000 0.0000
# 2 51.0436 106.1766 89.5866 0.0000 0.0000 0.0000
# 3 64.3069 89.5866 166.4584 0.0000 0.0000 0.0000
# 4 0.0000 0.0000 0.0000 -31.8580 0.0000 0.0000
# 5 0.0000 0.0000 0.0000 0.0000 -12.5692 0.0000
# 6 0.0000 0.0000 0.0000 0.0000 0.0000 22.7476
#
#
#
# Elastic Compliance Matrix: (Units=1/GPa)
#
#
# Indices 1 2 3 4 5 6 
#
# 1 0.034723 -0.009845 -0.008116 0.000000 0.000000 0.000000
# 2 -0.009845 0.020044 -0.006984 0.000000 0.000000 0.000000
# 3 -0.008116 -0.006984 0.012902 0.000000 0.000000 0.000000
# 4 0.000000 0.000000 0.000000 -0.031389 0.000000 0.000000
# 5 0.000000 0.000000 0.000000 0.000000 -0.079559 0.000000
# 6 0.000000 0.000000 0.000000 0.000000 0.000000 0.043961
#
#
# Mechanical properties :
#
#
# Convention : Reuss Voigt Hill
#
# Bulk Modulus (GPa) = 56.24711 82.31235 69.27973
# Shear Modulus (GPa) = 88.49936 4.06409 46.28172
#
# Velocity S-wave (km/s) = 6.91227 1.48126 4.99868
# Velocity P-wave (km/s) = 9.69912 6.88221 8.40945
#
# Compressibility (1/GPa) = 0.01777869
#
# Stress axis : x y z
#
# Youngs Moduli (GPa) = 28.79916 49.88982 77.50944
#
# Poissons Ratio (x) = 0.49118 0.62905
# Poissons Ratio (y) = 0.28353 0.54134
# Poissons Ratio (z) = 0.23373 0.34844
#
# Static dielectric constant tensor:
#      x y z
#    x 3.182930 0.000000 0.000000 
#    y 0.000000 3.473040 0.000000 
#    z 0.000000 0.000000 3.695600 
# 
# 
# High freq. dielectric constant tensor:
#      x y z
#    x 1.693880 0.000000 0.000000 
#    y 0.000000 1.721300 0.000000 
#    z 0.000000 0.000000 1.737190 
# 
# From -- ./inp_files/33934.got.cif
#   From: 2010.03.12/outbox.cif.g09.slc.cpg/sg47_17_cif.got.tgz:33934.got - 2010.04.14 03:12:58.
