data_PCOD8197927
_publ_section_title
;
Structure prediction by ZEFSAII (Michael W. Deem and Ramdas Pophale) SiO2 
 PCOD8197927
Probable space group: P M M M
;
_chemical_formula_sum "Si O2"
_cell_formula_units_Z 48
_cell_length_a 8.785668
_cell_length_b 19.990281
_cell_length_c 14.809855
_cell_angle_alpha 90.000000
_cell_angle_beta 90.000000
_cell_angle_gamma 90.000000
_cell_volume 2601.024801
_symmetry_space_group_name_H-M "P M M M"
_symmetry_group_IT_number 47
_symmetry_cell_setting 'orthorhombic'
loop_
_space_group_symop_operation_xyz
x,y,z
-x,-y,z
x,-y,-z
-x,y,-z
-x,-y,-z
x,y,-z
-x,y,z
x,-y,z
loop_
_atom_site_type_symbol
_atom_site_label
_atom_site_fract_x
_atom_site_fract_y
_atom_site_fract_z
Si Si1 0.676057 0.830819 0.653422
Si Si2 0.673106 0.575535 0.605795
Si Si3 0.180609 0.078258 0.500000
Si Si4 0.821265 0.693418 0.294510
Si Si5 0.674507 0.849044 0.142050
Si Si6 0.178761 0.714036 0.902731
Si Si7 0.164602 0.075430 0.000000
O O1 0.500000 0.826018 0.624808
O O2 0.760432 0.881797 0.587161
O O3 0.742456 0.755300 0.653270
O O4 0.698737 0.861731 0.752235
O O5 0.699985 0.581773 0.500000
O O6 0.500000 0.594802 0.630567
O O7 0.708465 0.500000 0.637751
O O8 0.788782 0.624874 0.654488
O O9 0.000000 0.080342 0.500000
O O10 0.236251 0.000000 0.500000
O O11 0.757441 0.682670 0.191339
O O12 0.000000 0.708349 0.293739
O O13 0.500000 0.832018 0.120682
O O14 0.779207 0.791275 0.101341
O O15 0.733046 0.913197 0.089031
O O16 0.000000 0.704499 0.903524
O O17 0.242003 0.684657 0.000000
O O18 0.000000 0.114073 0.000000
O O19 0.120392 0.000000 0.000000
#
# Coordination Sequence:
#
# PCOD8197927 Si02
#       7
#     8   8   4   8   8   8   4
#     4  10  22  39  59  82 109 143 181 225 277 330
#     4   9  19  36  56  78 109 150 189 225 272 328
#     4  11  25  43  61  81 106 139 182 231 279 329
#     4  10  20  33  54  85 115 143 181 229 273 318
#     4  10  20  34  53  77 102 130 171 221 267 315
#     4   9  17  31  52  76 105 140 174 212 264 320
#     4  11  23  35  49  71 101 139 174 209 266 331
#
# _framework density 18.454263000000001
#
# number of rings (size 3 to 8) (size 9 to 14) (size 15 to 20)
#    0.000    2.167    0.833    2.500    1.167    5.333 
#    0.000    4.167    0.000    0.500    0.000    3.500 
#    0.000    0.000    0.000    0.000    0.000    0.000 
#
# Total GULP energy -594750.803499 kJ/mol
# GULP energy per Si atom -12390.641740 kJ/mol
# Density = 1.841226 g / cm^3
# Si number density = 18.454263 Si / 1000 Ang^3
#
#
#
# Elastic Constant Matrix: (Units=GPa)
#
#
# Indices 1 2 3 4 5 6 
#
# 1 48.2129 30.4177 36.5963 0.0000 0.0000 0.0000
# 2 30.4177 93.8902 55.3155 0.0000 0.0000 0.0000
# 3 36.5963 55.3155 104.9016 0.0000 0.0000 0.0000
# 4 0.0000 0.0000 0.0000 40.2912 0.0000 0.0000
# 5 0.0000 0.0000 0.0000 0.0000 22.9322 0.0000
# 6 0.0000 0.0000 0.0000 0.0000 0.0000 25.6990
#
#
#
# Elastic Compliance Matrix: (Units=1/GPa)
#
#
# Indices 1 2 3 4 5 6 
#
# 1 0.029819 -0.005123 -0.007701 0.000000 0.000000 0.000000
# 2 -0.005123 0.016331 -0.006824 0.000000 0.000000 0.000000
# 3 -0.007701 -0.006824 0.015818 0.000000 0.000000 0.000000
# 4 0.000000 0.000000 0.000000 0.024819 0.000000 0.000000
# 5 0.000000 0.000000 0.000000 0.000000 0.043607 0.000000
# 6 0.000000 0.000000 0.000000 0.000000 0.000000 0.038912
#
#
# Mechanical properties :
#
#
# Convention : Reuss Voigt Hill
#
# Bulk Modulus (GPa) = 44.10981 54.62928 49.36955
# Shear Modulus (GPa) = 23.13093 26.09617 24.61355
#
# Velocity S-wave (km/s) = 3.54421 3.76453 3.65603
# Velocity P-wave (km/s) = 6.37986 6.96867 6.68076
#
# Compressibility (1/GPa) = 0.02267069
#
# Stress axis : x y z
#
# Youngs Moduli (GPa) = 33.53519 61.23324 63.21977
#
# Poissons Ratio (x) = 0.31372 0.48687
# Poissons Ratio (y) = 0.17181 0.43142
# Poissons Ratio (z) = 0.25826 0.41786
#
# Static dielectric constant tensor:
#      x y z
#    x 3.407020 0.000000 0.000000 
#    y 0.000000 3.155250 0.000000 
#    z 0.000000 0.000000 3.565500 
# 
# 
# High freq. dielectric constant tensor:
#      x y z
#    x 1.721340 0.000000 0.000000 
#    y 0.000000 1.686550 0.000000 
#    z 0.000000 0.000000 1.730250 
# 
# From -- ./inp_files/21038.got.cif
#   From: 2010.03.12/outbox.cif.g09.slc.cpg/sg47_11_cif.got.tgz:21038.got - 2010.04.14 03:12:58.
