data_PCOD8197248
_publ_section_title
;
Structure prediction by ZEFSAII (Michael W. Deem and Ramdas Pophale) SiO2 
 PCOD8197248
Probable space group: P M M M
;
_chemical_formula_sum "Si O2"
_cell_formula_units_Z 52
_cell_length_a 18.609661
_cell_length_b 10.403376
_cell_length_c 14.501895
_cell_angle_alpha 90.000000
_cell_angle_beta 90.000000
_cell_angle_gamma 90.000000
_cell_volume 2807.614737
_symmetry_space_group_name_H-M "P M M M"
_symmetry_group_IT_number 47
_symmetry_cell_setting 'orthorhombic'
loop_
_space_group_symop_operation_xyz
x,y,z
-x,-y,z
x,-y,-z
-x,y,-z
-x,-y,-z
x,y,-z
-x,y,z
x,-y,z
loop_
_atom_site_type_symbol
_atom_site_label
_atom_site_fract_x
_atom_site_fract_y
_atom_site_fract_z
Si Si1 0.917572 0.851983 0.737315
Si Si2 0.583333 0.756294 0.719224
Si Si3 0.303909 0.645736 0.599518
Si Si4 0.348012 0.848973 0.895465
Si Si5 0.185892 0.152029 0.898658
Si Si6 0.415026 0.000000 0.397107
Si Si7 0.853565 0.647549 0.391530
O O1 0.870269 0.799479 0.822956
O O2 0.906881 0.750815 0.654805
O O3 0.000000 0.848431 0.768677
O O4 0.896522 0.000000 0.709863
O O5 0.500000 0.722890 0.703608
O O6 0.633753 0.646935 0.676706
O O7 0.597530 0.775397 0.827494
O O8 0.611029 0.878063 0.660521
O O9 0.328893 0.706118 0.500000
O O10 0.284413 0.500000 0.580234
O O11 0.226879 0.702161 0.631869
O O12 0.266879 0.805518 0.871977
O O13 0.358638 0.000000 0.881018
O O14 0.368165 0.810416 0.000000
O O15 0.184118 0.000000 0.905318
O O16 0.166070 0.208726 0.000000
O O17 0.500000 0.000000 0.403110
O O18 0.381492 0.000000 0.500000
O O19 0.868171 0.652521 0.500000
O O20 0.866619 0.500000 0.355871
#
# Coordination Sequence:
#
# PCOD8197248 Si02
#       7
#     8   8   8   8   8   4   8
#     4  10  20  32  50  80 113 139 165 206 257 305
#     4  11  20  30  47  71 100 133 164 204 257 308
#     4   9  19  36  55  73  94 125 169 216 255 297
#     4   9  17  30  48  70  97 131 172 212 249 296
#     4   8  15  29  49  72  99 134 172 209 252 305
#     4   9  18  30  41  61  97 133 159 190 242 304
#     4   9  19  37  57  74  98 137 181 217 250 298
#
# _framework density 18.521059000000001
#
# number of rings (size 3 to 8) (size 9 to 14) (size 15 to 20)
#    0.000    2.692    0.769    3.231    0.000    2.769 
#    1.385    4.615    0.000    0.923    0.000    6.462 
#    0.000    0.000    0.000    0.000    0.000    0.000 
#
# Total GULP energy -644352.174818 kJ/mol
# GULP energy per Si atom -12391.387977 kJ/mol
# Density = 1.847890 g / cm^3
# Si number density = 18.521059 Si / 1000 Ang^3
#
#
#
# Elastic Constant Matrix: (Units=GPa)
#
#
# Indices 1 2 3 4 5 6 
#
# 1 66.2304 14.3945 28.5376 0.0000 0.0000 0.0000
# 2 14.3945 43.2038 20.7534 0.0000 0.0000 0.0000
# 3 28.5376 20.7534 90.1592 0.0000 0.0000 0.0000
# 4 0.0000 0.0000 0.0000 16.9404 0.0000 0.0000
# 5 0.0000 0.0000 0.0000 0.0000 27.3925 0.0000
# 6 0.0000 0.0000 0.0000 0.0000 0.0000 21.4525
#
#
#
# Elastic Compliance Matrix: (Units=1/GPa)
#
#
# Indices 1 2 3 4 5 6 
#
# 1 0.017984 -0.003663 -0.004849 0.000000 0.000000 0.000000
# 2 -0.003663 0.026769 -0.005003 0.000000 0.000000 0.000000
# 3 -0.004849 -0.005003 0.013778 0.000000 0.000000 0.000000
# 4 0.000000 0.000000 0.000000 0.059030 0.000000 0.000000
# 5 0.000000 0.000000 0.000000 0.000000 0.036506 0.000000
# 6 0.000000 0.000000 0.000000 0.000000 0.000000 0.046615
#
#
# Mechanical properties :
#
#
# Convention : Reuss Voigt Hill
#
# Bulk Modulus (GPa) = 31.74342 36.32938 34.03640
# Shear Modulus (GPa) = 20.98958 22.21760 21.60359
#
# Velocity S-wave (km/s) = 3.37008 3.46726 3.41901
# Velocity P-wave (km/s) = 5.68503 5.97386 5.83123
#
# Compressibility (1/GPa) = 0.03150259
#
# Stress axis : x y z
#
# Youngs Moduli (GPa) = 55.60388 37.35595 72.57945
#
# Poissons Ratio (x) = 0.13682 0.35197
# Poissons Ratio (y) = 0.20365 0.36309
# Poissons Ratio (z) = 0.26965 0.18688
#
# Static dielectric constant tensor:
#      x y z
#    x 3.289750 0.000000 0.000000 
#    y 0.000000 3.108920 0.000000 
#    z 0.000000 0.000000 3.627830 
# 
# 
# High freq. dielectric constant tensor:
#      x y z
#    x 1.714040 0.000000 0.000000 
#    y 0.000000 1.679580 0.000000 
#    z 0.000000 0.000000 1.721190 
# 
# From -- ./inp_files/18586.got.cif
#   From: 2010.03.12/outbox.cif.g09.slc.cpg/sg47_10_cif.got.tgz:18586.got - 2010.04.14 03:12:58.
