data_PCOD8197810
_publ_section_title
;
Structure prediction by ZEFSAII (Michael W. Deem and Ramdas Pophale) SiO2 
 PCOD8197810
Probable space group: P M M M
;
_chemical_formula_sum "Si O2"
_cell_formula_units_Z 44
_cell_length_a 31.885112
_cell_length_b 7.721037
_cell_length_c 9.244510
_cell_angle_alpha 90.000000
_cell_angle_beta 90.000000
_cell_angle_gamma 90.000000
_cell_volume 2275.870136
_symmetry_space_group_name_H-M "P M M M"
_symmetry_group_IT_number 47
_symmetry_cell_setting 'orthorhombic'
loop_
_space_group_symop_operation_xyz
x,y,z
-x,-y,z
x,-y,-z
-x,y,-z
-x,-y,-z
x,y,-z
-x,y,z
x,-y,z
loop_
_atom_site_type_symbol
_atom_site_label
_atom_site_fract_x
_atom_site_fract_y
_atom_site_fract_z
Si Si1 0.080086 0.794870 0.662852
Si Si2 0.546851 0.299154 0.667961
Si Si3 0.836848 0.198953 0.169523
Si Si4 0.682307 0.500000 0.827445
Si Si5 0.000000 0.793201 0.164004
Si Si6 0.625241 0.808390 0.834449
Si Si7 0.775730 0.500000 0.829110
O O1 0.079842 0.718440 0.500000
O O2 0.122376 0.738971 0.743666
O O3 0.040732 0.720402 0.752407
O O4 0.076800 0.000000 0.656980
O O5 0.553373 0.261164 0.500000
O O6 0.500000 0.241802 0.714893
O O7 0.553574 0.500000 0.702929
O O8 0.580798 0.190350 0.754680
O O9 0.799392 0.324912 0.220623
O O10 0.824520 0.000000 0.205677
O O11 0.846704 0.220091 0.000000
O O12 0.658014 0.670009 0.769101
O O13 0.729122 0.500000 0.760709
O O14 0.684867 0.500000 0.000000
O O15 0.000000 0.000000 0.162394
O O16 0.000000 0.721875 0.000000
O O17 0.645132 0.000000 0.818988
O O18 0.616163 0.760714 0.000000
O O19 0.772126 0.500000 0.000000
#
# Coordination Sequence:
#
# PCOD8197810 Si02
#       7
#     8   8   8   4   4   8   4
#     4   9  16  26  42  66  98 134 168 203 246 296
#     4   9  18  33  53  76 103 138 178 216 255 301
#     4   9  17  30  49  73  98 125 162 206 248 292
#     4   9  18  34  52  74 104 131 162 210 260 304
#     4   9  15  23  39  66  99 134 172 209 243 286
#     4  10  20  33  52  78 106 138 174 211 256 309
#     4   9  18  32  53  77  99 127 164 206 253 304
#
# _framework density 19.333262999999999
#
# number of rings (size 3 to 8) (size 9 to 14) (size 15 to 20)
#    0.000    2.818    0.909    1.364    0.000    5.091 
#    0.000    6.818    0.000    2.727    0.000    6.364 
#    0.000    0.000    0.000    0.000    0.000    0.000 
#
# Total GULP energy -545495.548424 kJ/mol
# GULP energy per Si atom -12397.626101 kJ/mol
# Density = 1.928926 g / cm^3
# Si number density = 19.333263 Si / 1000 Ang^3
#
#
#
# Elastic Constant Matrix: (Units=GPa)
#
#
# Indices 1 2 3 4 5 6 
#
# 1 173.4359 67.2524 53.2582 0.0000 0.0000 0.0000
# 2 67.2524 93.2266 27.9833 0.0000 0.0000 0.0000
# 3 53.2582 27.9833 70.8902 0.0000 0.0000 0.0000
# 4 0.0000 0.0000 0.0000 10.7784 0.0000 0.0000
# 5 0.0000 0.0000 0.0000 0.0000 5.9018 0.0000
# 6 0.0000 0.0000 0.0000 0.0000 0.0000 9.2235
#
#
#
# Elastic Compliance Matrix: (Units=1/GPa)
#
#
# Indices 1 2 3 4 5 6 
#
# 1 0.009309 -0.005237 -0.004927 0.000000 0.000000 0.000000
# 2 -0.005237 0.015114 -0.002032 0.000000 0.000000 0.000000
# 3 -0.004927 -0.002032 0.018610 0.000000 0.000000 0.000000
# 4 0.000000 0.000000 0.000000 0.092778 0.000000 0.000000
# 5 0.000000 0.000000 0.000000 0.000000 0.169440 0.000000
# 6 0.000000 0.000000 0.000000 0.000000 0.000000 0.108419
#
#
# Mechanical properties :
#
#
# Convention : Reuss Voigt Hill
#
# Bulk Modulus (GPa) = 53.64109 70.50448 62.07279
# Shear Modulus (GPa) = 11.25427 17.78466 14.51946
#
# Velocity S-wave (km/s) = 2.41533 3.03627 2.74343
# Velocity P-wave (km/s) = 5.96525 6.98850 6.49705
#
# Compressibility (1/GPa) = 0.01864242
#
# Stress axis : x y z
#
# Youngs Moduli (GPa) = 107.41882 66.16286 53.73536
#
# Poissons Ratio (x) = 0.34648 0.26474
# Poissons Ratio (y) = 0.56253 0.10919
# Poissons Ratio (z) = 0.52922 0.13444
#
# Static dielectric constant tensor:
#      x y z
#    x 3.671770 0.000000 0.000000 
#    y 0.000000 3.381430 0.000000 
#    z 0.000000 0.000000 3.360880 
# 
# 
# High freq. dielectric constant tensor:
#      x y z
#    x 1.749560 0.000000 0.000000 
#    y 0.000000 1.743190 0.000000 
#    z 0.000000 0.000000 1.726310 
# 
# From -- ./inp_files/13741.got.cif
#   From: 2010.03.12/outbox.cif.g09.slc.cpg/sg47_7_cif.got.tgz:13741.got - 2010.04.14 03:12:58.
