data_PCOD8197791
_publ_section_title
;
Structure prediction by ZEFSAII (Michael W. Deem and Ramdas Pophale) SiO2 
 PCOD8197791
Probable space group: P M M M
;
_chemical_formula_sum "Si O2"
_cell_formula_units_Z 44
_cell_length_a 33.493244
_cell_length_b 7.872365
_cell_length_c 7.948901
_cell_angle_alpha 90.000000
_cell_angle_beta 90.000000
_cell_angle_gamma 90.000000
_cell_volume 2095.895008
_symmetry_space_group_name_H-M "P M M M"
_symmetry_group_IT_number 47
_symmetry_cell_setting 'orthorhombic'
loop_
_space_group_symop_operation_xyz
x,y,z
-x,-y,z
x,-y,-z
-x,y,-z
-x,-y,-z
x,y,-z
-x,y,z
x,-y,z
loop_
_atom_site_type_symbol
_atom_site_label
_atom_site_fract_x
_atom_site_fract_y
_atom_site_fract_z
Si Si1 0.094897 0.799256 0.685542
Si Si2 0.544079 0.304544 0.696794
Si Si3 0.817960 0.192787 0.199040
Si Si4 0.673434 0.500000 0.798037
Si Si5 0.045309 0.796999 0.000000
Si Si6 0.625805 0.817536 0.806673
Si Si7 0.763412 0.500000 0.800467
O O1 0.082306 0.729871 0.500000
O O2 0.140668 0.749616 0.717819
O O3 0.090406 0.000000 0.689539
O O4 0.066783 0.722639 0.832372
O O5 0.551543 0.281901 0.500000
O O6 0.500000 0.234227 0.745279
O O7 0.546910 0.500000 0.749734
O O8 0.578160 0.204045 0.794394
O O9 0.784991 0.327602 0.263074
O O10 0.805826 0.000000 0.253173
O O11 0.823668 0.201130 0.000000
O O12 0.650675 0.664633 0.721513
O O13 0.718533 0.500000 0.729206
O O14 0.671697 0.500000 0.000000
O O15 0.000000 0.731645 0.000000
O O16 0.047564 0.000000 0.000000
O O17 0.637427 0.000000 0.724419
O O18 0.637946 0.822158 0.000000
O O19 0.762698 0.500000 0.000000
#
# Coordination Sequence:
#
# PCOD8197791 Si02
#       7
#     8   8   8   4   4   8   4
#     4   9  16  27  45  69 101 142 182 224 276 327
#     4   9  18  33  53  76 101 131 171 218 265 312
#     4   9  16  29  49  73 102 132 169 220 270 317
#     4   9  18  34  50  72 107 134 166 218 259 305
#     4   9  16  26  42  69 107 147 188 231 271 322
#     4  10  20  33  52  76 103 140 178 211 256 312
#     4   9  18  30  51  80 102 131 175 214 260 320
#
# _framework density 20.99342
#
# number of rings (size 3 to 8) (size 9 to 14) (size 15 to 20)
#    0.000    2.818    1.818    0.545    0.000    2.182 
#    0.000    8.636    0.000    2.182    0.000    3.818 
#    0.000    1.455    0.000    0.182    0.000    0.000 
#
# Total GULP energy -545296.772093 kJ/mol
# GULP energy per Si atom -12393.108457 kJ/mol
# Density = 2.094564 g / cm^3
# Si number density = 20.993420 Si / 1000 Ang^3
#
#
#
# Elastic Constant Matrix: (Units=GPa)
#
#
# Indices 1 2 3 4 5 6 
#
# 1 166.1486 74.5189 45.5377 0.0000 0.0000 0.0000
# 2 74.5189 125.4739 22.1258 0.0000 0.0000 0.0000
# 3 45.5377 22.1258 60.6615 0.0000 0.0000 0.0000
# 4 0.0000 0.0000 0.0000 4.9263 0.0000 0.0000
# 5 0.0000 0.0000 0.0000 0.0000 6.9371 0.0000
# 6 0.0000 0.0000 0.0000 0.0000 0.0000 12.1729
#
#
#
# Elastic Compliance Matrix: (Units=1/GPa)
#
#
# Indices 1 2 3 4 5 6 
#
# 1 0.009671 -0.004770 -0.005520 0.000000 0.000000 0.000000
# 2 -0.004770 0.010871 -0.000384 0.000000 0.000000 0.000000
# 3 -0.005520 -0.000384 0.020769 0.000000 0.000000 0.000000
# 4 0.000000 0.000000 0.000000 0.202992 0.000000 0.000000
# 5 0.000000 0.000000 0.000000 0.000000 0.144152 0.000000
# 6 0.000000 0.000000 0.000000 0.000000 0.000000 0.082149
#
#
# Mechanical properties :
#
#
# Convention : Reuss Voigt Hill
#
# Bulk Modulus (GPa) = 50.09547 70.73876 60.41711
# Shear Modulus (GPa) = 10.02794 18.81404 14.42099
#
# Velocity S-wave (km/s) = 2.18794 2.99689 2.62378
# Velocity P-wave (km/s) = 5.50427 6.76343 6.16608
#
# Compressibility (1/GPa) = 0.01996188
#
# Stress axis : x y z
#
# Youngs Moduli (GPa) = 103.40023 91.99150 48.14912
#
# Poissons Ratio (x) = 0.43883 0.26579
# Poissons Ratio (y) = 0.49325 0.01849
# Poissons Ratio (z) = 0.57078 0.03532
#
# Static dielectric constant tensor:
#      x y z
#    x 3.827710 0.000000 0.000000 
#    y 0.000000 3.834420 0.000000 
#    z 0.000000 0.000000 3.597000 
# 
# 
# High freq. dielectric constant tensor:
#      x y z
#    x 1.813230 0.000000 0.000000 
#    y 0.000000 1.806630 0.000000 
#    z 0.000000 0.000000 1.795750 
# 
# From -- ./inp_files/13737.got.cif
#   From: 2010.03.12/outbox.cif.g09.slc.cpg/sg47_7_cif.got.tgz:13737.got - 2010.04.14 03:12:58.
