data_PCOD8197468
_publ_section_title
;
Structure prediction by ZEFSAII (Michael W. Deem and Ramdas Pophale) SiO2 
 PCOD8197468
Probable space group: P M M M
;
_chemical_formula_sum "Si O2"
_cell_formula_units_Z 52
_cell_length_a 9.184714
_cell_length_b 33.549334
_cell_length_c 9.409645
_cell_angle_alpha 90.000000
_cell_angle_beta 90.000000
_cell_angle_gamma 90.000000
_cell_volume 2899.497775
_symmetry_space_group_name_H-M "P M M M"
_symmetry_group_IT_number 47
_symmetry_cell_setting 'orthorhombic'
loop_
_space_group_symop_operation_xyz
x,y,z
-x,-y,z
x,-y,-z
-x,y,-z
-x,-y,-z
x,y,-z
-x,y,z
x,-y,z
loop_
_atom_site_type_symbol
_atom_site_label
_atom_site_fract_x
_atom_site_fract_y
_atom_site_fract_z
Si Si1 0.663570 0.043974 0.830969
Si Si2 0.836780 0.881034 0.830864
Si Si3 0.668837 0.802848 0.167355
Si Si4 0.330825 0.422663 0.164927
Si Si5 0.667304 0.654427 0.664740
Si Si6 0.164377 0.500000 0.169111
Si Si7 0.830570 0.734102 0.665826
O O1 0.500000 0.051462 0.774660
O O2 0.768547 0.078119 0.768140
O O3 0.718144 0.000000 0.782150
O O4 0.663168 0.046246 0.000000
O O5 0.740502 0.843928 0.778925
O O6 0.000000 0.876404 0.770583
O O7 0.838481 0.882780 0.000000
O O8 0.500000 0.803702 0.209312
O O9 0.747053 0.766981 0.245370
O O10 0.690954 0.797126 0.000000
O O11 0.500000 0.431081 0.191866
O O12 0.277552 0.383596 0.247640
O O13 0.244167 0.460537 0.226748
O O14 0.296660 0.415614 0.000000
O O15 0.686299 0.644147 0.500000
O O16 0.500000 0.664855 0.701530
O O17 0.766878 0.691385 0.710383
O O18 0.000000 0.500000 0.226009
O O19 0.171906 0.500000 0.000000
O O20 0.803486 0.742286 0.500000
O O21 0.000000 0.735182 0.705094
#
# Coordination Sequence:
#
# PCOD8197468 Si02
#       7
#     8   8   8   8   8   4   8
#     4   8  13  21  33  50  76 113 154 191 228 276
#     4   9  16  25  38  58  86 118 151 191 239 286
#     4  10  20  33  50  71  95 125 161 200 241 286
#     4   9  17  30  49  71  94 122 157 194 229 269
#     4   9  18  33  51  70  94 124 156 191 233 280
#     4   9  17  29  46  69  96 124 154 189 230 274
#     4  10  21  36  53  73  98 128 160 196 241 291
#
# _framework density 17.934139999999999
#
# number of rings (size 3 to 8) (size 9 to 14) (size 15 to 20)
#    0.000    2.846    0.000    2.077    0.000    6.154 
#    0.000    3.462    0.000    2.308    0.000    0.000 
#    0.000    0.615    0.000    6.462    0.000    8.923 
#
# Total GULP energy -644757.919576 kJ/mol
# GULP energy per Si atom -12399.190761 kJ/mol
# Density = 1.789332 g / cm^3
# Si number density = 17.934140 Si / 1000 Ang^3
#
#
#
# Elastic Constant Matrix: (Units=GPa)
#
#
# Indices 1 2 3 4 5 6 
#
# 1 138.7713 106.3104 34.4440 0.0000 0.0000 0.0000
# 2 106.3104 191.3045 47.5547 0.0000 0.0000 0.0000
# 3 34.4440 47.5547 26.5330 0.0000 0.0000 0.0000
# 4 0.0000 0.0000 0.0000 -5.0410 0.0000 0.0000
# 5 0.0000 0.0000 0.0000 0.0000 16.8759 0.0000
# 6 0.0000 0.0000 0.0000 0.0000 0.0000 18.2758
#
#
#
# Elastic Compliance Matrix: (Units=1/GPa)
#
#
# Indices 1 2 3 4 5 6 
#
# 1 0.013276 -0.005579 -0.007235 0.000000 0.000000 0.000000
# 2 -0.005579 0.011772 -0.013856 0.000000 0.000000 0.000000
# 3 -0.007235 -0.013856 0.071915 0.000000 0.000000 0.000000
# 4 0.000000 0.000000 0.000000 -0.198375 0.000000 0.000000
# 5 0.000000 0.000000 0.000000 0.000000 0.059256 0.000000
# 6 0.000000 0.000000 0.000000 0.000000 0.000000 0.054717
#
#
# Mechanical properties :
#
#
# Convention : Reuss Voigt Hill
#
# Bulk Modulus (GPa) = 22.92386 81.46966 52.19676
# Shear Modulus (GPa) = 62.15590 17.24214 39.69902
#
# Velocity S-wave (km/s) = 5.89348 3.10403 4.71000
# Velocity P-wave (km/s) = 7.68901 7.64019 7.66463
#
# Compressibility (1/GPa) = 0.04362267
#
# Stress axis : x y z
#
# Youngs Moduli (GPa) = 75.32423 84.94652 13.90531
#
# Poissons Ratio (x) = 0.47393 0.10060
# Poissons Ratio (y) = 0.42025 0.19268
# Poissons Ratio (z) = 0.54495 1.17704
#
# Static dielectric constant tensor:
#      x y z
#    x 3.472290 0.000000 0.000000 
#    y 0.000000 3.573430 0.000000 
#    z 0.000000 0.000000 2.872010 
# 
# 
# High freq. dielectric constant tensor:
#      x y z
#    x 1.700620 0.000000 0.000000 
#    y 0.000000 1.710840 0.000000 
#    z 0.000000 0.000000 1.640640 
# 
# From -- ./inp_files/15635.got.cif
#   From: 2010.03.12/outbox.cif.g09.slc.cpg/sg47_8_cif.got.tgz:15635.got - 2010.04.14 03:12:58.
