data_PCOD8197035
_publ_section_title
;
Structure prediction by ZEFSAII (Michael W. Deem and Ramdas Pophale) SiO2 
 PCOD8197035
Probable space group: P M M M
;
_chemical_formula_sum "Si O2"
_cell_formula_units_Z 44
_cell_length_a 29.834618
_cell_length_b 7.766833
_cell_length_c 9.244802
_cell_angle_alpha 90.000000
_cell_angle_beta 90.000000
_cell_angle_gamma 90.000000
_cell_volume 2142.210101
_symmetry_space_group_name_H-M "P M M M"
_symmetry_group_IT_number 47
_symmetry_cell_setting 'orthorhombic'
loop_
_space_group_symop_operation_xyz
x,y,z
-x,-y,z
x,-y,-z
-x,y,-z
-x,-y,-z
x,y,-z
-x,y,z
x,-y,z
loop_
_atom_site_type_symbol
_atom_site_label
_atom_site_fract_x
_atom_site_fract_y
_atom_site_fract_z
Si Si1 0.191886 0.201375 0.337000
Si Si2 0.450781 0.795338 0.661554
Si Si3 0.711635 0.696049 0.662589
Si Si4 0.947019 0.500000 0.333102
Si Si5 0.103192 0.201059 0.828953
Si Si6 0.630201 0.803161 0.157088
O O1 0.180141 0.265893 0.500000
O O2 0.237521 0.288064 0.279136
O O3 0.152374 0.252863 0.227913
O O4 0.199990 0.000000 0.336822
O O5 0.445086 0.721638 0.500000
O O6 0.500000 0.742247 0.722750
O O7 0.410862 0.712830 0.757203
O O8 0.446666 0.000000 0.656781
O O9 0.709770 0.772073 0.500000
O O10 0.696210 0.500000 0.665443
O O11 0.677400 0.799261 0.761130
O O12 0.930266 0.500000 0.500000
O O13 0.931322 0.325899 0.252436
O O14 0.000000 0.500000 0.326608
O O15 0.092292 0.000000 0.792892
O O16 0.100831 0.234327 0.000000
O O17 0.617001 0.000000 0.135691
O O18 0.635098 0.713431 0.000000
#
# Coordination Sequence:
#
# PCOD8197035 Si02
#       6
#     8   8   8   4   8   8
#     4   9  18  34  57  84 113 147 188 234 283 336
#     4   8  14  26  46  71  96 124 162 209 261 317
#     4  10  21  35  52  76 105 140 182 225 269 320
#     4  11  25  43  65  93 125 165 213 261 304 353
#     4  10  22  40  63  93 128 164 202 249 307 368
#     4  10  20  32  48  72 102 136 172 213 264 321
#
# _framework density 20.539535000000001
#
# number of rings (size 3 to 8) (size 9 to 14) (size 15 to 20)
#    0.000    2.455    0.000    2.455    1.273    5.455 
#    0.000    5.455    0.000    0.545    0.000    3.818 
#    0.000    0.000    0.000    0.000    0.000    0.000 
#
# Total GULP energy -545415.814210 kJ/mol
# GULP energy per Si atom -12395.813959 kJ/mol
# Density = 2.049279 g / cm^3
# Si number density = 20.539535 Si / 1000 Ang^3
#
#
#
# Elastic Constant Matrix: (Units=GPa)
#
#
# Indices 1 2 3 4 5 6 
#
# 1 136.0361 33.3790 80.6123 0.0000 0.0000 0.0000
# 2 33.3790 51.5520 34.4767 0.0000 0.0000 0.0000
# 3 80.6123 34.4767 135.5725 0.0000 0.0000 0.0000
# 4 0.0000 0.0000 0.0000 17.3581 0.0000 0.0000
# 5 0.0000 0.0000 0.0000 0.0000 16.3256 0.0000
# 6 0.0000 0.0000 0.0000 0.0000 0.0000 -17.5527
#
#
#
# Elastic Compliance Matrix: (Units=1/GPa)
#
#
# Indices 1 2 3 4 5 6 
#
# 1 0.011873 -0.003574 -0.006151 0.000000 0.000000 0.000000
# 2 -0.003574 0.024449 -0.004092 0.000000 0.000000 0.000000
# 3 -0.006151 -0.004092 0.012074 0.000000 0.000000 0.000000
# 4 0.000000 0.000000 0.000000 0.057610 0.000000 0.000000
# 5 0.000000 0.000000 0.000000 0.000000 0.061253 0.000000
# 6 0.000000 0.000000 0.000000 0.000000 0.000000 -0.056971
#
#
# Mechanical properties :
#
#
# Convention : Reuss Voigt Hill
#
# Bulk Modulus (GPa) = 48.16585 68.89963 58.53274
# Shear Modulus (GPa) = 34.52027 14.87237 24.69632
#
# Velocity S-wave (km/s) = 4.10405 2.69380 3.47130
# Velocity P-wave (km/s) = 6.77930 6.57975 6.68027
#
# Compressibility (1/GPa) = 0.02076160
#
# Stress axis : x y z
#
# Youngs Moduli (GPa) = 84.22662 40.90175 82.82187
#
# Poissons Ratio (x) = 0.14618 0.50942
# Poissons Ratio (y) = 0.30102 0.33894
# Poissons Ratio (z) = 0.51806 0.16738
#
# Static dielectric constant tensor:
#      x y z
#    x 3.735210 0.000000 0.000000 
#    y 0.000000 3.463450 0.000000 
#    z 0.000000 0.000000 3.951580 
# 
# 
# High freq. dielectric constant tensor:
#      x y z
#    x 1.807370 0.000000 0.000000 
#    y 0.000000 1.784070 0.000000 
#    z 0.000000 0.000000 1.798120 
# 
# From -- ./inp_files/13622.got.cif
#   From: 2010.03.12/outbox.cif.g09.slc.cpg/sg47_7_cif.got.tgz:13622.got - 2010.04.14 03:12:58.
