data_PCOD8197413
_publ_section_title
;
Structure prediction by ZEFSAII (Michael W. Deem and Ramdas Pophale) SiO2 
 PCOD8197413
Probable space group: P M M M
;
_chemical_formula_sum "Si O2"
_cell_formula_units_Z 40
_cell_length_a 9.131943
_cell_length_b 9.268782
_cell_length_c 26.158105
_cell_angle_alpha 90.000000
_cell_angle_beta 90.000000
_cell_angle_gamma 90.000000
_cell_volume 2214.074033
_symmetry_space_group_name_H-M "P M M M"
_symmetry_group_IT_number 47
_symmetry_cell_setting 'orthorhombic'
loop_
_space_group_symop_operation_xyz
x,y,z
-x,-y,z
x,-y,-z
-x,y,-z
-x,-y,-z
x,y,-z
-x,y,z
x,-y,z
loop_
_atom_site_type_symbol
_atom_site_label
_atom_site_fract_x
_atom_site_fract_y
_atom_site_fract_z
Si Si1 0.168858 0.331513 0.000000
Si Si2 0.829286 0.329181 0.889433
Si Si3 0.671237 0.167683 0.401168
Si Si4 0.674175 0.662933 0.500000
Si Si5 0.329562 0.831434 0.200463
Si Si6 0.834738 0.828444 0.300726
O O1 0.230373 0.273536 0.945513
O O2 0.194351 0.500000 0.000000
O O3 0.000000 0.293458 0.000000
O O4 0.808240 0.500000 0.884083
O O5 0.731030 0.250175 0.848381
O O6 0.000000 0.288761 0.881986
O O7 0.500000 0.193893 0.392106
O O8 0.732074 0.255269 0.449754
O O9 0.754736 0.228490 0.351559
O O10 0.704762 0.000000 0.411040
O O11 0.734620 0.500000 0.500000
O O12 0.500000 0.666205 0.500000
O O13 0.500000 0.798682 0.206786
O O14 0.249261 0.770329 0.250855
O O15 0.298044 0.000000 0.193179
O O16 0.000000 0.768937 0.299704
O O17 0.830890 0.000000 0.300827
#
# Coordination Sequence:
#
# PCOD8197413 Si02
#       6
#     4   8   8   4   8   8
#     4   7  12  26  48  71  94 122 158 199 240 283
#     4   9  17  31  52  75  97 124 161 203 244 287
#     4   9  16  28  48  71  92 117 153 193 228 268
#     4   9  17  29  46  69  96 124 152 183 224 274
#     4  10  20  33  49  71 100 132 163 197 241 291
#     4   9  17  30  49  71  93 120 157 199 239 279
#
# _framework density 18.066244000000001
#
# number of rings (size 3 to 8) (size 9 to 14) (size 15 to 20)
#    0.000    3.000    0.000    2.700    0.000    5.200 
#    0.000    2.500    0.000   12.000    0.000    0.000 
#    0.000    0.000    0.000    0.000    0.000    0.000 
#
# Total GULP energy -495746.661269 kJ/mol
# GULP energy per Si atom -12393.666532 kJ/mol
# Density = 1.802512 g / cm^3
# Si number density = 18.066244 Si / 1000 Ang^3
#
#
#
# Elastic Constant Matrix: (Units=GPa)
#
#
# Indices 1 2 3 4 5 6 
#
# 1 80.9170 32.6250 71.8599 0.0000 0.0000 0.0000
# 2 32.6250 45.8876 54.5551 0.0000 0.0000 0.0000
# 3 71.8599 54.5551 207.9037 0.0000 0.0000 0.0000
# 4 0.0000 0.0000 0.0000 -23.5408 0.0000 0.0000
# 5 0.0000 0.0000 0.0000 0.0000 33.1974 0.0000
# 6 0.0000 0.0000 0.0000 0.0000 0.0000 18.4124
#
#
#
# Elastic Compliance Matrix: (Units=1/GPa)
#
#
# Indices 1 2 3 4 5 6 
#
# 1 0.019970 -0.008709 -0.004617 0.000000 0.000000 0.000000
# 2 -0.008709 0.035472 -0.006298 0.000000 0.000000 0.000000
# 3 -0.004617 -0.006298 0.008058 0.000000 0.000000 0.000000
# 4 0.000000 0.000000 0.000000 -0.042480 0.000000 0.000000
# 5 0.000000 0.000000 0.000000 0.000000 0.030123 0.000000
# 6 0.000000 0.000000 0.000000 0.000000 0.000000 0.054311
#
#
# Mechanical properties :
#
#
# Convention : Reuss Voigt Hill
#
# Bulk Modulus (GPa) = 41.23334 72.53202 56.88268
# Shear Modulus (GPa) = 32.72541 17.32503 25.02522
#
# Velocity S-wave (km/s) = 4.26069 3.10009 3.72585
# Velocity P-wave (km/s) = 6.86131 7.28348 7.07554
#
# Compressibility (1/GPa) = 0.02425222
#
# Stress axis : x y z
#
# Youngs Moduli (GPa) = 50.07485 28.19158 124.09449
#
# Poissons Ratio (x) = 0.24552 0.57297
# Poissons Ratio (y) = 0.43610 0.78152
# Poissons Ratio (z) = 0.23121 0.17754
#
# Static dielectric constant tensor:
#      x y z
#    x 3.173970 0.000000 0.000000 
#    y 0.000000 2.992130 0.000000 
#    z 0.000000 0.000000 3.747920 
# 
# 
# High freq. dielectric constant tensor:
#      x y z
#    x 1.678460 0.000000 0.000000 
#    y 0.000000 1.659130 0.000000 
#    z 0.000000 0.000000 1.725000 
# 
# From -- ./inp_files/1800.got.cif
#   From: 2010.03.12/outbox.cif.g09.slc.cpg/sg47_1_cif.got.tgz:1800.got - 2010.04.14 03:12:58.
