data_PCOD8197782
_publ_section_title
;
Structure prediction by ZEFSAII (Michael W. Deem and Ramdas Pophale) SiO2 
 PCOD8197782
Probable space group: P M M M
;
_chemical_formula_sum "Si O2"
_cell_formula_units_Z 48
_cell_length_a 8.623527
_cell_length_b 9.909424
_cell_length_c 29.132854
_cell_angle_alpha 90.000000
_cell_angle_beta 90.000000
_cell_angle_gamma 90.000000
_cell_volume 2489.524307
_symmetry_space_group_name_H-M "P M M M"
_symmetry_group_IT_number 47
_symmetry_cell_setting 'orthorhombic'
loop_
_space_group_symop_operation_xyz
x,y,z
-x,-y,z
x,-y,-z
-x,y,-z
-x,-y,-z
x,y,-z
-x,y,z
x,-y,z
loop_
_atom_site_type_symbol
_atom_site_label
_atom_site_fract_x
_atom_site_fract_y
_atom_site_fract_z
Si Si1 0.681387 0.846188 0.794725
Si Si2 0.822388 0.000000 0.554407
Si Si3 0.177569 0.155112 0.698104
Si Si4 0.682799 0.755412 0.606681
Si Si5 0.315998 0.500000 0.448820
Si Si6 0.815592 0.151038 0.948662
Si Si7 0.816215 0.653813 0.869991
O O1 0.500000 0.832212 0.803446
O O2 0.718777 0.811094 0.742201
O O3 0.768985 0.735906 0.824989
O O4 0.737404 0.000000 0.806005
O O5 0.731314 0.125566 0.573746
O O6 0.812669 0.000000 0.500000
O O7 0.000000 0.000000 0.571791
O O8 0.234543 0.245022 0.655960
O O9 0.000000 0.188316 0.710115
O O10 0.198925 0.000000 0.683229
O O11 0.500000 0.756827 0.615124
O O12 0.743970 0.626330 0.579696
O O13 0.500000 0.500000 0.452738
O O14 0.243228 0.500000 0.500000
O O15 0.748704 0.263761 0.913887
O O16 0.000000 0.152966 0.947490
O O17 0.757989 0.000000 0.934640
O O18 0.756667 0.185926 0.000000
O O19 0.749612 0.500000 0.869486
O O20 0.000000 0.647686 0.872406
#
# Coordination Sequence:
#
# PCOD8197782 Si02
#       7
#     8   4   8   8   4   8   8
#     4  10  21  37  58  81 105 139 185 230 275 330
#     4  11  23  37  55  83 117 149 185 231 278 325
#     4  10  20  36  59  85 114 142 174 223 279 333
#     4  11  21  36  60  85 112 146 185 228 275 330
#     4   9  20  38  57  81 113 147 185 225 266 319
#     4   8  14  26  47  76 109 146 188 232 277 328
#     4  10  20  33  51  79 114 149 186 228 279 334
#
# _framework density 19.280792999999999
#
# number of rings (size 3 to 8) (size 9 to 14) (size 15 to 20)
#    0.000    2.167    0.833    3.250    0.000    4.333 
#    1.500    3.333    0.000    3.500    0.000    3.500 
#    0.000    0.000    0.000    0.000    0.000    0.000 
#
# Total GULP energy -595144.325682 kJ/mol
# GULP energy per Si atom -12398.840118 kJ/mol
# Density = 1.923691 g / cm^3
# Si number density = 19.280793 Si / 1000 Ang^3
#
#
#
# Elastic Constant Matrix: (Units=GPa)
#
#
# Indices 1 2 3 4 5 6 
#
# 1 27.7016 15.4775 8.8736 0.0000 0.0000 0.0000
# 2 15.4775 155.8771 80.8929 0.0000 0.0000 0.0000
# 3 8.8736 80.8929 129.0920 0.0000 0.0000 0.0000
# 4 0.0000 0.0000 0.0000 35.0228 0.0000 0.0000
# 5 0.0000 0.0000 0.0000 0.0000 9.6665 0.0000
# 6 0.0000 0.0000 0.0000 0.0000 0.0000 21.0913
#
#
#
# Elastic Compliance Matrix: (Units=1/GPa)
#
#
# Indices 1 2 3 4 5 6 
#
# 1 0.038231 -0.003604 -0.000369 0.000000 0.000000 0.000000
# 2 -0.003604 0.009847 -0.005922 0.000000 0.000000 0.000000
# 3 -0.000369 -0.005922 0.011483 0.000000 0.000000 0.000000
# 4 0.000000 0.000000 0.000000 0.028553 0.000000 0.000000
# 5 0.000000 0.000000 0.000000 0.000000 0.103450 0.000000
# 6 0.000000 0.000000 0.000000 0.000000 0.000000 0.047413
#
#
# Mechanical properties :
#
#
# Convention : Reuss Voigt Hill
#
# Bulk Modulus (GPa) = 25.14556 58.12874 41.63715
# Shear Modulus (GPa) = 18.38065 26.98456 22.68261
#
# Velocity S-wave (km/s) = 3.09093 3.74512 3.43364
# Velocity P-wave (km/s) = 5.08021 6.99394 6.11244
#
# Compressibility (1/GPa) = 0.03976846
#
# Stress axis : x y z
#
# Youngs Moduli (GPa) = 26.15664 101.55709 87.08532
#
# Poissons Ratio (x) = 0.36605 0.03216
# Poissons Ratio (y) = 0.09428 0.51576
# Poissons Ratio (z) = 0.00966 0.60147
#
# Static dielectric constant tensor:
#      x y z
#    x 3.290340 0.000000 0.000000 
#    y 0.000000 3.644900 0.000000 
#    z 0.000000 0.000000 3.664600 
# 
# 
# High freq. dielectric constant tensor:
#      x y z
#    x 1.727020 0.000000 0.000000 
#    y 0.000000 1.744970 0.000000 
#    z 0.000000 0.000000 1.764370 
# 
# From -- ./inp_files/34184.got.cif
#   From: 2010.03.12/outbox.cif.g09.slc.cpg/sg47_18_cif.got.tgz:34184.got - 2010.04.14 03:12:58.
