data_PCOD8197147
_publ_section_title
;
Structure prediction by ZEFSAII (Michael W. Deem and Ramdas Pophale) SiO2 
 PCOD8197147
Probable space group: P M M M
;
_chemical_formula_sum "Si O2"
_cell_formula_units_Z 40
_cell_length_a 9.644291
_cell_length_b 9.101105
_cell_length_c 25.780043
_cell_angle_alpha 90.000000
_cell_angle_beta 90.000000
_cell_angle_gamma 90.000000
_cell_volume 2262.809890
_symmetry_space_group_name_H-M "P M M M"
_symmetry_group_IT_number 47
_symmetry_cell_setting 'orthorhombic'
loop_
_space_group_symop_operation_xyz
x,y,z
-x,-y,z
x,-y,-z
-x,y,-z
-x,-y,-z
x,y,-z
-x,y,z
x,-y,z
loop_
_atom_site_type_symbol
_atom_site_label
_atom_site_fract_x
_atom_site_fract_y
_atom_site_fract_z
Si Si1 0.339649 0.670546 0.650628
Si Si2 0.844160 0.325394 0.557186
Si Si3 0.659772 0.172808 0.755760
Si Si4 0.836504 0.330134 0.842480
Si Si5 0.835507 0.835407 0.057019
O O1 0.500000 0.694755 0.638069
O O2 0.304743 0.500000 0.660417
O O3 0.256775 0.736748 0.601558
O O4 0.292961 0.759289 0.701183
O O5 0.798099 0.268158 0.500000
O O6 0.837442 0.500000 0.557322
O O7 0.000000 0.271834 0.569261
O O8 0.500000 0.213561 0.767569
O O9 0.756646 0.238653 0.799630
O O10 0.682698 0.000000 0.753375
O O11 0.798176 0.500000 0.836834
O O12 0.782992 0.275908 0.898835
O O13 0.000000 0.302323 0.835657
O O14 0.000000 0.835961 0.056078
O O15 0.781364 0.000000 0.069491
O O16 0.780612 0.785335 0.000000
#
# Coordination Sequence:
#
# PCOD8197147 Si02
#       5
#     8   8   8   8   8
#     4   9  17  29  46  68  92 118 152 195 238 280
#     4   8  14  25  42  66  95 123 150 184 229 279
#     4  10  21  36  52  69  93 128 166 202 244 293
#     4  10  20  32  49  75 102 127 159 200 244 289
#     4   8  14  26  45  69  98 131 163 195 234 281
#
# _framework density 17.677136999999998
#
# number of rings (size 3 to 8) (size 9 to 14) (size 15 to 20)
#    0.000    3.000    0.000    2.400    0.000    4.000 
#    0.000    6.000    0.000    1.200    0.000    8.400 
#    0.000    0.000    0.000    0.000    0.000    0.000 
#
# Total GULP energy -495840.801024 kJ/mol
# GULP energy per Si atom -12396.020026 kJ/mol
# Density = 1.763690 g / cm^3
# Si number density = 17.677137 Si / 1000 Ang^3
#
#
#
# Elastic Constant Matrix: (Units=GPa)
#
#
# Indices 1 2 3 4 5 6 
#
# 1 50.1489 30.4021 64.5066 0.0000 0.0000 0.0000
# 2 30.4021 63.8319 58.3619 0.0000 0.0000 0.0000
# 3 64.5066 58.3619 170.7441 0.0000 0.0000 0.0000
# 4 0.0000 0.0000 0.0000 -0.6236 0.0000 0.0000
# 5 0.0000 0.0000 0.0000 0.0000 0.5689 0.0000
# 6 0.0000 0.0000 0.0000 0.0000 0.0000 18.2468
#
#
#
# Elastic Compliance Matrix: (Units=1/GPa)
#
#
# Indices 1 2 3 4 5 6 
#
# 1 0.041342 -0.007869 -0.012929 0.000000 0.000000 0.000000
# 2 -0.007869 0.024286 -0.005328 0.000000 0.000000 0.000000
# 3 -0.012929 -0.005328 0.012562 0.000000 0.000000 0.000000
# 4 0.000000 0.000000 0.000000 -1.603573 0.000000 0.000000
# 5 0.000000 0.000000 0.000000 0.000000 1.757922 0.000000
# 6 0.000000 0.000000 0.000000 0.000000 0.000000 0.054804
#
#
# Mechanical properties :
#
#
# Convention : Reuss Voigt Hill
#
# Bulk Modulus (GPa) = 38.55482 65.69624 52.12553
# Shear Modulus (GPa) = 14.35784 12.40203 13.37994
#
# Velocity S-wave (km/s) = 2.85305 2.65162 2.75418
# Velocity P-wave (km/s) = 5.71936 6.82788 6.29806
#
# Compressibility (1/GPa) = 0.02593709
#
# Stress axis : x y z
#
# Youngs Moduli (GPa) = 24.18850 41.17654 79.60254
#
# Poissons Ratio (x) = 0.32404 1.02918
# Poissons Ratio (y) = 0.19035 0.42412
# Poissons Ratio (z) = 0.31273 0.21939
#
# Static dielectric constant tensor:
#      x y z
#    x 3.107320 0.000000 0.000000 
#    y 0.000000 3.140850 0.000000 
#    z 0.000000 0.000000 3.744630 
# 
# 
# High freq. dielectric constant tensor:
#      x y z
#    x 1.655850 0.000000 0.000000 
#    y 0.000000 1.663210 0.000000 
#    z 0.000000 0.000000 1.700240 
# 
# From -- ./inp_files/1384.got.cif
#   From: 2010.03.12/outbox.cif.g09.slc.cpg/sg47_1_cif.got.tgz:1384.got - 2010.04.14 03:12:58.
