data_PCOD8197101
_publ_section_title
;
Structure prediction by ZEFSAII (Michael W. Deem and Ramdas Pophale) SiO2 
 PCOD8197101
Probable space group: P M M M
;
_chemical_formula_sum "Si O2"
_cell_formula_units_Z 44
_cell_length_a 9.237932
_cell_length_b 30.160187
_cell_length_c 7.749965
_cell_angle_alpha 90.000000
_cell_angle_beta 90.000000
_cell_angle_gamma 90.000000
_cell_volume 2159.277862
_symmetry_space_group_name_H-M "P M M M"
_symmetry_group_IT_number 47
_symmetry_cell_setting 'orthorhombic'
loop_
_space_group_symop_operation_xyz
x,y,z
-x,-y,z
x,-y,-z
-x,y,-z
-x,-y,-z
x,y,-z
-x,y,z
x,-y,z
loop_
_atom_site_type_symbol
_atom_site_label
_atom_site_fract_x
_atom_site_fract_y
_atom_site_fract_z
Si Si1 0.658979 0.367792 0.802119
Si Si2 0.163033 0.549777 0.703393
Si Si3 0.830177 0.886608 0.198124
Si Si4 0.837075 0.714346 0.206237
Si Si5 0.662645 0.798798 0.204336
Si Si6 0.828782 0.950746 0.500000
O O1 0.500000 0.367866 0.713098
O O2 0.728170 0.416235 0.790435
O O3 0.760878 0.330043 0.718394
O O4 0.639291 0.355191 0.000000
O O5 0.171866 0.555202 0.500000
O O6 0.208266 0.500000 0.758141
O O7 0.000000 0.559618 0.767587
O O8 0.745479 0.843135 0.260337
O O9 0.778816 0.925869 0.325200
O O10 0.000000 0.876586 0.217409
O O11 0.792566 0.899673 0.000000
O O12 0.749017 0.756568 0.278362
O O13 0.000000 0.716008 0.279655
O O14 0.840706 0.714392 0.000000
O O15 0.500000 0.799233 0.280872
O O16 0.656936 0.795583 0.000000
O O17 0.000000 0.954300 0.500000
O O18 0.759699 0.000000 0.500000
#
# Coordination Sequence:
#
# PCOD8197101 Si02
#       6
#     8   8   8   8   8   4
#     4  10  20  32  48  74 106 135 164 203 252 305
#     4   9  19  36  55  72  92 124 167 211 255 305
#     4   9  17  30  50  75 102 135 175 216 260 312
#     4   9  16  27  46  72 101 133 168 204 246 299
#     4   9  16  27  46  72 101 132 166 205 249 298
#     4   9  18  32  51  77 107 137 173 221 268 307
#
# _framework density 20.377182999999999
#
# number of rings (size 3 to 8) (size 9 to 14) (size 15 to 20)
#    0.000    2.818    0.000    2.182    0.000    6.909 
#    0.000    5.000    2.000    1.091    0.000    2.545 
#    0.000    0.000    0.000    0.000    0.000    0.000 
#
# Total GULP energy -545469.428035 kJ/mol
# GULP energy per Si atom -12397.032455 kJ/mol
# Density = 2.033080 g / cm^3
# Si number density = 20.377183 Si / 1000 Ang^3
#
#
#
# Elastic Constant Matrix: (Units=GPa)
#
#
# Indices 1 2 3 4 5 6 
#
# 1 145.1084 91.9226 21.6165 0.0000 0.0000 0.0000
# 2 91.9226 188.9875 35.4693 0.0000 0.0000 0.0000
# 3 21.6165 35.4693 45.2426 0.0000 0.0000 0.0000
# 4 0.0000 0.0000 0.0000 -18.3725 0.0000 0.0000
# 5 0.0000 0.0000 0.0000 0.0000 7.1820 0.0000
# 6 0.0000 0.0000 0.0000 0.0000 0.0000 15.6660
#
#
#
# Elastic Compliance Matrix: (Units=1/GPa)
#
#
# Indices 1 2 3 4 5 6 
#
# 1 0.010010 -0.004656 -0.001132 0.000000 0.000000 0.000000
# 2 -0.004656 0.008370 -0.004337 0.000000 0.000000 0.000000
# 3 -0.001132 -0.004337 0.026044 0.000000 0.000000 0.000000
# 4 0.000000 0.000000 0.000000 -0.054429 0.000000 0.000000
# 5 0.000000 0.000000 0.000000 0.000000 0.139237 0.000000
# 6 0.000000 0.000000 0.000000 0.000000 0.000000 0.063833
#
#
# Mechanical properties :
#
#
# Convention : Reuss Voigt Hill
#
# Bulk Modulus (GPa) = 41.36878 75.26167 58.31523
# Shear Modulus (GPa) = 22.58631 16.25045 19.41838
#
# Velocity S-wave (km/s) = 3.33289 2.82704 3.09033
# Velocity P-wave (km/s) = 5.92929 6.90439 6.43534
#
# Compressibility (1/GPa) = 0.02417282
#
# Stress axis : x y z
#
# Youngs Moduli (GPa) = 99.90407 119.47277 38.39594
#
# Poissons Ratio (x) = 0.55628 0.04347
# Poissons Ratio (y) = 0.46517 0.16654
# Poissons Ratio (z) = 0.11311 0.51819
#
# Static dielectric constant tensor:
#      x y z
#    x 3.826400 0.000000 0.000000 
#    y 0.000000 3.885380 0.000000 
#    z 0.000000 0.000000 3.293570 
# 
# 
# High freq. dielectric constant tensor:
#      x y z
#    x 1.789920 0.000000 0.000000 
#    y 0.000000 1.798900 0.000000 
#    z 0.000000 0.000000 1.765230 
# 
# From -- ./inp_files/2018.got.cif
#   From: 2010.03.12/outbox.cif.g09.slc.cpg/sg47_2_cif.got.tgz:2018.got - 2010.04.14 03:12:58.
