data_PCOD8197231
_publ_section_title
;
Structure prediction by ZEFSAII (Michael W. Deem and Ramdas Pophale) SiO2 
 PCOD8197231
Probable space group: P M M M
;
_chemical_formula_sum "Si O2"
_cell_formula_units_Z 44
_cell_length_a 9.448576
_cell_length_b 8.233296
_cell_length_c 30.025125
_cell_angle_alpha 90.000000
_cell_angle_beta 90.000000
_cell_angle_gamma 90.000000
_cell_volume 2335.742237
_symmetry_space_group_name_H-M "P M M M"
_symmetry_group_IT_number 47
_symmetry_cell_setting 'orthorhombic'
loop_
_space_group_symop_operation_xyz
x,y,z
-x,-y,z
x,-y,-z
-x,y,-z
-x,-y,-z
x,y,-z
-x,y,z
x,-y,z
loop_
_atom_site_type_symbol
_atom_site_label
_atom_site_fract_x
_atom_site_fract_y
_atom_site_fract_z
Si Si1 0.331587 0.500000 0.050473
Si Si2 0.343906 0.309000 0.450853
Si Si3 0.336652 0.313767 0.707357
Si Si4 0.330816 0.816742 0.896527
Si Si5 0.659892 0.187298 0.798367
Si Si6 0.843001 0.187598 0.628080
O O1 0.500000 0.500000 0.052674
O O2 0.274259 0.332085 0.072897
O O3 0.276176 0.500000 0.000000
O O4 0.301380 0.241810 0.500000
O O5 0.500000 0.240482 0.437501
O O6 0.353436 0.500000 0.453070
O O7 0.228156 0.263923 0.414925
O O8 0.500000 0.254567 0.705958
O O9 0.324257 0.500000 0.693744
O O10 0.271805 0.286426 0.757179
O O11 0.247144 0.212406 0.672486
O O12 0.500000 0.816922 0.895444
O O13 0.268323 0.783395 0.846750
O O14 0.282387 0.000000 0.912540
O O15 0.500000 0.248717 0.803349
O O16 0.668064 0.000000 0.785161
O O17 0.000000 0.263596 0.634209
O O18 0.855489 0.000000 0.618538
#
# Coordination Sequence:
#
# PCOD8197231 Si02
#       6
#     4   8   8   8   8   8
#     4   9  16  22  30  46  70 106 149 193 240 289
#     4   9  19  37  60  83 104 127 160 203 247 290
#     4  10  20  32  50  75  97 121 158 204 250 296
#     4   8  14  23  34  49  72 104 143 190 241 290
#     4   8  14  25  41  61  84 111 145 190 243 290
#     4  11  24  38  51  71 102 137 168 199 239 290
#
# _framework density 18.837693999999999
#
# number of rings (size 3 to 8) (size 9 to 14) (size 15 to 20)
#    0.000    2.818    0.000    3.273    1.273    6.182 
#    0.000    4.545    0.000    0.000    0.000    0.000 
#    0.000    0.000    0.000    0.000    0.000    1.818 
#
# Total GULP energy -545132.249478 kJ/mol
# GULP energy per Si atom -12389.369306 kJ/mol
# Density = 1.879482 g / cm^3
# Si number density = 18.837694 Si / 1000 Ang^3
#
#
#
# Elastic Constant Matrix: (Units=GPa)
#
#
# Indices 1 2 3 4 5 6 
#
# 1 51.9960 18.9053 38.6144 0.0000 0.0000 0.0000
# 2 18.9053 75.8221 49.4666 0.0000 0.0000 0.0000
# 3 38.6144 49.4666 138.9742 0.0000 0.0000 0.0000
# 4 0.0000 0.0000 0.0000 55.4561 0.0000 0.0000
# 5 0.0000 0.0000 0.0000 0.0000 0.6814 0.0000
# 6 0.0000 0.0000 0.0000 0.0000 0.0000 12.8810
#
#
#
# Elastic Compliance Matrix: (Units=1/GPa)
#
#
# Indices 1 2 3 4 5 6 
#
# 1 0.024504 -0.002172 -0.006035 0.000000 0.000000 0.000000
# 2 -0.002172 0.017370 -0.005579 0.000000 0.000000 0.000000
# 3 -0.006035 -0.005579 0.010858 0.000000 0.000000 0.000000
# 4 0.000000 0.000000 0.000000 0.018032 0.000000 0.000000
# 5 0.000000 0.000000 0.000000 0.000000 1.467611 0.000000
# 6 0.000000 0.000000 0.000000 0.000000 0.000000 0.077634
#
#
# Mechanical properties :
#
#
# Convention : Reuss Voigt Hill
#
# Bulk Modulus (GPa) = 39.74705 53.41834 46.58270
# Shear Modulus (GPa) = 3.02669 24.45742 13.74205
#
# Velocity S-wave (km/s) = 1.26894 3.60713 2.70385
# Velocity P-wave (km/s) = 4.82623 6.76515 5.87621
#
# Compressibility (1/GPa) = 0.02515910
#
# Stress axis : x y z
#
# Youngs Moduli (GPa) = 40.80931 57.56949 92.09467
#
# Poissons Ratio (x) = 0.12506 0.55582
# Poissons Ratio (y) = 0.08865 0.51382
# Poissons Ratio (z) = 0.24630 0.32119
#
# Static dielectric constant tensor:
#      x y z
#    x 3.474400 0.000000 0.000000 
#    y 0.000000 3.505680 0.000000 
#    z 0.000000 0.000000 3.771180 
# 
# 
# High freq. dielectric constant tensor:
#      x y z
#    x 1.662510 0.000000 0.000000 
#    y 0.000000 1.734440 0.000000 
#    z 0.000000 0.000000 1.744240 
# 
# From -- ./inp_files/2141.got.cif
#   From: 2010.03.12/outbox.cif.g09.slc.cpg/sg47_2_cif.got.tgz:2141.got - 2010.04.14 03:12:58.
