data_PCOD8197149
_publ_section_title
;
Structure prediction by ZEFSAII (Michael W. Deem and Ramdas Pophale) SiO2 
 PCOD8197149
Probable space group: P M M M
;
_chemical_formula_sum "Si O2"
_cell_formula_units_Z 44
_cell_length_a 9.578745
_cell_length_b 8.777004
_cell_length_c 28.564940
_cell_angle_alpha 90.000000
_cell_angle_beta 90.000000
_cell_angle_gamma 90.000000
_cell_volume 2401.531151
_symmetry_space_group_name_H-M "P M M M"
_symmetry_group_IT_number 47
_symmetry_cell_setting 'orthorhombic'
loop_
_space_group_symop_operation_xyz
x,y,z
-x,-y,z
x,-y,-z
-x,y,-z
-x,-y,-z
x,y,-z
-x,y,z
x,-y,z
loop_
_atom_site_type_symbol
_atom_site_label
_atom_site_fract_x
_atom_site_fract_y
_atom_site_fract_z
Si Si1 0.834091 0.167067 0.000000
Si Si2 0.339877 0.321321 0.717008
Si Si3 0.156718 0.182269 0.899749
Si Si4 0.338556 0.175769 0.185803
Si Si5 0.343522 0.818825 0.551966
Si Si6 0.841790 0.181062 0.636276
O O1 0.791914 0.249065 0.049282
O O2 0.000000 0.149406 0.000000
O O3 0.764283 0.000000 0.000000
O O4 0.500000 0.271833 0.707186
O O5 0.320021 0.500000 0.711097
O O6 0.295485 0.272996 0.769059
O O7 0.238528 0.235851 0.681856
O O8 0.255346 0.243255 0.858510
O O9 0.000000 0.237974 0.888636
O O10 0.161960 0.000000 0.902608
O O11 0.500000 0.195355 0.173797
O O12 0.299849 0.000000 0.195534
O O13 0.299608 0.762026 0.500000
O O14 0.500000 0.760593 0.563885
O O15 0.235610 0.752857 0.590089
O O16 0.341882 0.000000 0.553132
O O17 0.000000 0.243640 0.636655
O O18 0.840634 0.000000 0.635768
#
# Coordination Sequence:
#
# PCOD8197149 Si02
#       6
#     4   8   8   8   8   8
#     4   7  10  18  33  55  84 115 144 174 212 261
#     4  10  21  36  52  68  89 123 164 201 239 284
#     4   8  13  22  38  60  86 116 147 178 216 267
#     4   9  17  29  45  66  91 116 145 187 236 279
#     4   8  14  26  46  72 100 129 160 192 226 268
#     4  10  20  32  49  75 103 129 157 192 236 282
#
# _framework density 18.321645
#
# number of rings (size 3 to 8) (size 9 to 14) (size 15 to 20)
#    0.000    3.182    0.000    2.727    0.000    3.273 
#    0.000    4.091    0.000    3.273    0.000    4.455 
#    0.000    5.091    0.000    0.000    0.000    0.000 
#
# Total GULP energy -545260.452140 kJ/mol
# GULP energy per Si atom -12392.283003 kJ/mol
# Density = 1.827994 g / cm^3
# Si number density = 18.321645 Si / 1000 Ang^3
#
#
#
# Elastic Constant Matrix: (Units=GPa)
#
#
# Indices 1 2 3 4 5 6 
#
# 1 105.8749 12.2181 89.8773 0.0000 0.0000 0.0000
# 2 12.2181 8.7905 7.8261 0.0000 0.0000 0.0000
# 3 89.8773 7.8261 161.1009 0.0000 0.0000 0.0000
# 4 0.0000 0.0000 0.0000 -1.9194 0.0000 0.0000
# 5 0.0000 0.0000 0.0000 0.0000 36.6250 0.0000
# 6 0.0000 0.0000 0.0000 0.0000 0.0000 11.7802
#
#
#
# Elastic Compliance Matrix: (Units=1/GPa)
#
#
# Indices 1 2 3 4 5 6 
#
# 1 0.020660 -0.019289 -0.010589 0.000000 0.000000 0.000000
# 2 -0.019289 0.136910 0.004110 0.000000 0.000000 0.000000
# 3 -0.010589 0.004110 0.011915 0.000000 0.000000 0.000000
# 4 0.000000 0.000000 0.000000 -0.520995 0.000000 0.000000
# 5 0.000000 0.000000 0.000000 0.000000 0.027304 0.000000
# 6 0.000000 0.000000 0.000000 0.000000 0.000000 0.084888
#
#
# Mechanical properties :
#
#
# Convention : Reuss Voigt Hill
#
# Bulk Modulus (GPa) = 8.47817 55.06772 31.77294
# Shear Modulus (GPa) = -33.67800 20.35346 -6.66227
#
# Velocity S-wave (km/s) = -4.29202 3.33663 -1.90897
# Velocity P-wave (km/s) = 4.46368 6.70563 3.53843
#
# Compressibility (1/GPa) = 0.11794996
#
# Stress axis : x y z
#
# Youngs Moduli (GPa) = 48.40219 7.30407 83.92586
#
# Poissons Ratio (x) = 0.14089 0.88871
# Poissons Ratio (y) = 0.93361 -0.34494
# Poissons Ratio (z) = 0.51254 -0.03002
#
# Static dielectric constant tensor:
#      x y z
#    x 3.427510 0.000000 0.000000 
#    y 0.000000 2.828400 0.000000 
#    z 0.000000 0.000000 3.815200 
# 
# 
# High freq. dielectric constant tensor:
#      x y z
#    x 1.697010 0.000000 0.000000 
#    y 0.000000 1.651130 0.000000 
#    z 0.000000 0.000000 1.731720 
# 
# From -- ./inp_files/33895.got.cif
#   From: 2010.03.12/outbox.cif.g09.slc.cpg/sg47_17_cif.got.tgz:33895.got - 2010.04.14 03:12:58.
