data_PCOD8197604
_publ_section_title
;
Structure prediction by ZEFSAII (Michael W. Deem and Ramdas Pophale) SiO2 
 PCOD8197604
Probable space group: P M M M
;
_chemical_formula_sum "Si O2"
_cell_formula_units_Z 48
_cell_length_a 9.001276
_cell_length_b 31.104151
_cell_length_c 8.995094
_cell_angle_alpha 90.000000
_cell_angle_beta 90.000000
_cell_angle_gamma 90.000000
_cell_volume 2518.419864
_symmetry_space_group_name_H-M "P M M M"
_symmetry_group_IT_number 47
_symmetry_cell_setting 'orthorhombic'
loop_
_space_group_symop_operation_xyz
x,y,z
-x,-y,z
x,-y,-z
-x,y,-z
-x,-y,-z
x,y,-z
-x,y,z
x,-y,z
loop_
_atom_site_type_symbol
_atom_site_label
_atom_site_fract_x
_atom_site_fract_y
_atom_site_fract_z
Si Si1 0.823277 0.166049 0.667359
Si Si2 0.170953 0.336242 0.674618
Si Si3 0.674514 0.414346 0.171241
Si Si4 0.173812 0.920341 0.173495
Si Si5 0.324491 0.000000 0.670578
Si Si6 0.823202 0.750069 0.832555
Si Si7 0.832689 0.500000 0.176618
O O1 0.760354 0.163798 0.500000
O O2 0.769538 0.124368 0.757321
O O3 0.758237 0.208467 0.747085
O O4 0.000000 0.168189 0.665743
O O5 0.189590 0.330561 0.500000
O O6 0.270799 0.375107 0.730135
O O7 0.231413 0.292903 0.750697
O O8 0.000000 0.345091 0.718730
O O9 0.500000 0.419890 0.188893
O O10 0.749854 0.457535 0.235036
O O11 0.719746 0.406137 0.000000
O O12 0.262746 0.958136 0.250074
O O13 0.000000 0.927502 0.203489
O O14 0.210171 0.919799 0.000000
O O15 0.500000 0.000000 0.684800
O O16 0.272016 0.000000 0.500000
O O17 0.000000 0.752078 0.832373
O O18 0.760728 0.750016 0.000000
O O19 0.000000 0.500000 0.239048
O O20 0.829623 0.500000 0.000000
#
# Coordination Sequence:
#
# PCOD8197604 Si02
#       7
#     8   8   8   8   4   8   4
#     4   9  16  27  46  74 107 139 170 209 258 308
#     4  10  20  33  50  74 104 138 176 216 257 303
#     4  10  20  34  53  77 105 137 173 213 258 309
#     4  10  20  34  54  80 107 136 174 218 262 311
#     4  11  24  39  54  74 102 137 176 217 264 318
#     4   9  16  27  46  73 104 136 171 213 258 303
#     4   9  17  31  54  81 106 133 168 212 260 309
#
# _framework density 19.059569
#
# number of rings (size 3 to 8) (size 9 to 14) (size 15 to 20)
#    0.000    2.333    0.000    3.250    0.000    9.667 
#    0.000    0.417    0.000    3.500    0.000    0.000 
#    0.000    0.000    0.000    0.000    0.000    0.000 
#
# Total GULP energy -595308.073519 kJ/mol
# GULP energy per Si atom -12402.251532 kJ/mol
# Density = 1.901619 g / cm^3
# Si number density = 19.059569 Si / 1000 Ang^3
#
#
#
# Elastic Constant Matrix: (Units=GPa)
#
#
# Indices 1 2 3 4 5 6 
#
# 1 49.2824 45.9695 36.2507 0.0000 0.0000 0.0000
# 2 45.9695 188.8294 79.8166 0.0000 0.0000 0.0000
# 3 36.2507 79.8166 129.5840 0.0000 0.0000 0.0000
# 4 0.0000 0.0000 0.0000 -32.5612 0.0000 0.0000
# 5 0.0000 0.0000 0.0000 0.0000 19.5027 0.0000
# 6 0.0000 0.0000 0.0000 0.0000 0.0000 24.0828
#
#
#
# Elastic Compliance Matrix: (Units=1/GPa)
#
#
# Indices 1 2 3 4 5 6 
#
# 1 0.028458 -0.004817 -0.004994 0.000000 0.000000 0.000000
# 2 -0.004817 0.007975 -0.003565 0.000000 0.000000 0.000000
# 3 -0.004994 -0.003565 0.011310 0.000000 0.000000 0.000000
# 4 0.000000 0.000000 0.000000 -0.030711 0.000000 0.000000
# 5 0.000000 0.000000 0.000000 0.000000 0.051275 0.000000
# 6 0.000000 0.000000 0.000000 0.000000 0.000000 0.041523
#
#
# Mechanical properties :
#
#
# Convention : Reuss Voigt Hill
#
# Bulk Modulus (GPa) = 47.63867 76.86327 62.25097
# Shear Modulus (GPa) = 34.82417 15.91546 25.36982
#
# Velocity S-wave (km/s) = 4.27912 2.89284 3.65236
# Velocity P-wave (km/s) = 7.03302 7.18147 7.10763
#
# Compressibility (1/GPa) = 0.02099135
#
# Stress axis : x y z
#
# Youngs Moduli (GPa) = 35.13968 125.38775 88.41918
#
# Poissons Ratio (x) = 0.60399 0.44156
# Poissons Ratio (y) = 0.16927 0.31520
# Poissons Ratio (z) = 0.17549 0.44698
#
# Static dielectric constant tensor:
#      x y z
#    x 3.100010 0.000000 0.000000 
#    y 0.000000 3.737240 0.000000 
#    z 0.000000 0.000000 3.563970 
# 
# 
# High freq. dielectric constant tensor:
#      x y z
#    x 1.698630 0.000000 0.000000 
#    y 0.000000 1.761170 0.000000 
#    z 0.000000 0.000000 1.744150 
# 
# From -- ./inp_files/2619.got.cif
#   From: 2010.03.12/outbox.cif.g09.slc.cpg/sg47_2_cif.got.tgz:2619.got - 2010.04.14 03:12:58.
