data_PCOD8197985
_publ_section_title
;
Structure prediction by ZEFSAII (Michael W. Deem and Ramdas Pophale) SiO2 
 PCOD8197985
Probable space group: P M M M
;
_chemical_formula_sum "Si O2"
_cell_formula_units_Z 48
_cell_length_a 13.993605
_cell_length_b 9.661146
_cell_length_c 18.518885
_cell_angle_alpha 90.000000
_cell_angle_beta 90.000000
_cell_angle_gamma 90.000000
_cell_volume 2503.646972
_symmetry_space_group_name_H-M "P M M M"
_symmetry_group_IT_number 47
_symmetry_cell_setting 'orthorhombic'
loop_
_space_group_symop_operation_xyz
x,y,z
-x,-y,z
x,-y,-z
-x,y,-z
-x,-y,-z
x,y,-z
-x,y,z
x,-y,z
loop_
_atom_site_type_symbol
_atom_site_label
_atom_site_fract_x
_atom_site_fract_y
_atom_site_fract_z
Si Si1 0.000000 0.843730 0.584198
Si Si2 0.887454 0.000000 0.079190
Si Si3 0.246642 0.839120 0.296985
Si Si4 0.112819 0.746693 0.822855
Si Si5 0.391361 0.158873 0.828799
Si Si6 0.183251 0.662728 0.584075
Si Si7 0.261968 0.349710 0.080663
O O1 0.089990 0.750601 0.605976
O O2 0.000000 0.868003 0.500000
O O3 0.000000 0.000000 0.620165
O O4 0.853871 0.129818 0.124633
O O5 0.000000 0.000000 0.071890
O O6 0.839693 0.000000 0.000000
O O7 0.150580 0.784035 0.256651
O O8 0.338929 0.817934 0.247504
O O9 0.263299 0.739162 0.366881
O O10 0.233651 0.000000 0.319910
O O11 0.172255 0.627925 0.863399
O O12 0.000000 0.715653 0.819467
O O13 0.500000 0.208246 0.818691
O O14 0.341895 0.244310 0.891988
O O15 0.385462 0.000000 0.852484
O O16 0.209955 0.678016 0.500000
O O17 0.170395 0.500000 0.603744
O O18 0.311058 0.500000 0.077166
O O19 0.226974 0.305890 0.000000
#
# Coordination Sequence:
#
# PCOD8197985 Si02
#       7
#     4   4   8   8   8   8   8
#     4   9  17  31  51  75 103 141 189 230 267 312
#     4   9  16  28  48  72  98 136 184 225 266 314
#     4  10  20  34  56  83 111 142 181 231 282 333
#     4  10  20  34  51  76 110 149 189 230 277 322
#     4   9  20  40  63  85 108 137 177 226 283 342
#     4  10  21  36  53  77 112 150 189 230 272 324
#     4  10  22  37  53  79 113 147 186 230 275 327
#
# _framework density 19.172032000000002
#
# number of rings (size 3 to 8) (size 9 to 14) (size 15 to 20)
#    0.000    2.333    0.833    1.250    2.333    7.000 
#    0.000    2.500    0.000    0.500    0.000    3.500 
#    0.000    0.000    0.000    0.000    0.000    0.000 
#
# Total GULP energy -594751.663019 kJ/mol
# GULP energy per Si atom -12390.659646 kJ/mol
# Density = 1.912840 g / cm^3
# Si number density = 19.172032 Si / 1000 Ang^3
#
#
#
# Elastic Constant Matrix: (Units=GPa)
#
#
# Indices 1 2 3 4 5 6 
#
# 1 105.8753 36.2779 30.9383 0.0000 0.0000 0.0000
# 2 36.2779 119.2442 57.1983 0.0000 0.0000 0.0000
# 3 30.9383 57.1983 106.4692 0.0000 0.0000 0.0000
# 4 0.0000 0.0000 0.0000 50.0061 0.0000 0.0000
# 5 0.0000 0.0000 0.0000 0.0000 16.8427 0.0000
# 6 0.0000 0.0000 0.0000 0.0000 0.0000 11.5573
#
#
#
# Elastic Compliance Matrix: (Units=1/GPa)
#
#
# Indices 1 2 3 4 5 6 
#
# 1 0.010808 -0.002400 -0.001851 0.000000 0.000000 0.000000
# 2 -0.002400 0.011830 -0.005658 0.000000 0.000000 0.000000
# 3 -0.001851 -0.005658 0.012970 0.000000 0.000000 0.000000
# 4 0.000000 0.000000 0.000000 0.019998 0.000000 0.000000
# 5 0.000000 0.000000 0.000000 0.000000 0.059373 0.000000
# 6 0.000000 0.000000 0.000000 0.000000 0.000000 0.086526
#
#
# Mechanical properties :
#
#
# Convention : Reuss Voigt Hill
#
# Bulk Modulus (GPa) = 63.33300 64.49086 63.91193
# Shear Modulus (GPa) = 22.06651 29.49282 25.77967
#
# Velocity S-wave (km/s) = 3.39628 3.92640 3.67092
# Velocity P-wave (km/s) = 6.96315 7.36658 7.16770
#
# Compressibility (1/GPa) = 0.01578956
#
# Stress axis : x y z
#
# Youngs Moduli (GPa) = 92.51984 84.52744 77.10048
#
# Poissons Ratio (x) = 0.20289 0.14273
# Poissons Ratio (y) = 0.22207 0.43625
# Poissons Ratio (z) = 0.17128 0.47827
#
# Static dielectric constant tensor:
#      x y z
#    x 3.286480 0.000000 0.000000 
#    y 0.000000 3.675570 0.000000 
#    z 0.000000 0.000000 3.538600 
# 
# 
# High freq. dielectric constant tensor:
#      x y z
#    x 1.712040 0.000000 0.000000 
#    y 0.000000 1.756190 0.000000 
#    z 0.000000 0.000000 1.748710 
# 
# From -- ./inp_files/28035.got.cif
#   From: 2010.03.12/outbox.cif.g09.slc.cpg/sg47_15_cif.got.tgz:28035.got - 2010.04.14 03:12:58.
