data_PCOD8197769
_publ_section_title
;
Structure prediction by ZEFSAII (Michael W. Deem and Ramdas Pophale) SiO2 
 PCOD8197769
Probable space group: P M M M
;
_chemical_formula_sum "Si O2"
_cell_formula_units_Z 48
_cell_length_a 9.043445
_cell_length_b 28.887522
_cell_length_c 10.108428
_cell_angle_alpha 90.000000
_cell_angle_beta 90.000000
_cell_angle_gamma 90.000000
_cell_volume 2640.753189
_symmetry_space_group_name_H-M "P M M M"
_symmetry_group_IT_number 47
_symmetry_cell_setting 'orthorhombic'
loop_
_space_group_symop_operation_xyz
x,y,z
-x,-y,z
x,-y,-z
-x,y,-z
-x,-y,-z
x,y,-z
-x,y,z
x,-y,z
loop_
_atom_site_type_symbol
_atom_site_label
_atom_site_fract_x
_atom_site_fract_y
_atom_site_fract_z
Si Si1 0.325218 0.946130 0.000000
Si Si2 0.332948 0.054646 0.500000
Si Si3 0.829784 0.803063 0.348864
Si Si4 0.826426 0.096881 0.748281
Si Si5 0.825896 0.378923 0.347949
Si Si6 0.330025 0.554189 0.849789
Si Si7 0.666313 0.713197 0.342815
O O1 0.500000 0.939008 0.000000
O O2 0.255640 0.921409 0.124602
O O3 0.282915 0.000000 0.000000
O O4 0.500000 0.075179 0.500000
O O5 0.243023 0.070791 0.374195
O O6 0.341555 0.000000 0.500000
O O7 0.782836 0.814138 0.500000
O O8 0.798237 0.848217 0.261593
O O9 0.737760 0.760448 0.287366
O O10 0.000000 0.788374 0.343585
O O11 0.000000 0.085676 0.754652
O O12 0.777614 0.388682 0.500000
O O13 0.772849 0.420494 0.255721
O O14 0.755283 0.331508 0.292932
O O15 0.000000 0.373969 0.337011
O O16 0.500000 0.567115 0.821511
O O17 0.303770 0.500000 0.830330
O O18 0.287691 0.568538 0.000000
O O19 0.673086 0.715118 0.500000
O O20 0.500000 0.709481 0.289114
#
# Coordination Sequence:
#
# PCOD8197769 Si02
#       7
#     4   4   8   8   8   8   8
#     4  11  25  43  59  79 111 149 185 225 278 333
#     4  11  23  37  55  83 117 147 179 227 278 321
#     4   9  17  32  53  80 112 140 172 219 271 320
#     4  11  22  38  60  85 110 144 186 227 273 329
#     4  10  20  33  51  78 111 145 180 222 270 318
#     4   9  19  36  56  77 104 141 183 227 275 325
#     4   9  17  29  49  78 108 141 180 219 263 318
#
# _framework density 18.176631
#
# number of rings (size 3 to 8) (size 9 to 14) (size 15 to 20)
#    0.000    2.167    0.833    3.000    0.000    8.667 
#    0.000    2.500    1.833    0.000    0.000    0.000 
#    0.000    0.000    0.000    0.000    0.000    0.000 
#
# Total GULP energy -595247.333938 kJ/mol
# GULP energy per Si atom -12400.986124 kJ/mol
# Density = 1.813526 g / cm^3
# Si number density = 18.176631 Si / 1000 Ang^3
#
#
#
# Elastic Constant Matrix: (Units=GPa)
#
#
# Indices 1 2 3 4 5 6 
#
# 1 106.7506 66.0483 52.0534 0.0000 0.0000 0.0000
# 2 66.0483 110.3486 56.0067 0.0000 0.0000 0.0000
# 3 52.0534 56.0067 102.8743 0.0000 0.0000 0.0000
# 4 0.0000 0.0000 0.0000 20.5384 0.0000 0.0000
# 5 0.0000 0.0000 0.0000 0.0000 34.0077 0.0000
# 6 0.0000 0.0000 0.0000 0.0000 0.0000 39.2412
#
#
#
# Elastic Compliance Matrix: (Units=1/GPa)
#
#
# Indices 1 2 3 4 5 6 
#
# 1 0.015973 -0.007543 -0.003976 0.000000 0.000000 0.000000
# 2 -0.007543 0.016084 -0.004940 0.000000 0.000000 0.000000
# 3 -0.003976 -0.004940 0.014422 0.000000 0.000000 0.000000
# 4 0.000000 0.000000 0.000000 0.048689 0.000000 0.000000
# 5 0.000000 0.000000 0.000000 0.000000 0.029405 0.000000
# 6 0.000000 0.000000 0.000000 0.000000 0.000000 0.025483
#
#
# Mechanical properties :
#
#
# Convention : Reuss Voigt Hill
#
# Bulk Modulus (GPa) = 73.73571 74.24337 73.98954
# Shear Modulus (GPa) = 26.66749 28.48180 27.57464
#
# Velocity S-wave (km/s) = 3.83447 3.96276 3.89914
# Velocity P-wave (km/s) = 7.76263 7.86588 7.81443
#
# Compressibility (1/GPa) = 0.01356195
#
# Stress axis : x y z
#
# Youngs Moduli (GPa) = 62.60534 62.17358 69.33972
#
# Poissons Ratio (x) = 0.46895 0.27569
# Poissons Ratio (y) = 0.47221 0.34253
# Poissons Ratio (z) = 0.24891 0.30713
#
# Static dielectric constant tensor:
#      x y z
#    x 3.508720 0.000000 0.000000 
#    y 0.000000 3.462130 0.000000 
#    z 0.000000 0.000000 3.068830 
# 
# 
# High freq. dielectric constant tensor:
#      x y z
#    x 1.715890 0.000000 0.000000 
#    y 0.000000 1.714570 0.000000 
#    z 0.000000 0.000000 1.678010 
# 
# From -- ./inp_files/2691.got.cif
#   From: 2010.03.12/outbox.cif.g09.slc.cpg/sg47_2_cif.got.tgz:2691.got - 2010.04.14 03:12:58.
