data_PCOD8197898
_publ_section_title
;
Structure prediction by ZEFSAII (Michael W. Deem and Ramdas Pophale) SiO2 
 PCOD8197898
Probable space group: P M M M
;
_chemical_formula_sum "Si O2"
_cell_formula_units_Z 48
_cell_length_a 36.021997
_cell_length_b 7.610011
_cell_length_c 9.285447
_cell_angle_alpha 90.000000
_cell_angle_beta 90.000000
_cell_angle_gamma 90.000000
_cell_volume 2545.399097
_symmetry_space_group_name_H-M "P M M M"
_symmetry_group_IT_number 47
_symmetry_cell_setting 'orthorhombic'
loop_
_space_group_symop_operation_xyz
x,y,z
-x,-y,z
x,-y,-z
-x,y,-z
-x,-y,-z
x,y,-z
-x,y,z
x,-y,z
loop_
_atom_site_type_symbol
_atom_site_label
_atom_site_fract_x
_atom_site_fract_y
_atom_site_fract_z
Si Si1 0.238103 0.701302 0.332849
Si Si2 0.041289 0.500000 0.329035
Si Si3 0.164721 0.705768 0.834526
Si Si4 0.705281 0.000000 0.667747
Si Si5 0.428145 0.702052 0.167621
Si Si6 0.905816 0.195235 0.336199
Si Si7 0.500000 0.708217 0.661660
Si Si8 0.371186 0.000000 0.167504
O O1 0.227840 0.725791 0.500000
O O2 0.249207 0.500000 0.298182
O O3 0.202768 0.762634 0.241352
O O4 0.272201 0.825124 0.288218
O O5 0.038094 0.500000 0.500000
O O6 0.063265 0.672048 0.274403
O O7 0.000000 0.500000 0.260855
O O8 0.157932 0.500000 0.816772
O O9 0.130927 0.804101 0.759444
O O10 0.166862 0.764115 0.000000
O O11 0.666934 0.000000 0.749322
O O12 0.696365 0.000000 0.500000
O O13 0.418238 0.500000 0.206476
O O14 0.463429 0.773630 0.255787
O O15 0.393599 0.824248 0.210405
O O16 0.438107 0.721203 0.000000
O O17 0.895135 0.247877 0.500000
O O18 0.922995 0.000000 0.330365
O O19 0.500000 0.500000 0.659838
O O20 0.500000 0.785471 0.500000
O O21 0.361936 0.000000 0.000000
#
# Coordination Sequence:
#
# PCOD8197898 Si02
#       8
#     8   4   8   4   8   8   4   4
#     4   9  19  36  56  77 104 138 173 213 262 317
#     4   9  18  34  55  79 109 143 181 227 269 307
#     4  10  20  34  54  81 111 140 173 216 266 318
#     4  10  22  38  55  77 104 136 176 217 262 318
#     4   9  18  34  54  75 103 140 176 212 259 313
#     4  10  20  33  53  80 108 142 179 215 263 318
#     4   9  17  30  51  80 109 135 170 217 267 314
#     4  10  22  37  53  76 103 136 180 221 257 308
#
# _framework density 18.857552999999999
#
# number of rings (size 3 to 8) (size 9 to 14) (size 15 to 20)
#    0.000    2.500    0.833    0.750    1.167    4.667 
#    0.000    3.333    0.000    1.000    0.000    1.167 
#    0.000    0.000    0.000    0.000    0.000    0.000 
#
# Total GULP energy -595262.789904 kJ/mol
# GULP energy per Si atom -12401.308123 kJ/mol
# Density = 1.881463 g / cm^3
# Si number density = 18.857553 Si / 1000 Ang^3
#
#
#
# Elastic Constant Matrix: (Units=GPa)
#
#
# Indices 1 2 3 4 5 6 
#
# 1 173.4550 79.7241 69.7003 0.0000 0.0000 0.0000
# 2 79.7241 113.3103 40.1111 0.0000 0.0000 0.0000
# 3 69.7003 40.1111 76.6230 0.0000 0.0000 0.0000
# 4 0.0000 0.0000 0.0000 14.2875 0.0000 0.0000
# 5 0.0000 0.0000 0.0000 0.0000 -11.0387 0.0000
# 6 0.0000 0.0000 0.0000 0.0000 0.0000 16.4652
#
#
#
# Elastic Compliance Matrix: (Units=1/GPa)
#
#
# Indices 1 2 3 4 5 6 
#
# 1 0.011136 -0.005216 -0.007399 0.000000 0.000000 0.000000
# 2 -0.005216 0.013276 -0.002205 0.000000 0.000000 0.000000
# 3 -0.007399 -0.002205 0.020936 0.000000 0.000000 0.000000
# 4 0.000000 0.000000 0.000000 0.069991 0.000000 0.000000
# 5 0.000000 0.000000 0.000000 0.000000 -0.090590 0.000000
# 6 0.000000 0.000000 0.000000 0.000000 0.000000 0.060734
#
#
# Mechanical properties :
#
#
# Convention : Reuss Voigt Hill
#
# Bulk Modulus (GPa) = 63.66525 82.49549 73.08037
# Shear Modulus (GPa) = 41.54257 15.53299 28.53778
#
# Velocity S-wave (km/s) = 4.69867 2.87313 3.89438
# Velocity P-wave (km/s) = 7.95431 7.40595 7.68503
#
# Compressibility (1/GPa) = 0.01570716
#
# Stress axis : x y z
#
# Youngs Moduli (GPa) = 89.80087 75.32582 47.76440
#
# Poissons Ratio (x) = 0.39288 0.35342
# Poissons Ratio (y) = 0.46837 0.10533
# Poissons Ratio (z) = 0.66446 0.16611
#
# Static dielectric constant tensor:
#      x y z
#    x 3.359670 0.000000 0.000000 
#    y 0.000000 3.594550 0.000000 
#    z 0.000000 0.000000 3.383310 
# 
# 
# High freq. dielectric constant tensor:
#      x y z
#    x 1.722980 0.000000 0.000000 
#    y 0.000000 1.741690 0.000000 
#    z 0.000000 0.000000 1.717600 
# 
# From -- ./inp_files/14010.got.cif
#   From: 2010.03.12/outbox.cif.g09.slc.cpg/sg47_8_cif.got.tgz:14010.got - 2010.04.14 03:12:58.
