data_PCOD8197060
_publ_section_title
;
Structure prediction by ZEFSAII (Michael W. Deem and Ramdas Pophale) SiO2 
 PCOD8197060
Probable space group: P M M M
;
_chemical_formula_sum "Si O2"
_cell_formula_units_Z 44
_cell_length_a 9.456172
_cell_length_b 28.313032
_cell_length_c 9.279863
_cell_angle_alpha 90.000000
_cell_angle_beta 90.000000
_cell_angle_gamma 90.000000
_cell_volume 2484.524637
_symmetry_space_group_name_H-M "P M M M"
_symmetry_group_IT_number 47
_symmetry_cell_setting 'orthorhombic'
loop_
_space_group_symop_operation_xyz
x,y,z
-x,-y,z
x,-y,-z
-x,y,-z
-x,-y,-z
x,y,-z
-x,y,z
x,-y,z
loop_
_atom_site_type_symbol
_atom_site_label
_atom_site_fract_x
_atom_site_fract_y
_atom_site_fract_z
Si Si1 0.831631 0.821153 0.339212
Si Si2 0.168719 0.909647 0.162445
Si Si3 0.842382 0.282531 0.328445
Si Si4 0.831466 0.000000 0.663119
Si Si5 0.838552 0.445286 0.165968
Si Si6 0.661420 0.630180 0.329121
O O1 0.770660 0.829939 0.500000
O O2 0.772020 0.861489 0.233505
O O3 0.786589 0.769325 0.279763
O O4 0.000000 0.823157 0.346204
O O5 0.225987 0.953876 0.254205
O O6 0.000000 0.909551 0.162202
O O7 0.227195 0.913372 0.000000
O O8 0.847810 0.283054 0.500000
O O9 0.738005 0.322765 0.268921
O O10 0.000000 0.292278 0.266964
O O11 0.772794 0.000000 0.500000
O O12 0.000000 0.000000 0.661735
O O13 0.805557 0.500000 0.193481
O O14 0.733776 0.415991 0.265195
O O15 0.000000 0.433764 0.208869
O O16 0.811990 0.432218 0.000000
O O17 0.673837 0.627215 0.500000
O O18 0.500000 0.632070 0.277581
#
# Coordination Sequence:
#
# PCOD8197060 Si02
#       6
#     8   8   8   4   8   8
#     4   8  13  22  36  51  67  94 135 176 211 253
#     4   9  15  21  29  44  68  95 125 167 217 260
#     4   8  14  26  44  63  84 114 151 188 225 266
#     4   9  15  21  29  41  61  95 136 169 200 251
#     4   9  19  36  55  73  94 123 160 198 234 275
#     4  10  20  32  48  73 102 128 155 190 233 280
#
# _framework density 17.709626
#
# number of rings (size 3 to 8) (size 9 to 14) (size 15 to 20)
#    0.000    3.182    0.000    3.000    0.000    5.455 
#    0.000    3.636    0.000    3.273    0.000    0.000 
#    0.000    0.000    0.000    0.818    0.000   20.182 
#
# Total GULP energy -545413.976588 kJ/mol
# GULP energy per Si atom -12395.772195 kJ/mol
# Density = 1.766932 g / cm^3
# Si number density = 17.709626 Si / 1000 Ang^3
#
#
#
# Elastic Constant Matrix: (Units=GPa)
#
#
# Indices 1 2 3 4 5 6 
#
# 1 63.6767 55.4571 27.7782 0.0000 0.0000 0.0000
# 2 55.4571 147.3930 57.0663 0.0000 0.0000 0.0000
# 3 27.7782 57.0663 78.6752 0.0000 0.0000 0.0000
# 4 0.0000 0.0000 0.0000 13.7722 0.0000 0.0000
# 5 0.0000 0.0000 0.0000 0.0000 12.9272 0.0000
# 6 0.0000 0.0000 0.0000 0.0000 0.0000 2.0320
#
#
#
# Elastic Compliance Matrix: (Units=1/GPa)
#
#
# Indices 1 2 3 4 5 6 
#
# 1 0.023749 -0.007911 -0.002647 0.000000 0.000000 0.000000
# 2 -0.007911 0.012069 -0.005961 0.000000 0.000000 0.000000
# 3 -0.002647 -0.005961 0.017969 0.000000 0.000000 0.000000
# 4 0.000000 0.000000 0.000000 0.072610 0.000000 0.000000
# 5 0.000000 0.000000 0.000000 0.000000 0.077356 0.000000
# 6 0.000000 0.000000 0.000000 0.000000 0.000000 0.492123
#
#
# Mechanical properties :
#
#
# Convention : Reuss Voigt Hill
#
# Bulk Modulus (GPa) = 48.19545 63.37203 55.78374
# Shear Modulus (GPa) = 6.79505 15.70916 11.25211
#
# Velocity S-wave (km/s) = 1.96093 2.98155 2.52338
# Velocity P-wave (km/s) = 5.69213 6.90757 6.32909
#
# Compressibility (1/GPa) = 0.02074885
#
# Stress axis : x y z
#
# Youngs Moduli (GPa) = 42.10778 82.85750 55.65159
#
# Poissons Ratio (x) = 0.65545 0.14732
# Poissons Ratio (y) = 0.33310 0.33174
# Poissons Ratio (z) = 0.11147 0.49392
#
# Static dielectric constant tensor:
#      x y z
#    x 2.842390 0.000000 0.000000 
#    y 0.000000 3.593100 0.000000 
#    z 0.000000 0.000000 3.170330 
# 
# 
# High freq. dielectric constant tensor:
#      x y z
#    x 1.624640 0.000000 0.000000 
#    y 0.000000 1.703850 0.000000 
#    z 0.000000 0.000000 1.666290 
# 
# From -- ./inp_files/2163.got.cif
#   From: 2010.03.12/outbox.cif.g09.slc.cpg/sg47_2_cif.got.tgz:2163.got - 2010.04.14 03:12:58.
