data_PCOD8197129
_publ_section_title
;
Structure prediction by ZEFSAII (Michael W. Deem and Ramdas Pophale) SiO2 
 PCOD8197129
Probable space group: P M M M
;
_chemical_formula_sum "Si O2"
_cell_formula_units_Z 56
_cell_length_a 14.480139
_cell_length_b 8.961372
_cell_length_c 23.265991
_cell_angle_alpha 90.000000
_cell_angle_beta 90.000000
_cell_angle_gamma 90.000000
_cell_volume 3019.039481
_symmetry_space_group_name_H-M "P M M M"
_symmetry_group_IT_number 47
_symmetry_cell_setting 'orthorhombic'
loop_
_space_group_symop_operation_xyz
x,y,z
-x,-y,z
x,-y,-z
-x,y,-z
-x,-y,-z
x,y,-z
-x,y,z
x,-y,z
loop_
_atom_site_type_symbol
_atom_site_label
_atom_site_fract_x
_atom_site_fract_y
_atom_site_fract_z
Si Si1 0.239888 0.173665 0.435620
Si Si2 0.893767 0.175153 0.210020
Si Si3 0.605933 0.327520 0.376324
Si Si4 0.101838 0.176520 0.339486
Si Si5 0.608307 0.170965 0.741435
Si Si6 0.395031 0.828390 0.067045
Si Si7 0.723106 0.323782 0.839974
O O1 0.201141 0.198908 0.500000
O O2 0.334804 0.265099 0.429308
O O3 0.168342 0.240717 0.388962
O O4 0.259674 0.000000 0.424265
O O5 0.863959 0.218601 0.275320
O O6 0.827327 0.261797 0.166092
O O7 0.000000 0.222126 0.198728
O O8 0.881539 0.000000 0.199896
O O9 0.500000 0.300627 0.392601
O O10 0.626712 0.500000 0.364595
O O11 0.635325 0.234722 0.320372
O O12 0.000000 0.244821 0.349603
O O13 0.095941 0.000000 0.345147
O O14 0.500000 0.186071 0.753056
O O15 0.659579 0.265250 0.789067
O O16 0.641545 0.000000 0.744350
O O17 0.500000 0.777928 0.081415
O O18 0.321008 0.728008 0.100058
O O19 0.382264 0.000000 0.085839
O O20 0.375023 0.808425 0.000000
O O21 0.726783 0.500000 0.838474
#
# Coordination Sequence:
#
# PCOD8197129 Si02
#       7
#     8   8   8   8   8   8   8
#     4  10  20  32  49  74 100 129 167 207 248 303
#     4   9  18  34  56  78 101 136 182 226 266 313
#     4  10  21  36  52  70  95 128 166 211 265 317
#     4   8  15  30  52  76 100 126 160 206 258 306
#     4  10  20  34  53  76 103 135 171 213 260 312
#     4   9  19  37  59  81 108 146 190 229 262 301
#     4  12  23  32  50  81 115 147 176 213 263 315
#
# _framework density 18.548946000000001
#
# number of rings (size 3 to 8) (size 9 to 14) (size 15 to 20)
#    0.000    2.286    0.000    4.714    0.000    6.286 
#    0.000    3.571    0.000    1.714    0.000    4.000 
#    0.000    0.000    0.000    0.000    0.000    0.000 
#
# Total GULP energy -694429.752026 kJ/mol
# GULP energy per Si atom -12400.531286 kJ/mol
# Density = 1.850673 g / cm^3
# Si number density = 18.548946 Si / 1000 Ang^3
#
#
#
# Elastic Constant Matrix: (Units=GPa)
#
#
# Indices 1 2 3 4 5 6 
#
# 1 94.0663 53.2414 61.1996 0.0000 0.0000 0.0000
# 2 53.2414 89.9064 44.8624 0.0000 0.0000 0.0000
# 3 61.1996 44.8624 83.7563 0.0000 0.0000 0.0000
# 4 0.0000 0.0000 0.0000 15.6452 0.0000 0.0000
# 5 0.0000 0.0000 0.0000 0.0000 29.3861 0.0000
# 6 0.0000 0.0000 0.0000 0.0000 0.0000 18.5505
#
#
#
# Elastic Compliance Matrix: (Units=1/GPa)
#
#
# Indices 1 2 3 4 5 6 
#
# 1 0.023259 -0.007224 -0.013126 0.000000 0.000000 0.000000
# 2 -0.007224 0.017424 -0.004054 0.000000 0.000000 0.000000
# 3 -0.013126 -0.004054 0.023702 0.000000 0.000000 0.000000
# 4 0.000000 0.000000 0.000000 0.063918 0.000000 0.000000
# 5 0.000000 0.000000 0.000000 0.000000 0.034030 0.000000
# 6 0.000000 0.000000 0.000000 0.000000 0.000000 0.053907
#
#
# Mechanical properties :
#
#
# Convention : Reuss Voigt Hill
#
# Bulk Modulus (GPa) = 64.19853 65.14842 64.67348
# Shear Modulus (GPa) = 18.50213 19.94471 19.22342
#
# Velocity S-wave (km/s) = 3.16171 3.28265 3.22275
# Velocity P-wave (km/s) = 6.92922 7.04034 6.98500
#
# Compressibility (1/GPa) = 0.01557668
#
# Stress axis : x y z
#
# Youngs Moduli (GPa) = 42.99346 57.39308 42.19118
#
# Poissons Ratio (x) = 0.41462 0.55379
# Poissons Ratio (y) = 0.31060 0.17104
# Poissons Ratio (z) = 0.56432 0.23267
#
# Static dielectric constant tensor:
#      x y z
#    x 3.603430 0.000000 0.000000 
#    y 0.000000 3.229630 0.000000 
#    z 0.000000 0.000000 3.355430 
# 
# 
# High freq. dielectric constant tensor:
#      x y z
#    x 1.723630 0.000000 0.000000 
#    y 0.000000 1.701850 0.000000 
#    z 0.000000 0.000000 1.708570 
# 
# From -- ./inp_files/29697.got.cif
#   From: 2010.03.12/outbox.cif.g09.slc.cpg/sg47_15_cif.got.tgz:29697.got - 2010.04.14 03:12:58.
