data_PCOD8197016
_publ_section_title
;
Structure prediction by ZEFSAII (Michael W. Deem and Ramdas Pophale) SiO2 
 PCOD8197016
Probable space group: P M M M
;
_chemical_formula_sum "Si O2"
_cell_formula_units_Z 48
_cell_length_a 9.453220
_cell_length_b 30.827960
_cell_length_c 9.322230
_cell_angle_alpha 90.000000
_cell_angle_beta 90.000000
_cell_angle_gamma 90.000000
_cell_volume 2716.716783
_symmetry_space_group_name_H-M "P M M M"
_symmetry_group_IT_number 47
_symmetry_cell_setting 'orthorhombic'
loop_
_space_group_symop_operation_xyz
x,y,z
-x,-y,z
x,-y,-z
-x,y,-z
-x,-y,-z
x,y,-z
-x,y,z
x,-y,z
loop_
_atom_site_type_symbol
_atom_site_label
_atom_site_fract_x
_atom_site_fract_y
_atom_site_fract_z
Si Si1 0.167817 0.547842 0.660500
Si Si2 0.658716 0.118499 0.830495
Si Si3 0.332169 0.214001 0.159086
Si Si4 0.834592 0.951030 0.336436
Si Si5 0.666489 0.296508 0.333273
Si Si6 0.166974 0.369982 0.833572
O O1 0.222348 0.559253 0.500000
O O2 0.224372 0.500000 0.706231
O O3 0.221611 0.583853 0.772296
O O4 0.000000 0.546999 0.660287
O O5 0.500000 0.112636 0.769979
O O6 0.719387 0.166352 0.789519
O O7 0.756480 0.081903 0.766012
O O8 0.658882 0.113404 0.000000
O O9 0.500000 0.212352 0.149562
O O10 0.281802 0.250181 0.271797
O O11 0.271714 0.225082 0.000000
O O12 0.795487 0.940192 0.500000
O O13 0.000000 0.945845 0.310168
O O14 0.786972 0.000000 0.298950
O O15 0.705710 0.298243 0.500000
O O16 0.500000 0.303458 0.307324
O O17 0.751337 0.333042 0.250472
O O18 0.000000 0.363929 0.808888
O O19 0.207315 0.367872 0.000000
#
# Coordination Sequence:
#
# PCOD8197016 Si02
#       6
#     8   8   8   8   8   8
#     4   8  14  26  45  68  94 125 159 195 238 286
#     4   9  18  32  51  76 101 123 153 196 242 286
#     4   8  15  30  50  70  95 126 157 192 236 284
#     4   9  19  35  51  68  95 131 167 200 235 279
#     4  10  20  33  51  74  97 125 163 201 238 285
#     4  10  20  32  48  72 100 129 161 198 240 284
#
# _framework density 17.668385000000001
#
# number of rings (size 3 to 8) (size 9 to 14) (size 15 to 20)
#    0.000    3.000    0.000    3.000    0.000    4.333 
#    0.000    6.667    0.000    1.500    0.000    3.500 
#    0.000    0.000    0.000    0.000    0.000    0.000 
#
# Total GULP energy -594979.398584 kJ/mol
# GULP energy per Si atom -12395.404137 kJ/mol
# Density = 1.762817 g / cm^3
# Si number density = 17.668385 Si / 1000 Ang^3
#
#
#
# Elastic Constant Matrix: (Units=GPa)
#
#
# Indices 1 2 3 4 5 6 
#
# 1 28.1264 44.2706 34.3676 0.0000 0.0000 0.0000
# 2 44.2706 160.4079 85.1246 0.0000 0.0000 0.0000
# 3 34.3676 85.1246 106.7941 0.0000 0.0000 0.0000
# 4 0.0000 0.0000 0.0000 51.4461 0.0000 0.0000
# 5 0.0000 0.0000 0.0000 0.0000 25.5904 0.0000
# 6 0.0000 0.0000 0.0000 0.0000 0.0000 26.6341
#
#
#
# Elastic Compliance Matrix: (Units=1/GPa)
#
#
# Indices 1 2 3 4 5 6 
#
# 1 0.071483 -0.013034 -0.012615 0.000000 0.000000 0.000000
# 2 -0.013034 0.013181 -0.006312 0.000000 0.000000 0.000000
# 3 -0.012615 -0.006312 0.018454 0.000000 0.000000 0.000000
# 4 0.000000 0.000000 0.000000 0.019438 0.000000 0.000000
# 5 0.000000 0.000000 0.000000 0.000000 0.039077 0.000000
# 6 0.000000 0.000000 0.000000 0.000000 0.000000 0.037546
#
#
# Mechanical properties :
#
#
# Convention : Reuss Voigt Hill
#
# Bulk Modulus (GPa) = 25.51199 69.20601 47.35900
# Shear Modulus (GPa) = 18.10498 29.50515 23.80507
#
# Velocity S-wave (km/s) = 3.20458 4.09092 3.67458
# Velocity P-wave (km/s) = 5.30690 7.84657 6.69820
#
# Compressibility (1/GPa) = 0.03919725
#
# Stress axis : x y z
#
# Youngs Moduli (GPa) = 13.98926 75.86712 54.18733
#
# Poissons Ratio (x) = 0.98887 0.68356
# Poissons Ratio (y) = 0.18234 0.34202
# Poissons Ratio (z) = 0.17647 0.47886
#
# Static dielectric constant tensor:
#      x y z
#    x 2.922310 0.000000 0.000000 
#    y 0.000000 3.666290 0.000000 
#    z 0.000000 0.000000 3.370370 
# 
# 
# High freq. dielectric constant tensor:
#      x y z
#    x 1.640850 0.000000 0.000000 
#    y 0.000000 1.699920 0.000000 
#    z 0.000000 0.000000 1.684760 
# 
# From -- ./inp_files/2439.got.cif
#   From: 2010.03.12/outbox.cif.g09.slc.cpg/sg47_2_cif.got.tgz:2439.got - 2010.04.14 03:12:58.
