data_PCOD8197429
_publ_section_title
;
Structure prediction by ZEFSAII (Michael W. Deem and Ramdas Pophale) SiO2 
 PCOD8197429
Probable space group: P M M M
;
_chemical_formula_sum "Si O2"
_cell_formula_units_Z 56
_cell_length_a 13.911345
_cell_length_b 9.463850
_cell_length_c 21.643306
_cell_angle_alpha 90.000000
_cell_angle_beta 90.000000
_cell_angle_gamma 90.000000
_cell_volume 2849.446906
_symmetry_space_group_name_H-M "P M M M"
_symmetry_group_IT_number 47
_symmetry_cell_setting 'orthorhombic'
loop_
_space_group_symop_operation_xyz
x,y,z
-x,-y,z
x,-y,-z
-x,y,-z
-x,-y,-z
x,y,-z
-x,y,z
x,-y,z
loop_
_atom_site_type_symbol
_atom_site_label
_atom_site_fract_x
_atom_site_fract_y
_atom_site_fract_z
Si Si1 0.613049 0.653952 0.500000
Si Si2 0.791400 0.336403 0.708563
Si Si3 0.605798 0.657549 0.073302
Si Si4 0.891105 0.660311 0.833883
Si Si5 0.215650 0.163908 0.072395
Si Si6 0.114119 0.341274 0.500000
Si Si7 0.393006 0.667654 0.366200
Si Si8 0.112551 0.842522 0.388417
O O1 0.663322 0.500000 0.500000
O O2 0.500000 0.634817 0.500000
O O3 0.639799 0.730319 0.565848
O O4 0.811777 0.500000 0.691184
O O5 0.811388 0.311402 0.780881
O O6 0.683531 0.290608 0.687353
O O7 0.867203 0.234241 0.675804
O O8 0.500000 0.701828 0.098266
O O9 0.631841 0.500000 0.097467
O O10 0.684750 0.768047 0.096819
O O11 0.603630 0.656943 0.000000
O O12 0.881312 0.500000 0.857736
O O13 0.871693 0.763873 0.891235
O O14 0.000000 0.687797 0.809728
O O15 0.218986 0.000000 0.088527
O O16 0.199282 0.190929 0.000000
O O17 0.155343 0.500000 0.500000
O O18 0.156625 0.257394 0.558446
O O19 0.000000 0.344920 0.500000
O O20 0.500000 0.724454 0.347754
O O21 0.398077 0.500000 0.373001
O O22 0.000000 0.856604 0.398408
O O23 0.158367 0.000000 0.390494
#
# Coordination Sequence:
#
# PCOD8197429 Si02
#       8
#     4   8   8   8   8   4   8   8
#     4   7  10  19  38  67 103 137 166 201 249 302
#     4  10  20  34  54  78 103 135 178 223 263 312
#     4   8  14  27  50  80 113 147 178 206 242 297
#     4  10  22  39  56  75 103 139 179 226 279 336
#     4  10  21  36  56  83 111 138 173 222 278 336
#     4   9  17  30  49  72  99 133 174 220 265 309
#     4   8  14  26  46  74 108 142 176 218 265 310
#     4  10  20  33  49  71 102 138 174 215 265 317
#
# _framework density 19.652936
#
# number of rings (size 3 to 8) (size 9 to 14) (size 15 to 20)
#    0.000    2.857    0.000    2.786    0.000    5.143 
#    0.000    5.000    0.000    3.000    0.000    0.000 
#    0.000    2.857    0.000    0.000    0.000    0.000 
#
# Total GULP energy -693851.441052 kJ/mol
# GULP energy per Si atom -12390.204304 kJ/mol
# Density = 1.960820 g / cm^3
# Si number density = 19.652936 Si / 1000 Ang^3
#
#
#
# Elastic Constant Matrix: (Units=GPa)
#
#
# Indices 1 2 3 4 5 6 
#
# 1 99.6800 34.0766 47.0207 0.0000 0.0000 0.0000
# 2 34.0766 112.9822 53.8005 0.0000 0.0000 0.0000
# 3 47.0207 53.8005 83.0254 0.0000 0.0000 0.0000
# 4 0.0000 0.0000 0.0000 18.7155 0.0000 0.0000
# 5 0.0000 0.0000 0.0000 0.0000 57.8200 0.0000
# 6 0.0000 0.0000 0.0000 0.0000 0.0000 18.7585
#
#
#
# Elastic Compliance Matrix: (Units=1/GPa)
#
#
# Indices 1 2 3 4 5 6 
#
# 1 0.013720 -0.000634 -0.007360 0.000000 0.000000 0.000000
# 2 -0.000634 0.012830 -0.007955 0.000000 0.000000 0.000000
# 3 -0.007360 -0.007955 0.021368 0.000000 0.000000 0.000000
# 4 0.000000 0.000000 0.000000 0.053432 0.000000 0.000000
# 5 0.000000 0.000000 0.000000 0.000000 0.017295 0.000000
# 6 0.000000 0.000000 0.000000 0.000000 0.000000 0.053309
#
#
# Mechanical properties :
#
#
# Convention : Reuss Voigt Hill
#
# Bulk Modulus (GPa) = 62.41780 62.83146 62.62463
# Shear Modulus (GPa) = 23.90151 29.77812 26.83981
#
# Velocity S-wave (km/s) = 3.49116 3.89678 3.69953
# Velocity P-wave (km/s) = 6.93397 7.23094 7.08401
#
# Compressibility (1/GPa) = 0.01602107
#
# Stress axis : x y z
#
# Youngs Moduli (GPa) = 72.88367 77.94130 46.79963
#
# Poissons Ratio (x) = 0.04938 0.34444
# Poissons Ratio (y) = 0.04618 0.37230
# Poissons Ratio (z) = 0.53642 0.62003
#
# Static dielectric constant tensor:
#      x y z
#    x 3.671030 0.000000 0.000000 
#    y 0.000000 3.449500 0.000000 
#    z 0.000000 0.000000 3.419660 
# 
# 
# High freq. dielectric constant tensor:
#      x y z
#    x 1.767120 0.000000 0.000000 
#    y 0.000000 1.736350 0.000000 
#    z 0.000000 0.000000 1.744830 
# 
# From -- ./inp_files/31006.got.cif
#   From: 2010.03.12/outbox.cif.g09.slc.cpg/sg47_16_cif.got.tgz:31006.got - 2010.04.14 03:12:58.
