data_PCOD8197071
_publ_section_title
;
Structure prediction by ZEFSAII (Michael W. Deem and Ramdas Pophale) SiO2 
 PCOD8197071
Probable space group: P M M M
;
_chemical_formula_sum "Si O2"
_cell_formula_units_Z 48
_cell_length_a 9.539955
_cell_length_b 31.119893
_cell_length_c 9.076248
_cell_angle_alpha 90.000000
_cell_angle_beta 90.000000
_cell_angle_gamma 90.000000
_cell_volume 2694.578097
_symmetry_space_group_name_H-M "P M M M"
_symmetry_group_IT_number 47
_symmetry_cell_setting 'orthorhombic'
loop_
_space_group_symop_operation_xyz
x,y,z
-x,-y,z
x,-y,-z
-x,y,-z
-x,-y,-z
x,y,-z
-x,y,z
x,-y,z
loop_
_atom_site_type_symbol
_atom_site_label
_atom_site_fract_x
_atom_site_fract_y
_atom_site_fract_z
Si Si1 0.166270 0.452755 0.335018
Si Si2 0.165480 0.369367 0.169941
Si Si3 0.157521 0.952663 0.675111
Si Si4 0.662521 0.703893 0.673178
Si Si5 0.666561 0.789377 0.166085
Si Si6 0.662797 0.873889 0.327627
O O1 0.221190 0.442287 0.500000
O O2 0.221849 0.500000 0.285090
O O3 0.218718 0.416331 0.222380
O O4 0.000000 0.453574 0.336214
O O5 0.245748 0.334757 0.266325
O O6 0.000000 0.363814 0.195964
O O7 0.206011 0.363704 0.000000
O O8 0.162769 0.952184 0.500000
O O9 0.259269 0.915804 0.737406
O O10 0.000000 0.943257 0.730141
O O11 0.205958 0.000000 0.731255
O O12 0.684848 0.708095 0.500000
O O13 0.500000 0.695766 0.713032
O O14 0.719534 0.747555 0.746973
O O15 0.500000 0.790510 0.168675
O O16 0.724081 0.832112 0.245341
O O17 0.725043 0.787573 0.000000
O O18 0.691398 0.867325 0.500000
O O19 0.500000 0.880630 0.294103
#
# Coordination Sequence:
#
# PCOD8197071 Si02
#       6
#     8   8   8   8   8   8
#     4   8  14  26  45  68  94 126 163 200 238 281
#     4  10  20  32  48  73 103 131 159 195 240 287
#     4   8  14  25  41  62  89 119 148 179 219 267
#     4  10  20  34  53  74  95 124 163 201 238 285
#     4   9  17  30  48  68  91 120 152 187 230 279
#     4   9  16  26  43  67  90 111 143 188 228 262
#
# _framework density 17.813548999999998
#
# number of rings (size 3 to 8) (size 9 to 14) (size 15 to 20)
#    0.000    3.000    0.000    2.500    0.000    4.667 
#    0.000    4.167    0.000    4.500    0.000    7.000 
#    0.000    0.000    0.000    0.000    0.000    0.000 
#
# Total GULP energy -595004.967900 kJ/mol
# GULP energy per Si atom -12395.936831 kJ/mol
# Density = 1.777300 g / cm^3
# Si number density = 17.813549 Si / 1000 Ang^3
#
#
#
# Elastic Constant Matrix: (Units=GPa)
#
#
# Indices 1 2 3 4 5 6 
#
# 1 36.5248 48.4831 28.3185 0.0000 0.0000 0.0000
# 2 48.4831 172.8802 60.9426 0.0000 0.0000 0.0000
# 3 28.3185 60.9426 79.5242 0.0000 0.0000 0.0000
# 4 0.0000 0.0000 0.0000 10.0916 0.0000 0.0000
# 5 0.0000 0.0000 0.0000 0.0000 16.0949 0.0000
# 6 0.0000 0.0000 0.0000 0.0000 0.0000 27.3551
#
#
#
# Elastic Compliance Matrix: (Units=1/GPa)
#
#
# Indices 1 2 3 4 5 6 
#
# 1 0.048178 -0.010226 -0.009320 0.000000 0.000000 0.000000
# 2 -0.010226 0.010096 -0.004095 0.000000 0.000000 0.000000
# 3 -0.009320 -0.004095 0.019032 0.000000 0.000000 0.000000
# 4 0.000000 0.000000 0.000000 0.099092 0.000000 0.000000
# 5 0.000000 0.000000 0.000000 0.000000 0.062131 0.000000
# 6 0.000000 0.000000 0.000000 0.000000 0.000000 0.036556
#
#
# Mechanical properties :
#
#
# Convention : Reuss Voigt Hill
#
# Bulk Modulus (GPa) = 33.30660 62.71307 48.00984
# Shear Modulus (GPa) = 15.04320 20.78733 17.91526
#
# Velocity S-wave (km/s) = 2.90915 3.41975 3.17473
# Velocity P-wave (km/s) = 5.47924 7.13265 6.35990
#
# Compressibility (1/GPa) = 0.03002408
#
# Stress axis : x y z
#
# Youngs Moduli (GPa) = 20.75618 99.05068 52.54314
#
# Poissons Ratio (x) = 1.01289 0.48969
# Poissons Ratio (y) = 0.21225 0.21518
# Poissons Ratio (z) = 0.19344 0.40565
#
# Static dielectric constant tensor:
#      x y z
#    x 2.973610 0.000000 0.000000 
#    y 0.000000 3.759110 0.000000 
#    z 0.000000 0.000000 3.241430 
# 
# 
# High freq. dielectric constant tensor:
#      x y z
#    x 1.644840 0.000000 0.000000 
#    y 0.000000 1.708630 0.000000 
#    z 0.000000 0.000000 1.675560 
# 
# From -- ./inp_files/2481.got.cif
#   From: 2010.03.12/outbox.cif.g09.slc.cpg/sg47_2_cif.got.tgz:2481.got - 2010.04.14 03:12:58.
