data_PCOD8197802
_publ_section_title
;
Structure prediction by ZEFSAII (Michael W. Deem and Ramdas Pophale) SiO2 
 PCOD8197802
Probable space group: P M M M
;
_chemical_formula_sum "Si O2"
_cell_formula_units_Z 48
_cell_length_a 8.202929
_cell_length_b 32.711898
_cell_length_c 9.264910
_cell_angle_alpha 90.000000
_cell_angle_beta 90.000000
_cell_angle_gamma 90.000000
_cell_volume 2486.084586
_symmetry_space_group_name_H-M "P M M M"
_symmetry_group_IT_number 47
_symmetry_cell_setting 'orthorhombic'
loop_
_space_group_symop_operation_xyz
x,y,z
-x,-y,z
x,-y,-z
-x,y,-z
-x,-y,-z
x,y,-z
-x,y,z
x,-y,z
loop_
_atom_site_type_symbol
_atom_site_label
_atom_site_fract_x
_atom_site_fract_y
_atom_site_fract_z
Si Si1 0.689615 0.576163 0.660955
Si Si2 0.813211 0.660342 0.667122
Si Si3 0.312074 0.744353 0.660713
Si Si4 0.811853 0.819083 0.164585
Si Si5 0.500000 0.954291 0.670945
Si Si6 0.813484 0.097650 0.330369
Si Si7 0.695021 0.500000 0.161635
O O1 0.768640 0.574478 0.500000
O O2 0.500000 0.568135 0.648472
O O3 0.720781 0.620824 0.732569
O O4 0.765436 0.540278 0.758643
O O5 0.764912 0.664382 0.500000
O O6 0.765111 0.703981 0.736825
O O7 0.000000 0.651622 0.694589
O O8 0.236836 0.752729 0.500000
O O9 0.500000 0.735196 0.644874
O O10 0.287982 0.783049 0.762269
O O11 0.776193 0.860699 0.248241
O O12 0.000000 0.807129 0.173263
O O13 0.753651 0.824549 0.000000
O O14 0.500000 0.955688 0.500000
O O15 0.670158 0.933155 0.722144
O O16 0.500000 0.000000 0.735905
O O17 0.797944 0.106059 0.500000
O O18 0.000000 0.081863 0.295056
O O19 0.500000 0.500000 0.159812
O O20 0.764663 0.500000 0.000000
#
# Coordination Sequence:
#
# PCOD8197802 Si02
#       7
#     8   8   8   8   4   8   4
#     4   9  16  28  48  71  93 118 153 196 239 286
#     4   9  17  30  49  72  97 126 161 202 247 295
#     4  10  20  33  52  78 105 134 170 212 257 308
#     4  10  21  36  53  75 105 140 177 219 265 311
#     4   9  18  32  53  83 113 139 177 229 277 324
#     4   9  18  33  54  79 108 143 181 222 271 324
#     4   9  17  29  46  69  94 120 152 191 238 290
#
# _framework density 19.307469999999999
#
# number of rings (size 3 to 8) (size 9 to 14) (size 15 to 20)
#    0.000    2.667    0.000    1.750    1.167    5.333 
#    0.000    2.917    0.000    7.000    0.000    2.333 
#    0.000    0.000    0.000    0.000    0.000    0.000 
#
# Total GULP energy -594901.041625 kJ/mol
# GULP energy per Si atom -12393.771701 kJ/mol
# Density = 1.926353 g / cm^3
# Si number density = 19.307470 Si / 1000 Ang^3
#
#
#
# Elastic Constant Matrix: (Units=GPa)
#
#
# Indices 1 2 3 4 5 6 
#
# 1 67.4165 52.8809 22.5079 0.0000 0.0000 0.0000
# 2 52.8809 160.6653 53.4709 0.0000 0.0000 0.0000
# 3 22.5079 53.4709 66.5535 0.0000 0.0000 0.0000
# 4 0.0000 0.0000 0.0000 -0.2784 0.0000 0.0000
# 5 0.0000 0.0000 0.0000 0.0000 13.3795 0.0000
# 6 0.0000 0.0000 0.0000 0.0000 0.0000 15.9457
#
#
#
# Elastic Compliance Matrix: (Units=1/GPa)
#
#
# Indices 1 2 3 4 5 6 
#
# 1 0.020195 -0.005970 -0.002033 0.000000 0.000000 0.000000
# 2 -0.005970 0.010261 -0.006225 0.000000 0.000000 0.000000
# 3 -0.002033 -0.006225 0.020714 0.000000 0.000000 0.000000
# 4 0.000000 0.000000 0.000000 -3.591914 0.000000 0.000000
# 5 0.000000 0.000000 0.000000 0.000000 0.074741 0.000000
# 6 0.000000 0.000000 0.000000 0.000000 0.000000 0.062713
#
#
# Mechanical properties :
#
#
# Convention : Reuss Voigt Hill
#
# Bulk Modulus (GPa) = 44.02609 61.37273 52.69941
# Shear Modulus (GPa) = -1.48489 16.86106 7.68809
#
# Velocity S-wave (km/s) = -0.87792 2.95836 1.99764
# Velocity P-wave (km/s) = 4.67167 6.59736 5.71619
#
# Compressibility (1/GPa) = 0.02271380
#
# Stress axis : x y z
#
# Youngs Moduli (GPa) = 49.51726 97.45827 48.27609
#
# Poissons Ratio (x) = 0.58185 0.09815
# Poissons Ratio (y) = 0.29563 0.30050
# Poissons Ratio (z) = 0.10067 0.60665
#
# Static dielectric constant tensor:
#      x y z
#    x 3.441050 0.000000 0.000000 
#    y 0.000000 3.678580 0.000000 
#    z 0.000000 0.000000 3.330440 
# 
# 
# High freq. dielectric constant tensor:
#      x y z
#    x 1.744490 0.000000 0.000000 
#    y 0.000000 1.760730 0.000000 
#    z 0.000000 0.000000 1.710570 
# 
# From -- ./inp_files/2638.got.cif
#   From: 2010.03.12/outbox.cif.g09.slc.cpg/sg47_2_cif.got.tgz:2638.got - 2010.04.14 03:12:58.
