data_PCOD8197839
_publ_section_title
;
Structure prediction by ZEFSAII (Michael W. Deem and Ramdas Pophale) SiO2 
 PCOD8197839
Probable space group: P M M M
;
_chemical_formula_sum "Si O2"
_cell_formula_units_Z 48
_cell_length_a 30.728433
_cell_length_b 9.046843
_cell_length_c 9.184863
_cell_angle_alpha 90.000000
_cell_angle_beta 90.000000
_cell_angle_gamma 90.000000
_cell_volume 2553.348828
_symmetry_space_group_name_H-M "P M M M"
_symmetry_group_IT_number 47
_symmetry_cell_setting 'orthorhombic'
loop_
_space_group_symop_operation_xyz
x,y,z
-x,-y,z
x,-y,-z
-x,y,-z
-x,-y,-z
x,y,-z
-x,y,z
x,-y,z
loop_
_atom_site_type_symbol
_atom_site_label
_atom_site_fract_x
_atom_site_fract_y
_atom_site_fract_z
Si Si1 0.789567 0.327353 0.329910
Si Si2 0.623764 0.330263 0.831254
Si Si3 0.952154 0.334363 0.172798
Si Si4 0.450633 0.166883 0.328964
Si Si5 0.711410 0.174027 0.831860
Si Si6 0.867629 0.830189 0.827703
O O1 0.793351 0.292977 0.500000
O O2 0.784880 0.500000 0.297662
O O3 0.747726 0.245724 0.267918
O O4 0.832284 0.268833 0.251146
O O5 0.633991 0.500000 0.795748
O O6 0.580810 0.282126 0.747430
O O7 0.664890 0.234533 0.779050
O O8 0.614616 0.303653 0.000000
O O9 0.941981 0.500000 0.229921
O O10 0.915115 0.222367 0.228302
O O11 0.000000 0.283267 0.229576
O O12 0.952556 0.335239 0.000000
O O13 0.444068 0.180736 0.500000
O O14 0.500000 0.207522 0.285770
O O15 0.439889 0.000000 0.277798
O O16 0.712290 0.000000 0.808676
O O17 0.720126 0.216834 0.000000
O O18 0.861257 0.000000 0.783158
O O19 0.862462 0.808180 0.000000
#
# Coordination Sequence:
#
# PCOD8197839 Si02
#       6
#     8   8   8   8   8   8
#     4  11  24  39  55  77 105 138 176 216 260 311
#     4  10  21  36  55  81 111 141 174 214 261 312
#     4   8  14  26  46  73 104 137 173 213 257 305
#     4   9  19  36  56  78 106 142 183 223 263 309
#     4  10  21  38  60  83 106 135 173 215 261 314
#     4  10  20  33  52  79 108 139 175 214 260 312
#
# _framework density 18.798843000000002
#
# number of rings (size 3 to 8) (size 9 to 14) (size 15 to 20)
#    0.000    2.333    0.000    3.500    0.000    8.333 
#    0.000    4.167    0.000    0.500    0.000    3.500 
#    0.000    0.000    0.000    0.000    0.000    0.000 
#
# Total GULP energy -595240.467887 kJ/mol
# GULP energy per Si atom -12400.843081 kJ/mol
# Density = 1.875606 g / cm^3
# Si number density = 18.798843 Si / 1000 Ang^3
#
#
#
# Elastic Constant Matrix: (Units=GPa)
#
#
# Indices 1 2 3 4 5 6 
#
# 1 136.6762 56.7835 43.5647 0.0000 0.0000 0.0000
# 2 56.7835 90.2730 37.1104 0.0000 0.0000 0.0000
# 3 43.5647 37.1104 41.5920 0.0000 0.0000 0.0000
# 4 0.0000 0.0000 0.0000 27.4488 0.0000 0.0000
# 5 0.0000 0.0000 0.0000 0.0000 -57.0332 0.0000
# 6 0.0000 0.0000 0.0000 0.0000 0.0000 36.9305
#
#
#
# Elastic Compliance Matrix: (Units=1/GPa)
#
#
# Indices 1 2 3 4 5 6 
#
# 1 0.011705 -0.003668 -0.008988 0.000000 0.000000 0.000000
# 2 -0.003668 0.018644 -0.012793 0.000000 0.000000 0.000000
# 3 -0.008988 -0.012793 0.044871 0.000000 0.000000 0.000000
# 4 0.000000 0.000000 0.000000 0.036431 0.000000 0.000000
# 5 0.000000 0.000000 0.000000 0.000000 -0.017534 0.000000
# 6 0.000000 0.000000 0.000000 0.000000 0.000000 0.027078
#
#
# Mechanical properties :
#
#
# Convention : Reuss Voigt Hill
#
# Bulk Modulus (GPa) = 41.11272 60.38428 50.74850
# Shear Modulus (GPa) = 27.74683 10.20806 18.97745
#
# Velocity S-wave (km/s) = 3.84602 2.33280 3.18071
# Velocity P-wave (km/s) = 6.45289 6.28068 6.36737
#
# Compressibility (1/GPa) = 0.02432337
#
# Stress axis : x y z
#
# Youngs Moduli (GPa) = 85.43178 53.63699 22.28600
#
# Poissons Ratio (x) = 0.19675 0.20030
# Poissons Ratio (y) = 0.31338 0.28510
# Poissons Ratio (z) = 0.76782 0.68617
#
# Static dielectric constant tensor:
#      x y z
#    x 3.763770 0.000000 0.000000 
#    y 0.000000 3.552120 0.000000 
#    z 0.000000 0.000000 3.200120 
# 
# 
# High freq. dielectric constant tensor:
#      x y z
#    x 1.746800 0.000000 0.000000 
#    y 0.000000 1.738320 0.000000 
#    z 0.000000 0.000000 1.702050 
# 
# From -- ./inp_files/2459.got.cif
#   From: 2010.03.12/outbox.cif.g09.slc.cpg/sg47_2_cif.got.tgz:2459.got - 2010.04.14 03:12:58.
