data_PCOD8197299
_publ_section_title
;
Structure prediction by ZEFSAII (Michael W. Deem and Ramdas Pophale) SiO2 
 PCOD8197299
Probable space group: P M M M
;
_chemical_formula_sum "Si O2"
_cell_formula_units_Z 48
_cell_length_a 9.054631
_cell_length_b 16.430886
_cell_length_c 22.065896
_cell_angle_alpha 90.000000
_cell_angle_beta 90.000000
_cell_angle_gamma 90.000000
_cell_volume 3282.867132
_symmetry_space_group_name_H-M "P M M M"
_symmetry_group_IT_number 47
_symmetry_cell_setting 'orthorhombic'
loop_
_space_group_symop_operation_xyz
x,y,z
-x,-y,z
x,-y,-z
-x,y,-z
-x,-y,-z
x,y,-z
-x,y,z
x,-y,z
loop_
_atom_site_type_symbol
_atom_site_label
_atom_site_fract_x
_atom_site_fract_y
_atom_site_fract_z
Si Si1 0.674560 0.163297 0.929770
Si Si2 0.334701 0.403618 0.617482
Si Si3 0.830163 0.300757 0.146640
Si Si4 0.165201 0.000000 0.928470
Si Si5 0.833463 0.597202 0.500000
Si Si6 0.339559 0.594765 0.933825
Si Si7 0.826295 0.593074 0.260376
O O1 0.500000 0.154687 0.924984
O O2 0.728235 0.229733 0.880728
O O3 0.747255 0.079635 0.906948
O O4 0.720436 0.183227 0.000000
O O5 0.500000 0.367455 0.618211
O O6 0.339687 0.500000 0.612280
O O7 0.248505 0.368037 0.559450
O O8 0.252231 0.377626 0.678550
O O9 0.802218 0.377678 0.103614
O O10 0.783316 0.336480 0.212169
O O11 0.000000 0.273173 0.145111
O O12 0.000000 0.000000 0.900333
O O13 0.155331 0.000000 0.000000
O O14 0.832795 0.500000 0.500000
O O15 0.000000 0.630644 0.500000
O O16 0.500000 0.619288 0.904722
O O17 0.328761 0.500000 0.940906
O O18 0.331947 0.636081 0.000000
O O19 0.776467 0.500000 0.241795
O O20 0.000000 0.592424 0.271589
#
# Coordination Sequence:
#
# PCOD8197299 Si02
#       7
#     8   8   8   4   4   8   8
#     4  10  20  33  48  65  85 107 130 159 200 250
#     4   9  16  25  38  56  75  96 128 169 206 240
#     4  11  21  30  42  60  80 103 134 170 204 240
#     4   9  17  31  51  71  87 101 121 154 197 244
#     4   9  15  23  37  55  75  99 125 158 203 246
#     4   9  18  31  43  54  71  97 129 166 208 249
#     4   9  18  31  42  53  75 107 140 173 210 248
#
# _framework density 14.621365000000001
#
# number of rings (size 3 to 8) (size 9 to 14) (size 15 to 20)
#    0.000    2.500    0.000    3.500    0.000    9.667 
#    0.000    2.500    0.000    0.000    0.000    0.000 
#    0.000    0.000    0.000    0.000    0.000    0.833 
#
# Total GULP energy -594698.583735 kJ/mol
# GULP energy per Si atom -12389.553828 kJ/mol
# Density = 1.458809 g / cm^3
# Si number density = 14.621365 Si / 1000 Ang^3
#
#
#
# Elastic Constant Matrix: (Units=GPa)
#
#
# Indices 1 2 3 4 5 6 
#
# 1 76.5667 36.5182 52.2910 0.0000 0.0000 0.0000
# 2 36.5182 52.4918 41.1659 0.0000 0.0000 0.0000
# 3 52.2910 41.1659 99.0837 0.0000 0.0000 0.0000
# 4 0.0000 0.0000 0.0000 9.5619 0.0000 0.0000
# 5 0.0000 0.0000 0.0000 0.0000 24.6050 0.0000
# 6 0.0000 0.0000 0.0000 0.0000 0.0000 21.6725
#
#
#
# Elastic Compliance Matrix: (Units=1/GPa)
#
#
# Indices 1 2 3 4 5 6 
#
# 1 0.023372 -0.009770 -0.008275 0.000000 0.000000 0.000000
# 2 -0.009770 0.032341 -0.008281 0.000000 0.000000 0.000000
# 3 -0.008275 -0.008281 0.017900 0.000000 0.000000 0.000000
# 4 0.000000 0.000000 0.000000 0.104582 0.000000 0.000000
# 5 0.000000 0.000000 0.000000 0.000000 0.040642 0.000000
# 6 0.000000 0.000000 0.000000 0.000000 0.000000 0.046141
#
#
# Mechanical properties :
#
#
# Convention : Reuss Voigt Hill
#
# Bulk Modulus (GPa) = 47.70649 54.23250 50.96949
# Shear Modulus (GPa) = 15.40272 17.71234 16.55753
#
# Velocity S-wave (km/s) = 3.24919 3.48429 3.36880
# Velocity P-wave (km/s) = 6.83923 7.30472 7.07580
#
# Compressibility (1/GPa) = 0.02096151
#
# Stress axis : x y z
#
# Youngs Moduli (GPa) = 42.78656 30.92006 55.86535
#
# Poissons Ratio (x) = 0.30208 0.46231
# Poissons Ratio (y) = 0.41802 0.46261
# Poissons Ratio (z) = 0.35407 0.25604
#
# Static dielectric constant tensor:
#      x y z
#    x 3.051350 0.000000 0.000000 
#    y 0.000000 2.617470 0.000000 
#    z 0.000000 0.000000 2.831470 
# 
# 
# High freq. dielectric constant tensor:
#      x y z
#    x 1.574620 0.000000 0.000000 
#    y 0.000000 1.513330 0.000000 
#    z 0.000000 0.000000 1.540430 
# 
# From -- ./inp_files/9760.got.cif
#   From: 2010.03.12/outbox.cif.g09.slc.cpg/sg47_5_cif.got.tgz:9760.got - 2010.04.14 03:12:58.
