data_PCOD8197849
_publ_section_title
;
Structure prediction by ZEFSAII (Michael W. Deem and Ramdas Pophale) SiO2 
 PCOD8197849
Probable space group: P M M M
;
_chemical_formula_sum "Si O2"
_cell_formula_units_Z 32
_cell_length_a 7.793749
_cell_length_b 22.279094
_cell_length_c 8.992641
_cell_angle_alpha 90.000000
_cell_angle_beta 90.000000
_cell_angle_gamma 90.000000
_cell_volume 1561.461200
_symmetry_space_group_name_H-M "P M M M"
_symmetry_group_IT_number 47
_symmetry_cell_setting 'orthorhombic'
loop_
_space_group_symop_operation_xyz
x,y,z
-x,-y,z
x,-y,-z
-x,y,-z
-x,-y,-z
x,y,-z
-x,y,z
x,-y,z
loop_
_atom_site_type_symbol
_atom_site_label
_atom_site_fract_x
_atom_site_fract_y
_atom_site_fract_z
Si Si1 0.500000 0.929106 0.329205
Si Si2 0.803990 0.258704 0.337752
Si Si3 0.201071 0.500000 0.170141
Si Si4 0.302994 0.372909 0.832062
Si Si5 0.201062 0.858887 0.824825
O O1 0.500000 0.907256 0.500000
O O2 0.675576 0.907424 0.251188
O O3 0.500000 0.000000 0.317378
O O4 0.711153 0.258470 0.500000
O O5 0.792954 0.323797 0.264339
O O6 0.732008 0.206239 0.231910
O O7 0.000000 0.243685 0.363568
O O8 0.275615 0.561162 0.242199
O O9 0.000000 0.500000 0.190076
O O10 0.262589 0.500000 0.000000
O O11 0.500000 0.355308 0.833016
O O12 0.226977 0.372539 0.000000
O O13 0.000000 0.871643 0.785838
O O14 0.229653 0.860862 0.000000
#
# Coordination Sequence:
#
# PCOD8197849 Si02
#       5
#     4   8   4   8   8
#     4  11  25  43  65  95 131 170 207 246 299 365
#     4  10  21  37  57  82 113 150 192 239 295 357
#     4   9  17  31  52  75 102 141 188 238 290 347
#     4  10  20  33  52  79 110 144 185 236 293 353
#     4  10  22  41  66  94 125 163 209 260 308 357
#
# _framework density 20.493624000000001
#
# number of rings (size 3 to 8) (size 9 to 14) (size 15 to 20)
#    0.000    2.000    0.000    3.000    1.750    7.500 
#    0.000    3.125    0.000    3.750    0.000    0.000 
#    0.000    0.000    0.000    0.000    0.000    0.000 
#
# Total GULP energy -396670.025212 kJ/mol
# GULP energy per Si atom -12395.938288 kJ/mol
# Density = 2.044698 g / cm^3
# Si number density = 20.493624 Si / 1000 Ang^3
#
#
#
# Elastic Constant Matrix: (Units=GPa)
#
#
# Indices 1 2 3 4 5 6 
#
# 1 71.6173 37.5698 42.6377 0.0000 0.0000 0.0000
# 2 37.5698 130.3127 64.1896 0.0000 0.0000 0.0000
# 3 42.6377 64.1896 130.3078 0.0000 0.0000 0.0000
# 4 0.0000 0.0000 0.0000 17.0999 0.0000 0.0000
# 5 0.0000 0.0000 0.0000 0.0000 20.9763 0.0000
# 6 0.0000 0.0000 0.0000 0.0000 0.0000 34.1846
#
#
#
# Elastic Compliance Matrix: (Units=1/GPa)
#
#
# Indices 1 2 3 4 5 6 
#
# 1 0.018220 -0.003058 -0.004455 0.000000 0.000000 0.000000
# 2 -0.003058 0.010646 -0.004243 0.000000 0.000000 0.000000
# 3 -0.004455 -0.004243 0.011222 0.000000 0.000000 0.000000
# 4 0.000000 0.000000 0.000000 0.058480 0.000000 0.000000
# 5 0.000000 0.000000 0.000000 0.000000 0.047673 0.000000
# 6 0.000000 0.000000 0.000000 0.000000 0.000000 0.029253
#
#
# Mechanical properties :
#
#
# Convention : Reuss Voigt Hill
#
# Bulk Modulus (GPa) = 60.33516 69.00354 64.66935
# Shear Modulus (GPa) = 24.44605 26.97488 25.71047
#
# Velocity S-wave (km/s) = 3.45753 3.63196 3.54582
# Velocity P-wave (km/s) = 6.74123 7.16464 6.95616
#
# Compressibility (1/GPa) = 0.01657408
#
# Stress axis : x y z
#
# Youngs Moduli (GPa) = 54.88508 93.93366 89.10920
#
# Poissons Ratio (x) = 0.28728 0.39699
# Poissons Ratio (y) = 0.16786 0.37813
# Poissons Ratio (z) = 0.24452 0.39860
#
# Static dielectric constant tensor:
#      x y z
#    x 3.617180 0.000000 0.000000 
#    y 0.000000 3.741070 0.000000 
#    z 0.000000 0.000000 3.779380 
# 
# 
# High freq. dielectric constant tensor:
#      x y z
#    x 1.799640 0.000000 0.000000 
#    y 0.000000 1.808160 0.000000 
#    z 0.000000 0.000000 1.787330 
# 
# From -- ./inp_files/1111.got.cif
#   From: 2010.03.12/outbox.cif.g09.slc.cpg/sg47_1_cif.got.tgz:1111.got - 2010.04.14 03:12:58.
