data_PCOD8197954
_publ_section_title
;
Structure prediction by ZEFSAII (Michael W. Deem and Ramdas Pophale) SiO2 
 PCOD8197954
Probable space group: P M M M
;
_chemical_formula_sum "Si O2"
_cell_formula_units_Z 52
_cell_length_a 23.366853
_cell_length_b 14.360975
_cell_length_c 9.415985
_cell_angle_alpha 90.000000
_cell_angle_beta 90.000000
_cell_angle_gamma 90.000000
_cell_volume 3159.729542
_symmetry_space_group_name_H-M "P M M M"
_symmetry_group_IT_number 47
_symmetry_cell_setting 'orthorhombic'
loop_
_space_group_symop_operation_xyz
x,y,z
-x,-y,z
x,-y,-z
-x,y,-z
-x,-y,-z
x,y,-z
-x,y,z
x,-y,z
loop_
_atom_site_type_symbol
_atom_site_label
_atom_site_fract_x
_atom_site_fract_y
_atom_site_fract_z
Si Si1 0.880699 0.602980 0.837038
Si Si2 0.935435 0.207770 0.834942
Si Si3 0.837009 0.108868 0.334777
Si Si4 0.277472 0.205632 0.666358
Si Si5 0.390844 0.109513 0.335406
Si Si6 0.500000 0.889321 0.160825
Si Si7 0.232838 0.602500 0.664758
O O1 0.905932 0.500000 0.801122
O O2 0.927174 0.682111 0.802698
O O3 0.825051 0.624410 0.745919
O O4 0.861358 0.607556 0.000000
O O5 0.892854 0.144418 0.745751
O O6 0.000000 0.181774 0.790908
O O7 0.924591 0.186755 0.000000
O O8 0.845112 0.132711 0.500000
O O9 0.780221 0.158740 0.271673
O O10 0.829820 0.000000 0.308078
O O11 0.278177 0.184822 0.500000
O O12 0.334782 0.159919 0.729743
O O13 0.278293 0.316349 0.701826
O O14 0.401914 0.135203 0.500000
O O15 0.444184 0.146850 0.244035
O O16 0.381676 0.000000 0.317162
O O17 0.500000 0.000000 0.160703
O O18 0.500000 0.850260 0.000000
O O19 0.216881 0.607071 0.500000
O O20 0.257743 0.500000 0.705212
#
# Coordination Sequence:
#
# PCOD8197954 Si02
#       7
#     8   8   8   8   8   4   8
#     4   9  17  30  48  68  89 114 146 185 229 279
#     4  10  21  35  49  66  89 118 152 190 234 282
#     4  10  20  34  51  69  90 118 153 193 234 275
#     4   9  16  28  47  71  95 118 148 188 228 268
#     4   9  16  27  45  67  91 123 159 187 215 259
#     4   9  17  29  43  63  96 129 154 186 225 259
#     4   9  16  27  46  70  94 119 145 179 229 281
#
# _framework density 16.457106
#
# number of rings (size 3 to 8) (size 9 to 14) (size 15 to 20)
#    0.000    2.692    1.538    0.692    0.000    4.000 
#    0.000    4.615    0.000    1.846    0.000    3.769 
#    0.000    4.308    0.000    0.000    0.000    0.000 
#
# Total GULP energy -644582.280920 kJ/mol
# GULP energy per Si atom -12395.813095 kJ/mol
# Density = 1.641965 g / cm^3
# Si number density = 16.457106 Si / 1000 Ang^3
#
#
#
# Elastic Constant Matrix: (Units=GPa)
#
#
# Indices 1 2 3 4 5 6 
#
# 1 135.4525 58.2524 46.4049 0.0000 0.0000 0.0000
# 2 58.2524 84.0258 31.7545 0.0000 0.0000 0.0000
# 3 46.4049 31.7545 48.7792 0.0000 0.0000 0.0000
# 4 0.0000 0.0000 0.0000 18.6958 0.0000 0.0000
# 5 0.0000 0.0000 0.0000 0.0000 -8.0899 0.0000
# 6 0.0000 0.0000 0.0000 0.0000 0.0000 20.8178
#
#
#
# Elastic Compliance Matrix: (Units=1/GPa)
#
#
# Indices 1 2 3 4 5 6 
#
# 1 0.012675 -0.005611 -0.008406 0.000000 0.000000 0.000000
# 2 -0.005611 0.018268 -0.006555 0.000000 0.000000 0.000000
# 3 -0.008406 -0.006555 0.032764 0.000000 0.000000 0.000000
# 4 0.000000 0.000000 0.000000 0.053488 0.000000 0.000000
# 5 0.000000 0.000000 0.000000 0.000000 -0.123611 0.000000
# 6 0.000000 0.000000 0.000000 0.000000 0.000000 0.048036
#
#
# Mechanical properties :
#
#
# Convention : Reuss Voigt Hill
#
# Bulk Modulus (GPa) = 44.31607 60.12013 52.21810
# Shear Modulus (GPa) = 55.38094 15.07447 35.22770
#
# Velocity S-wave (km/s) = 5.80730 3.02981 4.63166
# Velocity P-wave (km/s) = 8.48251 6.98930 7.77185
#
# Compressibility (1/GPa) = 0.02256518
#
# Stress axis : x y z
#
# Youngs Moduli (GPa) = 78.89296 54.74091 30.52109
#
# Poissons Ratio (x) = 0.30714 0.25656
# Poissons Ratio (y) = 0.44265 0.20005
# Poissons Ratio (z) = 0.66317 0.35880
#
# Static dielectric constant tensor:
#      x y z
#    x 3.118640 0.000000 0.000000 
#    y 0.000000 3.233340 0.000000 
#    z 0.000000 0.000000 3.005900 
# 
# 
# High freq. dielectric constant tensor:
#      x y z
#    x 1.617750 0.000000 0.000000 
#    y 0.000000 1.630880 0.000000 
#    z 0.000000 0.000000 1.616920 
# 
# From -- ./inp_files/7588.got.cif
#   From: 2010.03.12/outbox.cif.g09.slc.cpg/sg47_4_cif.got.tgz:7588.got - 2010.04.14 03:12:58.
