data_PCOD8197059
_publ_section_title
;
Structure prediction by ZEFSAII (Michael W. Deem and Ramdas Pophale) SiO2 
 PCOD8197059
Probable space group: P M M M
;
_chemical_formula_sum "Si O2"
_cell_formula_units_Z 36
_cell_length_a 24.863037
_cell_length_b 7.882699
_cell_length_c 9.577800
_cell_angle_alpha 90.000000
_cell_angle_beta 90.000000
_cell_angle_gamma 90.000000
_cell_volume 1877.132304
_symmetry_space_group_name_H-M "P M M M"
_symmetry_group_IT_number 47
_symmetry_cell_setting 'orthorhombic'
loop_
_space_group_symop_operation_xyz
x,y,z
-x,-y,z
x,-y,-z
-x,y,-z
-x,-y,-z
x,y,-z
-x,y,z
x,-y,z
loop_
_atom_site_type_symbol
_atom_site_label
_atom_site_fract_x
_atom_site_fract_y
_atom_site_fract_z
Si Si1 0.131147 0.189031 0.166324
Si Si2 0.439123 0.699882 0.157155
Si Si3 0.060774 0.500000 0.833364
Si Si4 0.250779 0.200539 0.845201
Si Si5 0.344094 0.804204 0.345995
O O1 0.089841 0.330063 0.224372
O O2 0.191287 0.241482 0.214475
O O3 0.115747 0.000000 0.222848
O O4 0.130161 0.184145 0.000000
O O5 0.500000 0.756237 0.191282
O O6 0.433168 0.500000 0.170727
O O7 0.400620 0.787982 0.267820
O O8 0.423848 0.757965 0.000000
O O9 0.000000 0.500000 0.776701
O O10 0.062150 0.500000 0.000000
O O11 0.295740 0.281671 0.743059
O O12 0.258216 0.000000 0.856411
O O13 0.258311 0.280249 0.000000
O O14 0.347354 0.718992 0.500000
O O15 0.330475 0.000000 0.364221
#
# Coordination Sequence:
#
# PCOD8197059 Si02
#       5
#     8   8   4   8   8
#     4   8  14  25  40  58  84 121 160 196 239 289
#     4   9  19  36  54  70  91 123 164 204 240 285
#     4   9  16  24  36  60  93 123 154 195 240 289
#     4   8  14  27  46  64  87 122 159 194 234 283
#     4  10  20  32  48  73 102 127 154 195 247 299
#
# _framework density 19.178189
#
# number of rings (size 3 to 8) (size 9 to 14) (size 15 to 20)
#    0.000    3.222    0.000    2.667    0.000    3.111 
#    2.000    5.556    0.000    0.000    0.000    0.000 
#    0.000    1.778    0.000    8.667    0.000    8.889 
#
# Total GULP energy -446154.296673 kJ/mol
# GULP energy per Si atom -12393.174908 kJ/mol
# Density = 1.913454 g / cm^3
# Si number density = 19.178189 Si / 1000 Ang^3
#
#
#
# Elastic Constant Matrix: (Units=GPa)
#
#
# Indices 1 2 3 4 5 6 
#
# 1 158.8159 47.4012 66.5655 0.0000 0.0000 0.0000
# 2 47.4012 61.2932 22.5569 0.0000 0.0000 0.0000
# 3 66.5655 22.5569 90.5447 0.0000 0.0000 0.0000
# 4 0.0000 0.0000 0.0000 9.0810 0.0000 0.0000
# 5 0.0000 0.0000 0.0000 0.0000 4.3925 0.0000
# 6 0.0000 0.0000 0.0000 0.0000 0.0000 16.8391
#
#
#
# Elastic Compliance Matrix: (Units=1/GPa)
#
#
# Indices 1 2 3 4 5 6 
#
# 1 0.010774 -0.005964 -0.006435 0.000000 0.000000 0.000000
# 2 -0.005964 0.021263 -0.000913 0.000000 0.000000 0.000000
# 3 -0.006435 -0.000913 0.016002 0.000000 0.000000 0.000000
# 4 0.000000 0.000000 0.000000 0.110120 0.000000 0.000000
# 5 0.000000 0.000000 0.000000 0.000000 0.227660 0.000000
# 6 0.000000 0.000000 0.000000 0.000000 0.000000 0.059386
#
#
# Mechanical properties :
#
#
# Convention : Reuss Voigt Hill
#
# Bulk Modulus (GPa) = 46.69314 64.85566 55.77440
# Shear Modulus (GPa) = 10.43917 17.67119 14.05518
#
# Velocity S-wave (km/s) = 2.33561 3.03879 2.71010
# Velocity P-wave (km/s) = 5.62790 6.79729 6.24005
#
# Compressibility (1/GPa) = 0.02141642
#
# Stress axis : x y z
#
# Youngs Moduli (GPa) = 92.81976 47.03009 62.49122
#
# Poissons Ratio (x) = 0.28047 0.40211
# Poissons Ratio (y) = 0.55355 0.05704
# Poissons Ratio (z) = 0.59727 0.04293
#
# Static dielectric constant tensor:
#      x y z
#    x 3.712330 0.000000 0.000000 
#    y 0.000000 3.375220 0.000000 
#    z 0.000000 0.000000 3.437790 
# 
# 
# High freq. dielectric constant tensor:
#      x y z
#    x 1.749940 0.000000 0.000000 
#    y 0.000000 1.727560 0.000000 
#    z 0.000000 0.000000 1.697320 
# 
# From -- ./inp_files/19404.got.cif
#   From: 2010.03.12/outbox.cif.g09.slc.cpg/sg47_10_cif.got.tgz:19404.got - 2010.04.14 03:12:58.
