data_PCOD8197942
_publ_section_title
;
Structure prediction by ZEFSAII (Michael W. Deem and Ramdas Pophale) SiO2 
 PCOD8197942
Probable space group: P M M M
;
_chemical_formula_sum "Si O2"
_cell_formula_units_Z 48
_cell_length_a 20.457011
_cell_length_b 8.733575
_cell_length_c 15.164473
_cell_angle_alpha 90.000000
_cell_angle_beta 90.000000
_cell_angle_gamma 90.000000
_cell_volume 2709.327811
_symmetry_space_group_name_H-M "P M M M"
_symmetry_group_IT_number 47
_symmetry_cell_setting 'orthorhombic'
loop_
_space_group_symop_operation_xyz
x,y,z
-x,-y,z
x,-y,-z
-x,y,-z
-x,-y,-z
x,y,-z
-x,y,z
x,-y,z
loop_
_atom_site_type_symbol
_atom_site_label
_atom_site_fract_x
_atom_site_fract_y
_atom_site_fract_z
Si Si1 0.570621 0.674607 0.352122
Si Si2 0.759114 0.820912 0.230091
Si Si3 0.370580 0.674293 0.831019
Si Si4 0.289261 0.320103 0.598502
Si Si5 0.424050 0.168929 0.000000
Si Si6 0.865705 0.318992 0.898893
Si Si7 0.000000 0.829302 0.104197
O O1 0.500000 0.752148 0.378573
O O2 0.567319 0.500000 0.383738
O O3 0.576799 0.686202 0.246823
O O4 0.636126 0.747952 0.395531
O O5 0.689870 0.785000 0.187084
O O6 0.759149 0.758631 0.331146
O O7 0.813315 0.743485 0.169545
O O8 0.772610 0.000000 0.232374
O O9 0.345283 0.500000 0.841785
O O10 0.405162 0.730311 0.917551
O O11 0.262212 0.289776 0.500000
O O12 0.291771 0.500000 0.621667
O O13 0.500000 0.142851 0.000000
O O14 0.390276 0.000000 0.000000
O O15 0.865652 0.500000 0.895489
O O16 0.935674 0.260095 0.864423
O O17 0.851107 0.263670 0.000000
O O18 0.000000 0.000000 0.145102
O O19 0.000000 0.837940 0.000000
#
# Coordination Sequence:
#
# PCOD8197942 Si02
#       7
#     8   8   8   8   4   8   4
#     4   8  14  26  46  71  94 117 153 204 258 309
#     4  11  22  35  52  75 104 136 173 218 267 313
#     4  10  20  34  50  67  92 127 171 214 255 307
#     4   9  18  33  52  74 101 132 169 215 265 321
#     4  11  23  35  47  67  95 126 163 210 265 317
#     4  10  20  34  54  79 110 146 182 214 251 300
#     4   9  17  31  51  79 114 147 178 211 249 291
#
# _framework density 17.716571999999999
#
# number of rings (size 3 to 8) (size 9 to 14) (size 15 to 20)
#    0.000    2.333    0.000    4.500    1.167    4.000 
#    0.000    1.667    0.000    4.500    0.000    5.250 
#    0.000    4.667    0.000    0.000    0.000    0.000 
#
# Total GULP energy -594854.272454 kJ/mol
# GULP energy per Si atom -12392.797343 kJ/mol
# Density = 1.767625 g / cm^3
# Si number density = 17.716572 Si / 1000 Ang^3
#
#
#
# Elastic Constant Matrix: (Units=GPa)
#
#
# Indices 1 2 3 4 5 6 
#
# 1 90.9490 24.7854 36.7381 0.0000 0.0000 0.0000
# 2 24.7854 70.5518 33.5093 0.0000 0.0000 0.0000
# 3 36.7381 33.5093 102.1896 0.0000 0.0000 0.0000
# 4 0.0000 0.0000 0.0000 18.9946 0.0000 0.0000
# 5 0.0000 0.0000 0.0000 0.0000 9.5361 0.0000
# 6 0.0000 0.0000 0.0000 0.0000 0.0000 21.9248
#
#
#
# Elastic Compliance Matrix: (Units=1/GPa)
#
#
# Indices 1 2 3 4 5 6 
#
# 1 0.013330 -0.002851 -0.003858 0.000000 0.000000 0.000000
# 2 -0.002851 0.017398 -0.004680 0.000000 0.000000 0.000000
# 3 -0.003858 -0.004680 0.012707 0.000000 0.000000 0.000000
# 4 0.000000 0.000000 0.000000 0.052647 0.000000 0.000000
# 5 0.000000 0.000000 0.000000 0.000000 0.104865 0.000000
# 6 0.000000 0.000000 0.000000 0.000000 0.000000 0.045611
#
#
# Mechanical properties :
#
#
# Convention : Reuss Voigt Hill
#
# Bulk Modulus (GPa) = 48.40575 50.41733 49.41154
# Shear Modulus (GPa) = 18.10142 21.33492 19.71817
#
# Velocity S-wave (km/s) = 3.19991 3.47397 3.33975
# Velocity P-wave (km/s) = 6.40579 6.67913 6.54389
#
# Compressibility (1/GPa) = 0.02065870
#
# Stress axis : x y z
#
# Youngs Moduli (GPa) = 75.01703 57.47630 78.69510
#
# Poissons Ratio (x) = 0.16386 0.30357
# Poissons Ratio (y) = 0.21386 0.36832
# Poissons Ratio (z) = 0.28938 0.26901
#
# Static dielectric constant tensor:
#      x y z
#    x 3.312590 0.000000 0.000000 
#    y 0.000000 3.267530 0.000000 
#    z 0.000000 0.000000 3.282310 
# 
# 
# High freq. dielectric constant tensor:
#      x y z
#    x 1.668180 0.000000 0.000000 
#    y 0.000000 1.675680 0.000000 
#    z 0.000000 0.000000 1.676680 
# 
# From -- ./inp_files/24475.got.cif
#   From: 2010.03.12/outbox.cif.g09.slc.cpg/sg47_13_cif.got.tgz:24475.got - 2010.04.14 03:12:58.
