data_PCOD8197704
_publ_section_title
;
Structure prediction by ZEFSAII (Michael W. Deem and Ramdas Pophale) SiO2 
 PCOD8197704
Probable space group: P M M M
;
_chemical_formula_sum "Si O2"
_cell_formula_units_Z 64
_cell_length_a 19.553117
_cell_length_b 19.403413
_cell_length_c 9.138206
_cell_angle_alpha 90.000000
_cell_angle_beta 90.000000
_cell_angle_gamma 90.000000
_cell_volume 3467.009811
_symmetry_space_group_name_H-M "P M M M"
_symmetry_group_IT_number 47
_symmetry_cell_setting 'orthorhombic'
loop_
_space_group_symop_operation_xyz
x,y,z
-x,-y,z
x,-y,-z
-x,y,-z
-x,-y,-z
x,y,-z
-x,y,z
x,-y,z
loop_
_atom_site_type_symbol
_atom_site_label
_atom_site_fract_x
_atom_site_fract_y
_atom_site_fract_z
Si Si1 0.689379 0.315360 0.336912
Si Si2 0.076623 0.283800 0.168695
Si Si3 0.194016 0.796501 0.667897
Si Si4 0.109700 0.577831 0.672403
Si Si5 0.752840 0.576039 0.838060
Si Si6 0.285513 0.922977 0.331067
Si Si7 0.574963 0.740231 0.841225
Si Si8 0.424964 0.901686 0.162723
O O1 0.685101 0.345006 0.500000
O O2 0.753204 0.265381 0.318198
O O3 0.692593 0.375937 0.218385
O O4 0.620049 0.276915 0.298965
O O5 0.127216 0.227625 0.241942
O O6 0.073006 0.359760 0.243649
O O7 0.000000 0.253210 0.180541
O O8 0.098635 0.293413 0.000000
O O9 0.171457 0.808541 0.500000
O O10 0.231019 0.866139 0.732004
O O11 0.102757 0.591305 0.500000
O O12 0.081165 0.500000 0.710806
O O13 0.188196 0.581463 0.717914
O O14 0.722127 0.500000 0.844901
O O15 0.778977 0.598382 0.000000
O O16 0.296571 0.903876 0.500000
O O17 0.360758 0.923485 0.260957
O O18 0.254112 0.000000 0.311199
O O19 0.500000 0.707763 0.817244
O O20 0.570094 0.821031 0.845327
O O21 0.604302 0.715066 0.000000
O O22 0.500000 0.928876 0.220550
O O23 0.412095 0.931562 0.000000
#
# Coordination Sequence:
#
# PCOD8197704 Si02
#       8
#     8   8   8   8   8   8   8   8
#     4  11  20  31  53  81 106 137 178 225 272 317
#     4  11  24  39  57  82 110 143 181 221 268 319
#     4  10  21  37  56  81 108 138 178 221 267 319
#     4  10  20  34  53  79 112 148 183 217 257 309
#     4  10  20  33  51  76 106 141 179 219 265 315
#     4  10  21  37  56  79 109 143 180 223 269 318
#     4   9  18  32  50  74 105 142 182 222 267 317
#     4   9  18  32  50  75 109 147 184 219 257 309
#
# _framework density 18.459712
#
# number of rings (size 3 to 8) (size 9 to 14) (size 15 to 20)
#    0.000    2.000    2.500    2.250    0.000    4.750 
#    0.000    3.750    0.000    0.750    0.000    5.250 
#    0.000    0.000    0.000    0.000    0.000    0.000 
#
# Total GULP energy -792866.836784 kJ/mol
# GULP energy per Si atom -12388.544325 kJ/mol
# Density = 1.841770 g / cm^3
# Si number density = 18.459712 Si / 1000 Ang^3
#
#
#
# Elastic Constant Matrix: (Units=GPa)
#
#
# Indices 1 2 3 4 5 6 
#
# 1 91.3214 45.7980 49.1162 0.0000 0.0000 0.0000
# 2 45.7980 88.1914 47.5022 0.0000 0.0000 0.0000
# 3 49.1162 47.5022 96.5164 0.0000 0.0000 0.0000
# 4 0.0000 0.0000 0.0000 3.9882 0.0000 0.0000
# 5 0.0000 0.0000 0.0000 0.0000 -1.7249 0.0000
# 6 0.0000 0.0000 0.0000 0.0000 0.0000 -7.1939
#
#
#
# Elastic Compliance Matrix: (Units=1/GPa)
#
#
# Indices 1 2 3 4 5 6 
#
# 1 0.016917 -0.005644 -0.005831 0.000000 0.000000 0.000000
# 2 -0.005644 0.017312 -0.005648 0.000000 0.000000 0.000000
# 3 -0.005831 -0.005648 0.016108 0.000000 0.000000 0.000000
# 4 0.000000 0.000000 0.000000 0.250739 0.000000 0.000000
# 5 0.000000 0.000000 0.000000 0.000000 -0.579741 0.000000
# 6 0.000000 0.000000 0.000000 0.000000 0.000000 -0.139006
#
#
# Mechanical properties :
#
#
# Convention : Reuss Voigt Hill
#
# Bulk Modulus (GPa) = 62.14852 62.31800 62.23326
# Shear Modulus (GPa) = -13.22544 7.92139 -2.65203
#
# Velocity S-wave (km/s) = -2.67956 2.07376 -1.19991
# Velocity P-wave (km/s) = 4.91598 6.29017 5.64504
#
# Compressibility (1/GPa) = 0.01609049
#
# Stress axis : x y z
#
# Youngs Moduli (GPa) = 59.11161 57.76201 62.08046
#
# Poissons Ratio (x) = 0.32603 0.36199
# Poissons Ratio (y) = 0.33365 0.35064
# Poissons Ratio (z) = 0.34468 0.32625
#
# Static dielectric constant tensor:
#      x y z
#    x 3.509720 0.000000 0.000000 
#    y 0.000000 3.517240 0.000000 
#    z 0.000000 0.000000 3.529330 
# 
# 
# High freq. dielectric constant tensor:
#      x y z
#    x 1.697850 0.000000 0.000000 
#    y 0.000000 1.707730 0.000000 
#    z 0.000000 0.000000 1.719910 
# 
# From -- ./inp_files/9991.got.cif
#   From: 2010.03.12/outbox.cif.g09.slc.cpg/sg47_5_cif.got.tgz:9991.got - 2010.04.14 03:12:58.
