data_PCOD8197989
_publ_section_title
;
Structure prediction by ZEFSAII (Michael W. Deem and Ramdas Pophale) SiO2 
 PCOD8197989
Probable space group: P M M M
;
_chemical_formula_sum "Si O2"
_cell_formula_units_Z 44
_cell_length_a 31.684618
_cell_length_b 7.841798
_cell_length_c 9.461701
_cell_angle_alpha 90.000000
_cell_angle_beta 90.000000
_cell_angle_gamma 90.000000
_cell_volume 2350.895617
_symmetry_space_group_name_H-M "P M M M"
_symmetry_group_IT_number 47
_symmetry_cell_setting 'orthorhombic'
loop_
_space_group_symop_operation_xyz
x,y,z
-x,-y,z
x,-y,-z
-x,y,-z
-x,-y,-z
x,y,-z
-x,y,z
x,-y,z
loop_
_atom_site_type_symbol
_atom_site_label
_atom_site_fract_x
_atom_site_fract_y
_atom_site_fract_z
Si Si1 0.000000 0.703319 0.840306
Si Si2 0.921589 0.297914 0.660099
Si Si3 0.547399 0.689304 0.168003
Si Si4 0.302507 0.000000 0.832111
Si Si5 0.602750 0.000000 0.169101
Si Si6 0.170026 0.804058 0.661571
Si Si7 0.754094 0.690034 0.162698
O O1 0.958652 0.773287 0.759956
O O2 0.000000 0.500000 0.838413
O O3 0.000000 0.773824 0.000000
O O4 0.930283 0.235236 0.500000
O O5 0.919491 0.500000 0.666075
O O6 0.877490 0.223319 0.717280
O O7 0.500000 0.728467 0.222335
O O8 0.561614 0.500000 0.218848
O O9 0.579202 0.831635 0.228618
O O10 0.547702 0.695963 0.000000
O O11 0.349783 0.000000 0.769987
O O12 0.278808 0.170345 0.777244
O O13 0.304798 0.000000 0.000000
O O14 0.602608 0.000000 0.000000
O O15 0.172976 0.740665 0.500000
O O16 0.202039 0.694146 0.753898
O O17 0.182948 0.000000 0.676555
O O18 0.734545 0.500000 0.179528
O O19 0.764293 0.730991 0.000000
#
# Coordination Sequence:
#
# PCOD8197989 Si02
#       7
#     4   8   8   4   4   8   8
#     4   9  17  29  46  69  96 124 158 197 232 278
#     4   9  17  30  48  69  93 122 155 192 237 286
#     4   8  13  20  30  47  72 103 145 197 245 286
#     4   9  18  31  43  62  91 120 159 206 246 297
#     4   9  15  22  35  51  73 109 149 193 244 291
#     4  10  20  34  53  76  99 124 159 204 250 295
#     4  10  20  34  52  71  95 129 163 200 250 300
#
# _framework density 18.716270999999999
#
# number of rings (size 3 to 8) (size 9 to 14) (size 15 to 20)
#    0.000    2.818    0.909    1.636    0.000    4.727 
#    0.000    5.909    0.000    2.727    0.000    0.000 
#    0.000    0.000    0.000    0.000    0.000    7.273 
#
# Total GULP energy -545486.053004 kJ/mol
# GULP energy per Si atom -12397.410296 kJ/mol
# Density = 1.867367 g / cm^3
# Si number density = 18.716271 Si / 1000 Ang^3
#
#
#
# Elastic Constant Matrix: (Units=GPa)
#
#
# Indices 1 2 3 4 5 6 
#
# 1 154.2856 72.1135 42.6135 0.0000 0.0000 0.0000
# 2 72.1135 109.2279 24.1595 0.0000 0.0000 0.0000
# 3 42.6135 24.1595 44.0504 0.0000 0.0000 0.0000
# 4 0.0000 0.0000 0.0000 11.3275 0.0000 0.0000
# 5 0.0000 0.0000 0.0000 0.0000 4.1210 0.0000
# 6 0.0000 0.0000 0.0000 0.0000 0.0000 27.3171
#
#
#
# Elastic Compliance Matrix: (Units=1/GPa)
#
#
# Indices 1 2 3 4 5 6 
#
# 1 0.011324 -0.005751 -0.007801 0.000000 0.000000 0.000000
# 2 -0.005751 0.013340 -0.001753 0.000000 0.000000 0.000000
# 3 -0.007801 -0.001753 0.031209 0.000000 0.000000 0.000000
# 4 0.000000 0.000000 0.000000 0.088281 0.000000 0.000000
# 5 0.000000 0.000000 0.000000 0.000000 0.242657 0.000000
# 6 0.000000 0.000000 0.000000 0.000000 0.000000 0.036607
#
#
# Mechanical properties :
#
#
# Convention : Reuss Voigt Hill
#
# Bulk Modulus (GPa) = 39.58228 65.03742 52.30985
# Shear Modulus (GPa) = 10.81204 19.79828 15.30516
#
# Velocity S-wave (km/s) = 2.40611 3.25593 2.86273
# Velocity P-wave (km/s) = 5.37714 6.99710 6.23991
#
# Compressibility (1/GPa) = 0.02526383
#
# Stress axis : x y z
#
# Youngs Moduli (GPa) = 88.30842 74.96443 32.04234
#
# Poissons Ratio (x) = 0.43111 0.24995
# Poissons Ratio (y) = 0.50785 0.05617
# Poissons Ratio (z) = 0.68885 0.13140
#
# Static dielectric constant tensor:
#      x y z
#    x 3.545060 0.000000 0.000000 
#    y 0.000000 3.538260 0.000000 
#    z 0.000000 0.000000 3.016090 
# 
# 
# High freq. dielectric constant tensor:
#      x y z
#    x 1.724780 0.000000 0.000000 
#    y 0.000000 1.732370 0.000000 
#    z 0.000000 0.000000 1.670270 
# 
# From -- ./inp_files/13773.got.cif
#   From: 2010.03.12/outbox.cif.g09.slc.cpg/sg47_7_cif.got.tgz:13773.got - 2010.04.14 03:12:58.
