data_PCOD8197223
_publ_section_title
;
Structure prediction by ZEFSAII (Michael W. Deem and Ramdas Pophale) SiO2 
 PCOD8197223
Probable space group: P M M M
;
_chemical_formula_sum "Si O2"
_cell_formula_units_Z 52
_cell_length_a 9.304862
_cell_length_b 10.624361
_cell_length_c 29.274127
_cell_angle_alpha 90.000000
_cell_angle_beta 90.000000
_cell_angle_gamma 90.000000
_cell_volume 2893.987881
_symmetry_space_group_name_H-M "P M M M"
_symmetry_group_IT_number 47
_symmetry_cell_setting 'orthorhombic'
loop_
_space_group_symop_operation_xyz
x,y,z
-x,-y,z
x,-y,-z
-x,y,-z
-x,-y,-z
x,y,-z
-x,y,z
x,-y,z
loop_
_atom_site_type_symbol
_atom_site_label
_atom_site_fract_x
_atom_site_fract_y
_atom_site_fract_z
Si Si1 0.656351 0.355594 0.049222
Si Si2 0.170021 0.853549 0.609382
Si Si3 0.831305 0.775006 0.884086
Si Si4 0.829385 0.000000 0.051582
Si Si5 0.332149 0.144616 0.798223
Si Si6 0.658289 0.148449 0.302500
Si Si7 0.334922 0.642429 0.553892
O O1 0.500000 0.296035 0.062796
O O2 0.632289 0.500000 0.041325
O O3 0.774647 0.346303 0.089328
O O4 0.708499 0.297676 0.000000
O O5 0.225238 0.813860 0.659582
O O6 0.238035 0.754024 0.574408
O O7 0.000000 0.838172 0.607999
O O8 0.212967 0.000000 0.597944
O O9 0.760388 0.778553 0.834400
O O10 0.000000 0.774782 0.876764
O O11 0.775192 0.882663 0.918694
O O12 0.000000 0.000000 0.048732
O O13 0.764896 0.000000 0.000000
O O14 0.500000 0.160763 0.808594
O O15 0.296129 0.199490 0.747545
O O16 0.284552 0.000000 0.802040
O O17 0.500000 0.201407 0.316328
O O18 0.646128 0.000000 0.297668
O O19 0.316548 0.651644 0.500000
O O20 0.500000 0.666291 0.568059
O O21 0.289010 0.500000 0.569747
#
# Coordination Sequence:
#
# PCOD8197223 Si02
#       7
#     8   8   8   4   8   8   8
#     4   9  19  36  54  69  87 115 154 198 240 283
#     4  10  20  32  49  78 112 142 174 217 268 318
#     4  11  20  30  47  71  99 128 155 189 235 287
#     4   9  18  30  41  61  97 131 153 179 222 277
#     4   9  17  30  48  70  98 130 165 202 240 290
#     4   8  15  29  49  71  96 131 171 210 250 292
#     4   9  19  36  56  77 103 140 186 228 264 310
#
# _framework density 17.968285999999999
#
# number of rings (size 3 to 8) (size 9 to 14) (size 15 to 20)
#    0.000    2.692    0.769    3.231    0.000    3.692 
#    0.000    4.615    0.000    2.769    0.000    6.462 
#    0.000    0.000    0.000    0.000    0.000    0.000 
#
# Total GULP energy -644208.458753 kJ/mol
# GULP energy per Si atom -12388.624207 kJ/mol
# Density = 1.792739 g / cm^3
# Si number density = 17.968286 Si / 1000 Ang^3
#
#
#
# Elastic Constant Matrix: (Units=GPa)
#
#
# Indices 1 2 3 4 5 6 
#
# 1 84.1545 40.5452 56.7858 0.0000 0.0000 0.0000
# 2 40.5452 61.2731 42.2249 0.0000 0.0000 0.0000
# 3 56.7858 42.2249 107.3164 0.0000 0.0000 0.0000
# 4 0.0000 0.0000 0.0000 13.9596 0.0000 0.0000
# 5 0.0000 0.0000 0.0000 0.0000 26.4120 0.0000
# 6 0.0000 0.0000 0.0000 0.0000 0.0000 23.1604
#
#
#
# Elastic Compliance Matrix: (Units=1/GPa)
#
#
# Indices 1 2 3 4 5 6 
#
# 1 0.021419 -0.008730 -0.007899 0.000000 0.000000 0.000000
# 2 -0.008730 0.025950 -0.005591 0.000000 0.000000 0.000000
# 3 -0.007899 -0.005591 0.015698 0.000000 0.000000 0.000000
# 4 0.000000 0.000000 0.000000 0.071635 0.000000 0.000000
# 5 0.000000 0.000000 0.000000 0.000000 0.037862 0.000000
# 6 0.000000 0.000000 0.000000 0.000000 0.000000 0.043177
#
#
# Mechanical properties :
#
#
# Convention : Reuss Voigt Hill
#
# Bulk Modulus (GPa) = 53.68484 59.09509 56.38997
# Shear Modulus (GPa) = 18.76955 20.25226 19.51091
#
# Velocity S-wave (km/s) = 3.23552 3.36089 3.29880
# Velocity P-wave (km/s) = 6.62575 6.92970 6.77943
#
# Compressibility (1/GPa) = 0.01862723
#
# Stress axis : x y z
#
# Youngs Moduli (GPa) = 46.68779 38.53574 63.70378
#
# Poissons Ratio (x) = 0.33641 0.50318
# Poissons Ratio (y) = 0.40758 0.35616
# Poissons Ratio (z) = 0.36878 0.21545
#
# Static dielectric constant tensor:
#      x y z
#    x 3.206010 0.000000 0.000000 
#    y 0.000000 3.131170 0.000000 
#    z 0.000000 0.000000 3.444260 
# 
# 
# High freq. dielectric constant tensor:
#      x y z
#    x 1.690040 0.000000 0.000000 
#    y 0.000000 1.662210 0.000000 
#    z 0.000000 0.000000 1.701180 
# 
# From -- ./inp_files/33236.got.cif
#   From: 2010.03.12/outbox.cif.g09.slc.cpg/sg47_17_cif.got.tgz:33236.got - 2010.04.14 03:12:58.
