data_PCOD8197793
_publ_section_title
;
Structure prediction by ZEFSAII (Michael W. Deem and Ramdas Pophale) SiO2 
 PCOD8197793
Probable space group: P M M M
;
_chemical_formula_sum "Si O2"
_cell_formula_units_Z 64
_cell_length_a 9.513935
_cell_length_b 23.913718
_cell_length_c 14.735763
_cell_angle_alpha 90.000000
_cell_angle_beta 90.000000
_cell_angle_gamma 90.000000
_cell_volume 3352.585880
_symmetry_space_group_name_H-M "P M M M"
_symmetry_group_IT_number 47
_symmetry_cell_setting 'orthorhombic'
loop_
_space_group_symop_operation_xyz
x,y,z
-x,-y,z
x,-y,-z
-x,y,-z
-x,-y,-z
x,y,-z
-x,y,z
x,-y,z
loop_
_atom_site_type_symbol
_atom_site_label
_atom_site_fract_x
_atom_site_fract_y
_atom_site_fract_z
Si Si1 0.339809 0.874638 0.602060
Si Si2 0.338695 0.439034 0.738335
Si Si3 0.338768 0.260850 0.102915
Si Si4 0.338671 0.935874 0.219373
Si Si5 0.839060 0.231792 0.393886
Si Si6 0.847560 0.434297 0.097903
Si Si7 0.163328 0.151252 0.894346
Si Si8 0.660395 0.681560 0.712937
O O1 0.300452 0.895112 0.500000
O O2 0.500000 0.852756 0.604336
O O3 0.317292 0.924754 0.672956
O O4 0.240726 0.824349 0.634578
O O5 0.500000 0.447733 0.759533
O O6 0.279759 0.500000 0.700899
O O7 0.270871 0.419212 0.831564
O O8 0.315493 0.383257 0.678606
O O9 0.500000 0.240144 0.106714
O O10 0.239832 0.209100 0.130389
O O11 0.312790 0.309160 0.178467
O O12 0.302961 0.282127 0.000000
O O13 0.500000 0.922911 0.191757
O O14 0.234131 0.898902 0.160411
O O15 0.300499 0.000000 0.200854
O O16 0.824969 0.242880 0.500000
O O17 0.770317 0.283880 0.344263
O O18 0.000000 0.226044 0.363117
O O19 0.859964 0.500000 0.088502
O O20 0.000000 0.410474 0.129396
O O21 0.807018 0.408330 0.000000
O O22 0.000000 0.156325 0.866866
O O23 0.180944 0.137401 0.000000
O O24 0.500000 0.699063 0.689952
#
# Coordination Sequence:
#
# PCOD8197793 Si02
#       8
#     8   8   8   8   8   8   8   8
#     4   9  18  34  56  80 107 138 168 201 247 302
#     4   9  18  31  46  67  96 129 165 204 247 298
#     4   9  18  33  52  74 102 135 170 209 254 304
#     4  10  21  35  52  77 107 139 176 213 248 293
#     4  10  21  36  55  80 106 130 162 208 259 308
#     4   8  14  25  40  58  83 118 160 201 237 277
#     4  10  21  36  53  73  99 133 174 220 266 306
#     4  10  20  33  52  77 103 133 168 207 252 303
#
# _framework density 19.089742999999999
#
# number of rings (size 3 to 8) (size 9 to 14) (size 15 to 20)
#    0.000    2.625    0.000    1.875    0.000    7.500 
#    0.000    5.000    0.000    1.875    0.000    5.250 
#    0.000    0.000    0.000    0.000    0.000    0.000 
#
# Total GULP energy -792949.584003 kJ/mol
# GULP energy per Si atom -12389.837250 kJ/mol
# Density = 1.904629 g / cm^3
# Si number density = 19.089743 Si / 1000 Ang^3
#
#
#
# Elastic Constant Matrix: (Units=GPa)
#
#
# Indices 1 2 3 4 5 6 
#
# 1 70.0850 48.1014 25.0577 0.0000 0.0000 0.0000
# 2 48.1014 98.7401 29.2454 0.0000 0.0000 0.0000
# 3 25.0577 29.2454 38.3548 0.0000 0.0000 0.0000
# 4 0.0000 0.0000 0.0000 15.5921 0.0000 0.0000
# 5 0.0000 0.0000 0.0000 0.0000 28.6811 0.0000
# 6 0.0000 0.0000 0.0000 0.0000 0.0000 7.8045
#
#
#
# Elastic Compliance Matrix: (Units=1/GPa)
#
#
# Indices 1 2 3 4 5 6 
#
# 1 0.023410 -0.008880 -0.008523 0.000000 0.000000 0.000000
# 2 -0.008880 0.016450 -0.006742 0.000000 0.000000 0.000000
# 3 -0.008523 -0.006742 0.036782 0.000000 0.000000 0.000000
# 4 0.000000 0.000000 0.000000 0.064135 0.000000 0.000000
# 5 0.000000 0.000000 0.000000 0.000000 0.034866 0.000000
# 6 0.000000 0.000000 0.000000 0.000000 0.000000 0.128131
#
#
# Mechanical properties :
#
#
# Convention : Reuss Voigt Hill
#
# Bulk Modulus (GPa) = 35.27130 45.77655 40.52392
# Shear Modulus (GPa) = 13.83066 17.40057 15.61561
#
# Velocity S-wave (km/s) = 2.69459 3.02240 2.86319
# Velocity P-wave (km/s) = 5.31016 6.01761 5.67492
#
# Compressibility (1/GPa) = 0.02835167
#
# Stress axis : x y z
#
# Youngs Moduli (GPa) = 42.71618 60.78910 27.18757
#
# Poissons Ratio (x) = 0.53980 0.23173
# Poissons Ratio (y) = 0.37931 0.18330
# Poissons Ratio (z) = 0.36409 0.40984
#
# Static dielectric constant tensor:
#      x y z
#    x 3.656720 0.000000 0.000000 
#    y 0.000000 3.493720 0.000000 
#    z 0.000000 0.000000 3.515960 
# 
# 
# High freq. dielectric constant tensor:
#      x y z
#    x 1.743860 0.000000 0.000000 
#    y 0.000000 1.735020 0.000000 
#    z 0.000000 0.000000 1.724370 
# 
# From -- ./inp_files/7959.got.cif
#   From: 2010.03.12/outbox.cif.g09.slc.cpg/sg47_4_cif.got.tgz:7959.got - 2010.04.14 03:12:58.
