data_PCOD8197527
_publ_section_title
;
Structure prediction by ZEFSAII (Michael W. Deem and Ramdas Pophale) SiO2 
 PCOD8197527
Probable space group: P M M M
;
_chemical_formula_sum "Si O2"
_cell_formula_units_Z 52
_cell_length_a 14.206372
_cell_length_b 23.148407
_cell_length_c 9.046043
_cell_angle_alpha 90.000000
_cell_angle_beta 90.000000
_cell_angle_gamma 90.000000
_cell_volume 2974.835395
_symmetry_space_group_name_H-M "P M M M"
_symmetry_group_IT_number 47
_symmetry_cell_setting 'orthorhombic'
loop_
_space_group_symop_operation_xyz
x,y,z
-x,-y,z
x,-y,-z
-x,y,-z
-x,-y,-z
x,y,-z
-x,y,z
x,-y,z
loop_
_atom_site_type_symbol
_atom_site_label
_atom_site_fract_x
_atom_site_fract_y
_atom_site_fract_z
Si Si1 0.392644 0.287268 0.171848
Si Si2 0.892323 0.000000 0.676588
Si Si3 0.395080 0.167338 0.671046
Si Si4 0.224041 0.661823 0.325245
Si Si5 0.892178 0.566881 0.169908
Si Si6 0.794202 0.885749 0.326165
Si Si7 0.105695 0.771339 0.676015
O O1 0.500000 0.305897 0.201312
O O2 0.373324 0.223601 0.233996
O O3 0.327393 0.333820 0.253817
O O4 0.368147 0.286642 0.000000
O O5 0.838656 0.943894 0.742484
O O6 0.888866 0.000000 0.500000
O O7 0.000000 0.000000 0.732221
O O8 0.384628 0.185733 0.500000
O O9 0.500000 0.142803 0.703836
O O10 0.317638 0.118461 0.710737
O O11 0.234257 0.661745 0.500000
O O12 0.175768 0.602788 0.275341
O O13 0.162614 0.715844 0.266783
O O14 0.869161 0.500000 0.196412
O O15 0.000000 0.580089 0.212882
O O16 0.873866 0.583721 0.000000
O O17 0.811292 0.887581 0.500000
O O18 0.846662 0.829538 0.260583
O O19 0.105802 0.772278 0.500000
O O20 0.000000 0.767496 0.738418
#
# Coordination Sequence:
#
# PCOD8197527 Si02
#       7
#     8   4   8   8   8   8   8
#     4  10  20  33  50  73 100 130 166 207 252 307
#     4   9  16  24  37  59  90 129 167 201 240 294
#     4   9  16  28  46  67  93 124 157 199 255 310
#     4  11  20  31  50  77 105 133 167 208 256 304
#     4   9  19  36  55  75 105 145 180 209 246 292
#     4   9  15  25  39  60  91 127 163 199 243 296
#     4   9  16  25  39  63  95 126 156 196 245 292
#
# _framework density 17.479959000000001
#
# number of rings (size 3 to 8) (size 9 to 14) (size 15 to 20)
#    0.000    2.538    1.538    2.308    0.000    4.000 
#    0.000    1.154    0.000    2.769    0.000    3.769 
#    0.000    3.077    0.000    0.000    0.000    0.000 
#
# Total GULP energy -644715.292162 kJ/mol
# GULP energy per Si atom -12398.371003 kJ/mol
# Density = 1.744017 g / cm^3
# Si number density = 17.479959 Si / 1000 Ang^3
#
#
#
# Elastic Constant Matrix: (Units=GPa)
#
#
# Indices 1 2 3 4 5 6 
#
# 1 142.4663 66.8670 44.1980 0.0000 0.0000 0.0000
# 2 66.8670 101.9281 34.6681 0.0000 0.0000 0.0000
# 3 44.1980 34.6681 51.3619 0.0000 0.0000 0.0000
# 4 0.0000 0.0000 0.0000 10.5496 0.0000 0.0000
# 5 0.0000 0.0000 0.0000 0.0000 19.7391 0.0000
# 6 0.0000 0.0000 0.0000 0.0000 0.0000 32.2563
#
#
#
# Elastic Compliance Matrix: (Units=1/GPa)
#
#
# Indices 1 2 3 4 5 6 
#
# 1 0.011499 -0.005423 -0.006235 0.000000 0.000000 0.000000
# 2 -0.005423 0.015292 -0.005655 0.000000 0.000000 0.000000
# 3 -0.006235 -0.005655 0.028652 0.000000 0.000000 0.000000
# 4 0.000000 0.000000 0.000000 0.094790 0.000000 0.000000
# 5 0.000000 0.000000 0.000000 0.000000 0.050661 0.000000
# 6 0.000000 0.000000 0.000000 0.000000 0.000000 0.031002
#
#
# Mechanical properties :
#
#
# Convention : Reuss Voigt Hill
#
# Bulk Modulus (GPa) = 48.03733 65.24694 56.64214
# Shear Modulus (GPa) = 18.28430 22.51055 20.39742
#
# Velocity S-wave (km/s) = 3.23772 3.59247 3.41970
# Velocity P-wave (km/s) = 6.44346 7.39024 6.93303
#
# Compressibility (1/GPa) = 0.02081714
#
# Stress axis : x y z
#
# Youngs Moduli (GPa) = 86.96723 65.39465 34.90189
#
# Poissons Ratio (x) = 0.35462 0.21760
# Poissons Ratio (y) = 0.47161 0.19738
# Poissons Ratio (z) = 0.54220 0.36982
#
# Static dielectric constant tensor:
#      x y z
#    x 3.502190 0.000000 0.000000 
#    y 0.000000 3.184500 0.000000 
#    z 0.000000 0.000000 2.898020 
# 
# 
# High freq. dielectric constant tensor:
#      x y z
#    x 1.688880 0.000000 0.000000 
#    y 0.000000 1.657730 0.000000 
#    z 0.000000 0.000000 1.637570 
# 
# From -- ./inp_files/6912.got.cif
#   From: 2010.03.12/outbox.cif.g09.slc.cpg/sg47_4_cif.got.tgz:6912.got - 2010.04.14 03:12:58.
