data_PCOD8197490
_publ_section_title
;
Structure prediction by ZEFSAII (Michael W. Deem and Ramdas Pophale) SiO2 
 PCOD8197490
Probable space group: P M M M
;
_chemical_formula_sum "Si O2"
_cell_formula_units_Z 48
_cell_length_a 8.820888
_cell_length_b 31.628358
_cell_length_c 9.181802
_cell_angle_alpha 90.000000
_cell_angle_beta 90.000000
_cell_angle_gamma 90.000000
_cell_volume 2561.632809
_symmetry_space_group_name_H-M "P M M M"
_symmetry_group_IT_number 47
_symmetry_cell_setting 'orthorhombic'
loop_
_space_group_symop_operation_xyz
x,y,z
-x,-y,z
x,-y,-z
-x,y,-z
-x,-y,-z
x,y,-z
-x,y,z
x,-y,z
loop_
_atom_site_type_symbol
_atom_site_label
_atom_site_fract_x
_atom_site_fract_y
_atom_site_fract_z
Si Si1 0.819994 0.453447 0.163223
Si Si2 0.818720 0.135196 0.164027
Si Si3 0.830156 0.955245 0.173069
Si Si4 0.321536 0.294481 0.167957
Si Si5 0.179942 0.783524 0.334097
Si Si6 0.179314 0.627551 0.667629
O O1 0.761077 0.500000 0.212694
O O2 0.760723 0.417667 0.273488
O O3 0.000000 0.453650 0.163469
O O4 0.761126 0.443400 0.000000
O O5 0.754082 0.089432 0.222975
O O6 0.759548 0.172134 0.269281
O O7 0.000000 0.132898 0.164497
O O8 0.760750 0.144637 0.000000
O O9 0.000000 0.957118 0.236086
O O10 0.747976 0.000000 0.220969
O O11 0.836692 0.953081 0.000000
O O12 0.500000 0.292041 0.187331
O O13 0.248629 0.254085 0.242169
O O14 0.261559 0.336504 0.242589
O O15 0.272390 0.295167 0.000000
O O16 0.235579 0.779994 0.500000
O O17 0.000000 0.780684 0.323126
O O18 0.226210 0.631396 0.500000
O O19 0.000000 0.632458 0.688787
#
# Coordination Sequence:
#
# PCOD8197490 Si02
#       6
#     8   8   8   8   8   8
#     4   8  14  26  46  73 104 136 168 201 236 273
#     4   8  13  22  38  60  86 118 155 193 232 273
#     4   7   9  14  27  50  80 113 149 187 225 266
#     4  11  24  39  54  72  94 123 161 203 246 291
#     4  10  20  33  50  72  97 125 158 196 239 288
#     4  10  20  33  52  79 107 134 164 197 237 286
#
# _framework density 18.738047999999999
#
# number of rings (size 3 to 8) (size 9 to 14) (size 15 to 20)
#    0.000    3.000    0.000    4.000    0.000    5.667 
#    0.000    1.667    0.000    1.000    0.000    7.000 
#    0.000    0.667    0.000    7.667    0.000    8.833 
#
# Total GULP energy -594655.023405 kJ/mol
# GULP energy per Si atom -12388.646321 kJ/mol
# Density = 1.869540 g / cm^3
# Si number density = 18.738048 Si / 1000 Ang^3
#
#
#
# Elastic Constant Matrix: (Units=GPa)
#
#
# Indices 1 2 3 4 5 6 
#
# 1 36.5076 66.7240 60.0725 0.0000 0.0000 0.0000
# 2 66.7240 285.2854 158.5097 0.0000 0.0000 0.0000
# 3 60.0725 158.5097 180.8353 0.0000 0.0000 0.0000
# 4 0.0000 0.0000 0.0000 -27.8167 0.0000 0.0000
# 5 0.0000 0.0000 0.0000 0.0000 14.7061 0.0000
# 6 0.0000 0.0000 0.0000 0.0000 0.0000 -8.3757
#
#
#
# Elastic Compliance Matrix: (Units=1/GPa)
#
#
# Indices 1 2 3 4 5 6 
#
# 1 0.065791 -0.006324 -0.016312 0.000000 0.000000 0.000000
# 2 -0.006324 0.007441 -0.004422 0.000000 0.000000 0.000000
# 3 -0.016312 -0.004422 0.014824 0.000000 0.000000 0.000000
# 4 0.000000 0.000000 0.000000 -0.035950 0.000000 0.000000
# 5 0.000000 0.000000 0.000000 0.000000 0.067999 0.000000
# 6 0.000000 0.000000 0.000000 0.000000 0.000000 -0.119394
#
#
# Mechanical properties :
#
#
# Convention : Reuss Voigt Hill
#
# Bulk Modulus (GPa) = 29.46283 119.24898 74.35590
# Shear Modulus (GPa) = 75.59506 10.19089 42.89297
#
# Velocity S-wave (km/s) = 6.35851 2.33461 4.78963
# Velocity P-wave (km/s) = 8.34657 8.42884 8.38781
#
# Compressibility (1/GPa) = 0.03394107
#
# Stress axis : x y z
#
# Youngs Moduli (GPa) = 15.19954 134.38826 67.45686
#
# Poissons Ratio (x) = 0.84993 1.10035
# Poissons Ratio (y) = 0.09613 0.29826
# Poissons Ratio (z) = 0.24793 0.59420
#
# Static dielectric constant tensor:
#      x y z
#    x 2.858990 0.000000 0.000000 
#    y 0.000000 4.134770 0.000000 
#    z 0.000000 0.000000 3.426880 
# 
# 
# High freq. dielectric constant tensor:
#      x y z
#    x 1.660100 0.000000 0.000000 
#    y 0.000000 1.761010 0.000000 
#    z 0.000000 0.000000 1.711000 
# 
# From -- ./inp_files/2486.got.cif
#   From: 2010.03.12/outbox.cif.g09.slc.cpg/sg47_2_cif.got.tgz:2486.got - 2010.04.14 03:12:58.
