data_PCOD8197759
_publ_section_title
;
Structure prediction by ZEFSAII (Michael W. Deem and Ramdas Pophale) SiO2 
 PCOD8197759
Probable space group: P M M M
;
_chemical_formula_sum "Si O2"
_cell_formula_units_Z 64
_cell_length_a 8.939081
_cell_length_b 14.562324
_cell_length_c 23.398038
_cell_angle_alpha 90.000000
_cell_angle_beta 90.000000
_cell_angle_gamma 90.000000
_cell_volume 3045.811374
_symmetry_space_group_name_H-M "P M M M"
_symmetry_group_IT_number 47
_symmetry_cell_setting 'orthorhombic'
loop_
_space_group_symop_operation_xyz
x,y,z
-x,-y,z
x,-y,-z
-x,y,-z
-x,-y,-z
x,y,-z
-x,y,z
x,-y,z
loop_
_atom_site_type_symbol
_atom_site_label
_atom_site_fract_x
_atom_site_fract_y
_atom_site_fract_z
Si Si1 0.672866 0.783262 0.432736
Si Si2 0.324674 0.241444 0.250631
Si Si3 0.324735 0.647055 0.064314
Si Si4 0.168846 0.398876 0.432139
Si Si5 0.170216 0.396552 0.181817
Si Si6 0.834358 0.166268 0.062154
Si Si7 0.665763 0.903248 0.157247
Si Si8 0.177189 0.893792 0.658619
O O1 0.700842 0.790594 0.500000
O O2 0.500000 0.794068 0.416524
O O3 0.726519 0.683234 0.408969
O O4 0.766637 0.866390 0.404662
O O5 0.500000 0.253868 0.264093
O O6 0.253253 0.338300 0.231762
O O7 0.290959 0.180690 0.195921
O O8 0.249840 0.185486 0.302137
O O9 0.500000 0.631379 0.073624
O O10 0.241377 0.601120 0.117960
O O11 0.287520 0.753893 0.066723
O O12 0.278547 0.609597 0.000000
O O13 0.172289 0.398801 0.500000
O O14 0.224092 0.500000 0.410450
O O15 0.000000 0.381074 0.410372
O O16 0.175837 0.500000 0.205112
O O17 0.000000 0.360957 0.176574
O O18 0.785362 0.088979 0.106484
O O19 0.000000 0.204656 0.076345
O O20 0.832293 0.120445 0.000000
O O21 0.500000 0.890453 0.131950
O O22 0.676639 0.000000 0.191561
O O23 0.000000 0.885937 0.662909
O O24 0.226323 0.000000 0.672074
#
# Coordination Sequence:
#
# PCOD8197759 Si02
#       8
#     8   8   8   8   8   8   8   8
#     4  10  21  37  60  93 132 171 210 257 311 364
#     4  11  23  42  67  91 118 154 197 249 303 358
#     4  10  20  35  57  85 118 158 204 252 305 366
#     4   8  14  27  50  81 119 164 209 249 291 343
#     4  11  24  41  63  92 125 161 202 250 307 370
#     4  10  20  33  51  77 111 151 194 242 297 354
#     4  10  21  36  56  83 112 147 191 238 294 357
#     4  11  25  44  67  94 124 162 206 252 305 366
#
# _framework density 21.012464999999999
#
# number of rings (size 3 to 8) (size 9 to 14) (size 15 to 20)
#    0.000    1.875    1.250    3.000    0.000    6.500 
#    0.000    5.625    0.000    3.750    0.000    0.000 
#    0.000    0.000    0.000    0.000    0.000    0.000 
#
# Total GULP energy -792907.054188 kJ/mol
# GULP energy per Si atom -12389.172722 kJ/mol
# Density = 2.096464 g / cm^3
# Si number density = 21.012465 Si / 1000 Ang^3
#
#
#
# Elastic Constant Matrix: (Units=GPa)
#
#
# Indices 1 2 3 4 5 6 
#
# 1 102.1115 43.3093 48.4127 0.0000 0.0000 0.0000
# 2 43.3093 110.1668 43.9644 0.0000 0.0000 0.0000
# 3 48.4127 43.9644 68.6399 0.0000 0.0000 0.0000
# 4 0.0000 0.0000 0.0000 23.1690 0.0000 0.0000
# 5 0.0000 0.0000 0.0000 0.0000 31.8175 0.0000
# 6 0.0000 0.0000 0.0000 0.0000 0.0000 25.0482
#
#
#
# Elastic Compliance Matrix: (Units=1/GPa)
#
#
# Indices 1 2 3 4 5 6 
#
# 1 0.015124 -0.002268 -0.009214 0.000000 0.000000 0.000000
# 2 -0.002268 0.012534 -0.006428 0.000000 0.000000 0.000000
# 3 -0.009214 -0.006428 0.025185 0.000000 0.000000 0.000000
# 4 0.000000 0.000000 0.000000 0.043161 0.000000 0.000000
# 5 0.000000 0.000000 0.000000 0.000000 0.031429 0.000000
# 6 0.000000 0.000000 0.000000 0.000000 0.000000 0.039923
#
#
# Mechanical properties :
#
#
# Convention : Reuss Voigt Hill
#
# Bulk Modulus (GPa) = 58.74966 61.36566 60.05766
# Shear Modulus (GPa) = 23.94035 25.68906 24.81471
#
# Velocity S-wave (km/s) = 3.37907 3.50031 3.44023
# Velocity P-wave (km/s) = 6.57604 6.75308 6.66515
#
# Compressibility (1/GPa) = 0.01702137
#
# Stress axis : x y z
#
# Youngs Moduli (GPa) = 66.12028 79.78109 39.70607
#
# Poissons Ratio (x) = 0.18098 0.36586
# Poissons Ratio (y) = 0.14999 0.25524
# Poissons Ratio (z) = 0.60924 0.51286
#
# Static dielectric constant tensor:
#      x y z
#    x 3.842230 0.000000 0.000000 
#    y 0.000000 3.875330 0.000000 
#    z 0.000000 0.000000 3.890440 
# 
# 
# High freq. dielectric constant tensor:
#      x y z
#    x 1.827410 0.000000 0.000000 
#    y 0.000000 1.825240 0.000000 
#    z 0.000000 0.000000 1.805790 
# 
# From -- ./inp_files/32145.got.cif
#   From: 2010.03.12/outbox.cif.g09.slc.cpg/sg47_17_cif.got.tgz:32145.got - 2010.04.14 03:12:58.
