data_PCOD8197436
_publ_section_title
;
Structure prediction by ZEFSAII (Michael W. Deem and Ramdas Pophale) SiO2 
 PCOD8197436
Probable space group: P M M M
;
_chemical_formula_sum "Si O2"
_cell_formula_units_Z 64
_cell_length_a 9.397946
_cell_length_b 14.510679
_cell_length_c 25.845916
_cell_angle_alpha 90.000000
_cell_angle_beta 90.000000
_cell_angle_gamma 90.000000
_cell_volume 3524.622495
_symmetry_space_group_name_H-M "P M M M"
_symmetry_group_IT_number 47
_symmetry_cell_setting 'orthorhombic'
loop_
_space_group_symop_operation_xyz
x,y,z
-x,-y,z
x,-y,-z
-x,y,-z
-x,-y,-z
x,y,-z
-x,y,z
x,-y,z
loop_
_atom_site_type_symbol
_atom_site_label
_atom_site_fract_x
_atom_site_fract_y
_atom_site_fract_z
Si Si1 0.169150 0.896281 0.351059
Si Si2 0.835991 0.602232 0.707483
Si Si3 0.340983 0.399235 0.061438
Si Si4 0.167200 0.227350 0.941379
Si Si5 0.163898 0.236126 0.441807
Si Si6 0.334827 0.395394 0.603052
Si Si7 0.167242 0.792069 0.249837
Si Si8 0.169334 0.897097 0.150760
O O1 0.220030 0.841767 0.402218
O O2 0.229601 0.843737 0.300423
O O3 0.000000 0.899985 0.349391
O O4 0.231585 0.000000 0.352585
O O5 0.811145 0.500000 0.731823
O O6 0.736262 0.617353 0.658672
O O7 0.797303 0.682465 0.748607
O O8 0.000000 0.613507 0.689474
O O9 0.500000 0.377292 0.081279
O O10 0.292136 0.500000 0.082209
O O11 0.234921 0.320838 0.081492
O O12 0.338589 0.400691 0.000000
O O13 0.217303 0.144510 0.904399
O O14 0.000000 0.242379 0.939300
O O15 0.217796 0.205018 0.000000
O O16 0.180649 0.197514 0.500000
O O17 0.257554 0.328328 0.437186
O O18 0.000000 0.261277 0.429722
O O19 0.500000 0.368947 0.607609
O O20 0.315892 0.500000 0.583130
O O21 0.233392 0.836132 0.197788
O O22 0.000000 0.808461 0.248773
O O23 0.000000 0.899030 0.153828
O O24 0.231824 0.000000 0.154905
#
# Coordination Sequence:
#
# PCOD8197436 Si02
#       8
#     8   8   8   8   8   8   8   8
#     4   9  16  27  46  72  97 120 151 195 243 284
#     4   9  16  28  49  74  98 122 151 192 241 290
#     4   8  14  26  45  67  90 120 159 197 233 280
#     4   9  17  28  43  67  99 131 162 199 243 287
#     4  10  20  33  49  72 101 129 159 198 242 285
#     4  10  20  33  50  72  98 129 163 196 233 282
#     4   9  15  26  46  71  96 121 154 196 239 283
#     4   9  17  28  43  67  98 129 162 202 245 286
#
# _framework density 18.157972999999998
#
# number of rings (size 3 to 8) (size 9 to 14) (size 15 to 20)
#    0.000    2.875    1.250    1.125    0.000    3.500 
#    0.000    5.625    0.000    3.750    0.000    4.375 
#    0.000    0.000    0.000    0.000    0.000    0.000 
#
# Total GULP energy -793237.956526 kJ/mol
# GULP energy per Si atom -12394.343071 kJ/mol
# Density = 1.811664 g / cm^3
# Si number density = 18.157973 Si / 1000 Ang^3
#
#
#
# Elastic Constant Matrix: (Units=GPa)
#
#
# Indices 1 2 3 4 5 6 
#
# 1 35.3015 30.1485 21.5349 0.0000 0.0000 0.0000
# 2 30.1485 157.6099 76.2522 0.0000 0.0000 0.0000
# 3 21.5349 76.2522 111.4339 0.0000 0.0000 0.0000
# 4 0.0000 0.0000 0.0000 29.0448 0.0000 0.0000
# 5 0.0000 0.0000 0.0000 0.0000 6.2046 0.0000
# 6 0.0000 0.0000 0.0000 0.0000 0.0000 10.1274
#
#
#
# Elastic Compliance Matrix: (Units=1/GPa)
#
#
# Indices 1 2 3 4 5 6 
#
# 1 0.034618 -0.005061 -0.003227 0.000000 0.000000 0.000000
# 2 -0.005061 0.010225 -0.006019 0.000000 0.000000 0.000000
# 3 -0.003227 -0.006019 0.013716 0.000000 0.000000 0.000000
# 4 0.000000 0.000000 0.000000 0.034430 0.000000 0.000000
# 5 0.000000 0.000000 0.000000 0.000000 0.161171 0.000000
# 6 0.000000 0.000000 0.000000 0.000000 0.000000 0.098742
#
#
# Mechanical properties :
#
#
# Convention : Reuss Voigt Hill
#
# Bulk Modulus (GPa) = 33.39349 62.24628 47.81988
# Shear Modulus (GPa) = 12.77153 20.83601 16.80377
#
# Velocity S-wave (km/s) = 2.65496 3.39113 3.04537
# Velocity P-wave (km/s) = 5.27531 7.04896 6.22562
#
# Compressibility (1/GPa) = 0.02994596
#
# Stress axis : x y z
#
# Youngs Moduli (GPa) = 28.88675 97.80354 72.90791
#
# Poissons Ratio (x) = 0.49495 0.23528
# Poissons Ratio (y) = 0.14618 0.43880
# Poissons Ratio (z) = 0.09322 0.58863
#
# Static dielectric constant tensor:
#      x y z
#    x 2.998550 0.000000 0.000000 
#    y 0.000000 3.742350 0.000000 
#    z 0.000000 0.000000 3.280450 
# 
# 
# High freq. dielectric constant tensor:
#      x y z
#    x 1.653350 0.000000 0.000000 
#    y 0.000000 1.715520 0.000000 
#    z 0.000000 0.000000 1.685930 
# 
# From -- ./inp_files/21883.got.cif
#   From: 2010.03.12/outbox.cif.g09.slc.cpg/sg47_11_cif.got.tgz:21883.got - 2010.04.14 03:12:58.
