data_PCOD8197464
_publ_section_title
;
Structure prediction by ZEFSAII (Michael W. Deem and Ramdas Pophale) SiO2 
 PCOD8197464
Probable space group: P M M M
;
_chemical_formula_sum "Si O2"
_cell_formula_units_Z 48
_cell_length_a 31.092227
_cell_length_b 9.379600
_cell_length_c 8.981910
_cell_angle_alpha 90.000000
_cell_angle_beta 90.000000
_cell_angle_gamma 90.000000
_cell_volume 2619.418237
_symmetry_space_group_name_H-M "P M M M"
_symmetry_group_IT_number 47
_symmetry_cell_setting 'orthorhombic'
loop_
_space_group_symop_operation_xyz
x,y,z
-x,-y,z
x,-y,-z
-x,y,-z
-x,-y,-z
x,y,-z
-x,y,z
x,-y,z
loop_
_atom_site_type_symbol
_atom_site_label
_atom_site_fract_x
_atom_site_fract_y
_atom_site_fract_z
Si Si1 0.709662 0.665650 0.675069
Si Si2 0.047123 0.339278 0.323028
Si Si3 0.872645 0.165791 0.328675
Si Si4 0.547659 0.660037 0.322890
Si Si5 0.373150 0.839405 0.677281
Si Si6 0.785046 0.163075 0.175726
O O1 0.716070 0.687286 0.500000
O O2 0.705014 0.500000 0.716798
O O3 0.667287 0.747308 0.732675
O O4 0.750149 0.731540 0.757441
O O5 0.047792 0.331738 0.500000
O O6 0.054936 0.500000 0.267983
O O7 0.085520 0.242702 0.258931
O O8 0.000000 0.286065 0.266641
O O9 0.864743 0.209287 0.500000
O O10 0.831169 0.213603 0.235834
O O11 0.881633 0.000000 0.311803
O O12 0.549775 0.660127 0.500000
O O13 0.500000 0.709067 0.270237
O O14 0.557242 0.500000 0.264979
O O15 0.583357 0.767707 0.257882
O O16 0.374659 0.841229 0.500000
O O17 0.369465 0.000000 0.740363
O O18 0.775508 0.000000 0.226007
O O19 0.784866 0.177244 0.000000
#
# Coordination Sequence:
#
# PCOD8197464 Si02
#       6
#     8   8   8   8   8   8
#     4  10  20  33  50  71  94 122 158 199 241 286
#     4   8  14  25  42  66  95 123 151 187 230 272
#     4   9  17  29  47  71  96 122 154 192 232 276
#     4   8  13  21  33  51  80 118 154 187 227 276
#     4   9  16  25  39  60  86 117 153 193 235 279
#     4  10  21  36  52  70  95 126 158 195 241 290
#
# _framework density 18.324680000000001
#
# number of rings (size 3 to 8) (size 9 to 14) (size 15 to 20)
#    0.000    3.000    0.000    2.500    0.000    5.333 
#    0.000    5.000    0.000    0.500    0.000    3.500 
#    0.000    0.667    0.000    7.000    0.000    9.667 
#
# Total GULP energy -595021.722015 kJ/mol
# GULP energy per Si atom -12396.285875 kJ/mol
# Density = 1.828297 g / cm^3
# Si number density = 18.324680 Si / 1000 Ang^3
#
#
#
# Elastic Constant Matrix: (Units=GPa)
#
#
# Indices 1 2 3 4 5 6 
#
# 1 190.1514 105.8149 31.5897 0.0000 0.0000 0.0000
# 2 105.8149 124.0010 29.2098 0.0000 0.0000 0.0000
# 3 31.5897 29.2098 22.1127 0.0000 0.0000 0.0000
# 4 0.0000 0.0000 0.0000 12.6023 0.0000 0.0000
# 5 0.0000 0.0000 0.0000 0.0000 -2.6836 0.0000
# 6 0.0000 0.0000 0.0000 0.0000 0.0000 44.3706
#
#
#
# Elastic Compliance Matrix: (Units=1/GPa)
#
#
# Indices 1 2 3 4 5 6 
#
# 1 0.010316 -0.007740 -0.004513 0.000000 0.000000 0.000000
# 2 -0.007740 0.017514 -0.012079 0.000000 0.000000 0.000000
# 3 -0.004513 -0.012079 0.067626 0.000000 0.000000 0.000000
# 4 0.000000 0.000000 0.000000 0.079351 0.000000 0.000000
# 5 0.000000 0.000000 0.000000 0.000000 -0.372632 0.000000
# 6 0.000000 0.000000 0.000000 0.000000 0.000000 0.022537
#
#
# Mechanical properties :
#
#
# Convention : Reuss Voigt Hill
#
# Bulk Modulus (GPa) = 21.37093 74.38821 47.87957
# Shear Modulus (GPa) = -45.03386 22.16790 -11.43298
#
# Velocity S-wave (km/s) = -4.96275 3.48189 -2.50053
# Velocity P-wave (km/s) = 4.59900 7.53972 4.22473
#
# Compressibility (1/GPa) = 0.04679255
#
# Stress axis : x y z
#
# Youngs Moduli (GPa) = 96.94016 57.09613 14.78731
#
# Poissons Ratio (x) = 0.44190 0.06673
# Poissons Ratio (y) = 0.75028 0.17861
# Poissons Ratio (z) = 0.43749 0.68966
#
# Static dielectric constant tensor:
#      x y z
#    x 3.769240 0.000000 0.000000 
#    y 0.000000 3.521900 0.000000 
#    z 0.000000 0.000000 2.789500 
# 
# 
# High freq. dielectric constant tensor:
#      x y z
#    x 1.729330 0.000000 0.000000 
#    y 0.000000 1.711330 0.000000 
#    z 0.000000 0.000000 1.646030 
# 
# From -- ./inp_files/4467.got.cif
#   From: 2010.03.12/outbox.cif.g09.slc.cpg/sg47_3_cif.got.tgz:4467.got - 2010.04.14 03:12:58.
