data_PCOD8197323
_publ_section_title
;
Structure prediction by ZEFSAII (Michael W. Deem and Ramdas Pophale) SiO2 
 PCOD8197323
Probable space group: P M M M
;
_chemical_formula_sum "Si O2"
_cell_formula_units_Z 36
_cell_length_a 8.995753
_cell_length_b 15.466263
_cell_length_c 16.691180
_cell_angle_alpha 90.000000
_cell_angle_beta 90.000000
_cell_angle_gamma 90.000000
_cell_volume 2322.255253
_symmetry_space_group_name_H-M "P M M M"
_symmetry_group_IT_number 47
_symmetry_cell_setting 'orthorhombic'
loop_
_space_group_symop_operation_xyz
x,y,z
-x,-y,z
x,-y,-z
-x,y,-z
-x,-y,-z
x,y,-z
-x,y,z
x,-y,z
loop_
_atom_site_type_symbol
_atom_site_label
_atom_site_fract_x
_atom_site_fract_y
_atom_site_fract_z
Si Si1 0.326114 0.326332 0.406052
Si Si2 0.174890 0.836906 0.671176
Si Si3 0.167564 0.500000 0.404996
Si Si4 0.331113 0.000000 0.594791
Si Si5 0.827826 0.098258 0.156547
Si Si6 0.331906 0.102792 0.000000
O O1 0.296839 0.312077 0.500000
O O2 0.500000 0.326792 0.386553
O O3 0.246478 0.251414 0.357501
O O4 0.255746 0.415822 0.375000
O O5 0.247042 0.915525 0.624056
O O6 0.208108 0.845025 0.765584
O O7 0.000000 0.837345 0.653239
O O8 0.162728 0.500000 0.500000
O O9 0.000000 0.500000 0.369937
O O10 0.500000 0.000000 0.627591
O O11 0.330786 0.000000 0.500000
O O12 0.000000 0.099506 0.135008
O O13 0.774986 0.000000 0.174006
O O14 0.743507 0.139566 0.080538
O O15 0.500000 0.134401 0.000000
O O16 0.314375 0.000000 0.000000
#
# Coordination Sequence:
#
# PCOD8197323 Si02
#       6
#     8   8   4   4   8   4
#     4  10  20  33  48  68  94 123 154 192 240 284
#     4  11  21  33  48  67  90 121 161 197 229 271
#     4   9  17  31  51  71  89 114 151 194 237 281
#     4  11  23  35  45  60  87 124 161 197 236 273
#     4   9  17  31  46  62  87 119 152 188 231 272
#     4   9  17  27  43  67  87 110 147 186 227 275
#
# _framework density 15.502171000000001
#
# number of rings (size 3 to 8) (size 9 to 14) (size 15 to 20)
#    0.000    2.111    1.111    3.000    0.000    9.333 
#    0.000    0.000    0.000    0.000    0.000    0.000 
#    0.000    0.889    0.000    9.333    0.000    4.444 
#
# Total GULP energy -446440.302331 kJ/mol
# GULP energy per Si atom -12401.119509 kJ/mol
# Density = 1.546689 g / cm^3
# Si number density = 15.502171 Si / 1000 Ang^3
#
#
#
# Elastic Constant Matrix: (Units=GPa)
#
#
# Indices 1 2 3 4 5 6 
#
# 1 122.2774 65.0198 64.9706 0.0000 0.0000 0.0000
# 2 65.0198 119.6668 52.0175 0.0000 0.0000 0.0000
# 3 64.9706 52.0175 86.2958 0.0000 0.0000 0.0000
# 4 0.0000 0.0000 0.0000 -7.9444 0.0000 0.0000
# 5 0.0000 0.0000 0.0000 0.0000 21.2992 0.0000
# 6 0.0000 0.0000 0.0000 0.0000 0.0000 27.2849
#
#
#
# Elastic Compliance Matrix: (Units=1/GPa)
#
#
# Indices 1 2 3 4 5 6 
#
# 1 0.015200 -0.004450 -0.008761 0.000000 0.000000 0.000000
# 2 -0.004450 0.012627 -0.004261 0.000000 0.000000 0.000000
# 3 -0.008761 -0.004261 0.020752 0.000000 0.000000 0.000000
# 4 0.000000 0.000000 0.000000 -0.125875 0.000000 0.000000
# 5 0.000000 0.000000 0.000000 0.000000 0.046950 0.000000
# 6 0.000000 0.000000 0.000000 0.000000 0.000000 0.036650
#
#
# Mechanical properties :
#
#
# Convention : Reuss Voigt Hill
#
# Bulk Modulus (GPa) = 73.34170 76.91734 75.12952
# Shear Modulus (GPa) = 109.18909 17.87673 63.53291
#
# Velocity S-wave (km/s) = 8.40164 3.39953 6.40876
# Velocity P-wave (km/s) = 11.89664 8.07056 10.16524
#
# Compressibility (1/GPa) = 0.01363481
#
# Stress axis : x y z
#
# Youngs Moduli (GPa) = 65.79156 79.19828 48.18778
#
# Poissons Ratio (x) = 0.35245 0.42217
# Poissons Ratio (y) = 0.29279 0.20530
# Poissons Ratio (z) = 0.57639 0.33743
#
# Static dielectric constant tensor:
#      x y z
#    x 3.185220 0.000000 0.000000 
#    y 0.000000 2.789230 0.000000 
#    z 0.000000 0.000000 2.924090 
# 
# 
# High freq. dielectric constant tensor:
#      x y z
#    x 1.614470 0.000000 0.000000 
#    y 0.000000 1.568330 0.000000 
#    z 0.000000 0.000000 1.578840 
# 
# From -- ./inp_files/5593.got.cif
#   From: 2010.03.12/outbox.cif.g09.slc.cpg/sg47_3_cif.got.tgz:5593.got - 2010.04.14 03:12:58.
