data_PCOD8197648
_publ_section_title
;
Structure prediction by ZEFSAII (Michael W. Deem and Ramdas Pophale) SiO2 
 PCOD8197648
Probable space group: P M M M
;
_chemical_formula_sum "Si O2"
_cell_formula_units_Z 40
_cell_length_a 7.684947
_cell_length_b 29.609747
_cell_length_c 9.325692
_cell_angle_alpha 90.000000
_cell_angle_beta 90.000000
_cell_angle_gamma 90.000000
_cell_volume 2122.055026
_symmetry_space_group_name_H-M "P M M M"
_symmetry_group_IT_number 47
_symmetry_cell_setting 'orthorhombic'
loop_
_space_group_symop_operation_xyz
x,y,z
-x,-y,z
x,-y,-z
-x,y,-z
-x,-y,-z
x,y,-z
-x,y,z
x,-y,z
loop_
_atom_site_type_symbol
_atom_site_label
_atom_site_fract_x
_atom_site_fract_y
_atom_site_fract_z
Si Si1 0.200584 0.587744 0.831949
Si Si2 0.205772 0.500000 0.339006
Si Si3 0.295711 0.902744 0.332040
Si Si4 0.806835 0.817489 0.836193
Si Si5 0.500000 0.345632 0.830672
Si Si6 0.702463 0.000000 0.333134
Si Si7 0.500000 0.245178 0.170722
O O1 0.268408 0.544168 0.745942
O O2 0.324072 0.628791 0.781891
O O3 0.000000 0.600049 0.795509
O O4 0.221974 0.577173 0.000000
O O5 0.284349 0.500000 0.500000
O O6 0.000000 0.500000 0.345200
O O7 0.256669 0.897848 0.500000
O O8 0.500000 0.897867 0.301243
O O9 0.194154 0.864063 0.249610
O O10 0.224835 0.951951 0.273725
O O11 0.670773 0.781199 0.772966
O O12 0.000000 0.796412 0.823997
O O13 0.757943 0.828557 0.000000
O O14 0.500000 0.295496 0.762130
O O15 0.500000 0.341469 0.000000
O O16 0.500000 0.000000 0.302342
O O17 0.740293 0.000000 0.500000
O O18 0.500000 0.248373 0.000000
#
# Coordination Sequence:
#
# PCOD8197648 Si02
#       7
#     8   4   8   8   4   4   4
#     4   9  17  30  49  73 100 128 161 202 241 278
#     4   9  17  30  49  72 101 137 168 193 231 284
#     4   9  16  29  51  75  99 128 162 201 244 291
#     4  10  20  33  51  74  99 130 165 201 246 297
#     4   9  18  31  50  75  97 123 162 205 248 289
#     4   7  12  24  44  71  98 125 159 196 237 288
#     4   9  18  34  52  71  98 126 159 207 252 293
#
# _framework density 18.849654000000001
#
# number of rings (size 3 to 8) (size 9 to 14) (size 15 to 20)
#    0.000    3.000    1.000    1.500    0.000    2.800 
#    0.000    7.500    0.000    7.200    0.000    2.800 
#    0.000    0.000    0.000    0.000    0.000    0.000 
#
# Total GULP energy -495659.369756 kJ/mol
# GULP energy per Si atom -12391.484244 kJ/mol
# Density = 1.880675 g / cm^3
# Si number density = 18.849654 Si / 1000 Ang^3
#
#
#
# Elastic Constant Matrix: (Units=GPa)
#
#
# Indices 1 2 3 4 5 6 
#
# 1 100.8819 69.1673 23.4281 0.0000 0.0000 0.0000
# 2 69.1673 182.0233 39.6571 0.0000 0.0000 0.0000
# 3 23.4281 39.6571 42.7496 0.0000 0.0000 0.0000
# 4 0.0000 0.0000 0.0000 0.8611 0.0000 0.0000
# 5 0.0000 0.0000 0.0000 0.0000 12.2397 0.0000
# 6 0.0000 0.0000 0.0000 0.0000 0.0000 10.4397
#
#
#
# Elastic Compliance Matrix: (Units=1/GPa)
#
#
# Indices 1 2 3 4 5 6 
#
# 1 0.013783 -0.004502 -0.003378 0.000000 0.000000 0.000000
# 2 -0.004502 0.008356 -0.005284 0.000000 0.000000 0.000000
# 3 -0.003378 -0.005284 0.030145 0.000000 0.000000 0.000000
# 4 0.000000 0.000000 0.000000 1.161302 0.000000 0.000000
# 5 0.000000 0.000000 0.000000 0.000000 0.081701 0.000000
# 6 0.000000 0.000000 0.000000 0.000000 0.000000 0.095788
#
#
# Mechanical properties :
#
#
# Convention : Reuss Voigt Hill
#
# Bulk Modulus (GPa) = 38.52522 65.57331 52.04927
# Shear Modulus (GPa) = 3.50618 17.60160 10.55389
#
# Velocity S-wave (km/s) = 1.36533 3.05911 2.36878
# Velocity P-wave (km/s) = 4.79250 6.88045 5.92911
#
# Compressibility (1/GPa) = 0.02595702
#
# Stress axis : x y z
#
# Youngs Moduli (GPa) = 72.55056 119.67940 33.17298
#
# Poissons Ratio (x) = 0.53876 0.11205
# Poissons Ratio (y) = 0.32660 0.17529
# Poissons Ratio (z) = 0.24506 0.63240
#
# Static dielectric constant tensor:
#      x y z
#    x 3.393550 0.000000 0.000000 
#    y 0.000000 3.776220 0.000000 
#    z 0.000000 0.000000 3.130980 
# 
# 
# High freq. dielectric constant tensor:
#      x y z
#    x 1.729080 0.000000 0.000000 
#    y 0.000000 1.736030 0.000000 
#    z 0.000000 0.000000 1.685770 
# 
# From -- ./inp_files/1916.got.cif
#   From: 2010.03.12/outbox.cif.g09.slc.cpg/sg47_1_cif.got.tgz:1916.got - 2010.04.14 03:12:58.
