data_PCOD8197910
_publ_section_title
;
Structure prediction by ZEFSAII (Michael W. Deem and Ramdas Pophale) SiO2 
 PCOD8197910
Probable space group: P M M M
;
_chemical_formula_sum "Si O2"
_cell_formula_units_Z 64
_cell_length_a 24.415290
_cell_length_b 9.602487
_cell_length_c 14.587146
_cell_angle_alpha 90.000000
_cell_angle_beta 90.000000
_cell_angle_gamma 90.000000
_cell_volume 3419.919982
_symmetry_space_group_name_H-M "P M M M"
_symmetry_group_IT_number 47
_symmetry_cell_setting 'orthorhombic'
loop_
_space_group_symop_operation_xyz
x,y,z
-x,-y,z
x,-y,-z
-x,y,-z
-x,-y,-z
x,y,-z
-x,y,z
x,-y,z
loop_
_atom_site_type_symbol
_atom_site_label
_atom_site_fract_x
_atom_site_fract_y
_atom_site_fract_z
Si Si1 0.880099 0.161331 0.754376
Si Si2 0.339738 0.165412 0.103244
Si Si3 0.412553 0.659406 0.397084
Si Si4 0.560709 0.840255 0.772067
Si Si5 0.245228 0.840060 0.237252
Si Si6 0.284056 0.656687 0.603090
Si Si7 0.062763 0.661109 0.606524
Si Si8 0.935416 0.653127 0.101738
O O1 0.817865 0.181343 0.788381
O O2 0.894499 0.243292 0.661303
O O3 0.916143 0.221652 0.835567
O O4 0.894181 0.000000 0.738639
O O5 0.393986 0.219331 0.156974
O O6 0.285201 0.217681 0.156890
O O7 0.340615 0.000000 0.096737
O O8 0.339329 0.228312 0.000000
O O9 0.432327 0.698964 0.500000
O O10 0.428492 0.500000 0.376041
O O11 0.441063 0.757163 0.323095
O O12 0.348210 0.681677 0.389563
O O13 0.500000 0.827751 0.816829
O O14 0.574873 0.000000 0.748695
O O15 0.253219 0.762379 0.332253
O O16 0.259875 0.000000 0.255143
O O17 0.263606 0.684486 0.500000
O O18 0.269256 0.500000 0.632985
O O19 0.071218 0.693840 0.500000
O O20 0.075605 0.500000 0.627565
O O21 0.000000 0.694528 0.635582
O O22 0.916366 0.500000 0.138315
O O23 0.000000 0.657119 0.098762
O O24 0.911554 0.676643 0.000000
#
# Coordination Sequence:
#
# PCOD8197910 Si02
#       8
#     8   8   8   8   8   8   8   8
#     4  11  23  34  50  81 115 143 176 220 270 324
#     4   9  18  35  57  76  99 135 176 218 266 317
#     4   9  18  33  53  77 106 141 175 206 252 313
#     4  10  20  33  53  82 109 134 173 223 268 313
#     4  10  21  36  53  76 106 142 179 213 259 318
#     4   9  18  33  54  78 102 132 173 217 257 302
#     4   9  19  37  59  80 105 144 191 230 267 316
#     4   9  19  37  59  80 104 138 179 220 264 318
#
# _framework density 18.713889000000002
#
# number of rings (size 3 to 8) (size 9 to 14) (size 15 to 20)
#    0.000    2.500    1.250    2.250    0.000    5.750 
#    0.000    8.750    0.000    1.500    0.000    0.875 
#    0.000    0.000    0.000    0.000    0.000    0.000 
#
# Total GULP energy -793412.309074 kJ/mol
# GULP energy per Si atom -12397.067329 kJ/mol
# Density = 1.867130 g / cm^3
# Si number density = 18.713889 Si / 1000 Ang^3
#
#
#
# Elastic Constant Matrix: (Units=GPa)
#
#
# Indices 1 2 3 4 5 6 
#
# 1 76.1907 40.4594 47.9423 0.0000 0.0000 0.0000
# 2 40.4594 72.9068 50.1467 0.0000 0.0000 0.0000
# 3 47.9423 50.1467 109.8050 0.0000 0.0000 0.0000
# 4 0.0000 0.0000 0.0000 10.8145 0.0000 0.0000
# 5 0.0000 0.0000 0.0000 0.0000 7.5261 0.0000
# 6 0.0000 0.0000 0.0000 0.0000 0.0000 21.0846
#
#
#
# Elastic Compliance Matrix: (Units=1/GPa)
#
#
# Indices 1 2 3 4 5 6 
#
# 1 0.020676 -0.007676 -0.005522 0.000000 0.000000 0.000000
# 2 -0.007676 0.022848 -0.007083 0.000000 0.000000 0.000000
# 3 -0.005522 -0.007083 0.014753 0.000000 0.000000 0.000000
# 4 0.000000 0.000000 0.000000 0.092469 0.000000 0.000000
# 5 0.000000 0.000000 0.000000 0.000000 0.132870 0.000000
# 6 0.000000 0.000000 0.000000 0.000000 0.000000 0.047428
#
#
# Mechanical properties :
#
#
# Convention : Reuss Voigt Hill
#
# Bulk Modulus (GPa) = 56.45000 59.55548 58.00274
# Shear Modulus (GPa) = 13.24473 15.90864 14.57669
#
# Velocity S-wave (km/s) = 2.66324 2.91881 2.79395
# Velocity P-wave (km/s) = 6.29979 6.57667 6.43972
#
# Compressibility (1/GPa) = 0.01771479
#
# Stress axis : x y z
#
# Youngs Moduli (GPa) = 48.36625 43.76829 67.78488
#
# Poissons Ratio (x) = 0.33596 0.37429
# Poissons Ratio (y) = 0.37125 0.48011
# Poissons Ratio (z) = 0.26706 0.31000
#
# Static dielectric constant tensor:
#      x y z
#    x 3.457000 0.000000 0.000000 
#    y 0.000000 3.323110 0.000000 
#    z 0.000000 0.000000 3.911040 
# 
# 
# High freq. dielectric constant tensor:
#      x y z
#    x 1.725790 0.000000 0.000000 
#    y 0.000000 1.708450 0.000000 
#    z 0.000000 0.000000 1.726530 
# 
# From -- ./inp_files/12756.got.cif
#   From: 2010.03.12/outbox.cif.g09.slc.cpg/sg47_7_cif.got.tgz:12756.got - 2010.04.14 03:12:58.
