data_PCOD8197107
_publ_section_title
;
Structure prediction by ZEFSAII (Michael W. Deem and Ramdas Pophale) SiO2 
 PCOD8197107
Probable space group: P M M M
;
_chemical_formula_sum "Si O2"
_cell_formula_units_Z 52
_cell_length_a 19.693237
_cell_length_b 9.988584
_cell_length_c 14.655499
_cell_angle_alpha 90.000000
_cell_angle_beta 90.000000
_cell_angle_gamma 90.000000
_cell_volume 2882.847332
_symmetry_space_group_name_H-M "P M M M"
_symmetry_group_IT_number 47
_symmetry_cell_setting 'orthorhombic'
loop_
_space_group_symop_operation_xyz
x,y,z
-x,-y,z
x,-y,-z
-x,y,-z
-x,-y,-z
x,y,-z
-x,y,z
x,-y,z
loop_
_atom_site_type_symbol
_atom_site_label
_atom_site_fract_x
_atom_site_fract_y
_atom_site_fract_z
Si Si1 0.576488 0.341506 0.600726
Si Si2 0.423950 0.148764 0.107581
Si Si3 0.656246 0.348301 0.775035
Si Si4 0.076207 0.341275 0.102461
Si Si5 0.146406 0.841729 0.394790
Si Si6 0.188152 0.347587 0.246282
Si Si7 0.000000 0.144291 0.393062
O O1 0.596274 0.284035 0.500000
O O2 0.500000 0.293714 0.626757
O O3 0.578336 0.500000 0.595248
O O4 0.630879 0.291666 0.676378
O O5 0.500000 0.177554 0.142891
O O6 0.373808 0.258538 0.145995
O O7 0.401258 0.000000 0.138873
O O8 0.421425 0.159428 0.000000
O O9 0.629464 0.500000 0.786162
O O10 0.736388 0.344172 0.792678
O O11 0.079333 0.500000 0.099696
O O12 0.134026 0.289395 0.172424
O O13 0.000000 0.295214 0.133462
O O14 0.091057 0.286081 0.000000
O O15 0.164617 0.815740 0.500000
O O16 0.194120 0.750513 0.333167
O O17 0.070760 0.783344 0.369110
O O18 0.152620 0.000000 0.372643
O O19 0.168814 0.500000 0.275107
O O20 0.000000 0.116864 0.500000
O O21 0.000000 0.000000 0.343613
#
# Coordination Sequence:
#
# PCOD8197107 Si02
#       7
#     8   8   8   8   8   8   4
#     4   8  14  26  45  67  91 124 165 202 237 283
#     4   9  19  36  56  77 102 134 170 206 249 303
#     4  10  20  32  48  75 107 134 164 207 257 304
#     4   8  15  30  50  68  90 125 166 206 250 302
#     4   9  18  33  51  70  96 133 173 208 249 306
#     4  10  21  32  47  76 105 130 165 210 259 307
#     4   7  12  26  47  67  86 115 160 208 249 291
#
# _framework density 18.037721000000001
#
# number of rings (size 3 to 8) (size 9 to 14) (size 15 to 20)
#    0.000    3.154    0.000    2.769    1.077    3.385 
#    0.000    3.846    0.000    2.308    0.000    3.231 
#    0.000    0.000    0.000    0.000    0.000    0.000 
#
# Total GULP energy -644187.848254 kJ/mol
# GULP energy per Si atom -12388.227851 kJ/mol
# Density = 1.799667 g / cm^3
# Si number density = 18.037721 Si / 1000 Ang^3
#
#
#
# Elastic Constant Matrix: (Units=GPa)
#
#
# Indices 1 2 3 4 5 6 
#
# 1 88.3577 34.4566 45.0099 0.0000 0.0000 0.0000
# 2 34.4566 64.7320 39.6834 0.0000 0.0000 0.0000
# 3 45.0099 39.6834 74.3874 0.0000 0.0000 0.0000
# 4 0.0000 0.0000 0.0000 25.4555 0.0000 0.0000
# 5 0.0000 0.0000 0.0000 0.0000 23.7755 0.0000
# 6 0.0000 0.0000 0.0000 0.0000 0.0000 -236.1422
#
#
#
# Elastic Compliance Matrix: (Units=1/GPa)
#
#
# Indices 1 2 3 4 5 6 
#
# 1 0.017059 -0.004090 -0.008140 0.000000 0.000000 0.000000
# 2 -0.004090 0.023937 -0.010294 0.000000 0.000000 0.000000
# 3 -0.008140 -0.010294 0.023860 0.000000 0.000000 0.000000
# 4 0.000000 0.000000 0.000000 0.039284 0.000000 0.000000
# 5 0.000000 0.000000 0.000000 0.000000 0.042060 0.000000
# 6 0.000000 0.000000 0.000000 0.000000 0.000000 -0.004235
#
#
# Mechanical properties :
#
#
# Convention : Reuss Voigt Hill
#
# Bulk Modulus (GPa) = 50.48887 51.75298 51.12093
# Shear Modulus (GPa) = 25.82410 -30.16044 -2.16817
#
# Velocity S-wave (km/s) = 3.78785 -4.09354 -1.09756
# Velocity P-wave (km/s) = 6.86891 2.53201 5.17653
#
# Compressibility (1/GPa) = 0.01980634
#
# Stress axis : x y z
#
# Youngs Moduli (GPa) = 58.61880 41.77714 41.91081
#
# Poissons Ratio (x) = 0.17089 0.34116
# Poissons Ratio (y) = 0.23978 0.43145
# Poissons Ratio (z) = 0.47716 0.43007
#
# Static dielectric constant tensor:
#      x y z
#    x 3.451090 0.000000 0.000000 
#    y 0.000000 2.979980 0.000000 
#    z 0.000000 0.000000 3.355810 
# 
# 
# High freq. dielectric constant tensor:
#      x y z
#    x 1.699070 0.000000 0.000000 
#    y 0.000000 1.656630 0.000000 
#    z 0.000000 0.000000 1.692670 
# 
# From -- ./inp_files/10970.got.cif
#   From: 2010.03.12/outbox.cif.g09.slc.cpg/sg47_6_cif.got.tgz:10970.got - 2010.04.14 03:12:58.
