data_PCOD8197339
_publ_section_title
;
Structure prediction by ZEFSAII (Michael W. Deem and Ramdas Pophale) SiO2 
 PCOD8197339
Probable space group: P M M M
;
_chemical_formula_sum "Si O2"
_cell_formula_units_Z 64
_cell_length_a 31.352267
_cell_length_b 8.892263
_cell_length_c 14.248718
_cell_angle_alpha 90.000000
_cell_angle_beta 90.000000
_cell_angle_gamma 90.000000
_cell_volume 3972.437192
_symmetry_space_group_name_H-M "P M M M"
_symmetry_group_IT_number 47
_symmetry_cell_setting 'orthorhombic'
loop_
_space_group_symop_operation_xyz
x,y,z
-x,-y,z
x,-y,-z
-x,y,-z
-x,-y,-z
x,y,-z
-x,y,z
x,-y,z
loop_
_atom_site_type_symbol
_atom_site_label
_atom_site_fract_x
_atom_site_fract_y
_atom_site_fract_z
Si Si1 0.217648 0.178002 0.217231
Si Si2 0.335800 0.828444 0.604145
Si Si3 0.247393 0.674773 0.393955
Si Si4 0.295809 0.676353 0.108947
Si Si5 0.548955 0.325861 0.107783
Si Si6 0.863655 0.820090 0.105560
Si Si7 0.375366 0.174133 0.795975
Si Si8 0.954844 0.831310 0.888441
O O1 0.216922 0.232263 0.324780
O O2 0.258567 0.241372 0.164445
O O3 0.174388 0.240853 0.170327
O O4 0.219733 0.000000 0.212167
O O5 0.355310 0.798267 0.500000
O O6 0.296269 0.719634 0.623238
O O7 0.370896 0.796416 0.683994
O O8 0.319122 0.000000 0.611585
O O9 0.233334 0.712834 0.500000
O O10 0.242816 0.500000 0.371300
O O11 0.291918 0.500000 0.126871
O O12 0.341392 0.730910 0.145406
O O13 0.291625 0.717466 0.000000
O O14 0.500000 0.287823 0.130237
O O15 0.558600 0.500000 0.127331
O O16 0.577421 0.224587 0.175789
O O17 0.559536 0.286874 0.000000
O O18 0.909762 0.756578 0.144411
O O19 0.865536 0.000000 0.106298
O O20 0.854830 0.762095 0.000000
O O21 0.368677 0.000000 0.820368
O O22 0.000000 0.749720 0.857682
O O23 0.956896 0.000000 0.848419
O O24 0.952440 0.836866 0.000000
#
# Coordination Sequence:
#
# PCOD8197339 Si02
#       8
#     8   8   8   8   8   8   8   8
#     4  11  20  30  45  65  91 123 154 188 230 273
#     4   9  18  33  51  71  95 121 150 186 231 278
#     4  10  20  33  49  67  87 115 153 194 233 274
#     4  11  23  35  46  63  92 129 162 191 223 264
#     4   9  19  36  55  73  96 128 160 189 227 274
#     4   8  14  23  35  55  85 120 154 185 220 267
#     4  11  21  32  51  77  98 120 152 193 235 273
#     4   7   9  15  29  49  75 109 147 184 221 262
#
# _framework density 16.111015999999999
#
# number of rings (size 3 to 8) (size 9 to 14) (size 15 to 20)
#    0.000    2.500    1.250    3.750    0.000    4.750 
#    0.000    0.625    0.000    0.375    0.000    2.625 
#    0.000    2.500    0.000   20.375    0.000   12.750 
#
# Total GULP energy -793142.825400 kJ/mol
# GULP energy per Si atom -12392.856647 kJ/mol
# Density = 1.607435 g / cm^3
# Si number density = 16.111016 Si / 1000 Ang^3
#
#
#
# Elastic Constant Matrix: (Units=GPa)
#
#
# Indices 1 2 3 4 5 6 
#
# 1 110.2477 26.2298 54.9910 0.0000 0.0000 0.0000
# 2 26.2298 45.1051 34.1747 0.0000 0.0000 0.0000
# 3 54.9910 34.1747 97.8573 0.0000 0.0000 0.0000
# 4 0.0000 0.0000 0.0000 21.8258 0.0000 0.0000
# 5 0.0000 0.0000 0.0000 0.0000 10.4794 0.0000
# 6 0.0000 0.0000 0.0000 0.0000 0.0000 -0.8093
#
#
#
# Elastic Compliance Matrix: (Units=1/GPa)
#
#
# Indices 1 2 3 4 5 6 
#
# 1 0.012844 -0.002720 -0.006268 0.000000 0.000000 0.000000
# 2 -0.002720 0.030724 -0.009201 0.000000 0.000000 0.000000
# 3 -0.006268 -0.009201 0.016954 0.000000 0.000000 0.000000
# 4 0.000000 0.000000 0.000000 0.045817 0.000000 0.000000
# 5 0.000000 0.000000 0.000000 0.000000 0.095425 0.000000
# 6 0.000000 0.000000 0.000000 0.000000 0.000000 -1.235701
#
#
# Mechanical properties :
#
#
# Convention : Reuss Voigt Hill
#
# Bulk Modulus (GPa) = 41.41796 53.77790 47.59793
# Shear Modulus (GPa) = -5.05300 15.48683 5.21692
#
# Velocity S-wave (km/s) = -1.77290 3.10378 1.80143
# Velocity P-wave (km/s) = 4.64465 6.80416 5.82535
#
# Compressibility (1/GPa) = 0.02414411
#
# Stress axis : x y z
#
# Youngs Moduli (GPa) = 77.85747 32.54824 58.98189
#
# Poissons Ratio (x) = 0.08854 0.36968
# Poissons Ratio (y) = 0.21179 0.54269
# Poissons Ratio (z) = 0.48799 0.29947
#
# Static dielectric constant tensor:
#      x y z
#    x 3.271370 0.000000 0.000000 
#    y 0.000000 2.906830 0.000000 
#    z 0.000000 0.000000 3.122050 
# 
# 
# High freq. dielectric constant tensor:
#      x y z
#    x 1.612510 0.000000 0.000000 
#    y 0.000000 1.604080 0.000000 
#    z 0.000000 0.000000 1.602880 
# 
# From -- ./inp_files/25876.got.cif
#   From: 2010.03.12/outbox.cif.g09.slc.cpg/sg47_13_cif.got.tgz:25876.got - 2010.04.14 03:12:58.
