data_PCOD8197896
_publ_section_title
;
Structure prediction by ZEFSAII (Michael W. Deem and Ramdas Pophale) SiO2 
 PCOD8197896
Probable space group: P M M M
;
_chemical_formula_sum "Si O2"
_cell_formula_units_Z 44
_cell_length_a 17.643106
_cell_length_b 15.294244
_cell_length_c 8.878753
_cell_angle_alpha 90.000000
_cell_angle_beta 90.000000
_cell_angle_gamma 90.000000
_cell_volume 2395.824669
_symmetry_space_group_name_H-M "P M M M"
_symmetry_group_IT_number 47
_symmetry_cell_setting 'orthorhombic'
loop_
_space_group_symop_operation_xyz
x,y,z
-x,-y,z
x,-y,-z
-x,y,-z
-x,-y,-z
x,y,-z
-x,y,z
x,-y,z
loop_
_atom_site_type_symbol
_atom_site_label
_atom_site_fract_x
_atom_site_fract_y
_atom_site_fract_z
Si Si1 0.583936 0.500000 0.180823
Si Si2 0.584520 0.854574 0.824333
Si Si3 0.740000 0.901268 0.326845
Si Si4 0.807494 0.741091 0.178819
Si Si5 0.089008 0.401710 0.325949
Si Si6 0.649342 0.674581 0.824858
O O1 0.500000 0.500000 0.243230
O O2 0.623461 0.415040 0.251895
O O3 0.584906 0.500000 0.000000
O O4 0.500000 0.886168 0.771478
O O5 0.653976 0.899254 0.737819
O O6 0.588057 0.750383 0.796166
O O7 0.595581 0.876311 0.000000
O O8 0.735518 0.872920 0.500000
O O9 0.802920 0.839869 0.244768
O O10 0.770129 0.000000 0.308214
O O11 0.874647 0.678303 0.233786
O O12 0.730443 0.699080 0.242638
O O13 0.812112 0.748956 0.000000
O O14 0.110137 0.389795 0.500000
O O15 0.115055 0.500000 0.272669
O O16 0.000000 0.393350 0.300161
O O17 0.660174 0.657724 0.000000
#
# Coordination Sequence:
#
# PCOD8197896 Si02
#       6
#     4   8   8   8   8   8
#     4   9  14  20  34  56  86 125 164 202 243 289
#     4   9  17  30  47  68  97 131 170 220 276 326
#     4  10  21  36  53  73  99 134 178 224 270 325
#     4  10  20  33  53  79 107 137 171 218 267 313
#     4   9  19  36  57  82 114 150 181 207 243 299
#     4   8  15  25  38  62  94 128 165 206 253 304
#
# _framework density 18.365283999999999
#
# number of rings (size 3 to 8) (size 9 to 14) (size 15 to 20)
#    0.000    2.818    0.000    3.273    1.273    5.091 
#    0.000    2.727    0.000    0.545    0.000    3.818 
#    0.000    7.636    0.000    0.000    0.000    0.000 
#
# Total GULP energy -545129.224963 kJ/mol
# GULP energy per Si atom -12389.300567 kJ/mol
# Density = 1.832348 g / cm^3
# Si number density = 18.365284 Si / 1000 Ang^3
#
#
#
# Elastic Constant Matrix: (Units=GPa)
#
#
# Indices 1 2 3 4 5 6 
#
# 1 60.3224 39.1715 33.4771 0.0000 0.0000 0.0000
# 2 39.1715 126.6809 47.3362 0.0000 0.0000 0.0000
# 3 33.4771 47.3362 76.8065 0.0000 0.0000 0.0000
# 4 0.0000 0.0000 0.0000 22.5023 0.0000 0.0000
# 5 0.0000 0.0000 0.0000 0.0000 24.6250 0.0000
# 6 0.0000 0.0000 0.0000 0.0000 0.0000 21.4029
#
#
#
# Elastic Compliance Matrix: (Units=1/GPa)
#
#
# Indices 1 2 3 4 5 6 
#
# 1 0.023693 -0.004505 -0.007551 0.000000 0.000000 0.000000
# 2 -0.004505 0.011112 -0.004885 0.000000 0.000000 0.000000
# 3 -0.007551 -0.004885 0.019321 0.000000 0.000000 0.000000
# 4 0.000000 0.000000 0.000000 0.044440 0.000000 0.000000
# 5 0.000000 0.000000 0.000000 0.000000 0.040609 0.000000
# 6 0.000000 0.000000 0.000000 0.000000 0.000000 0.046723
#
#
# Mechanical properties :
#
#
# Convention : Reuss Voigt Hill
#
# Bulk Modulus (GPa) = 49.39278 55.97548 52.68413
# Shear Modulus (GPa) = 22.07233 23.29440 22.68337
#
# Velocity S-wave (km/s) = 3.47053 3.56531 3.51824
# Velocity P-wave (km/s) = 6.55839 6.89157 6.72704
#
# Compressibility (1/GPa) = 0.02024587
#
# Stress axis : x y z
#
# Youngs Moduli (GPa) = 42.20604 89.99158 51.75606
#
# Poissons Ratio (x) = 0.40540 0.39079
# Poissons Ratio (y) = 0.19013 0.25283
# Poissons Ratio (z) = 0.31868 0.43961
#
# Static dielectric constant tensor:
#      x y z
#    x 3.280510 0.000000 0.000000 
#    y 0.000000 3.671880 0.000000 
#    z 0.000000 0.000000 3.099070 
# 
# 
# High freq. dielectric constant tensor:
#      x y z
#    x 1.690260 0.000000 0.000000 
#    y 0.000000 1.723270 0.000000 
#    z 0.000000 0.000000 1.684080 
# 
# From -- ./inp_files/6203.got.cif
#   From: 2010.03.12/outbox.cif.g09.slc.cpg/sg47_4_cif.got.tgz:6203.got - 2010.04.14 03:12:58.
