data_PCOD8197003
_publ_section_title
;
Structure prediction by ZEFSAII (Michael W. Deem and Ramdas Pophale) SiO2 
 PCOD8197003
Probable space group: P M M M
;
_chemical_formula_sum "Si O2"
_cell_formula_units_Z 48
_cell_length_a 30.932776
_cell_length_b 9.472065
_cell_length_c 8.811071
_cell_angle_alpha 90.000000
_cell_angle_beta 90.000000
_cell_angle_gamma 90.000000
_cell_volume 2581.619704
_symmetry_space_group_name_H-M "P M M M"
_symmetry_group_IT_number 47
_symmetry_cell_setting 'orthorhombic'
loop_
_space_group_symop_operation_xyz
x,y,z
-x,-y,z
x,-y,-z
-x,y,-z
-x,-y,-z
x,y,-z
-x,y,z
x,-y,z
loop_
_atom_site_type_symbol
_atom_site_label
_atom_site_fract_x
_atom_site_fract_y
_atom_site_fract_z
Si Si1 0.500000 0.159755 0.680495
Si Si2 0.174550 0.341652 0.319518
Si Si3 0.418734 0.662637 0.323702
Si Si4 0.000000 0.158771 0.681444
Si Si5 0.253452 0.159556 0.680343
Si Si6 0.078845 0.341598 0.680475
Si Si7 0.671290 0.662035 0.177599
O O1 0.500000 0.162050 0.500000
O O2 0.457521 0.240772 0.739471
O O3 0.500000 0.000000 0.743570
O O4 0.175980 0.340622 0.500000
O O5 0.184346 0.500000 0.260321
O O6 0.210658 0.236252 0.253153
O O7 0.126699 0.293432 0.264577
O O8 0.409084 0.692485 0.500000
O O9 0.431820 0.500000 0.298013
O O10 0.376695 0.704526 0.228320
O O11 0.042673 0.236362 0.746410
O O12 0.000000 0.160972 0.500000
O O13 0.000000 0.000000 0.744182
O O14 0.252996 0.162256 0.500000
O O15 0.295817 0.238571 0.735478
O O16 0.253722 0.000000 0.742339
O O17 0.077145 0.340130 0.500000
O O18 0.069088 0.500000 0.738809
O O19 0.680880 0.500000 0.222588
O O20 0.676044 0.687183 0.000000
#
# Coordination Sequence:
#
# PCOD8197003 Si02
#       7
#     4   8   8   4   8   8   8
#     4   9  17  29  48  75 102 126 156 195 234 273
#     4   8  14  25  41  59  79 107 146 191 234 275
#     4   9  17  31  52  75  98 126 160 197 236 277
#     4   9  15  19  25  41  67 101 138 175 218 269
#     4  10  20  32  48  71  96 123 156 195 241 291
#     4   8  13  21  32  46  67  99 139 180 221 267
#     4  10  21  36  53  73  97 127 163 201 241 284
#
# _framework density 18.592979
#
# number of rings (size 3 to 8) (size 9 to 14) (size 15 to 20)
#    0.000    3.000    0.000    2.500    0.000    5.333 
#    0.000    5.417    0.000    2.500    0.000    0.000 
#    0.000    0.000    0.000    0.750    0.000   15.333 
#
# Total GULP energy -595056.368765 kJ/mol
# GULP energy per Si atom -12397.007683 kJ/mol
# Density = 1.855066 g / cm^3
# Si number density = 18.592979 Si / 1000 Ang^3
#
#
#
# Elastic Constant Matrix: (Units=GPa)
#
#
# Indices 1 2 3 4 5 6 
#
# 1 153.7271 100.0144 6.5488 0.0000 0.0000 0.0000
# 2 100.0144 138.7193 11.0210 0.0000 0.0000 0.0000
# 3 6.5488 11.0210 7.1552 0.0000 0.0000 0.0000
# 4 0.0000 0.0000 0.0000 10.7242 0.0000 0.0000
# 5 0.0000 0.0000 0.0000 0.0000 -1.8220 0.0000
# 6 0.0000 0.0000 0.0000 0.0000 0.0000 18.4075
#
#
#
# Elastic Compliance Matrix: (Units=1/GPa)
#
#
# Indices 1 2 3 4 5 6 
#
# 1 0.012299 -0.009085 0.002736 0.000000 0.000000 0.000000
# 2 -0.009085 0.014925 -0.014673 0.000000 0.000000 0.000000
# 3 0.002736 -0.014673 0.159854 0.000000 0.000000 0.000000
# 4 0.000000 0.000000 0.000000 0.093247 0.000000 0.000000
# 5 0.000000 0.000000 0.000000 0.000000 -0.548845 0.000000
# 6 0.000000 0.000000 0.000000 0.000000 0.000000 0.054326
#
#
# Mechanical properties :
#
#
# Convention : Reuss Voigt Hill
#
# Bulk Modulus (GPa) = 6.89491 59.41890 33.15690
# Shear Modulus (GPa) = -40.38538 17.59644 -11.39447
#
# Velocity S-wave (km/s) = -4.66561 3.07970 -2.47824
# Velocity P-wave (km/s) = 5.03066 6.68380 3.11173
#
# Compressibility (1/GPa) = 0.14503463
#
# Stress axis : x y z
#
# Youngs Moduli (GPa) = 81.30752 67.00381 6.25571
#
# Poissons Ratio (x) = 0.60871 -0.01712
# Poissons Ratio (y) = 0.73866 0.09179
# Poissons Ratio (z) = -0.22249 0.98315
#
# Static dielectric constant tensor:
#      x y z
#    x 3.709130 0.000000 0.000000 
#    y 0.000000 3.605500 0.000000 
#    z 0.000000 0.000000 2.805480 
# 
# 
# High freq. dielectric constant tensor:
#      x y z
#    x 1.738560 0.000000 0.000000 
#    y 0.000000 1.720960 0.000000 
#    z 0.000000 0.000000 1.657720 
# 
# From -- ./inp_files/13850.got.cif
#   From: 2010.03.12/outbox.cif.g09.slc.cpg/sg47_7_cif.got.tgz:13850.got - 2010.04.14 03:12:58.
