data_PCOD8197308
_publ_section_title
;
Structure prediction by ZEFSAII (Michael W. Deem and Ramdas Pophale) SiO2 
 PCOD8197308
Probable space group: P M M M
;
_chemical_formula_sum "Si O2"
_cell_formula_units_Z 52
_cell_length_a 23.388714
_cell_length_b 8.956383
_cell_length_c 14.365059
_cell_angle_alpha 90.000000
_cell_angle_beta 90.000000
_cell_angle_gamma 90.000000
_cell_volume 3009.167858
_symmetry_space_group_name_H-M "P M M M"
_symmetry_group_IT_number 47
_symmetry_cell_setting 'orthorhombic'
loop_
_space_group_symop_operation_xyz
x,y,z
-x,-y,z
x,-y,-z
-x,y,-z
-x,-y,-z
x,y,-z
-x,y,z
x,-y,z
loop_
_atom_site_type_symbol
_atom_site_label
_atom_site_fract_x
_atom_site_fract_y
_atom_site_fract_z
Si Si1 0.114180 0.324573 0.892728
Si Si2 0.615148 0.323391 0.398265
Si Si3 0.000000 0.831682 0.110625
Si Si4 0.732806 0.169832 0.603011
Si Si5 0.437500 0.677389 0.211226
Si Si6 0.324933 0.674271 0.108826
Si Si7 0.780989 0.172915 0.795064
O O1 0.107769 0.500000 0.881553
O O2 0.167256 0.269172 0.833426
O O3 0.056615 0.250453 0.852235
O O4 0.124494 0.279361 0.000000
O O5 0.595185 0.262105 0.500000
O O6 0.613816 0.500000 0.398558
O O7 0.679717 0.276455 0.376970
O O8 0.574726 0.262280 0.315994
O O9 0.000000 0.000000 0.148687
O O10 0.000000 0.825892 0.000000
O O11 0.759208 0.202232 0.500000
O O12 0.779824 0.197431 0.683225
O O13 0.710454 0.000000 0.608804
O O14 0.500000 0.739078 0.179846
O O15 0.438892 0.500000 0.211754
O O16 0.387790 0.730358 0.141067
O O17 0.315692 0.500000 0.133202
O O18 0.278174 0.772157 0.161071
O O19 0.319077 0.703518 0.000000
O O20 0.790081 0.000000 0.821212
#
# Coordination Sequence:
#
# PCOD8197308 Si02
#       7
#     8   8   4   8   8   8   8
#     4  10  20  33  50  74 106 142 174 203 238 281
#     4   9  16  27  46  69  90 114 146 189 242 297
#     4   9  17  31  51  75 106 141 176 211 241 274
#     4   9  18  32  49  69  94 123 154 192 242 296
#     4   9  17  29  45  66  91 118 152 195 242 295
#     4  10  20  33  48  66  91 123 159 201 246 290
#     4  11  21  32  50  74  98 126 161 202 245 290
#
# _framework density 17.280524
#
# number of rings (size 3 to 8) (size 9 to 14) (size 15 to 20)
#    0.000    2.385    1.538    1.615    0.000    5.231 
#    0.000    3.077    0.000    1.846    0.000    3.769 
#    0.000    4.308    0.000    0.000    0.000    0.000 
#
# Total GULP energy -644571.500420 kJ/mol
# GULP energy per Si atom -12395.605777 kJ/mol
# Density = 1.724119 g / cm^3
# Si number density = 17.280524 Si / 1000 Ang^3
#
#
#
# Elastic Constant Matrix: (Units=GPa)
#
#
# Indices 1 2 3 4 5 6 
#
# 1 109.5590 23.6555 40.7309 0.0000 0.0000 0.0000
# 2 23.6555 36.5550 21.5037 0.0000 0.0000 0.0000
# 3 40.7309 21.5037 77.7939 0.0000 0.0000 0.0000
# 4 0.0000 0.0000 0.0000 18.7104 0.0000 0.0000
# 5 0.0000 0.0000 0.0000 0.0000 12.9416 0.0000
# 6 0.0000 0.0000 0.0000 0.0000 0.0000 4.7302
#
#
#
# Elastic Compliance Matrix: (Units=1/GPa)
#
#
# Indices 1 2 3 4 5 6 
#
# 1 0.012017 -0.004867 -0.004947 0.000000 0.000000 0.000000
# 2 -0.004867 0.034639 -0.007027 0.000000 0.000000 0.000000
# 3 -0.004947 -0.007027 0.017387 0.000000 0.000000 0.000000
# 4 0.000000 0.000000 0.000000 0.053446 0.000000 0.000000
# 5 0.000000 0.000000 0.000000 0.000000 0.077270 0.000000
# 6 0.000000 0.000000 0.000000 0.000000 0.000000 0.211407
#
#
# Mechanical properties :
#
#
# Convention : Reuss Voigt Hill
#
# Bulk Modulus (GPa) = 32.93521 43.96535 38.45028
# Shear Modulus (GPa) = 11.11191 16.47762 13.79476
#
# Velocity S-wave (km/s) = 2.53856 3.09129 2.82846
# Velocity P-wave (km/s) = 5.26240 6.18375 5.74159
#
# Compressibility (1/GPa) = 0.03036264
#
# Stress axis : x y z
#
# Youngs Moduli (GPa) = 83.21296 28.86925 57.51493
#
# Poissons Ratio (x) = 0.14050 0.28451
# Poissons Ratio (y) = 0.40498 0.40414
# Poissons Ratio (z) = 0.41163 0.20286
#
# Static dielectric constant tensor:
#      x y z
#    x 3.253590 0.000000 0.000000 
#    y 0.000000 3.131530 0.000000 
#    z 0.000000 0.000000 3.459530 
# 
# 
# High freq. dielectric constant tensor:
#      x y z
#    x 1.652710 0.000000 0.000000 
#    y 0.000000 1.655150 0.000000 
#    z 0.000000 0.000000 1.662500 
# 
# From -- ./inp_files/12499.got.cif
#   From: 2010.03.12/outbox.cif.g09.slc.cpg/sg47_7_cif.got.tgz:12499.got - 2010.04.14 03:12:58.
