data_PCOD8197196
_publ_section_title
;
Structure prediction by ZEFSAII (Michael W. Deem and Ramdas Pophale) SiO2 
 PCOD8197196
Probable space group: P M M M
;
_chemical_formula_sum "Si O2"
_cell_formula_units_Z 44
_cell_length_a 9.061141
_cell_length_b 28.354446
_cell_length_c 9.081733
_cell_angle_alpha 90.000000
_cell_angle_beta 90.000000
_cell_angle_gamma 90.000000
_cell_volume 2333.311838
_symmetry_space_group_name_H-M "P M M M"
_symmetry_group_IT_number 47
_symmetry_cell_setting 'orthorhombic'
loop_
_space_group_symop_operation_xyz
x,y,z
-x,-y,z
x,-y,-z
-x,y,-z
-x,-y,-z
x,y,-z
-x,y,z
x,-y,z
loop_
_atom_site_type_symbol
_atom_site_label
_atom_site_fract_x
_atom_site_fract_y
_atom_site_fract_z
Si Si1 0.333667 0.000000 0.674932
Si Si2 0.670724 0.726267 0.671380
Si Si3 0.175411 0.551939 0.665294
Si Si4 0.824561 0.357711 0.834005
Si Si5 0.669722 0.822207 0.827120
Si Si6 0.173202 0.906501 0.329939
O O1 0.250783 0.953508 0.732701
O O2 0.500000 0.000000 0.736963
O O3 0.331364 0.000000 0.500000
O O4 0.703960 0.732886 0.500000
O O5 0.500000 0.715395 0.702538
O O6 0.766029 0.683531 0.731582
O O7 0.720958 0.773651 0.753150
O O8 0.233495 0.561894 0.500000
O O9 0.229882 0.500000 0.718157
O O10 0.236953 0.592277 0.773536
O O11 0.000000 0.552956 0.665324
O O12 0.000000 0.356632 0.828587
O O13 0.765958 0.351213 0.000000
O O14 0.500000 0.833612 0.787186
O O15 0.772800 0.863044 0.766136
O O16 0.693867 0.817293 0.000000
O O17 0.215724 0.897540 0.500000
O O18 0.000000 0.913125 0.310095
#
# Coordination Sequence:
#
# PCOD8197196 Si02
#       6
#     4   8   8   8   8   8
#     4   9  17  31  54  81 108 141 180 220 258 299
#     4  10  21  37  57  78 100 132 174 216 259 309
#     4   8  14  26  45  69  98 133 172 213 256 302
#     4  10  20  32  49  76 107 137 169 208 257 311
#     4  10  21  37  56  77 102 134 172 213 258 309
#     4  10  20  34  54  81 111 141 174 214 260 307
#
# _framework density 18.857316000000001
#
# number of rings (size 3 to 8) (size 9 to 14) (size 15 to 20)
#    0.000    2.455    0.000    3.000    0.000    6.545 
#    0.000    2.273    0.000    3.273    0.000    3.818 
#    0.000    0.000    0.000    0.000    0.000    0.000 
#
# Total GULP energy -545639.206902 kJ/mol
# GULP energy per Si atom -12400.891066 kJ/mol
# Density = 1.881440 g / cm^3
# Si number density = 18.857316 Si / 1000 Ang^3
#
#
#
# Elastic Constant Matrix: (Units=GPa)
#
#
# Indices 1 2 3 4 5 6 
#
# 1 51.2200 46.6823 31.7739 0.0000 0.0000 0.0000
# 2 46.6823 158.7884 61.7189 0.0000 0.0000 0.0000
# 3 31.7739 61.7189 89.6110 0.0000 0.0000 0.0000
# 4 0.0000 0.0000 0.0000 2.3545 0.0000 0.0000
# 5 0.0000 0.0000 0.0000 0.0000 23.3466 0.0000
# 6 0.0000 0.0000 0.0000 0.0000 0.0000 -51.4294
#
#
#
# Elastic Compliance Matrix: (Units=1/GPa)
#
#
# Indices 1 2 3 4 5 6 
#
# 1 0.028847 -0.006152 -0.005991 0.000000 0.000000 0.000000
# 2 -0.006152 0.009912 -0.004645 0.000000 0.000000 0.000000
# 3 -0.005991 -0.004645 0.016483 0.000000 0.000000 0.000000
# 4 0.000000 0.000000 0.000000 0.424713 0.000000 0.000000
# 5 0.000000 0.000000 0.000000 0.000000 0.042833 0.000000
# 6 0.000000 0.000000 0.000000 0.000000 0.000000 -0.019444
#
#
# Mechanical properties :
#
#
# Convention : Reuss Voigt Hill
#
# Bulk Modulus (GPa) = 46.15777 64.44107 55.29942
# Shear Modulus (GPa) = 9.18874 5.48396 7.33635
#
# Velocity S-wave (km/s) = 2.20983 1.70718 1.97456
# Velocity P-wave (km/s) = 5.57150 6.17520 5.88110
#
# Compressibility (1/GPa) = 0.02166483
#
# Stress axis : x y z
#
# Youngs Moduli (GPa) = 34.66512 100.88834 60.66771
#
# Poissons Ratio (x) = 0.62067 0.36349
# Poissons Ratio (y) = 0.21326 0.28183
# Poissons Ratio (z) = 0.20769 0.46867
#
# Static dielectric constant tensor:
#      x y z
#    x 3.219060 0.000000 0.000000 
#    y 0.000000 3.707000 0.000000 
#    z 0.000000 0.000000 3.478730 
# 
# 
# High freq. dielectric constant tensor:
#      x y z
#    x 1.707310 0.000000 0.000000 
#    y 0.000000 1.749560 0.000000 
#    z 0.000000 0.000000 1.726870 
# 
# From -- ./inp_files/2305.got.cif
#   From: 2010.03.12/outbox.cif.g09.slc.cpg/sg47_2_cif.got.tgz:2305.got - 2010.04.14 03:12:58.
