data_PCOD8197068
_publ_section_title
;
Structure prediction by ZEFSAII (Michael W. Deem and Ramdas Pophale) SiO2 
 PCOD8197068
Probable space group: P M M M
;
_chemical_formula_sum "Si O2"
_cell_formula_units_Z 44
_cell_length_a 29.939915
_cell_length_b 9.770958
_cell_length_c 8.120352
_cell_angle_alpha 90.000000
_cell_angle_beta 90.000000
_cell_angle_gamma 90.000000
_cell_volume 2375.541189
_symmetry_space_group_name_H-M "P M M M"
_symmetry_group_IT_number 47
_symmetry_cell_setting 'orthorhombic'
loop_
_space_group_symop_operation_xyz
x,y,z
-x,-y,z
x,-y,-z
-x,y,-z
-x,-y,-z
x,y,-z
-x,y,z
x,-y,z
loop_
_atom_site_type_symbol
_atom_site_label
_atom_site_fract_x
_atom_site_fract_y
_atom_site_fract_z
Si Si1 0.892437 0.659275 0.313100
Si Si2 0.950192 0.661930 0.000000
Si Si3 0.451306 0.350086 0.807833
Si Si4 0.283929 0.837776 0.181763
Si Si5 0.376078 0.847079 0.311752
Si Si6 0.814398 0.841499 0.194967
O O1 0.911817 0.680762 0.500000
O O2 0.881027 0.500000 0.284681
O O3 0.847607 0.746773 0.297281
O O4 0.926257 0.710985 0.169575
O O5 0.952848 0.500000 0.000000
O O6 0.000000 0.725211 0.000000
O O7 0.500000 0.301207 0.738128
O O8 0.439615 0.500000 0.731959
O O9 0.412401 0.244181 0.775572
O O10 0.455751 0.365879 0.000000
O O11 0.325737 0.787201 0.291356
O O12 0.235424 0.792526 0.250160
O O13 0.282355 0.000000 0.173138
O O14 0.291422 0.776319 0.000000
O O15 0.388937 0.850609 0.500000
O O16 0.378310 0.000000 0.235314
O O17 0.823047 0.000000 0.240947
O O18 0.820618 0.819395 0.000000
#
# Coordination Sequence:
#
# PCOD8197068 Si02
#       6
#     8   4   8   8   8   8
#     4  10  20  33  52  79 108 138 174 217 264 313
#     4   9  18  34  55  77 105 141 177 219 268 311
#     4   9  19  36  55  72  91 120 161 205 247 296
#     4   8  15  29  49  72  98 131 170 207 243 289
#     4  10  20  32  48  73 103 130 158 198 246 294
#     4   9  17  31  53  78 103 135 175 214 255 307
#
# _framework density 18.522095
#
# number of rings (size 3 to 8) (size 9 to 14) (size 15 to 20)
#    0.000    2.818    0.909    2.182    0.000    3.636 
#    0.000    7.273    0.000    2.182    0.000    1.273 
#    0.000    0.000    0.000    0.000    0.000    0.000 
#
# Total GULP energy -545133.994551 kJ/mol
# GULP energy per Si atom -12389.408967 kJ/mol
# Density = 1.847994 g / cm^3
# Si number density = 18.522095 Si / 1000 Ang^3
#
#
#
# Elastic Constant Matrix: (Units=GPa)
#
#
# Indices 1 2 3 4 5 6 
#
# 1 147.5813 51.1504 48.1689 0.0000 0.0000 0.0000
# 2 51.1504 53.7753 26.2915 0.0000 0.0000 0.0000
# 3 48.1689 26.2915 78.4497 0.0000 0.0000 0.0000
# 4 0.0000 0.0000 0.0000 6.0202 0.0000 0.0000
# 5 0.0000 0.0000 0.0000 0.0000 2.8885 0.0000
# 6 0.0000 0.0000 0.0000 0.0000 0.0000 26.3829
#
#
#
# Elastic Compliance Matrix: (Units=1/GPa)
#
#
# Indices 1 2 3 4 5 6 
#
# 1 0.011019 -0.008579 -0.003891 0.000000 0.000000 0.000000
# 2 -0.008579 0.028919 -0.004424 0.000000 0.000000 0.000000
# 3 -0.003891 -0.004424 0.016619 0.000000 0.000000 0.000000
# 4 0.000000 0.000000 0.000000 0.166106 0.000000 0.000000
# 5 0.000000 0.000000 0.000000 0.000000 0.346197 0.000000
# 6 0.000000 0.000000 0.000000 0.000000 0.000000 0.037903
#
#
# Mechanical properties :
#
#
# Convention : Reuss Voigt Hill
#
# Bulk Modulus (GPa) = 43.91939 59.00310 51.46124
# Shear Modulus (GPa) = 7.71436 17.33804 12.52620
#
# Velocity S-wave (km/s) = 2.04304 3.06285 2.60337
# Velocity P-wave (km/s) = 5.41560 6.66579 6.07295
#
# Compressibility (1/GPa) = 0.02276899
#
# Stress axis : x y z
#
# Youngs Moduli (GPa) = 90.74999 34.57887 60.17311
#
# Poissons Ratio (x) = 0.29666 0.23412
# Poissons Ratio (y) = 0.77856 0.26622
# Poissons Ratio (z) = 0.35308 0.15299
#
# Static dielectric constant tensor:
#      x y z
#    x 3.708920 0.000000 0.000000 
#    y 0.000000 3.230020 0.000000 
#    z 0.000000 0.000000 3.380450 
# 
# 
# High freq. dielectric constant tensor:
#      x y z
#    x 1.724630 0.000000 0.000000 
#    y 0.000000 1.680480 0.000000 
#    z 0.000000 0.000000 1.713790 
# 
# From -- ./inp_files/13610.got.cif
#   From: 2010.03.12/outbox.cif.g09.slc.cpg/sg47_7_cif.got.tgz:13610.got - 2010.04.14 03:12:58.
