data_PCOD8197450
_publ_section_title
;
Structure prediction by ZEFSAII (Michael W. Deem and Ramdas Pophale) SiO2 
 PCOD8197450
Probable space group: P M M M
;
_chemical_formula_sum "Si O2"
_cell_formula_units_Z 52
_cell_length_a 27.097572
_cell_length_b 9.008892
_cell_length_c 13.578170
_cell_angle_alpha 90.000000
_cell_angle_beta 90.000000
_cell_angle_gamma 90.000000
_cell_volume 3314.690635
_symmetry_space_group_name_H-M "P M M M"
_symmetry_group_IT_number 47
_symmetry_cell_setting 'orthorhombic'
loop_
_space_group_symop_operation_xyz
x,y,z
-x,-y,z
x,-y,-z
-x,y,-z
-x,-y,-z
x,y,-z
-x,y,z
x,-y,z
loop_
_atom_site_type_symbol
_atom_site_label
_atom_site_fract_x
_atom_site_fract_y
_atom_site_fract_z
Si Si1 0.842479 0.177451 0.611181
Si Si2 0.743043 0.173534 0.298525
Si Si3 0.595548 0.325869 0.198619
Si Si4 0.347612 0.671694 0.389832
Si Si5 0.947736 0.166724 0.617119
Si Si6 0.500000 0.823962 0.113580
Si Si7 0.314056 0.829667 0.890040
O O1 0.832496 0.232731 0.500000
O O2 0.797642 0.237586 0.678769
O O3 0.895639 0.241051 0.652196
O O4 0.845607 0.000000 0.613357
O O5 0.702945 0.241763 0.371758
O O6 0.729824 0.211395 0.185292
O O7 0.742547 0.000000 0.319741
O O8 0.585816 0.500000 0.185543
O O9 0.610195 0.283478 0.311139
O O10 0.547072 0.237153 0.170559
O O11 0.639383 0.276536 0.126366
O O12 0.367121 0.707324 0.500000
O O13 0.334715 0.500000 0.376654
O O14 0.944774 0.162061 0.500000
O O15 0.000000 0.247062 0.649373
O O16 0.950205 0.000000 0.658680
O O17 0.500000 0.000000 0.119316
O O18 0.500000 0.770101 0.000000
O O19 0.331246 0.000000 0.874153
O O20 0.293615 0.804488 0.000000
#
# Coordination Sequence:
#
# PCOD8197450 Si02
#       7
#     8   8   8   8   8   4   8
#     4   8  12  17  27  46  71  96 124 160 197 230
#     4   9  16  25  39  59  80 103 134 168 198 233
#     4  10  20  33  50  70  87 106 135 165 191 226
#     4   9  18  32  47  63  86 113 136 159 191 231
#     4   7   9  13  21  35  60  94 124 150 189 237
#     4  11  23  37  52  69  90 112 131 159 202 241
#     4   9  17  29  43  59  82 109 132 158 198 242
#
# _framework density 15.687738
#
# number of rings (size 3 to 8) (size 9 to 14) (size 15 to 20)
#    0.000    3.154    0.000    3.000    0.000    4.308 
#    0.000    0.385    0.000    2.308    0.000    0.000 
#    0.000    1.231    0.000   14.308    0.000    4.923 
#
# Total GULP energy -644178.909883 kJ/mol
# GULP energy per Si atom -12388.055959 kJ/mol
# Density = 1.565203 g / cm^3
# Si number density = 15.687738 Si / 1000 Ang^3
#
#
#
# Elastic Constant Matrix: (Units=GPa)
#
#
# Indices 1 2 3 4 5 6 
#
# 1 161.1697 29.9175 62.7890 0.0000 0.0000 0.0000
# 2 29.9175 27.1432 20.6121 0.0000 0.0000 0.0000
# 3 62.7890 20.6121 94.2177 0.0000 0.0000 0.0000
# 4 0.0000 0.0000 0.0000 14.9225 0.0000 0.0000
# 5 0.0000 0.0000 0.0000 0.0000 15.0389 0.0000
# 6 0.0000 0.0000 0.0000 0.0000 0.0000 0.2195
#
#
#
# Elastic Compliance Matrix: (Units=1/GPa)
#
#
# Indices 1 2 3 4 5 6 
#
# 1 0.009280 -0.006634 -0.004733 0.000000 0.000000 0.000000
# 2 -0.006634 0.048924 -0.006282 0.000000 0.000000 0.000000
# 3 -0.004733 -0.006282 0.015142 0.000000 0.000000 0.000000
# 4 0.000000 0.000000 0.000000 0.067013 0.000000 0.000000
# 5 0.000000 0.000000 0.000000 0.000000 0.066494 0.000000
# 6 0.000000 0.000000 0.000000 0.000000 0.000000 4.556702
#
#
# Mechanical properties :
#
#
# Convention : Reuss Voigt Hill
#
# Bulk Modulus (GPa) = 26.28258 56.57418 41.42838
# Shear Modulus (GPa) = 1.03917 17.31697 9.17807
#
# Velocity S-wave (km/s) = 0.81477 3.32603 2.42140
# Velocity P-wave (km/s) = 4.20417 7.13379 5.85517
#
# Compressibility (1/GPa) = 0.03804801
#
# Stress axis : x y z
#
# Youngs Moduli (GPa) = 107.75775 20.43968 66.04031
#
# Poissons Ratio (x) = 0.13560 0.31257
# Poissons Ratio (y) = 0.71490 0.41486
# Poissons Ratio (z) = 0.51002 0.12840
#
# Static dielectric constant tensor:
#      x y z
#    x 3.434850 0.000000 0.000000 
#    y 0.000000 2.757980 0.000000 
#    z 0.000000 0.000000 2.960120 
# 
# 
# High freq. dielectric constant tensor:
#      x y z
#    x 1.606610 0.000000 0.000000 
#    y 0.000000 1.573200 0.000000 
#    z 0.000000 0.000000 1.576120 
# 
# From -- ./inp_files/25718.got.cif
#   From: 2010.03.12/outbox.cif.g09.slc.cpg/sg47_13_cif.got.tgz:25718.got - 2010.04.14 03:12:58.
