data_PCOD8197201
_publ_section_title
;
Structure prediction by ZEFSAII (Michael W. Deem and Ramdas Pophale) SiO2 
 PCOD8197201
Probable space group: P M M M
;
_chemical_formula_sum "Si O2"
_cell_formula_units_Z 52
_cell_length_a 22.657474
_cell_length_b 14.631804
_cell_length_c 8.910529
_cell_angle_alpha 90.000000
_cell_angle_beta 90.000000
_cell_angle_gamma 90.000000
_cell_volume 2954.016068
_symmetry_space_group_name_H-M "P M M M"
_symmetry_group_IT_number 47
_symmetry_cell_setting 'orthorhombic'
loop_
_space_group_symop_operation_xyz
x,y,z
-x,-y,z
x,-y,-z
-x,y,-z
-x,-y,-z
x,y,-z
-x,y,z
x,-y,z
loop_
_atom_site_type_symbol
_atom_site_label
_atom_site_fract_x
_atom_site_fract_y
_atom_site_fract_z
Si Si1 0.163808 0.106912 0.169519
Si Si2 0.609780 0.207761 0.178363
Si Si3 0.931046 0.222306 0.672933
Si Si4 0.283596 0.893800 0.324380
Si Si5 0.930007 0.400294 0.167728
Si Si6 0.500000 0.892483 0.675692
Si Si7 0.566472 0.400257 0.177902
O O1 0.103474 0.149404 0.228948
O O2 0.218413 0.136424 0.273819
O O3 0.153843 0.000000 0.176790
O O4 0.176369 0.139638 0.000000
O O5 0.671606 0.168683 0.233069
O O6 0.557845 0.149445 0.250617
O O7 0.605715 0.314168 0.232041
O O8 0.604869 0.199334 0.000000
O O9 0.917373 0.205188 0.500000
O O10 0.907962 0.323552 0.716695
O O11 0.000000 0.210810 0.709968
O O12 0.291112 0.875541 0.500000
O O13 0.295162 0.000000 0.284985
O O14 0.905456 0.500000 0.217711
O O15 0.000000 0.403739 0.167560
O O16 0.907304 0.376765 0.000000
O O17 0.500000 0.870400 0.500000
O O18 0.500000 0.000000 0.706399
O O19 0.500000 0.386073 0.239219
O O20 0.590778 0.500000 0.234622
O O21 0.564880 0.401031 0.000000
#
# Coordination Sequence:
#
# PCOD8197201 Si02
#       7
#     8   8   8   8   8   4   8
#     4  10  21  37  56  76  98 129 173 220 259 301
#     4  11  20  32  53  79 102 130 170 213 253 294
#     4  10  20  32  49  76 108 139 169 206 257 314
#     4  10  21  37  55  74 100 135 169 204 254 314
#     4   8  14  26  45  69  98 132 168 205 245 292
#     4  11  23  35  46  67 104 142 169 201 252 305
#     4   8  14  27  48  74 103 133 167 207 251 298
#
# _framework density 17.603154
#
# number of rings (size 3 to 8) (size 9 to 14) (size 15 to 20)
#    0.000    2.385    0.769    3.462    0.000    5.846 
#    0.000    3.077    0.000    3.231    0.000    2.154 
#    0.000    0.000    0.000    0.000    0.000    0.000 
#
# Total GULP energy -644599.522154 kJ/mol
# GULP energy per Si atom -12396.144657 kJ/mol
# Density = 1.756309 g / cm^3
# Si number density = 17.603154 Si / 1000 Ang^3
#
#
#
# Elastic Constant Matrix: (Units=GPa)
#
#
# Indices 1 2 3 4 5 6 
#
# 1 69.2209 56.8205 32.5886 0.0000 0.0000 0.0000
# 2 56.8205 104.3454 55.4030 0.0000 0.0000 0.0000
# 3 32.5886 55.4030 73.5015 0.0000 0.0000 0.0000
# 4 0.0000 0.0000 0.0000 21.9982 0.0000 0.0000
# 5 0.0000 0.0000 0.0000 0.0000 29.3262 0.0000
# 6 0.0000 0.0000 0.0000 0.0000 0.0000 8.3474
#
#
#
# Elastic Compliance Matrix: (Units=1/GPa)
#
#
# Indices 1 2 3 4 5 6 
#
# 1 0.026214 -0.013511 -0.001439 0.000000 0.000000 0.000000
# 2 -0.013511 0.022942 -0.011303 0.000000 0.000000 0.000000
# 3 -0.001439 -0.011303 0.022762 0.000000 0.000000 0.000000
# 4 0.000000 0.000000 0.000000 0.045458 0.000000 0.000000
# 5 0.000000 0.000000 0.000000 0.000000 0.034099 0.000000
# 6 0.000000 0.000000 0.000000 0.000000 0.000000 0.119797
#
#
# Mechanical properties :
#
#
# Convention : Reuss Voigt Hill
#
# Bulk Modulus (GPa) = 51.50759 59.63246 55.57003
# Shear Modulus (GPa) = 15.14006 18.75141 16.94573
#
# Velocity S-wave (km/s) = 2.93589 3.26733 3.10603
# Velocity P-wave (km/s) = 6.38878 6.94143 6.67083
#
# Compressibility (1/GPa) = 0.01941461
#
# Stress axis : x y z
#
# Youngs Moduli (GPa) = 38.14694 43.58812 43.93193
#
# Poissons Ratio (x) = 0.58892 0.06320
# Poissons Ratio (y) = 0.51540 0.49654
# Poissons Ratio (z) = 0.05488 0.49266
#
# Static dielectric constant tensor:
#      x y z
#    x 3.114300 0.000000 0.000000 
#    y 0.000000 3.678310 0.000000 
#    z 0.000000 0.000000 3.272790 
# 
# 
# High freq. dielectric constant tensor:
#      x y z
#    x 1.651620 0.000000 0.000000 
#    y 0.000000 1.689140 0.000000 
#    z 0.000000 0.000000 1.677690 
# 
# From -- ./inp_files/12505.got.cif
#   From: 2010.03.12/outbox.cif.g09.slc.cpg/sg47_7_cif.got.tgz:12505.got - 2010.04.14 03:12:58.
