data_PCOD8197368
_publ_section_title
;
Structure prediction by ZEFSAII (Michael W. Deem and Ramdas Pophale) SiO2 
 PCOD8197368
Probable space group: P M M M
;
_chemical_formula_sum "Si O2"
_cell_formula_units_Z 64
_cell_length_a 14.245676
_cell_length_b 28.273654
_cell_length_c 9.176657
_cell_angle_alpha 90.000000
_cell_angle_beta 90.000000
_cell_angle_gamma 90.000000
_cell_volume 3696.149260
_symmetry_space_group_name_H-M "P M M M"
_symmetry_group_IT_number 47
_symmetry_cell_setting 'orthorhombic'
loop_
_space_group_symop_operation_xyz
x,y,z
-x,-y,z
x,-y,-z
-x,y,-z
-x,-y,-z
x,y,-z
-x,y,z
x,-y,z
loop_
_atom_site_type_symbol
_atom_site_label
_atom_site_fract_x
_atom_site_fract_y
_atom_site_fract_z
Si Si1 0.255121 0.946428 0.829841
Si Si2 0.757380 0.552804 0.826061
Si Si3 0.245643 0.196908 0.671283
Si Si4 0.606864 0.882354 0.670409
Si Si5 0.103839 0.368575 0.827192
Si Si6 0.603651 0.623686 0.172505
Si Si7 0.892299 0.131780 0.170484
Si Si8 0.257426 0.705266 0.171062
O O1 0.347435 0.927317 0.749373
O O2 0.162998 0.916148 0.787963
O O3 0.235680 0.000000 0.779808
O O4 0.276101 0.943196 0.000000
O O5 0.762869 0.500000 0.759992
O O6 0.845917 0.583593 0.769916
O O7 0.662534 0.578518 0.770092
O O8 0.757605 0.551048 0.000000
O O9 0.229190 0.200457 0.500000
O O10 0.335392 0.164720 0.711052
O O11 0.151595 0.175760 0.742892
O O12 0.266576 0.247965 0.735212
O O13 0.611055 0.892654 0.500000
O O14 0.500000 0.875690 0.724288
O O15 0.162299 0.322062 0.783282
O O16 0.000000 0.365263 0.757922
O O17 0.098544 0.371296 0.000000
O O18 0.500000 0.622720 0.243384
O O19 0.654471 0.672531 0.214383
O O20 0.597183 0.620325 0.000000
O O21 0.000000 0.125102 0.218165
O O22 0.883842 0.143147 0.000000
O O23 0.257413 0.717646 0.000000
#
# Coordination Sequence:
#
# PCOD8197368 Si02
#       8
#     8   8   8   8   8   8   8   8
#     4   9  18  32  50  74 101 124 150 188 228 263
#     4   8  13  20  31  51  80 112 144 176 212 259
#     4  10  20  33  49  69  93 119 150 193 238 272
#     4   9  19  35  51  67  91 124 158 189 225 273
#     4   8  14  24  37  54  78 109 143 177 213 256
#     4   8  14  24  37  55  81 112 145 181 220 263
#     4   9  18  33  52  72  95 125 157 185 219 269
#     4   9  17  29  44  62  85 114 149 183 217 267
#
# _framework density 17.315318000000001
#
# number of rings (size 3 to 8) (size 9 to 14) (size 15 to 20)
#    0.000    3.250    0.000    1.875    0.000    3.250 
#    0.000    6.250    0.000    0.000    0.000    3.500 
#    0.000    8.000    0.000    9.000    0.000   10.000 
#
# Total GULP energy -793377.005382 kJ/mol
# GULP energy per Si atom -12396.515709 kJ/mol
# Density = 1.727591 g / cm^3
# Si number density = 17.315318 Si / 1000 Ang^3
#
#
#
# Elastic Constant Matrix: (Units=GPa)
#
#
# Indices 1 2 3 4 5 6 
#
# 1 140.9258 41.1347 22.0829 0.0000 0.0000 0.0000
# 2 41.1347 106.2862 24.5801 0.0000 0.0000 0.0000
# 3 22.0829 24.5801 25.6053 0.0000 0.0000 0.0000
# 4 0.0000 0.0000 0.0000 10.0434 0.0000 0.0000
# 5 0.0000 0.0000 0.0000 0.0000 15.4147 0.0000
# 6 0.0000 0.0000 0.0000 0.0000 0.0000 14.6956
#
#
#
# Elastic Compliance Matrix: (Units=1/GPa)
#
#
# Indices 1 2 3 4 5 6 
#
# 1 0.008542 -0.002059 -0.005390 0.000000 0.000000 0.000000
# 2 -0.002059 0.012590 -0.010310 0.000000 0.000000 0.000000
# 3 -0.005390 -0.010310 0.053600 0.000000 0.000000 0.000000
# 4 0.000000 0.000000 0.000000 0.099568 0.000000 0.000000
# 5 0.000000 0.000000 0.000000 0.000000 0.064873 0.000000
# 6 0.000000 0.000000 0.000000 0.000000 0.000000 0.068048
#
#
# Mechanical properties :
#
#
# Convention : Reuss Voigt Hill
#
# Bulk Modulus (GPa) = 25.50139 49.82361 37.66250
# Shear Modulus (GPa) = 14.05252 20.36537 17.20895
#
# Velocity S-wave (km/s) = 2.85189 3.43322 3.15597
# Velocity P-wave (km/s) = 5.06004 6.67479 5.92270
#
# Compressibility (1/GPa) = 0.03921356
#
# Stress axis : x y z
#
# Youngs Moduli (GPa) = 117.07432 79.42931 18.65686
#
# Poissons Ratio (x) = 0.16357 0.10055
# Poissons Ratio (y) = 0.24109 0.19235
# Poissons Ratio (z) = 0.63099 0.81889
#
# Static dielectric constant tensor:
#      x y z
#    x 3.693550 0.000000 0.000000 
#    y 0.000000 3.309160 0.000000 
#    z 0.000000 0.000000 2.796220 
# 
# 
# High freq. dielectric constant tensor:
#      x y z
#    x 1.674970 0.000000 0.000000 
#    y 0.000000 1.672800 0.000000 
#    z 0.000000 0.000000 1.622750 
# 
# From -- ./inp_files/8305.got.cif
#   From: 2010.03.12/outbox.cif.g09.slc.cpg/sg47_5_cif.got.tgz:8305.got - 2010.04.14 03:12:58.
