data_PCOD8197151
_publ_section_title
;
Structure prediction by ZEFSAII (Michael W. Deem and Ramdas Pophale) SiO2 
 PCOD8197151
Probable space group: P M M M
;
_chemical_formula_sum "Si O2"
_cell_formula_units_Z 48
_cell_length_a 15.220060
_cell_length_b 19.293673
_cell_length_c 9.318482
_cell_angle_alpha 90.000000
_cell_angle_beta 90.000000
_cell_angle_gamma 90.000000
_cell_volume 2736.380260
_symmetry_space_group_name_H-M "P M M M"
_symmetry_group_IT_number 47
_symmetry_cell_setting 'orthorhombic'
loop_
_space_group_symop_operation_xyz
x,y,z
-x,-y,z
x,-y,-z
-x,y,-z
-x,-y,-z
x,y,-z
-x,y,z
x,-y,z
loop_
_atom_site_type_symbol
_atom_site_label
_atom_site_fract_x
_atom_site_fract_y
_atom_site_fract_z
Si Si1 0.097234 0.917639 0.838633
Si Si2 0.399192 0.307951 0.665575
Si Si3 0.262836 0.082333 0.336168
Si Si4 0.739017 0.578438 0.667761
Si Si5 0.903985 0.582362 0.838672
Si Si6 0.602476 0.170927 0.167497
O O1 0.171557 0.888815 0.731065
O O2 0.000000 0.891674 0.790037
O O3 0.098611 0.000000 0.836724
O O4 0.117411 0.891181 0.000000
O O5 0.382505 0.287585 0.500000
O O6 0.500000 0.327853 0.692628
O O7 0.343745 0.374994 0.711865
O O8 0.369871 0.244150 0.764259
O O9 0.268390 0.108244 0.500000
O O10 0.344696 0.110336 0.245884
O O11 0.266856 0.000000 0.327128
O O12 0.755912 0.579501 0.500000
O O13 0.720225 0.500000 0.721449
O O14 0.826395 0.611151 0.738824
O O15 0.903802 0.500000 0.832868
O O16 0.000000 0.609314 0.785961
O O17 0.886732 0.608461 0.000000
O O18 0.500000 0.156027 0.193811
O O19 0.626002 0.171791 0.000000
#
# Coordination Sequence:
#
# PCOD8197151 Si02
#       6
#     8   8   8   8   8   8
#     4   8  14  26  45  69  98 131 163 194 230 274
#     4   9  18  33  51  69  93 126 159 192 234 285
#     4  10  20  32  49  75 103 129 158 195 239 285
#     4   9  17  28  45  72 100 124 154 192 233 276
#     4   8  14  25  41  62  90 124 158 190 228 275
#     4  10  21  36  53  71  92 123 163 203 242 287
#
# _framework density 17.541421
#
# number of rings (size 3 to 8) (size 9 to 14) (size 15 to 20)
#    0.000    3.000    0.000    2.000    0.000    4.000 
#    0.000    6.667    0.000    1.000    0.000    9.333 
#    0.000    0.000    0.000    0.000    0.000    0.000 
#
# Total GULP energy -595026.205429 kJ/mol
# GULP energy per Si atom -12396.379280 kJ/mol
# Density = 1.750150 g / cm^3
# Si number density = 17.541421 Si / 1000 Ang^3
#
#
#
# Elastic Constant Matrix: (Units=GPa)
#
#
# Indices 1 2 3 4 5 6 
#
# 1 114.3538 41.7646 63.9061 0.0000 0.0000 0.0000
# 2 41.7646 39.5333 35.4066 0.0000 0.0000 0.0000
# 3 63.9061 35.4066 96.3685 0.0000 0.0000 0.0000
# 4 0.0000 0.0000 0.0000 19.9052 0.0000 0.0000
# 5 0.0000 0.0000 0.0000 0.0000 32.6268 0.0000
# 6 0.0000 0.0000 0.0000 0.0000 0.0000 5.4958
#
#
#
# Elastic Compliance Matrix: (Units=1/GPa)
#
#
# Indices 1 2 3 4 5 6 
#
# 1 0.016843 -0.011611 -0.006904 0.000000 0.000000 0.000000
# 2 -0.011611 0.045705 -0.009093 0.000000 0.000000 0.000000
# 3 -0.006904 -0.009093 0.018296 0.000000 0.000000 0.000000
# 4 0.000000 0.000000 0.000000 0.050238 0.000000 0.000000
# 5 0.000000 0.000000 0.000000 0.000000 0.030650 0.000000
# 6 0.000000 0.000000 0.000000 0.000000 0.000000 0.181958
#
#
# Mechanical properties :
#
#
# Convention : Reuss Voigt Hill
#
# Bulk Modulus (GPa) = 39.01758 59.15669 49.08714
# Shear Modulus (GPa) = 12.27151 18.88411 15.57781
#
# Velocity S-wave (km/s) = 2.64781 3.28463 2.98326
# Velocity P-wave (km/s) = 5.62488 6.94135 6.31750
#
# Compressibility (1/GPa) = 0.02562947
#
# Stress axis : x y z
#
# Youngs Moduli (GPa) = 59.37008 21.87941 54.65795
#
# Poissons Ratio (x) = 0.25405 0.37734
# Poissons Ratio (y) = 0.68936 0.49698
# Poissons Ratio (z) = 0.40987 0.19894
#
# Static dielectric constant tensor:
#      x y z
#    x 3.601510 0.000000 0.000000 
#    y 0.000000 2.915790 0.000000 
#    z 0.000000 0.000000 3.390630 
# 
# 
# High freq. dielectric constant tensor:
#      x y z
#    x 1.689340 0.000000 0.000000 
#    y 0.000000 1.634500 0.000000 
#    z 0.000000 0.000000 1.679500 
# 
# From -- ./inp_files/6347.got.cif
#   From: 2010.03.12/outbox.cif.g09.slc.cpg/sg47_4_cif.got.tgz:6347.got - 2010.04.14 03:12:58.
