data_PCOD8197832
_publ_section_title
;
Structure prediction by ZEFSAII (Michael W. Deem and Ramdas Pophale) SiO2 
 PCOD8197832
Probable space group: P M M M
;
_chemical_formula_sum "Si O2"
_cell_formula_units_Z 44
_cell_length_a 29.930287
_cell_length_b 9.589143
_cell_length_c 7.800163
_cell_angle_alpha 90.000000
_cell_angle_beta 90.000000
_cell_angle_gamma 90.000000
_cell_volume 2238.692038
_symmetry_space_group_name_H-M "P M M M"
_symmetry_group_IT_number 47
_symmetry_cell_setting 'orthorhombic'
loop_
_space_group_symop_operation_xyz
x,y,z
-x,-y,z
x,-y,-z
-x,y,-z
-x,-y,-z
x,y,-z
-x,y,z
x,-y,z
loop_
_atom_site_type_symbol
_atom_site_label
_atom_site_fract_x
_atom_site_fract_y
_atom_site_fract_z
Si Si1 0.129749 0.657093 0.704821
Si Si2 0.610589 0.339938 0.809192
Si Si3 0.549835 0.665633 0.500000
Si Si4 0.950413 0.156288 0.296176
Si Si5 0.790223 0.845031 0.703985
Si Si6 0.309522 0.162226 0.301660
O O1 0.129613 0.657640 0.500000
O O2 0.129650 0.500000 0.776597
O O3 0.085996 0.736073 0.777796
O O4 0.173795 0.735207 0.776051
O O5 0.622243 0.500000 0.766257
O O6 0.575351 0.280972 0.670366
O O7 0.656201 0.253301 0.806606
O O8 0.589694 0.326266 0.000000
O O9 0.546771 0.500000 0.500000
O O10 0.500000 0.730057 0.500000
O O11 0.948781 0.157560 0.500000
O O12 0.000000 0.200968 0.233252
O O13 0.939370 0.000000 0.230670
O O14 0.791174 0.848303 0.500000
O O15 0.740498 0.802085 0.764193
O O16 0.802115 0.000000 0.772672
O O17 0.314826 0.202405 0.500000
O O18 0.319864 0.000000 0.271974
#
# Coordination Sequence:
#
# PCOD8197832 Si02
#       6
#     8   8   4   8   8   8
#     4   9  15  20  27  43  66  91 125 174 231 286
#     4  10  20  33  52  79 107 137 174 214 259 309
#     4   9  18  34  55  79 109 143 177 217 262 303
#     4   8  13  20  28  36  50  81 126 174 226 284
#     4   8  14  24  37  53  74 103 140 181 227 284
#     4   9  17  30  49  71  95 127 166 206 252 305
#
# _framework density 19.654332
#
# number of rings (size 3 to 8) (size 9 to 14) (size 15 to 20)
#    0.000    3.182    0.909    2.182    0.000    4.000 
#    0.000    5.455    0.000    1.091    0.000    1.273 
#    0.000    0.000    0.000    0.000    0.000    0.909 
#
# Total GULP energy -545383.307814 kJ/mol
# GULP energy per Si atom -12395.075178 kJ/mol
# Density = 1.960960 g / cm^3
# Si number density = 19.654332 Si / 1000 Ang^3
#
#
#
# Elastic Constant Matrix: (Units=GPa)
#
#
# Indices 1 2 3 4 5 6 
#
# 1 170.3073 83.7868 36.6307 0.0000 0.0000 0.0000
# 2 83.7868 105.1158 23.0807 0.0000 0.0000 0.0000
# 3 36.6307 23.0807 57.0164 0.0000 0.0000 0.0000
# 4 0.0000 0.0000 0.0000 6.8762 0.0000 0.0000
# 5 0.0000 0.0000 0.0000 0.0000 0.3954 0.0000
# 6 0.0000 0.0000 0.0000 0.0000 0.0000 29.2573
#
#
#
# Elastic Compliance Matrix: (Units=1/GPa)
#
#
# Indices 1 2 3 4 5 6 
#
# 1 0.010296 -0.007414 -0.003614 0.000000 0.000000 0.000000
# 2 -0.007414 0.015779 -0.001625 0.000000 0.000000 0.000000
# 3 -0.003614 -0.001625 0.020518 0.000000 0.000000 0.000000
# 4 0.000000 0.000000 0.000000 0.145430 0.000000 0.000000
# 5 0.000000 0.000000 0.000000 0.000000 2.529347 0.000000
# 6 0.000000 0.000000 0.000000 0.000000 0.000000 0.034179
#
#
# Mechanical properties :
#
#
# Convention : Reuss Voigt Hill
#
# Bulk Modulus (GPa) = 46.97120 68.82621 57.89871
# Shear Modulus (GPa) = 1.79343 19.90186 10.84764
#
# Velocity S-wave (km/s) = 0.95628 3.18558 2.35185
# Velocity P-wave (km/s) = 5.01695 6.97316 6.07432
#
# Compressibility (1/GPa) = 0.02128964
#
# Stress axis : x y z
#
# Youngs Moduli (GPa) = 97.12195 63.37395 48.73699
#
# Poissons Ratio (x) = 0.46983 0.17613
# Poissons Ratio (y) = 0.72002 0.07918
# Poissons Ratio (z) = 0.35099 0.10296
#
# Static dielectric constant tensor:
#      x y z
#    x 3.804400 0.000000 0.000000 
#    y 0.000000 3.557400 0.000000 
#    z 0.000000 0.000000 3.096210 
# 
# 
# High freq. dielectric constant tensor:
#      x y z
#    x 1.767030 0.000000 0.000000 
#    y 0.000000 1.747240 0.000000 
#    z 0.000000 0.000000 1.727870 
# 
# From -- ./inp_files/13606.got.cif
#   From: 2010.03.12/outbox.cif.g09.slc.cpg/sg47_7_cif.got.tgz:13606.got - 2010.04.14 03:12:58.
