data_PCOD8197548
_publ_section_title
;
Structure prediction by ZEFSAII (Michael W. Deem and Ramdas Pophale) SiO2 
 PCOD8197548
Probable space group: P M M M
;
_chemical_formula_sum "Si O2"
_cell_formula_units_Z 56
_cell_length_a 23.557023
_cell_length_b 12.741192
_cell_length_c 9.109115
_cell_angle_alpha 90.000000
_cell_angle_beta 90.000000
_cell_angle_gamma 90.000000
_cell_volume 2734.051250
_symmetry_space_group_name_H-M "P M M M"
_symmetry_group_IT_number 47
_symmetry_cell_setting 'orthorhombic'
loop_
_space_group_symop_operation_xyz
x,y,z
-x,-y,z
x,-y,-z
-x,y,-z
-x,-y,-z
x,y,-z
-x,y,z
x,-y,z
loop_
_atom_site_type_symbol
_atom_site_label
_atom_site_fract_x
_atom_site_fract_y
_atom_site_fract_z
Si Si1 0.234666 0.381446 0.670378
Si Si2 0.828869 0.877464 0.336461
Si Si3 0.891937 0.624100 0.665175
Si Si4 0.936736 0.875281 0.166946
Si Si5 0.719667 0.196791 0.174156
Si Si6 0.500000 0.125400 0.166312
Si Si7 0.609335 0.877240 0.664021
Si Si8 0.000000 0.376994 0.831044
O O1 0.251757 0.376171 0.500000
O O2 0.236315 0.500000 0.727543
O O3 0.171605 0.329379 0.694527
O O4 0.278766 0.316947 0.769205
O O5 0.816850 0.831546 0.500000
O O6 0.887745 0.826497 0.273326
O O7 0.775459 0.861882 0.230817
O O8 0.840162 0.000000 0.346488
O O9 0.911608 0.646028 0.500000
O O10 0.885137 0.500000 0.691948
O O11 0.941211 0.672545 0.769019
O O12 0.000000 0.827334 0.201493
O O13 0.940174 0.000000 0.188115
O O14 0.919618 0.849021 0.000000
O O15 0.665069 0.141880 0.241200
O O16 0.716526 0.191221 0.000000
O O17 0.555158 0.170452 0.250787
O O18 0.500000 0.000000 0.163863
O O19 0.500000 0.168991 0.000000
O O20 0.614349 0.827719 0.500000
O O21 0.600203 0.000000 0.647868
O O22 0.000000 0.500000 0.790378
O O23 0.000000 0.353608 0.000000
#
# Coordination Sequence:
#
# PCOD8197548 Si02
#       8
#     8   8   8   8   8   4   8   4
#     4   9  19  37  58  76  97 130 173 222 273 325
#     4  10  20  33  50  73 102 136 174 216 261 315
#     4   8  14  26  45  66  87 115 152 195 248 311
#     4   8  14  26  45  68  94 126 164 207 259 317
#     4  12  24  35  52  78 109 143 178 221 273 322
#     4   9  17  31  53  83 120 157 190 223 261 307
#     4  10  20  35  56  83 117 156 194 227 259 303
#     4   9  15  21  35  63  93 117 144 185 242 309
#
# _framework density 20.482427000000001
#
# number of rings (size 3 to 8) (size 9 to 14) (size 15 to 20)
#    0.000    2.571    0.000    4.286    0.000    6.286 
#    0.000    2.857    1.571    0.000    0.000    0.500 
#    0.000    4.000    0.000    0.000    0.000    0.000 
#
# Total GULP energy -694426.913258 kJ/mol
# GULP energy per Si atom -12400.480594 kJ/mol
# Density = 2.043581 g / cm^3
# Si number density = 20.482427 Si / 1000 Ang^3
#
#
#
# Elastic Constant Matrix: (Units=GPa)
#
#
# Indices 1 2 3 4 5 6 
#
# 1 130.7156 12.9005 70.6757 0.0000 0.0000 0.0000
# 2 12.9005 20.1255 8.5522 0.0000 0.0000 0.0000
# 3 70.6757 8.5522 153.5958 0.0000 0.0000 0.0000
# 4 0.0000 0.0000 0.0000 20.9584 0.0000 0.0000
# 5 0.0000 0.0000 0.0000 0.0000 39.3668 0.0000
# 6 0.0000 0.0000 0.0000 0.0000 0.0000 19.3565
#
#
#
# Elastic Compliance Matrix: (Units=1/GPa)
#
#
# Indices 1 2 3 4 5 6 
#
# 1 0.010627 -0.004849 -0.004620 0.000000 0.000000 0.000000
# 2 -0.004849 0.053105 -0.000726 0.000000 0.000000 0.000000
# 3 -0.004620 -0.000726 0.008677 0.000000 0.000000 0.000000
# 4 0.000000 0.000000 0.000000 0.047714 0.000000 0.000000
# 5 0.000000 0.000000 0.000000 0.000000 0.025402 0.000000
# 6 0.000000 0.000000 0.000000 0.000000 0.000000 0.051662
#
#
# Mechanical properties :
#
#
# Convention : Reuss Voigt Hill
#
# Bulk Modulus (GPa) = 19.22352 54.29930 36.76141
# Shear Modulus (GPa) = 21.28440 30.09023 25.68732
#
# Velocity S-wave (km/s) = 3.22709 3.83701 3.54519
# Velocity P-wave (km/s) = 4.82610 6.79691 5.89445
#
# Compressibility (1/GPa) = 0.05201960
#
# Stress axis : x y z
#
# Youngs Moduli (GPa) = 94.10419 18.83078 115.25071
#
# Poissons Ratio (x) = 0.09130 0.53243
# Poissons Ratio (y) = 0.45627 0.08365
# Poissons Ratio (z) = 0.43474 0.01367
#
# Static dielectric constant tensor:
#      x y z
#    x 3.728490 0.000000 0.000000 
#    y 0.000000 3.710010 0.000000 
#    z 0.000000 0.000000 3.769380 
# 
# 
# High freq. dielectric constant tensor:
#      x y z
#    x 1.787590 0.000000 0.000000 
#    y 0.000000 1.806080 0.000000 
#    z 0.000000 0.000000 1.801120 
# 
# From -- ./inp_files/11297.got.cif
#   From: 2010.03.12/outbox.cif.g09.slc.cpg/sg47_6_cif.got.tgz:11297.got - 2010.04.14 03:12:58.
