data_PCOD8197893
_publ_section_title
;
Structure prediction by ZEFSAII (Michael W. Deem and Ramdas Pophale) SiO2 
 PCOD8197893
Probable space group: P M M M
;
_chemical_formula_sum "Si O2"
_cell_formula_units_Z 52
_cell_length_a 9.646969
_cell_length_b 22.692590
_cell_length_c 13.345456
_cell_angle_alpha 90.000000
_cell_angle_beta 90.000000
_cell_angle_gamma 90.000000
_cell_volume 2921.516660
_symmetry_space_group_name_H-M "P M M M"
_symmetry_group_IT_number 47
_symmetry_cell_setting 'orthorhombic'
loop_
_space_group_symop_operation_xyz
x,y,z
-x,-y,z
x,-y,-z
-x,y,-z
-x,-y,-z
x,y,-z
-x,y,z
x,-y,z
loop_
_atom_site_type_symbol
_atom_site_label
_atom_site_fract_x
_atom_site_fract_y
_atom_site_fract_z
Si Si1 0.338062 0.875719 0.706794
Si Si2 0.840680 0.434073 0.234913
Si Si3 0.160275 0.069210 0.114671
Si Si4 0.342361 0.741716 0.737245
Si Si5 0.335721 0.066932 0.500000
Si Si6 0.839234 0.678721 0.113311
Si Si7 0.659958 0.628446 0.613705
O O1 0.500000 0.891514 0.722652
O O2 0.255770 0.897953 0.804379
O O3 0.314498 0.806190 0.693701
O O4 0.279955 0.903457 0.602881
O O5 0.810654 0.500000 0.194476
O O6 0.800651 0.387074 0.149678
O O7 0.748239 0.421586 0.331709
O O8 0.000000 0.427090 0.266888
O O9 0.000000 0.085679 0.134632
O O10 0.183739 0.000000 0.128479
O O11 0.200396 0.087465 0.000000
O O12 0.500000 0.735165 0.774155
O O13 0.244077 0.729936 0.831319
O O14 0.306793 0.694212 0.651909
O O15 0.500000 0.072076 0.500000
O O16 0.283477 0.000000 0.500000
O O17 0.000000 0.692244 0.128900
O O18 0.792329 0.682143 0.000000
O O19 0.706389 0.626849 0.500000
O O20 0.500000 0.612462 0.628963
#
# Coordination Sequence:
#
# PCOD8197893 Si02
#       7
#     8   8   8   8   4   8   8
#     4  10  20  33  53  79 105 134 170 212 255 303
#     4   9  18  32  49  71  98 125 158 202 248 294
#     4   9  19  36  55  74 100 135 171 208 253 303
#     4   9  19  33  49  72  99 128 162 202 244 288
#     4   9  18  32  51  77 107 135 164 205 256 304
#     4   9  18  33  52  72  96 129 165 201 245 295
#     4   9  18  32  50  69  93 128 165 200 240 288
#
# _framework density 17.798974000000001
#
# number of rings (size 3 to 8) (size 9 to 14) (size 15 to 20)
#    0.000    2.846    0.000    0.923    1.077    4.000 
#    0.000    7.308    0.000    1.385    0.000    4.308 
#    0.000    0.000    0.000    0.000    0.000    0.000 
#
# Total GULP energy -644688.825080 kJ/mol
# GULP energy per Si atom -12397.862021 kJ/mol
# Density = 1.775846 g / cm^3
# Si number density = 17.798974 Si / 1000 Ang^3
#
#
#
# Elastic Constant Matrix: (Units=GPa)
#
#
# Indices 1 2 3 4 5 6 
#
# 1 41.9066 24.2823 38.7021 0.0000 0.0000 0.0000
# 2 24.2823 84.0365 32.3145 0.0000 0.0000 0.0000
# 3 38.7021 32.3145 110.5389 0.0000 0.0000 0.0000
# 4 0.0000 0.0000 0.0000 16.9840 0.0000 0.0000
# 5 0.0000 0.0000 0.0000 0.0000 28.6142 0.0000
# 6 0.0000 0.0000 0.0000 0.0000 0.0000 27.7945
#
#
#
# Elastic Compliance Matrix: (Units=1/GPa)
#
#
# Indices 1 2 3 4 5 6 
#
# 1 0.038312 -0.006661 -0.011467 0.000000 0.000000 0.000000
# 2 -0.006661 0.014565 -0.001926 0.000000 0.000000 0.000000
# 3 -0.011467 -0.001926 0.013624 0.000000 0.000000 0.000000
# 4 0.000000 0.000000 0.000000 0.058879 0.000000 0.000000
# 5 0.000000 0.000000 0.000000 0.000000 0.034948 0.000000
# 6 0.000000 0.000000 0.000000 0.000000 0.000000 0.035978
#
#
# Mechanical properties :
#
#
# Convention : Reuss Voigt Hill
#
# Bulk Modulus (GPa) = 37.88669 47.45332 42.67000
# Shear Modulus (GPa) = 20.39060 24.09074 22.24067
#
# Velocity S-wave (km/s) = 3.38835 3.68297 3.53873
# Velocity P-wave (km/s) = 6.05310 6.69360 6.38139
#
# Compressibility (1/GPa) = 0.02639450
#
# Stress axis : x y z
#
# Youngs Moduli (GPa) = 26.10141 68.65892 73.39854
#
# Poissons Ratio (x) = 0.45734 0.84164
# Poissons Ratio (y) = 0.17386 0.14134
# Poissons Ratio (z) = 0.29930 0.13221
#
# Static dielectric constant tensor:
#      x y z
#    x 3.220590 0.000000 0.000000 
#    y 0.000000 3.349910 0.000000 
#    z 0.000000 0.000000 3.377890 
# 
# 
# High freq. dielectric constant tensor:
#      x y z
#    x 1.676070 0.000000 0.000000 
#    y 0.000000 1.692420 0.000000 
#    z 0.000000 0.000000 1.688580 
# 
# From -- ./inp_files/12545.got.cif
#   From: 2010.03.12/outbox.cif.g09.slc.cpg/sg47_7_cif.got.tgz:12545.got - 2010.04.14 03:12:58.
