data_PCOD8197047
_publ_section_title
;
Structure prediction by ZEFSAII (Michael W. Deem and Ramdas Pophale) SiO2 
 PCOD8197047
Probable space group: P M M M
;
_chemical_formula_sum "Si O2"
_cell_formula_units_Z 52
_cell_length_a 13.351479
_cell_length_b 9.356648
_cell_length_c 24.317744
_cell_angle_alpha 90.000000
_cell_angle_beta 90.000000
_cell_angle_gamma 90.000000
_cell_volume 3037.896340
_symmetry_space_group_name_H-M "P M M M"
_symmetry_group_IT_number 47
_symmetry_cell_setting 'orthorhombic'
loop_
_space_group_symop_operation_xyz
x,y,z
-x,-y,z
x,-y,-z
-x,y,-z
-x,-y,-z
x,y,-z
-x,y,z
x,-y,z
loop_
_atom_site_type_symbol
_atom_site_label
_atom_site_fract_x
_atom_site_fract_y
_atom_site_fract_z
Si Si1 0.388716 0.830104 0.937640
Si Si2 0.805192 0.169643 0.124930
Si Si3 0.203951 0.166451 0.564194
Si Si4 0.000000 0.170351 0.937737
Si Si5 0.117531 0.834671 0.241467
Si Si6 0.390493 0.658769 0.565117
Si Si7 0.884641 0.342331 0.344053
O O1 0.500000 0.777214 0.918474
O O2 0.300286 0.768078 0.898487
O O3 0.386403 0.000000 0.935745
O O4 0.368319 0.778206 0.000000
O O5 0.818769 0.214270 0.188447
O O6 0.899705 0.231634 0.090986
O O7 0.805589 0.000000 0.119256
O O8 0.185182 0.198730 0.500000
O O9 0.312115 0.222369 0.584975
O O10 0.123665 0.253824 0.599291
O O11 0.195084 0.000000 0.577094
O O12 0.000000 0.000000 0.933984
O O13 0.000000 0.224795 0.000000
O O14 0.161390 0.744166 0.292617
O O15 0.000000 0.807808 0.229869
O O16 0.135934 0.000000 0.255506
O O17 0.395689 0.659674 0.500000
O O18 0.500000 0.698227 0.589157
O O19 0.358441 0.500000 0.585251
O O20 0.834637 0.500000 0.349244
O O21 0.000000 0.361255 0.331499
#
# Coordination Sequence:
#
# PCOD8197047 Si02
#       7
#     8   8   8   4   8   8   8
#     4   8  13  20  30  48  80 122 158 182 213 266
#     4   9  14  21  34  54  80 112 147 183 224 269
#     4  10  20  32  48  72  99 124 151 187 234 285
#     4   9  14  18  28  52  85 113 136 171 222 271
#     4   9  16  28  45  63  84 110 145 189 235 280
#     4   8  14  26  45  68  94 124 154 182 216 263
#     4  10  21  35  50  67  88 118 157 196 234 282
#
# _framework density 17.117108000000002
#
# number of rings (size 3 to 8) (size 9 to 14) (size 15 to 20)
#    0.000    3.000    0.769    2.308    0.000    4.308 
#    0.000    3.077    0.000    0.923    0.000    2.154 
#    0.000    3.077    0.000    1.692    0.000    1.538 
#
# Total GULP energy -644363.667816 kJ/mol
# GULP energy per Si atom -12391.608996 kJ/mol
# Density = 1.707815 g / cm^3
# Si number density = 17.117108 Si / 1000 Ang^3
#
#
#
# Elastic Constant Matrix: (Units=GPa)
#
#
# Indices 1 2 3 4 5 6 
#
# 1 84.7176 24.7151 49.3617 0.0000 0.0000 0.0000
# 2 24.7151 68.2829 49.2981 0.0000 0.0000 0.0000
# 3 49.3617 49.2981 106.5227 0.0000 0.0000 0.0000
# 4 0.0000 0.0000 0.0000 7.7137 0.0000 0.0000
# 5 0.0000 0.0000 0.0000 0.0000 21.3718 0.0000
# 6 0.0000 0.0000 0.0000 0.0000 0.0000 15.0753
#
#
#
# Elastic Compliance Matrix: (Units=1/GPa)
#
#
# Indices 1 2 3 4 5 6 
#
# 1 0.016190 -0.000666 -0.007194 0.000000 0.000000 0.000000
# 2 -0.000666 0.022021 -0.009882 0.000000 0.000000 0.000000
# 3 -0.007194 -0.009882 0.017295 0.000000 0.000000 0.000000
# 4 0.000000 0.000000 0.000000 0.129639 0.000000 0.000000
# 5 0.000000 0.000000 0.000000 0.000000 0.046791 0.000000
# 6 0.000000 0.000000 0.000000 0.000000 0.000000 0.066334
#
#
# Mechanical properties :
#
#
# Convention : Reuss Voigt Hill
#
# Bulk Modulus (GPa) = 49.94883 56.25256 53.10070
# Shear Modulus (GPa) = 14.68742 17.90872 16.29807
#
# Velocity S-wave (km/s) = 2.93244 3.23808 3.08904
# Velocity P-wave (km/s) = 6.38041 6.84945 6.61908
#
# Compressibility (1/GPa) = 0.02002049
#
# Stress axis : x y z
#
# Youngs Moduli (GPa) = 61.76691 45.41141 57.82072
#
# Poissons Ratio (x) = 0.03025 0.41596
# Poissons Ratio (y) = 0.04115 0.57141
# Poissons Ratio (z) = 0.44435 0.44878
#
# Static dielectric constant tensor:
#      x y z
#    x 3.456860 0.000000 0.000000 
#    y 0.000000 2.961390 0.000000 
#    z 0.000000 0.000000 3.128160 
# 
# 
# High freq. dielectric constant tensor:
#      x y z
#    x 1.652720 0.000000 0.000000 
#    y 0.000000 1.619460 0.000000 
#    z 0.000000 0.000000 1.645850 
# 
# From -- ./inp_files/33599.got.cif
#   From: 2010.03.12/outbox.cif.g09.slc.cpg/sg47_17_cif.got.tgz:33599.got - 2010.04.14 03:12:58.
