data_PCOD8197818
_publ_section_title
;
Structure prediction by ZEFSAII (Michael W. Deem and Ramdas Pophale) SiO2 
 PCOD8197818
Probable space group: P M M M
;
_chemical_formula_sum "Si O2"
_cell_formula_units_Z 40
_cell_length_a 9.379940
_cell_length_b 27.772084
_cell_length_c 7.709837
_cell_angle_alpha 90.000000
_cell_angle_beta 90.000000
_cell_angle_gamma 90.000000
_cell_volume 2008.416252
_symmetry_space_group_name_H-M "P M M M"
_symmetry_group_IT_number 47
_symmetry_cell_setting 'orthorhombic'
loop_
_space_group_symop_operation_xyz
x,y,z
-x,-y,z
x,-y,-z
-x,y,-z
-x,-y,-z
x,y,-z
-x,y,z
x,-y,z
loop_
_atom_site_type_symbol
_atom_site_label
_atom_site_fract_x
_atom_site_fract_y
_atom_site_fract_z
Si Si1 0.669222 0.946302 0.500000
Si Si2 0.841213 0.785738 0.205561
Si Si3 0.838748 0.500000 0.703993
Si Si4 0.839544 0.320378 0.206555
Si Si5 0.667863 0.876783 0.801544
Si Si6 0.658101 0.592369 0.797803
O O1 0.500000 0.948977 0.500000
O O2 0.721006 0.919412 0.675097
O O3 0.735043 0.000000 0.500000
O O4 0.790410 0.732867 0.270695
O O5 0.735675 0.827329 0.270541
O O6 0.000000 0.796517 0.276503
O O7 0.843370 0.785271 0.000000
O O8 0.844095 0.500000 0.500000
O O9 0.755474 0.546357 0.768768
O O10 0.000000 0.500000 0.780154
O O11 0.734182 0.360689 0.286163
O O12 0.000000 0.330772 0.272979
O O13 0.837615 0.322742 0.000000
O O14 0.500000 0.869802 0.789847
O O15 0.714698 0.888679 0.000000
O O16 0.500000 0.585562 0.714736
O O17 0.640501 0.600989 0.000000
#
# Coordination Sequence:
#
# PCOD8197818 Si02
#       6
#     4   8   4   8   8   8
#     4   9  18  32  49  71 101 133 167 212 259 302
#     4   8  14  26  46  72 101 132 163 197 241 292
#     4  11  24  39  54  70  92 129 172 211 252 300
#     4   8  14  26  46  72 100 129 161 197 239 290
#     4   9  17  29  48  73  98 128 168 211 254 302
#     4  10  20  33  52  79 105 128 160 204 252 302
#
# _framework density 19.91619
#
# number of rings (size 3 to 8) (size 9 to 14) (size 15 to 20)
#    0.000    3.000    0.000    2.400    0.000    4.400 
#    0.000    6.500    2.200    1.200    0.000    2.800 
#    0.000    0.000    0.000    0.000    0.000    0.000 
#
# Total GULP energy -495710.703991 kJ/mol
# GULP energy per Si atom -12392.767600 kJ/mol
# Density = 1.987086 g / cm^3
# Si number density = 19.916190 Si / 1000 Ang^3
#
#
#
# Elastic Constant Matrix: (Units=GPa)
#
#
# Indices 1 2 3 4 5 6 
#
# 1 107.5817 83.8743 22.1321 0.0000 0.0000 0.0000
# 2 83.8743 201.9517 39.5009 0.0000 0.0000 0.0000
# 3 22.1321 39.5009 49.6162 0.0000 0.0000 0.0000
# 4 0.0000 0.0000 0.0000 -25.5167 0.0000 0.0000
# 5 0.0000 0.0000 0.0000 0.0000 6.3228 0.0000
# 6 0.0000 0.0000 0.0000 0.0000 0.0000 27.6503
#
#
#
# Elastic Compliance Matrix: (Units=1/GPa)
#
#
# Indices 1 2 3 4 5 6 
#
# 1 0.013896 -0.005400 -0.001900 0.000000 0.000000 0.000000
# 2 -0.005400 0.007963 -0.003931 0.000000 0.000000 0.000000
# 3 -0.001900 -0.003931 0.024132 0.000000 0.000000 0.000000
# 4 0.000000 0.000000 0.000000 -0.039190 0.000000 0.000000
# 5 0.000000 0.000000 0.000000 0.000000 0.158159 0.000000
# 6 0.000000 0.000000 0.000000 0.000000 0.000000 0.036166
#
#
# Mechanical properties :
#
#
# Convention : Reuss Voigt Hill
#
# Bulk Modulus (GPa) = 42.49904 72.24047 57.36975
# Shear Modulus (GPa) = 21.60488 15.93410 18.76949
#
# Velocity S-wave (km/s) = 3.29719 2.83160 3.07322
# Velocity P-wave (km/s) = 5.99004 6.85869 6.43903
#
# Compressibility (1/GPa) = 0.02352995
#
# Stress axis : x y z
#
# Youngs Moduli (GPa) = 71.96428 125.57838 41.43920
#
# Poissons Ratio (x) = 0.67808 0.07872
# Poissons Ratio (y) = 0.38858 0.16290
# Poissons Ratio (z) = 0.13671 0.49366
#
# Static dielectric constant tensor:
#      x y z
#    x 3.830060 0.000000 0.000000 
#    y 0.000000 4.005310 0.000000 
#    z 0.000000 0.000000 3.367450 
# 
# 
# High freq. dielectric constant tensor:
#      x y z
#    x 1.761760 0.000000 0.000000 
#    y 0.000000 1.782230 0.000000 
#    z 0.000000 0.000000 1.750600 
# 
# From -- ./inp_files/1773.got.cif
#   From: 2010.03.12/outbox.cif.g09.slc.cpg/sg47_1_cif.got.tgz:1773.got - 2010.04.14 03:12:58.
