data_PCOD8197491
_publ_section_title
;
Structure prediction by ZEFSAII (Michael W. Deem and Ramdas Pophale) SiO2 
 PCOD8197491
Probable space group: P M M M
;
_chemical_formula_sum "Si O2"
_cell_formula_units_Z 48
_cell_length_a 8.921300
_cell_length_b 31.583954
_cell_length_c 9.146850
_cell_angle_alpha 90.000000
_cell_angle_beta 90.000000
_cell_angle_gamma 90.000000
_cell_volume 2577.307273
_symmetry_space_group_name_H-M "P M M M"
_symmetry_group_IT_number 47
_symmetry_cell_setting 'orthorhombic'
loop_
_space_group_symop_operation_xyz
x,y,z
-x,-y,z
x,-y,-z
-x,y,-z
-x,-y,-z
x,y,-z
-x,y,z
x,-y,z
loop_
_atom_site_type_symbol
_atom_site_label
_atom_site_fract_x
_atom_site_fract_y
_atom_site_fract_z
Si Si1 0.821831 0.546662 0.664079
Si Si2 0.678177 0.044821 0.836148
Si Si3 0.821676 0.627273 0.165163
Si Si4 0.674905 0.295732 0.669890
Si Si5 0.331612 0.864782 0.174411
Si Si6 0.827682 0.780840 0.172358
O O1 0.762902 0.555677 0.500000
O O2 0.766652 0.500000 0.716213
O O3 0.759084 0.582748 0.771840
O O4 0.000000 0.547662 0.664325
O O5 0.500000 0.047036 0.841987
O O6 0.729822 0.089559 0.762418
O O7 0.727557 0.000000 0.756986
O O8 0.742850 0.042885 0.000000
O O9 0.761864 0.665038 0.262647
O O10 0.000000 0.628546 0.170287
O O11 0.762651 0.632183 0.000000
O O12 0.715039 0.293039 0.500000
O O13 0.500000 0.302150 0.697493
O O14 0.725908 0.252797 0.745978
O O15 0.500000 0.855145 0.231596
O O16 0.222063 0.827431 0.226374
O O17 0.333605 0.868071 0.000000
O O18 0.000000 0.773826 0.214919
O O19 0.801871 0.775431 0.000000
#
# Coordination Sequence:
#
# PCOD8197491 Si02
#       6
#     8   8   8   8   8   8
#     4   8  14  26  46  73 105 140 174 205 238 277
#     4   7   9  14  27  50  80 114 153 193 229 268
#     4  10  20  33  52  79 107 134 165 201 243 290
#     4  11  24  39  54  72  94 123 161 203 247 295
#     4   8  13  22  38  60  87 121 158 195 236 279
#     4  10  20  33  50  72  97 125 158 196 240 292
#
# _framework density 18.624089000000001
#
# number of rings (size 3 to 8) (size 9 to 14) (size 15 to 20)
#    0.000    3.000    0.000    4.000    0.000    5.667 
#    0.000    1.667    0.000    1.000    0.000    7.000 
#    0.000    0.667    0.000    7.667    0.000    8.833 
#
# Total GULP energy -594652.693275 kJ/mol
# GULP energy per Si atom -12388.597777 kJ/mol
# Density = 1.858170 g / cm^3
# Si number density = 18.624089 Si / 1000 Ang^3
#
#
#
# Elastic Constant Matrix: (Units=GPa)
#
#
# Indices 1 2 3 4 5 6 
#
# 1 18.3084 15.0648 19.7406 0.0000 0.0000 0.0000
# 2 15.0648 159.9427 40.9950 0.0000 0.0000 0.0000
# 3 19.7406 40.9950 48.9819 0.0000 0.0000 0.0000
# 4 0.0000 0.0000 0.0000 -8.4489 0.0000 0.0000
# 5 0.0000 0.0000 0.0000 0.0000 16.5258 0.0000
# 6 0.0000 0.0000 0.0000 0.0000 0.0000 34.6584
#
#
#
# Elastic Compliance Matrix: (Units=1/GPa)
#
#
# Indices 1 2 3 4 5 6 
#
# 1 0.096752 0.001122 -0.039932 0.000000 0.000000 0.000000
# 2 0.001122 0.007973 -0.007125 0.000000 0.000000 0.000000
# 3 -0.039932 -0.007125 0.042472 0.000000 0.000000 0.000000
# 4 0.000000 0.000000 0.000000 -0.118359 0.000000 0.000000
# 5 0.000000 0.000000 0.000000 0.000000 0.060512 0.000000
# 6 0.000000 0.000000 0.000000 0.000000 0.000000 0.028853
#
#
# Mechanical properties :
#
#
# Convention : Reuss Voigt Hill
#
# Bulk Modulus (GPa) = 18.07427 42.09264 30.08346
# Shear Modulus (GPa) = 21.88040 18.64256 20.26148
#
# Velocity S-wave (km/s) = 3.43132 3.16728 3.30194
# Velocity P-wave (km/s) = 5.04227 6.00215 5.54302
#
# Compressibility (1/GPa) = 0.05532726
#
# Stress axis : x y z
#
# Youngs Moduli (GPa) = 10.33570 125.42728 23.54484
#
# Poissons Ratio (x) = -0.14073 0.94019
# Poissons Ratio (y) = -0.01160 0.16775
# Poissons Ratio (z) = 0.41272 0.89366
#
# Static dielectric constant tensor:
#      x y z
#    x 3.066170 0.000000 0.000000 
#    y 0.000000 4.124470 0.000000 
#    z 0.000000 0.000000 3.162500 
# 
# 
# High freq. dielectric constant tensor:
#      x y z
#    x 1.681300 0.000000 0.000000 
#    y 0.000000 1.755910 0.000000 
#    z 0.000000 0.000000 1.677470 
# 
# From -- ./inp_files/2493.got.cif
#   From: 2010.03.12/outbox.cif.g09.slc.cpg/sg47_2_cif.got.tgz:2493.got - 2010.04.14 03:12:58.
