data_PCOD8197110
_publ_section_title
;
Structure prediction by ZEFSAII (Michael W. Deem and Ramdas Pophale) SiO2 
 PCOD8197110
Probable space group: P M M M
;
_chemical_formula_sum "Si O2"
_cell_formula_units_Z 52
_cell_length_a 16.253138
_cell_length_b 9.137702
_cell_length_c 18.163121
_cell_angle_alpha 90.000000
_cell_angle_beta 90.000000
_cell_angle_gamma 90.000000
_cell_volume 2697.520101
_symmetry_space_group_name_H-M "P M M M"
_symmetry_group_IT_number 47
_symmetry_cell_setting 'orthorhombic'
loop_
_space_group_symop_operation_xyz
x,y,z
-x,-y,z
x,-y,-z
-x,y,-z
-x,-y,-z
x,y,-z
-x,y,z
x,-y,z
loop_
_atom_site_type_symbol
_atom_site_label
_atom_site_fract_x
_atom_site_fract_y
_atom_site_fract_z
Si Si1 0.256614 0.329997 0.083076
Si Si2 0.133060 0.828136 0.827376
Si Si3 0.246513 0.329479 0.585937
Si Si4 0.094248 0.827258 0.338391
Si Si5 0.587596 0.329581 0.165087
Si Si6 0.000000 0.662673 0.086543
Si Si7 0.593501 0.673613 0.672089
O O1 0.231506 0.500000 0.094653
O O2 0.221932 0.228348 0.148396
O O3 0.352798 0.302736 0.096401
O O4 0.234030 0.280543 0.000000
O O5 0.108720 0.778285 0.745889
O O6 0.079018 0.749262 0.888265
O O7 0.123759 0.000000 0.836142
O O8 0.254886 0.300311 0.500000
O O9 0.236022 0.500000 0.604850
O O10 0.162711 0.251011 0.612458
O O11 0.330908 0.264880 0.621996
O O12 0.000000 0.783336 0.360715
O O13 0.106199 0.000000 0.347012
O O14 0.500000 0.260522 0.142004
O O15 0.577835 0.500000 0.179805
O O16 0.614080 0.267800 0.245458
O O17 0.000000 0.500000 0.120670
O O18 0.000000 0.653390 0.000000
O O19 0.500000 0.726434 0.648862
O O20 0.595406 0.500000 0.665033
#
# Coordination Sequence:
#
# PCOD8197110 Si02
#       7
#     8   8   8   8   8   4   8
#     4  10  20  32  48  75 110 144 180 223 273 327
#     4  11  22  38  57  77 103 137 180 224 265 318
#     4  10  21  35  54  85 118 144 177 221 269 324
#     4  10  22  41  60  78 103 139 186 230 273 329
#     4   8  14  26  46  72 102 139 183 226 266 312
#     4  11  23  37  55  81 110 137 168 211 265 320
#     4   8  14  27  49  77 110 146 180 216 263 320
#
# _framework density 19.276965000000001
#
# number of rings (size 3 to 8) (size 9 to 14) (size 15 to 20)
#    0.000    2.385    0.769    3.000    0.000    6.769 
#    0.000    4.615    0.000    0.923    0.000    6.462 
#    0.000    0.000    0.000    0.000    0.000    0.000 
#
# Total GULP energy -644186.710706 kJ/mol
# GULP energy per Si atom -12388.205975 kJ/mol
# Density = 1.923309 g / cm^3
# Si number density = 19.276965 Si / 1000 Ang^3
#
#
#
# Elastic Constant Matrix: (Units=GPa)
#
#
# Indices 1 2 3 4 5 6 
#
# 1 115.3612 21.4908 38.9602 0.0000 0.0000 0.0000
# 2 21.4908 37.1274 22.3042 0.0000 0.0000 0.0000
# 3 38.9602 22.3042 63.9980 0.0000 0.0000 0.0000
# 4 0.0000 0.0000 0.0000 23.5367 0.0000 0.0000
# 5 0.0000 0.0000 0.0000 0.0000 31.7517 0.0000
# 6 0.0000 0.0000 0.0000 0.0000 0.0000 19.4401
#
#
#
# Elastic Compliance Matrix: (Units=1/GPa)
#
#
# Indices 1 2 3 4 5 6 
#
# 1 0.011172 -0.003011 -0.005752 0.000000 0.000000 0.000000
# 2 -0.003011 0.034879 -0.010322 0.000000 0.000000 0.000000
# 3 -0.005752 -0.010322 0.022724 0.000000 0.000000 0.000000
# 4 0.000000 0.000000 0.000000 0.042487 0.000000 0.000000
# 5 0.000000 0.000000 0.000000 0.000000 0.031494 0.000000
# 6 0.000000 0.000000 0.000000 0.000000 0.000000 0.051440
#
#
# Mechanical properties :
#
#
# Convention : Reuss Voigt Hill
#
# Bulk Modulus (GPa) = 32.67548 42.44409 37.55978
# Shear Modulus (GPa) = 20.61275 23.86113 22.23694
#
# Velocity S-wave (km/s) = 3.27355 3.52206 3.40008
# Velocity P-wave (km/s) = 5.59245 6.21335 5.91106
#
# Compressibility (1/GPa) = 0.03060399
#
# Stress axis : x y z
#
# Youngs Moduli (GPa) = 89.51044 28.67092 44.00559
#
# Poissons Ratio (x) = 0.08634 0.25310
# Poissons Ratio (y) = 0.26956 0.45424
# Poissons Ratio (z) = 0.51483 0.29595
#
# Static dielectric constant tensor:
#      x y z
#    x 3.840520 0.000000 0.000000 
#    y 0.000000 3.167540 0.000000 
#    z 0.000000 0.000000 3.472450 
# 
# 
# High freq. dielectric constant tensor:
#      x y z
#    x 1.770990 0.000000 0.000000 
#    y 0.000000 1.704230 0.000000 
#    z 0.000000 0.000000 1.746860 
# 
# From -- ./inp_files/30875.got.cif
#   From: 2010.03.12/outbox.cif.g09.slc.cpg/sg47_16_cif.got.tgz:30875.got - 2010.04.14 03:12:58.
