data_PCOD8197111
_publ_section_title
;
Structure prediction by ZEFSAII (Michael W. Deem and Ramdas Pophale) SiO2 
 PCOD8197111
Probable space group: P M M M
;
_chemical_formula_sum "Si O2"
_cell_formula_units_Z 52
_cell_length_a 8.810731
_cell_length_b 27.977112
_cell_length_c 11.589407
_cell_angle_alpha 90.000000
_cell_angle_beta 90.000000
_cell_angle_gamma 90.000000
_cell_volume 2856.775011
_symmetry_space_group_name_H-M "P M M M"
_symmetry_group_IT_number 47
_symmetry_cell_setting 'orthorhombic'
loop_
_space_group_symop_operation_xyz
x,y,z
-x,-y,z
x,-y,-z
-x,y,-z
-x,-y,-z
x,y,-z
-x,y,z
x,-y,z
loop_
_atom_site_type_symbol
_atom_site_label
_atom_site_fract_x
_atom_site_fract_y
_atom_site_fract_z
Si Si1 0.677846 0.173961 0.632763
Si Si2 0.822675 0.000000 0.870322
Si Si3 0.329179 0.552360 0.362820
Si Si4 0.677301 0.844920 0.000000
Si Si5 0.169760 0.646000 0.636837
Si Si6 0.821316 0.897764 0.208956
Si Si7 0.177860 0.743547 0.000000
Si Si8 0.677986 0.730182 0.763149
O O1 0.717039 0.184663 0.500000
O O2 0.500000 0.164147 0.649553
O O3 0.772051 0.126854 0.671016
O O4 0.732093 0.219332 0.708655
O O5 0.777397 0.046172 0.794161
O O6 0.000000 0.000000 0.891482
O O7 0.747779 0.000000 0.000000
O O8 0.328374 0.554019 0.500000
O O9 0.500000 0.560284 0.317264
O O10 0.269241 0.500000 0.321637
O O11 0.224494 0.594752 0.312934
O O12 0.717429 0.874517 0.887941
O O13 0.779762 0.798574 0.000000
O O14 0.500000 0.830986 0.000000
O O15 0.175136 0.645030 0.500000
O O16 0.280412 0.687810 0.676992
O O17 0.000000 0.655524 0.682409
O O18 0.000000 0.889887 0.185441
O O19 0.243997 0.719289 0.114767
O O20 0.000000 0.736366 0.000000
O O21 0.500000 0.731479 0.781953
#
# Coordination Sequence:
#
# PCOD8197111 Si02
#       8
#     8   4   8   4   8   8   4   8
#     4  10  22  39  57  78 108 144 179 217 263 318
#     4   9  18  34  55  82 111 137 172 217 271 320
#     4   8  14  26  45  69  99 138 183 227 272 323
#     4  12  22  35  55  82 113 141 171 212 263 322
#     4  10  20  32  48  75 111 147 184 226 270 318
#     4  11  21  36  59  83 108 140 177 222 266 312
#     4  12  24  38  57  83 109 137 173 218 267 314
#     4  11  22  37  57  79 106 142 180 219 265 319
#
# _framework density 18.202344
#
# number of rings (size 3 to 8) (size 9 to 14) (size 15 to 20)
#    0.000    1.769    2.308    3.692    0.000    2.769 
#    0.000    3.846    0.000    2.308    0.000    0.538 
#    0.000    4.308    0.000    0.000    0.000    0.000 
#
# Total GULP energy -644706.297240 kJ/mol
# GULP energy per Si atom -12398.198024 kJ/mol
# Density = 1.816091 g / cm^3
# Si number density = 18.202344 Si / 1000 Ang^3
#
#
#
# Elastic Constant Matrix: (Units=GPa)
#
#
# Indices 1 2 3 4 5 6 
#
# 1 72.2183 37.5840 33.6336 0.0000 0.0000 0.0000
# 2 37.5840 122.2319 28.4572 0.0000 0.0000 0.0000
# 3 33.6336 28.4572 66.2321 0.0000 0.0000 0.0000
# 4 0.0000 0.0000 0.0000 14.8318 0.0000 0.0000
# 5 0.0000 0.0000 0.0000 0.0000 27.0608 0.0000
# 6 0.0000 0.0000 0.0000 0.0000 0.0000 29.6194
#
#
#
# Elastic Compliance Matrix: (Units=1/GPa)
#
#
# Indices 1 2 3 4 5 6 
#
# 1 0.019891 -0.004183 -0.008304 0.000000 0.000000 0.000000
# 2 -0.004183 0.009970 -0.002160 0.000000 0.000000 0.000000
# 3 -0.008304 -0.002160 0.020243 0.000000 0.000000 0.000000
# 4 0.000000 0.000000 0.000000 0.067423 0.000000 0.000000
# 5 0.000000 0.000000 0.000000 0.000000 0.036954 0.000000
# 6 0.000000 0.000000 0.000000 0.000000 0.000000 0.033762
#
#
# Mechanical properties :
#
#
# Convention : Reuss Voigt Hill
#
# Bulk Modulus (GPa) = 48.04984 51.11467 49.58225
# Shear Modulus (GPa) = 22.27448 25.03623 23.65536
#
# Velocity S-wave (km/s) = 3.50196 3.71272 3.60888
# Velocity P-wave (km/s) = 6.54267 6.82066 6.68311
#
# Compressibility (1/GPa) = 0.02081173
#
# Stress axis : x y z
#
# Youngs Moduli (GPa) = 50.27405 100.29974 49.39968
#
# Poissons Ratio (x) = 0.41954 0.41020
# Poissons Ratio (y) = 0.21029 0.10668
# Poissons Ratio (z) = 0.41746 0.21661
#
# Static dielectric constant tensor:
#      x y z
#    x 3.372430 0.000000 0.000000 
#    y 0.000000 3.619290 0.000000 
#    z 0.000000 0.000000 3.181350 
# 
# 
# High freq. dielectric constant tensor:
#      x y z
#    x 1.705120 0.000000 0.000000 
#    y 0.000000 1.709860 0.000000 
#    z 0.000000 0.000000 1.674770 
# 
# From -- ./inp_files/15520.got.cif
#   From: 2010.03.12/outbox.cif.g09.slc.cpg/sg47_8_cif.got.tgz:15520.got - 2010.04.14 03:12:58.
