data_PCOD8197277
_publ_section_title
;
Structure prediction by ZEFSAII (Michael W. Deem and Ramdas Pophale) SiO2 
 PCOD8197277
Probable space group: P M M M
;
_chemical_formula_sum "Si O2"
_cell_formula_units_Z 56
_cell_length_a 14.328446
_cell_length_b 8.394250
_cell_length_c 32.622688
_cell_angle_alpha 90.000000
_cell_angle_beta 90.000000
_cell_angle_gamma 90.000000
_cell_volume 3923.744620
_symmetry_space_group_name_H-M "P M M M"
_symmetry_group_IT_number 47
_symmetry_cell_setting 'orthorhombic'
loop_
_space_group_symop_operation_xyz
x,y,z
-x,-y,z
x,-y,-z
-x,y,-z
-x,-y,-z
x,y,-z
-x,y,z
x,-y,z
loop_
_atom_site_type_symbol
_atom_site_label
_atom_site_fract_x
_atom_site_fract_y
_atom_site_fract_z
Si Si1 0.895677 0.312710 0.547022
Si Si2 0.389790 0.179203 0.734883
Si Si3 0.389151 0.000000 0.953409
Si Si4 0.611546 0.680494 0.092865
Si Si5 0.711737 0.818158 0.575424
Si Si6 0.395761 0.316396 0.183322
Si Si7 0.392362 0.316343 0.349274
Si Si8 0.397921 0.315748 0.500000
O O1 0.877557 0.263056 0.500000
O O2 0.883492 0.500000 0.552202
O O3 0.821346 0.225272 0.575956
O O4 0.000000 0.260543 0.560295
O O5 0.500000 0.202435 0.739540
O O6 0.343385 0.229740 0.778587
O O7 0.354905 0.286137 0.696873
O O8 0.360890 0.000000 0.724809
O O9 0.351641 0.832531 0.933608
O O10 0.500000 0.000000 0.950450
O O11 0.353932 0.000000 0.000000
O O12 0.500000 0.679337 0.093526
O O13 0.643171 0.500000 0.077583
O O14 0.652341 0.709189 0.138882
O O15 0.669798 0.785031 0.619908
O O16 0.658748 0.720904 0.540777
O O17 0.698517 0.000000 0.564118
O O18 0.500000 0.246270 0.179368
O O19 0.398645 0.500000 0.195063
O O20 0.500000 0.260867 0.353239
O O21 0.381255 0.500000 0.360472
O O22 0.416256 0.500000 0.500000
O O23 0.500000 0.229810 0.500000
#
# Coordination Sequence:
#
# PCOD8197277 Si02
#       8
#     8   8   4   8   8   8   8   4
#     4   9  18  34  55  73  88 107 130 156 186 224
#     4   9  16  24  36  54  72  90 114 147 183 215
#     4   9  16  22  28  38  52  72  98 128 168 217
#     4   8  14  22  30  40  54  72  97 130 167 209
#     4  12  23  33  48  69  89 107 128 160 195 224
#     4   8  13  21  32  45  60  79 104 135 171 212
#     4  10  20  33  46  58  78 110 139 159 182 221
#     4  11  23  37  50  63  82 111 143 164 182 217
#
# _framework density 14.272081
#
# number of rings (size 3 to 8) (size 9 to 14) (size 15 to 20)
#    0.000    2.571    0.714    4.071    1.000    5.429 
#    0.000    2.143    0.000    0.000    0.000    0.000 
#    0.000    0.000    0.000    0.000    0.000    0.000 
#
# Total GULP energy -693873.029140 kJ/mol
# GULP energy per Si atom -12390.589806 kJ/mol
# Density = 1.423960 g / cm^3
# Si number density = 14.272081 Si / 1000 Ang^3
#
#
#
# Elastic Constant Matrix: (Units=GPa)
#
#
# Indices 1 2 3 4 5 6 
#
# 1 43.0074 19.0732 22.5445 0.0000 0.0000 0.0000
# 2 19.0732 71.9491 38.8167 0.0000 0.0000 0.0000
# 3 22.5445 38.8167 92.6937 0.0000 0.0000 0.0000
# 4 0.0000 0.0000 0.0000 24.7106 0.0000 0.0000
# 5 0.0000 0.0000 0.0000 0.0000 0.5168 0.0000
# 6 0.0000 0.0000 0.0000 0.0000 0.0000 4.6596
#
#
#
# Elastic Compliance Matrix: (Units=1/GPa)
#
#
# Indices 1 2 3 4 5 6 
#
# 1 0.027888 -0.004823 -0.004763 0.000000 0.000000 0.000000
# 2 -0.004823 0.018789 -0.006695 0.000000 0.000000 0.000000
# 3 -0.004763 -0.006695 0.014750 0.000000 0.000000 0.000000
# 4 0.000000 0.000000 0.000000 0.040468 0.000000 0.000000
# 5 0.000000 0.000000 0.000000 0.000000 1.934943 0.000000
# 6 0.000000 0.000000 0.000000 0.000000 0.000000 0.214612
#
#
# Mechanical properties :
#
#
# Convention : Reuss Voigt Hill
#
# Bulk Modulus (GPa) = 34.64445 40.94654 37.79550
# Shear Modulus (GPa) = 2.17995 14.45845 8.31920
#
# Velocity S-wave (km/s) = 1.23723 3.18631 2.41695
# Velocity P-wave (km/s) = 5.13497 6.50300 5.85905
#
# Compressibility (1/GPa) = 0.02886465
#
# Stress axis : x y z
#
# Youngs Moduli (GPa) = 35.85830 53.22148 67.79512
#
# Poissons Ratio (x) = 0.25670 0.32290
# Poissons Ratio (y) = 0.17295 0.45390
# Poissons Ratio (z) = 0.17079 0.35633
#
# Static dielectric constant tensor:
#      x y z
#    x 2.379080 0.000000 0.000000 
#    y 0.000000 2.920260 0.000000 
#    z 0.000000 0.000000 2.933870 
# 
# 
# High freq. dielectric constant tensor:
#      x y z
#    x 1.463870 0.000000 0.000000 
#    y 0.000000 1.560190 0.000000 
#    z 0.000000 0.000000 1.544570 
# 
# From -- ./inp_files/34632.got.cif
#   From: 2010.03.12/outbox.cif.g09.slc.cpg/sg47_18_cif.got.tgz:34632.got - 2010.04.14 03:12:58.
