data_PCOD8197620
_publ_section_title
;
Structure prediction by ZEFSAII (Michael W. Deem and Ramdas Pophale) SiO2 
 PCOD8197620
Probable space group: P M M M
;
_chemical_formula_sum "Si O2"
_cell_formula_units_Z 40
_cell_length_a 8.909782
_cell_length_b 27.183761
_cell_length_c 8.050991
_cell_angle_alpha 90.000000
_cell_angle_beta 90.000000
_cell_angle_gamma 90.000000
_cell_volume 1949.961166
_symmetry_space_group_name_H-M "P M M M"
_symmetry_group_IT_number 47
_symmetry_cell_setting 'orthorhombic'
loop_
_space_group_symop_operation_xyz
x,y,z
-x,-y,z
x,-y,-z
-x,y,-z
-x,-y,-z
x,y,-z
-x,y,z
x,-y,z
loop_
_atom_site_type_symbol
_atom_site_label
_atom_site_fract_x
_atom_site_fract_y
_atom_site_fract_z
Si Si1 0.670521 0.702460 0.310018
Si Si2 0.327626 0.558014 0.500000
Si Si3 0.172600 0.795727 0.190050
Si Si4 0.824088 0.609490 0.188201
Si Si5 0.830510 0.000000 0.805063
Si Si6 0.172476 0.101790 0.692120
O O1 0.679539 0.684502 0.500000
O O2 0.500000 0.701786 0.245495
O O3 0.733761 0.757485 0.298560
O O4 0.768642 0.665675 0.199114
O O5 0.310163 0.500000 0.500000
O O6 0.500000 0.575192 0.500000
O O7 0.254726 0.576877 0.671056
O O8 0.241170 0.850645 0.214786
O O9 0.000000 0.794867 0.251176
O O10 0.186829 0.779998 0.000000
O O11 0.000000 0.608053 0.223145
O O12 0.788855 0.590256 0.000000
O O13 0.747890 0.049951 0.741499
O O14 0.000000 0.000000 0.732038
O O15 0.829298 0.000000 0.000000
O O16 0.192540 0.111910 0.500000
O O17 0.000000 0.097205 0.748498
#
# Coordination Sequence:
#
# PCOD8197620 Si02
#       6
#     8   4   8   8   4   8
#     4  11  23  38  58  85 117 155 198 245 301 363
#     4  11  25  45  69  99 135 175 217 260 309 364
#     4  10  20  33  50  75 107 143 185 233 288 351
#     4  11  24  42  67  98 130 168 214 263 315 369
#     4   9  15  23  37  59  90 127 168 219 278 339
#     4   9  16  26  41  63  93 131 174 222 279 342
#
# _framework density 20.513231000000001
#
# number of rings (size 3 to 8) (size 9 to 14) (size 15 to 20)
#    0.000    1.800    1.000    3.600    0.000   11.200 
#    0.000    2.000    0.000    0.000    0.000    0.700 
#    0.000    5.600    0.000    0.000    0.000    0.000 
#
# Total GULP energy -495933.859106 kJ/mol
# GULP energy per Si atom -12398.346478 kJ/mol
# Density = 2.046654 g / cm^3
# Si number density = 20.513231 Si / 1000 Ang^3
#
#
#
# Elastic Constant Matrix: (Units=GPa)
#
#
# Indices 1 2 3 4 5 6 
#
# 1 94.2812 49.8494 52.0693 0.0000 0.0000 0.0000
# 2 49.8494 119.2852 47.1284 0.0000 0.0000 0.0000
# 3 52.0693 47.1284 103.5319 0.0000 0.0000 0.0000
# 4 0.0000 0.0000 0.0000 31.4970 0.0000 0.0000
# 5 0.0000 0.0000 0.0000 0.0000 19.1054 0.0000
# 6 0.0000 0.0000 0.0000 0.0000 0.0000 2.3419
#
#
#
# Elastic Compliance Matrix: (Units=1/GPa)
#
#
# Indices 1 2 3 4 5 6 
#
# 1 0.016365 -0.004374 -0.006239 0.000000 0.000000 0.000000
# 2 -0.004374 0.011391 -0.002985 0.000000 0.000000 0.000000
# 3 -0.006239 -0.002985 0.014156 0.000000 0.000000 0.000000
# 4 0.000000 0.000000 0.000000 0.031749 0.000000 0.000000
# 5 0.000000 0.000000 0.000000 0.000000 0.052341 0.000000
# 6 0.000000 0.000000 0.000000 0.000000 0.000000 0.427007
#
#
# Mechanical properties :
#
#
# Convention : Reuss Voigt Hill
#
# Bulk Modulus (GPa) = 67.96168 68.35472 68.15820
# Shear Modulus (GPa) = 8.54539 21.79227 15.16883
#
# Velocity S-wave (km/s) = 2.04324 3.26291 2.72226
# Velocity P-wave (km/s) = 6.22648 6.89855 6.57111
#
# Compressibility (1/GPa) = 0.01471418
#
# Stress axis : x y z
#
# Youngs Moduli (GPa) = 61.10575 87.79190 70.64227
#
# Poissons Ratio (x) = 0.38399 0.44077
# Poissons Ratio (y) = 0.26727 0.21089
# Poissons Ratio (z) = 0.38127 0.26209
#
# Static dielectric constant tensor:
#      x y z
#    x 3.378250 0.000000 0.000000 
#    y 0.000000 3.917060 0.000000 
#    z 0.000000 0.000000 3.661880 
# 
# 
# High freq. dielectric constant tensor:
#      x y z
#    x 1.755030 0.000000 0.000000 
#    y 0.000000 1.818970 0.000000 
#    z 0.000000 0.000000 1.811560 
# 
# From -- ./inp_files/1860.got.cif
#   From: 2010.03.12/outbox.cif.g09.slc.cpg/sg47_1_cif.got.tgz:1860.got - 2010.04.14 03:12:58.
