data_PCOD8197635
_publ_section_title
;
Structure prediction by ZEFSAII (Michael W. Deem and Ramdas Pophale) SiO2 
 PCOD8197635
Probable space group: P M M M
;
_chemical_formula_sum "Si O2"
_cell_formula_units_Z 48
_cell_length_a 20.589514
_cell_length_b 8.741511
_cell_length_c 15.243559
_cell_angle_alpha 90.000000
_cell_angle_beta 90.000000
_cell_angle_gamma 90.000000
_cell_volume 2743.588539
_symmetry_space_group_name_H-M "P M M M"
_symmetry_group_IT_number 47
_symmetry_cell_setting 'orthorhombic'
loop_
_space_group_symop_operation_xyz
x,y,z
-x,-y,z
x,-y,-z
-x,y,-z
-x,-y,-z
x,y,-z
-x,y,z
x,-y,z
loop_
_atom_site_type_symbol
_atom_site_label
_atom_site_fract_x
_atom_site_fract_y
_atom_site_fract_z
Si Si1 0.572259 0.821419 0.355520
Si Si2 0.764285 0.818257 0.237518
Si Si3 0.372516 0.821880 0.824754
Si Si4 0.292624 0.675959 0.598947
Si Si5 0.571849 0.183653 0.000000
Si Si6 0.865831 0.319026 0.898881
Si Si7 0.000000 0.169814 0.897020
O O1 0.500000 0.766547 0.387731
O O2 0.574843 0.791934 0.251017
O O3 0.632745 0.736236 0.399724
O O4 0.580966 0.000000 0.376938
O O5 0.696882 0.753515 0.199829
O O6 0.760318 0.761836 0.338898
O O7 0.818633 0.748923 0.174630
O O8 0.771684 0.000000 0.237308
O O9 0.363373 0.000000 0.840988
O O10 0.394314 0.744115 0.914859
O O11 0.266796 0.697324 0.500000
O O12 0.294358 0.500000 0.627180
O O13 0.500000 0.247124 0.000000
O O14 0.572795 0.000000 0.000000
O O15 0.863469 0.500000 0.894342
O O16 0.936583 0.263159 0.868298
O O17 0.849698 0.265381 0.000000
O O18 0.000000 0.000000 0.853771
O O19 0.000000 0.151414 0.000000
#
# Coordination Sequence:
#
# PCOD8197635 Si02
#       7
#     8   8   8   8   4   8   4
#     4   9  17  30  47  67  92 121 157 204 258 314
#     4  10  20  33  51  74 100 131 170 214 255 301
#     4   8  15  25  38  60  89 120 155 201 249 292
#     4  10  21  36  52  70  95 126 163 211 265 322
#     4   9  14  20  34  56  83 116 153 194 241 289
#     4  10  20  33  51  77 112 149 179 207 247 296
#     4   9  17  31  51  77 108 143 182 219 249 281
#
# _framework density 17.495336000000002
#
# number of rings (size 3 to 8) (size 9 to 14) (size 15 to 20)
#    0.000    2.667    0.000    3.250    1.167    6.000 
#    0.000    1.667    0.000    0.000    0.000    0.583 
#    0.000   11.667    0.000    0.000    0.000    0.000 
#
# Total GULP energy -594664.438676 kJ/mol
# GULP energy per Si atom -12388.842472 kJ/mol
# Density = 1.745552 g / cm^3
# Si number density = 17.495336 Si / 1000 Ang^3
#
#
#
# Elastic Constant Matrix: (Units=GPa)
#
#
# Indices 1 2 3 4 5 6 
#
# 1 102.4524 37.8357 46.0412 0.0000 0.0000 0.0000
# 2 37.8357 74.3059 36.2327 0.0000 0.0000 0.0000
# 3 46.0412 36.2327 104.9378 0.0000 0.0000 0.0000
# 4 0.0000 0.0000 0.0000 20.9445 0.0000 0.0000
# 5 0.0000 0.0000 0.0000 0.0000 18.1722 0.0000
# 6 0.0000 0.0000 0.0000 0.0000 0.0000 23.8300
#
#
#
# Elastic Compliance Matrix: (Units=1/GPa)
#
#
# Indices 1 2 3 4 5 6 
#
# 1 0.013429 -0.004768 -0.004246 0.000000 0.000000 0.000000
# 2 -0.004768 0.017875 -0.004080 0.000000 0.000000 0.000000
# 3 -0.004246 -0.004080 0.012801 0.000000 0.000000 0.000000
# 4 0.000000 0.000000 0.000000 0.047745 0.000000 0.000000
# 5 0.000000 0.000000 0.000000 0.000000 0.055029 0.000000
# 6 0.000000 0.000000 0.000000 0.000000 0.000000 0.041964
#
#
# Mechanical properties :
#
#
# Convention : Reuss Voigt Hill
#
# Bulk Modulus (GPa) = 55.80924 57.99059 56.89991
# Shear Modulus (GPa) = 22.62402 23.36177 22.99289
#
# Velocity S-wave (km/s) = 3.59994 3.65816 3.62916
# Velocity P-wave (km/s) = 7.01770 7.14571 7.08199
#
# Compressibility (1/GPa) = 0.01791818
#
# Stress axis : x y z
#
# Youngs Moduli (GPa) = 74.46318 55.94394 78.11831
#
# Poissons Ratio (x) = 0.26673 0.33169
# Poissons Ratio (y) = 0.35502 0.31872
# Poissons Ratio (z) = 0.31617 0.22825
#
# Static dielectric constant tensor:
#      x y z
#    x 3.307380 0.000000 0.000000 
#    y 0.000000 3.100020 0.000000 
#    z 0.000000 0.000000 3.461800 
# 
# 
# High freq. dielectric constant tensor:
#      x y z
#    x 1.658380 0.000000 0.000000 
#    y 0.000000 1.660760 0.000000 
#    z 0.000000 0.000000 1.671860 
# 
# From -- ./inp_files/24476.got.cif
#   From: 2010.03.12/outbox.cif.g09.slc.cpg/sg47_13_cif.got.tgz:24476.got - 2010.04.14 03:12:58.
