data_PCOD8197086
_publ_section_title
;
Structure prediction by ZEFSAII (Michael W. Deem and Ramdas Pophale) SiO2 
 PCOD8197086
Probable space group: P M M M
;
_chemical_formula_sum "Si O2"
_cell_formula_units_Z 52
_cell_length_a 8.935080
_cell_length_b 24.205400
_cell_length_c 13.054315
_cell_angle_alpha 90.000000
_cell_angle_beta 90.000000
_cell_angle_gamma 90.000000
_cell_volume 2823.350506
_symmetry_space_group_name_H-M "P M M M"
_symmetry_group_IT_number 47
_symmetry_cell_setting 'orthorhombic'
loop_
_space_group_symop_operation_xyz
x,y,z
-x,-y,z
x,-y,-z
-x,y,-z
-x,-y,-z
x,y,-z
-x,y,z
x,-y,z
loop_
_atom_site_type_symbol
_atom_site_label
_atom_site_fract_x
_atom_site_fract_y
_atom_site_fract_z
Si Si1 0.333596 0.934707 0.111040
Si Si2 0.677443 0.379357 0.307212
Si Si3 0.169599 0.434759 0.500000
Si Si4 0.172135 0.728518 0.378333
Si Si5 0.825709 0.063137 0.690221
Si Si6 0.336890 0.835552 0.383923
Si Si7 0.173762 0.435693 0.882890
O O1 0.500000 0.913993 0.141862
O O2 0.212891 0.916034 0.194925
O O3 0.334374 0.000000 0.103250
O O4 0.287917 0.909953 0.000000
O O5 0.500000 0.382636 0.316287
O O6 0.748319 0.415525 0.397569
O O7 0.730451 0.316520 0.318927
O O8 0.726602 0.400983 0.195860
O O9 0.167089 0.500000 0.500000
O O10 0.000000 0.410820 0.500000
O O11 0.191141 0.720348 0.500000
O O12 0.230294 0.788091 0.337466
O O13 0.000000 0.723159 0.345926
O O14 0.739225 0.104118 0.615580
O O15 0.000000 0.068290 0.669800
O O16 0.771607 0.000000 0.671369
O O17 0.362772 0.818815 0.500000
O O18 0.500000 0.837047 0.328738
O O19 0.209156 0.500000 0.866391
O O20 0.000000 0.423741 0.860341
O O21 0.213335 0.418660 0.000000
#
# Coordination Sequence:
#
# PCOD8197086 Si02
#       7
#     8   8   4   8   8   8   8
#     4   8  14  26  45  68  94 125 160 198 243 297
#     4  12  23  34  54  83 115 146 181 229 280 330
#     4  11  23  37  53  77 113 153 188 223 270 327
#     4  10  20  36  58  79 103 137 178 219 264 323
#     4  10  20  32  48  73 104 136 171 211 257 314
#     4  10  21  36  54  75 101 133 173 220 267 315
#     4   9  19  37  59  81 109 150 197 237 274 325
#
# _framework density 18.417833999999999
#
# number of rings (size 3 to 8) (size 9 to 14) (size 15 to 20)
#    0.000    2.077    0.769    4.385    0.000    6.154 
#    0.000    3.846    0.000    0.923    0.000    0.000 
#    0.000    0.000    0.000    0.000    0.000    0.000 
#
# Total GULP energy -644580.795007 kJ/mol
# GULP energy per Si atom -12395.784519 kJ/mol
# Density = 1.837591 g / cm^3
# Si number density = 18.417834 Si / 1000 Ang^3
#
#
#
# Elastic Constant Matrix: (Units=GPa)
#
#
# Indices 1 2 3 4 5 6 
#
# 1 134.9104 57.7466 43.7751 0.0000 0.0000 0.0000
# 2 57.7466 100.7583 35.7080 0.0000 0.0000 0.0000
# 3 43.7751 35.7080 74.7804 0.0000 0.0000 0.0000
# 4 0.0000 0.0000 0.0000 18.6835 0.0000 0.0000
# 5 0.0000 0.0000 0.0000 0.0000 25.9600 0.0000
# 6 0.0000 0.0000 0.0000 0.0000 0.0000 26.0835
#
#
#
# Elastic Compliance Matrix: (Units=1/GPa)
#
#
# Indices 1 2 3 4 5 6 
#
# 1 0.010745 -0.004729 -0.004032 0.000000 0.000000 0.000000
# 2 -0.004729 0.014028 -0.003930 0.000000 0.000000 0.000000
# 3 -0.004032 -0.003930 0.017609 0.000000 0.000000 0.000000
# 4 0.000000 0.000000 0.000000 0.053523 0.000000 0.000000
# 5 0.000000 0.000000 0.000000 0.000000 0.038521 0.000000
# 6 0.000000 0.000000 0.000000 0.000000 0.000000 0.038338
#
#
# Mechanical properties :
#
#
# Convention : Reuss Voigt Hill
#
# Bulk Modulus (GPa) = 58.82292 64.98982 61.90637
# Shear Modulus (GPa) = 24.53235 25.69336 25.11286
#
# Velocity S-wave (km/s) = 3.65360 3.73906 3.69658
# Velocity P-wave (km/s) = 7.05732 7.34872 7.20449
#
# Compressibility (1/GPa) = 0.01700018
#
# Stress axis : x y z
#
# Youngs Moduli (GPa) = 93.06855 71.28628 56.78900
#
# Poissons Ratio (x) = 0.33713 0.22895
# Poissons Ratio (y) = 0.44015 0.22318
# Poissons Ratio (z) = 0.37521 0.28015
#
# Static dielectric constant tensor:
#      x y z
#    x 3.536080 0.000000 0.000000 
#    y 0.000000 3.296080 0.000000 
#    z 0.000000 0.000000 3.479830 
# 
# 
# High freq. dielectric constant tensor:
#      x y z
#    x 1.722470 0.000000 0.000000 
#    y 0.000000 1.699780 0.000000 
#    z 0.000000 0.000000 1.698490 
# 
# From -- ./inp_files/21999.got.cif
#   From: 2010.03.12/outbox.cif.g09.slc.cpg/sg47_11_cif.got.tgz:21999.got - 2010.04.14 03:12:58.
