data_PCOD8197724
_publ_section_title
;
Structure prediction by ZEFSAII (Michael W. Deem and Ramdas Pophale) SiO2 
 PCOD8197724
Probable space group: P M M M
;
_chemical_formula_sum "Si O2"
_cell_formula_units_Z 36
_cell_length_a 9.312818
_cell_length_b 7.750576
_cell_length_c 24.893868
_cell_angle_alpha 90.000000
_cell_angle_beta 90.000000
_cell_angle_gamma 90.000000
_cell_volume 1796.832016
_symmetry_space_group_name_H-M "P M M M"
_symmetry_group_IT_number 47
_symmetry_cell_setting 'orthorhombic'
loop_
_space_group_symop_operation_xyz
x,y,z
-x,-y,z
x,-y,-z
-x,y,-z
-x,-y,-z
x,y,-z
-x,y,z
x,-y,z
loop_
_atom_site_type_symbol
_atom_site_label
_atom_site_fract_x
_atom_site_fract_y
_atom_site_fract_z
Si Si1 0.330175 0.500000 0.059665
Si Si2 0.161703 0.703434 0.439579
Si Si3 0.331772 0.802053 0.862710
Si Si4 0.342009 0.198006 0.340664
Si Si5 0.839464 0.795562 0.757027
O O1 0.500000 0.500000 0.055265
O O2 0.280572 0.325364 0.089860
O O3 0.261546 0.500000 0.000000
O O4 0.203715 0.759615 0.500000
O O5 0.171911 0.500000 0.433437
O O6 0.271429 0.790700 0.399063
O O7 0.000000 0.766043 0.426566
O O8 0.500000 0.780951 0.850262
O O9 0.246811 0.742347 0.810047
O O10 0.295930 0.000000 0.879066
O O11 0.500000 0.286332 0.341435
O O12 0.242094 0.284738 0.294856
O O13 0.361299 0.000000 0.325200
O O14 0.000000 0.716932 0.759344
O O15 0.848531 0.000000 0.752082
#
# Coordination Sequence:
#
# PCOD8197724 Si02
#       5
#     4   8   8   8   8
#     4   9  18  32  51  79 111 139 174 219 260 305
#     4   9  19  36  54  71  96 132 173 215 258 308
#     4   9  17  31  52  76 104 139 176 216 263 312
#     4  10  20  33  51  77 106 133 166 211 261 314
#     4   9  17  31  52  75 100 132 169 209 255 308
#
# _framework density 20.035263
#
# number of rings (size 3 to 8) (size 9 to 14) (size 15 to 20)
#    0.000    2.778    0.000    2.000    0.000    5.778 
#    2.000    6.111    0.000    1.333    0.000    3.111 
#    0.000    0.000    0.000    0.000    0.000    0.000 
#
# Total GULP energy -446287.130252 kJ/mol
# GULP energy per Si atom -12396.864729 kJ/mol
# Density = 1.998966 g / cm^3
# Si number density = 20.035263 Si / 1000 Ang^3
#
#
#
# Elastic Constant Matrix: (Units=GPa)
#
#
# Indices 1 2 3 4 5 6 
#
# 1 126.6623 25.7480 85.2197 0.0000 0.0000 0.0000
# 2 25.7480 54.7604 41.4056 0.0000 0.0000 0.0000
# 3 85.2197 41.4056 176.2225 0.0000 0.0000 0.0000
# 4 0.0000 0.0000 0.0000 -13.3806 0.0000 0.0000
# 5 0.0000 0.0000 0.0000 0.0000 20.3760 0.0000
# 6 0.0000 0.0000 0.0000 0.0000 0.0000 11.6041
#
#
#
# Elastic Compliance Matrix: (Units=1/GPa)
#
#
# Indices 1 2 3 4 5 6 
#
# 1 0.011803 -0.001500 -0.005355 0.000000 0.000000 0.000000
# 2 -0.001500 0.022397 -0.004537 0.000000 0.000000 0.000000
# 3 -0.005355 -0.004537 0.009330 0.000000 0.000000 0.000000
# 4 0.000000 0.000000 0.000000 -0.074735 0.000000 0.000000
# 5 0.000000 0.000000 0.000000 0.000000 0.049077 0.000000
# 6 0.000000 0.000000 0.000000 0.000000 0.000000 0.086176
#
#
# Mechanical properties :
#
#
# Convention : Reuss Voigt Hill
#
# Bulk Modulus (GPa) = 48.20325 73.59909 60.90117
# Shear Modulus (GPa) = 37.38307 17.40468 27.39388
#
# Velocity S-wave (km/s) = 4.32425 2.95057 3.70169
# Velocity P-wave (km/s) = 7.00312 6.95862 6.98090
#
# Compressibility (1/GPa) = 0.02074549
#
# Stress axis : x y z
#
# Youngs Moduli (GPa) = 84.72298 44.64815 107.17591
#
# Poissons Ratio (x) = 0.06699 0.57397
# Poissons Ratio (y) = 0.12712 0.48625
# Poissons Ratio (z) = 0.45372 0.20256
#
# Static dielectric constant tensor:
#      x y z
#    x 3.766990 0.000000 0.000000 
#    y 0.000000 3.376380 0.000000 
#    z 0.000000 0.000000 3.807040 
# 
# 
# High freq. dielectric constant tensor:
#      x y z
#    x 1.771520 0.000000 0.000000 
#    y 0.000000 1.761640 0.000000 
#    z 0.000000 0.000000 1.781560 
# 
# From -- ./inp_files/1400.got.cif
#   From: 2010.03.12/outbox.cif.g09.slc.cpg/sg47_1_cif.got.tgz:1400.got - 2010.04.14 03:12:58.
