data_PCOD8197193
_publ_section_title
;
Structure prediction by ZEFSAII (Michael W. Deem and Ramdas Pophale) SiO2 
 PCOD8197193
Probable space group: P M M M
;
_chemical_formula_sum "Si O2"
_cell_formula_units_Z 48
_cell_length_a 9.337340
_cell_length_b 30.939361
_cell_length_c 9.031581
_cell_angle_alpha 90.000000
_cell_angle_beta 90.000000
_cell_angle_gamma 90.000000
_cell_volume 2609.145475
_symmetry_space_group_name_H-M "P M M M"
_symmetry_group_IT_number 47
_symmetry_cell_setting 'orthorhombic'
loop_
_space_group_symop_operation_xyz
x,y,z
-x,-y,z
x,-y,-z
-x,y,-z
-x,-y,-z
x,y,-z
-x,y,z
x,-y,z
loop_
_atom_site_type_symbol
_atom_site_label
_atom_site_fract_x
_atom_site_fract_y
_atom_site_fract_z
Si Si1 0.329914 0.547531 0.833896
Si Si2 0.669954 0.631262 0.668574
Si Si3 0.164585 0.794745 0.326042
Si Si4 0.839350 0.952418 0.175807
Si Si5 0.164987 0.293689 0.172837
Si Si6 0.666973 0.129281 0.826659
O O1 0.500000 0.547637 0.834108
O O2 0.275215 0.500000 0.781603
O O3 0.273011 0.584535 0.723776
O O4 0.273758 0.557131 0.000000
O O5 0.719927 0.637452 0.500000
O O6 0.500000 0.634644 0.684304
O O7 0.738483 0.667541 0.770271
O O8 0.188350 0.791385 0.500000
O O9 0.213826 0.749746 0.254910
O O10 0.263493 0.831831 0.261658
O O11 0.000000 0.804946 0.285207
O O12 0.732492 0.915653 0.235025
O O13 0.000000 0.942028 0.232042
O O14 0.791427 0.000000 0.234189
O O15 0.836813 0.952889 0.000000
O O16 0.000000 0.304359 0.207977
O O17 0.192195 0.287028 0.000000
O O18 0.500000 0.128374 0.792676
O O19 0.699742 0.135368 0.000000
#
# Coordination Sequence:
#
# PCOD8197193 Si02
#       6
#     8   8   8   8   8   8
#     4   8  14  26  45  69  98 133 172 212 252 294
#     4  10  20  32  49  76 107 137 168 204 250 302
#     4  10  21  37  56  75  96 127 167 208 251 300
#     4   8  14  26  46  72 101 134 172 212 251 291
#     4  10  21  37  57  78  99 128 167 209 254 303
#     4  10  20  32  49  76 107 137 168 204 250 301
#
# _framework density 18.396826999999998
#
# number of rings (size 3 to 8) (size 9 to 14) (size 15 to 20)
#    0.000    2.667    0.000    3.000    0.000    5.333 
#    0.000    3.333    0.000    1.000    0.000    7.000 
#    0.000    0.000    0.000    0.000    0.000    0.000 
#
# Total GULP energy -595116.016387 kJ/mol
# GULP energy per Si atom -12398.250341 kJ/mol
# Density = 1.835496 g / cm^3
# Si number density = 18.396827 Si / 1000 Ang^3
#
#
#
# Elastic Constant Matrix: (Units=GPa)
#
#
# Indices 1 2 3 4 5 6 
#
# 1 58.8425 62.9945 38.9881 0.0000 0.0000 0.0000
# 2 62.9945 164.4413 57.3238 0.0000 0.0000 0.0000
# 3 38.9881 57.3238 69.2100 0.0000 0.0000 0.0000
# 4 0.0000 0.0000 0.0000 -3.2096 0.0000 0.0000
# 5 0.0000 0.0000 0.0000 0.0000 22.2141 0.0000
# 6 0.0000 0.0000 0.0000 0.0000 0.0000 29.5748
#
#
#
# Elastic Compliance Matrix: (Units=1/GPa)
#
#
# Indices 1 2 3 4 5 6 
#
# 1 0.034698 -0.009108 -0.012003 0.000000 0.000000 0.000000
# 2 -0.009108 0.010941 -0.003931 0.000000 0.000000 0.000000
# 3 -0.012003 -0.003931 0.024466 0.000000 0.000000 0.000000
# 4 0.000000 0.000000 0.000000 -0.311568 0.000000 0.000000
# 5 0.000000 0.000000 0.000000 0.000000 0.045016 0.000000
# 6 0.000000 0.000000 0.000000 0.000000 0.000000 0.033813
#
#
# Mechanical properties :
#
#
# Convention : Reuss Voigt Hill
#
# Bulk Modulus (GPa) = 49.94607 67.90072 58.92340
# Shear Modulus (GPa) = -47.22402 18.59503 -14.31449
#
# Velocity S-wave (km/s) = -5.07202 3.18272 -2.79246
# Velocity P-wave (km/s) = 2.66313 7.10600 4.65849
#
# Compressibility (1/GPa) = 0.02002160
#
# Stress axis : x y z
#
# Youngs Moduli (GPa) = 28.82015 91.40253 40.87327
#
# Poissons Ratio (x) = 0.83250 0.49058
# Poissons Ratio (y) = 0.26250 0.16066
# Poissons Ratio (z) = 0.34591 0.35929
#
# Static dielectric constant tensor:
#      x y z
#    x 3.193420 0.000000 0.000000 
#    y 0.000000 3.789090 0.000000 
#    z 0.000000 0.000000 3.298660 
# 
# 
# High freq. dielectric constant tensor:
#      x y z
#    x 1.687960 0.000000 0.000000 
#    y 0.000000 1.731610 0.000000 
#    z 0.000000 0.000000 1.698550 
# 
# From -- ./inp_files/2470.got.cif
#   From: 2010.03.12/outbox.cif.g09.slc.cpg/sg47_2_cif.got.tgz:2470.got - 2010.04.14 03:12:58.
