data_PCOD8197538
_publ_section_title
;
Structure prediction by ZEFSAII (Michael W. Deem and Ramdas Pophale) SiO2 
 PCOD8197538
Probable space group: P M M M
;
_chemical_formula_sum "Si O2"
_cell_formula_units_Z 48
_cell_length_a 31.198304
_cell_length_b 8.740303
_cell_length_c 9.155109
_cell_angle_alpha 90.000000
_cell_angle_beta 90.000000
_cell_angle_gamma 90.000000
_cell_volume 2496.439200
_symmetry_space_group_name_H-M "P M M M"
_symmetry_group_IT_number 47
_symmetry_cell_setting 'orthorhombic'
loop_
_space_group_symop_operation_xyz
x,y,z
-x,-y,z
x,-y,-z
-x,y,-z
-x,-y,-z
x,y,-z
-x,y,z
x,-y,z
loop_
_atom_site_type_symbol
_atom_site_label
_atom_site_fract_x
_atom_site_fract_y
_atom_site_fract_z
Si Si1 0.375493 0.322694 0.169777
Si Si2 0.218769 0.318537 0.836232
Si Si3 0.862911 0.316737 0.335317
Si Si4 0.702684 0.821625 0.668453
Si Si5 0.549340 0.176643 0.331861
Si Si6 0.045373 0.671543 0.673617
O O1 0.365222 0.500000 0.196976
O O2 0.341731 0.219910 0.255525
O O3 0.422726 0.284310 0.228131
O O4 0.372877 0.281294 0.000000
O O5 0.217188 0.500000 0.838066
O O6 0.174887 0.252593 0.766840
O O7 0.258898 0.269558 0.741288
O O8 0.223310 0.253105 0.000000
O O9 0.853937 0.258793 0.500000
O O10 0.864506 0.500000 0.333321
O O11 0.909333 0.252489 0.275440
O O12 0.699803 0.773421 0.500000
O O13 0.711462 0.000000 0.687397
O O14 0.560575 0.211503 0.500000
O O15 0.500000 0.215260 0.299783
O O16 0.559062 0.000000 0.296334
O O17 0.047707 0.665605 0.500000
O O18 0.043377 0.500000 0.736216
O O19 0.000000 0.754495 0.721602
#
# Coordination Sequence:
#
# PCOD8197538 Si02
#       6
#     8   8   8   8   8   8
#     4  11  24  39  56  82 114 144 175 212 255 305
#     4  10  20  33  50  73 101 132 166 204 248 301
#     4   8  13  22  38  60  87 122 162 202 245 291
#     4  11  24  40  58  79 101 128 167 213 258 306
#     4   9  19  37  60  85 113 146 185 225 261 299
#     4   7   9  14  27  50  80 114 154 198 240 283
#
# _framework density 19.227387
#
# number of rings (size 3 to 8) (size 9 to 14) (size 15 to 20)
#    0.000    2.667    0.000    4.500    0.000    8.667 
#    0.000    2.500    0.000    0.500    0.000    3.500 
#    0.000    0.667    0.000    7.667    0.000    8.833 
#
# Total GULP energy -594831.909200 kJ/mol
# GULP energy per Si atom -12392.331442 kJ/mol
# Density = 1.918362 g / cm^3
# Si number density = 19.227387 Si / 1000 Ang^3
#
#
#
# Elastic Constant Matrix: (Units=GPa)
#
#
# Indices 1 2 3 4 5 6 
#
# 1 138.7070 11.8865 56.5351 0.0000 0.0000 0.0000
# 2 11.8865 15.3990 21.8732 0.0000 0.0000 0.0000
# 3 56.5351 21.8732 104.1884 0.0000 0.0000 0.0000
# 4 0.0000 0.0000 0.0000 19.7947 0.0000 0.0000
# 5 0.0000 0.0000 0.0000 0.0000 1.5445 0.0000
# 6 0.0000 0.0000 0.0000 0.0000 0.0000 -2.9675
#
#
#
# Elastic Compliance Matrix: (Units=1/GPa)
#
#
# Indices 1 2 3 4 5 6 
#
# 1 0.009257 -0.000015 -0.005020 0.000000 0.000000 0.000000
# 2 -0.000015 0.092533 -0.019418 0.000000 0.000000 0.000000
# 3 -0.005020 -0.019418 0.016398 0.000000 0.000000 0.000000
# 4 0.000000 0.000000 0.000000 0.050518 0.000000 0.000000
# 5 0.000000 0.000000 0.000000 0.000000 0.647441 0.000000
# 6 0.000000 0.000000 0.000000 0.000000 0.000000 -0.336982
#
#
# Mechanical properties :
#
#
# Convention : Reuss Voigt Hill
#
# Bulk Modulus (GPa) = 14.43373 48.76491 31.59932
# Shear Modulus (GPa) = 9.07169 14.87433 11.97301
#
# Velocity S-wave (km/s) = 2.17448 2.78439 2.49812
# Velocity P-wave (km/s) = 3.71855 5.97949 4.97905
#
# Compressibility (1/GPa) = 0.06928216
#
# Stress axis : x y z
#
# Youngs Moduli (GPa) = 108.02968 10.80698 60.98135
#
# Poissons Ratio (x) = 0.00016 0.30611
# Poissons Ratio (y) = 0.00162 1.18414
# Poissons Ratio (z) = 0.54228 0.20985
#
# Static dielectric constant tensor:
#      x y z
#    x 3.998710 0.000000 0.000000 
#    y 0.000000 3.058600 0.000000 
#    z 0.000000 0.000000 3.473340 
# 
# 
# High freq. dielectric constant tensor:
#      x y z
#    x 1.777110 0.000000 0.000000 
#    y 0.000000 1.699650 0.000000 
#    z 0.000000 0.000000 1.730350 
# 
# From -- ./inp_files/2444.got.cif
#   From: 2010.03.12/outbox.cif.g09.slc.cpg/sg47_2_cif.got.tgz:2444.got - 2010.04.14 03:12:58.
