data_PCOD8197786
_publ_section_title
;
Structure prediction by ZEFSAII (Michael W. Deem and Ramdas Pophale) SiO2 
 PCOD8197786
Probable space group: P M M M
;
_chemical_formula_sum "Si O2"
_cell_formula_units_Z 64
_cell_length_a 19.454091
_cell_length_b 8.879018
_cell_length_c 19.762549
_cell_angle_alpha 90.000000
_cell_angle_beta 90.000000
_cell_angle_gamma 90.000000
_cell_volume 3413.648806
_symmetry_space_group_name_H-M "P M M M"
_symmetry_group_IT_number 47
_symmetry_cell_setting 'orthorhombic'
loop_
_space_group_symop_operation_xyz
x,y,z
-x,-y,z
x,-y,-z
-x,y,-z
-x,-y,-z
x,y,-z
-x,y,z
x,-y,z
loop_
_atom_site_type_symbol
_atom_site_label
_atom_site_fract_x
_atom_site_fract_y
_atom_site_fract_z
Si Si1 0.076138 0.675098 0.611997
Si Si2 0.237279 0.164326 0.925819
Si Si3 0.699996 0.823530 0.295905
Si Si4 0.398984 0.168192 0.074701
Si Si5 0.577539 0.673308 0.216135
Si Si6 0.213798 0.173666 0.425163
Si Si7 0.924148 0.831635 0.753413
Si Si8 0.198009 0.329709 0.802932
O O1 0.087530 0.500000 0.630422
O O2 0.142474 0.731562 0.570502
O O3 0.075338 0.779274 0.676847
O O4 0.000000 0.693300 0.576060
O O5 0.318210 0.161792 0.927858
O O6 0.214388 0.304472 0.881010
O O7 0.211440 0.000000 0.898916
O O8 0.206542 0.192732 0.000000
O O9 0.628532 0.749410 0.271002
O O10 0.730077 0.768366 0.369285
O O11 0.758049 0.784383 0.241869
O O12 0.686090 0.000000 0.297192
O O13 0.421217 0.267108 0.138902
O O14 0.428503 0.000000 0.085870
O O15 0.424836 0.228685 0.000000
O O16 0.500000 0.694141 0.243993
O O17 0.599397 0.500000 0.212392
O O18 0.247509 0.189313 0.500000
O O19 0.195551 0.000000 0.408948
O O20 0.881370 0.711436 0.795803
O O21 0.000000 0.830452 0.784672
O O22 0.892771 0.000000 0.756736
O O23 0.213516 0.500000 0.781363
#
# Coordination Sequence:
#
# PCOD8197786 Si02
#       8
#     8   8   8   8   8   8   8   8
#     4  10  20  33  51  79 115 152 188 226 270 323
#     4   9  18  33  53  78 109 145 186 229 272 323
#     4  11  22  38  60  83 109 142 185 230 270 326
#     4   9  18  33  54  80 111 149 189 225 264 319
#     4  11  24  39  56  82 115 148 183 227 279 331
#     4  10  22  39  59  83 111 146 186 230 280 332
#     4  10  20  34  53  77 107 146 190 232 275 325
#     4  12  22  32  54  84 113 144 181 230 283 331
#
# _framework density 18.748267999999999
#
# number of rings (size 3 to 8) (size 9 to 14) (size 15 to 20)
#    0.000    1.750    2.500    3.375    0.000    4.250 
#    0.000    3.750    0.000    0.750    0.000    5.250 
#    0.000    0.000    0.000    0.000    0.000    0.000 
#
# Total GULP energy -792845.480222 kJ/mol
# GULP energy per Si atom -12388.210628 kJ/mol
# Density = 1.870560 g / cm^3
# Si number density = 18.748268 Si / 1000 Ang^3
#
#
#
# Elastic Constant Matrix: (Units=GPa)
#
#
# Indices 1 2 3 4 5 6 
#
# 1 92.2372 40.6852 53.5636 0.0000 0.0000 0.0000
# 2 40.6852 81.7537 36.3255 0.0000 0.0000 0.0000
# 3 53.5636 36.3255 107.9478 0.0000 0.0000 0.0000
# 4 0.0000 0.0000 0.0000 17.9423 0.0000 0.0000
# 5 0.0000 0.0000 0.0000 0.0000 5.9246 0.0000
# 6 0.0000 0.0000 0.0000 0.0000 0.0000 24.9379
#
#
#
# Elastic Compliance Matrix: (Units=1/GPa)
#
#
# Indices 1 2 3 4 5 6 
#
# 1 0.017160 -0.005593 -0.006633 0.000000 0.000000 0.000000
# 2 -0.005593 0.016205 -0.002678 0.000000 0.000000 0.000000
# 3 -0.006633 -0.002678 0.013456 0.000000 0.000000 0.000000
# 4 0.000000 0.000000 0.000000 0.055734 0.000000 0.000000
# 5 0.000000 0.000000 0.000000 0.000000 0.168788 0.000000
# 6 0.000000 0.000000 0.000000 0.000000 0.000000 0.040100
#
#
# Mechanical properties :
#
#
# Convention : Reuss Voigt Hill
#
# Bulk Modulus (GPa) = 58.77464 60.34302 59.55883
# Shear Modulus (GPa) = 14.41242 19.85190 17.13216
#
# Velocity S-wave (km/s) = 2.77561 3.25755 3.02619
# Velocity P-wave (km/s) = 6.45674 6.81210 6.63680
#
# Compressibility (1/GPa) = 0.01701414
#
# Stress axis : x y z
#
# Youngs Moduli (GPa) = 58.27372 61.70915 74.31523
#
# Poissons Ratio (x) = 0.34512 0.49293
# Poissons Ratio (y) = 0.32591 0.19902
# Poissons Ratio (z) = 0.38653 0.16526
#
# Static dielectric constant tensor:
#      x y z
#    x 3.620010 0.000000 0.000000 
#    y 0.000000 3.704370 0.000000 
#    z 0.000000 0.000000 4.101290 
# 
# 
# High freq. dielectric constant tensor:
#      x y z
#    x 1.717840 0.000000 0.000000 
#    y 0.000000 1.730850 0.000000 
#    z 0.000000 0.000000 1.712890 
# 
# From -- ./inp_files/31538.got.cif
#   From: 2010.03.12/outbox.cif.g09.slc.cpg/sg47_16_cif.got.tgz:31538.got - 2010.04.14 03:12:58.
