data_PCOD8197191
_publ_section_title
;
Structure prediction by ZEFSAII (Michael W. Deem and Ramdas Pophale) SiO2 
 PCOD8197191
Probable space group: P M M M
;
_chemical_formula_sum "Si O2"
_cell_formula_units_Z 48
_cell_length_a 8.880434
_cell_length_b 9.424361
_cell_length_c 31.304149
_cell_angle_alpha 90.000000
_cell_angle_beta 90.000000
_cell_angle_gamma 90.000000
_cell_volume 2619.919856
_symmetry_space_group_name_H-M "P M M M"
_symmetry_group_IT_number 47
_symmetry_cell_setting 'orthorhombic'
loop_
_space_group_symop_operation_xyz
x,y,z
-x,-y,z
x,-y,-z
-x,y,-z
-x,-y,-z
x,y,-z
-x,y,z
x,-y,z
loop_
_atom_site_type_symbol
_atom_site_label
_atom_site_fract_x
_atom_site_fract_y
_atom_site_fract_z
Si Si1 0.178638 0.841347 0.045161
Si Si2 0.679033 0.340805 0.452778
Si Si3 0.827271 0.830745 0.862605
Si Si4 0.674538 0.662479 0.211050
Si Si5 0.321046 0.838876 0.374026
Si Si6 0.176410 0.663451 0.701012
O O1 0.228629 0.772251 0.090438
O O2 0.000000 0.849168 0.046849
O O3 0.244354 0.000000 0.043490
O O4 0.228864 0.764030 0.000000
O O5 0.734899 0.292710 0.500000
O O6 0.500000 0.339007 0.451800
O O7 0.737123 0.500000 0.442960
O O8 0.743845 0.235190 0.416912
O O9 0.719325 0.760868 0.828209
O O10 0.000000 0.785990 0.853717
O O11 0.810961 0.000000 0.860757
O O12 0.500000 0.684515 0.221661
O O13 0.710682 0.500000 0.199059
O O14 0.769127 0.710264 0.252230
O O15 0.500000 0.831109 0.373003
O O16 0.259574 0.760141 0.332903
O O17 0.263135 0.000000 0.373858
O O18 0.219786 0.500000 0.692318
O O19 0.000000 0.689613 0.697659
#
# Coordination Sequence:
#
# PCOD8197191 Si02
#       6
#     8   8   8   8   8   8
#     4   7  10  19  38  65  95 124 155 193 235 278
#     4   8  14  26  46  72 101 134 171 207 240 276
#     4   9  17  29  48  75 102 127 158 198 244 290
#     4  10  21  36  53  72  95 126 163 201 243 292
#     4  10  20  32  49  76 107 136 164 197 242 292
#     4  10  21  37  56  74  92 121 163 206 247 292
#
# _framework density 18.321171
#
# number of rings (size 3 to 8) (size 9 to 14) (size 15 to 20)
#    0.000    3.000    0.000    3.500    0.000    4.333 
#    0.000    1.667    0.000    1.500    0.000    9.333 
#    0.000    0.000    0.000    0.000    0.000    0.000 
#
# Total GULP energy -594742.922490 kJ/mol
# GULP energy per Si atom -12390.477552 kJ/mol
# Density = 1.827947 g / cm^3
# Si number density = 18.321171 Si / 1000 Ang^3
#
#
#
# Elastic Constant Matrix: (Units=GPa)
#
#
# Indices 1 2 3 4 5 6 
#
# 1 12.1906 13.7928 6.5596 0.0000 0.0000 0.0000
# 2 13.7928 71.4089 64.2250 0.0000 0.0000 0.0000
# 3 6.5596 64.2250 146.4191 0.0000 0.0000 0.0000
# 4 0.0000 0.0000 0.0000 -195.2483 0.0000 0.0000
# 5 0.0000 0.0000 0.0000 0.0000 47.9109 0.0000
# 6 0.0000 0.0000 0.0000 0.0000 0.0000 20.2679
#
#
#
# Elastic Compliance Matrix: (Units=1/GPa)
#
#
# Indices 1 2 3 4 5 6 
#
# 1 0.109397 -0.027618 0.007213 0.000000 0.000000 0.000000
# 2 -0.027618 0.030100 -0.011966 0.000000 0.000000 0.000000
# 3 0.007213 -0.011966 0.011755 0.000000 0.000000 0.000000
# 4 0.000000 0.000000 0.000000 -0.005122 0.000000 0.000000
# 5 0.000000 0.000000 0.000000 0.000000 0.020872 0.000000
# 6 0.000000 0.000000 0.000000 0.000000 0.000000 0.049339
#
#
# Mechanical properties :
#
#
# Convention : Reuss Voigt Hill
#
# Bulk Modulus (GPa) = 11.55913 44.35260 27.95586
# Shear Modulus (GPa) = 16.13316 -15.71781 0.20767
#
# Velocity S-wave (km/s) = 2.97067 -2.93218 0.33704
# Velocity P-wave (km/s) = 4.25316 3.57734 3.92980
#
# Compressibility (1/GPa) = 0.08651173
#
# Stress axis : x y z
#
# Youngs Moduli (GPa) = 9.14101 33.22210 85.06828
#
# Poissons Ratio (x) = 0.91753 -0.61362
# Poissons Ratio (y) = 0.25246 1.01792
# Poissons Ratio (z) = -0.06594 0.39753
#
# Static dielectric constant tensor:
#      x y z
#    x 3.011810 0.000000 0.000000 
#    y 0.000000 3.228740 0.000000 
#    z 0.000000 0.000000 3.862100 
# 
# 
# High freq. dielectric constant tensor:
#      x y z
#    x 1.671890 0.000000 0.000000 
#    y 0.000000 1.681880 0.000000 
#    z 0.000000 0.000000 1.736270 
# 
# From -- ./inp_files/13798.got.cif
#   From: 2010.03.12/outbox.cif.g09.slc.cpg/sg47_7_cif.got.tgz:13798.got - 2010.04.14 03:12:58.
