data_PCOD8197747
_publ_section_title
;
Structure prediction by ZEFSAII (Michael W. Deem and Ramdas Pophale) SiO2 
 PCOD8197747
Probable space group: P M M M
;
_chemical_formula_sum "Si O2"
_cell_formula_units_Z 48
_cell_length_a 9.072570
_cell_length_b 9.252467
_cell_length_c 30.483163
_cell_angle_alpha 90.000000
_cell_angle_beta 90.000000
_cell_angle_gamma 90.000000
_cell_volume 2558.868104
_symmetry_space_group_name_H-M "P M M M"
_symmetry_group_IT_number 47
_symmetry_cell_setting 'orthorhombic'
loop_
_space_group_symop_operation_xyz
x,y,z
-x,-y,z
x,-y,-z
-x,y,-z
-x,-y,-z
x,y,-z
-x,y,z
x,-y,z
loop_
_atom_site_type_symbol
_atom_site_label
_atom_site_fract_x
_atom_site_fract_y
_atom_site_fract_z
Si Si1 0.333385 0.172050 0.500000
Si Si2 0.329934 0.666849 0.760502
Si Si3 0.833830 0.328325 0.000000
Si Si4 0.666481 0.668018 0.659475
Si Si5 0.672747 0.331692 0.087045
Si Si6 0.829179 0.832375 0.414238
Si Si7 0.170921 0.830117 0.834750
O O1 0.500000 0.228375 0.500000
O O2 0.254876 0.232932 0.456432
O O3 0.322776 0.000000 0.500000
O O4 0.500000 0.701273 0.771644
O O5 0.296296 0.500000 0.771513
O O6 0.295918 0.700443 0.709918
O O7 0.223084 0.768515 0.788208
O O8 0.750178 0.271884 0.956887
O O9 0.833040 0.500000 0.000000
O O10 0.000000 0.266963 0.000000
O O11 0.500000 0.718255 0.648923
O O12 0.684498 0.500000 0.649350
O O13 0.780036 0.754483 0.629907
O O14 0.500000 0.304809 0.082176
O O15 0.708410 0.500000 0.094805
O O16 0.733455 0.242666 0.127578
O O17 0.000000 0.804515 0.422183
O O18 0.792086 0.000000 0.408413
O O19 0.000000 0.792388 0.841885
O O20 0.199438 0.000000 0.835410
#
# Coordination Sequence:
#
# PCOD8197747 Si02
#       7
#     4   8   4   8   8   8   8
#     4   9  17  31  52  75 100 135 178 218 256 303
#     4   9  19  37  59  80 102 133 175 219 262 311
#     4   9  17  31  54  83 112 141 174 214 260 309
#     4   9  19  36  56  78 105 136 172 215 261 310
#     4  10  20  35  57  83 109 139 178 221 262 308
#     4  10  20  33  51  77 108 139 172 213 260 309
#     4  11  24  38  52  76 110 143 176 217 264 313
#
# _framework density 18.758293999999999
#
# number of rings (size 3 to 8) (size 9 to 14) (size 15 to 20)
#    0.000    2.333    0.000    3.500    0.000    9.333 
#    0.000    5.833    0.000    5.000    0.000    0.000 
#    0.000    0.000    0.000    0.000    0.000    0.000 
#
# Total GULP energy -595333.166784 kJ/mol
# GULP energy per Si atom -12402.774308 kJ/mol
# Density = 1.871560 g / cm^3
# Si number density = 18.758294 Si / 1000 Ang^3
#
#
#
# Elastic Constant Matrix: (Units=GPa)
#
#
# Indices 1 2 3 4 5 6 
#
# 1 100.6806 48.7857 64.7367 0.0000 0.0000 0.0000
# 2 48.7857 55.8753 48.9264 0.0000 0.0000 0.0000
# 3 64.7367 48.9264 125.9397 0.0000 0.0000 0.0000
# 4 0.0000 0.0000 0.0000 61.5492 0.0000 0.0000
# 5 0.0000 0.0000 0.0000 0.0000 33.7612 0.0000
# 6 0.0000 0.0000 0.0000 0.0000 0.0000 29.2046
#
#
#
# Elastic Compliance Matrix: (Units=1/GPa)
#
#
# Indices 1 2 3 4 5 6 
#
# 1 0.019138 -0.012270 -0.005071 0.000000 0.000000 0.000000
# 2 -0.012270 0.034990 -0.007286 0.000000 0.000000 0.000000
# 3 -0.005071 -0.007286 0.013378 0.000000 0.000000 0.000000
# 4 0.000000 0.000000 0.000000 0.016247 0.000000 0.000000
# 5 0.000000 0.000000 0.000000 0.000000 0.029620 0.000000
# 6 0.000000 0.000000 0.000000 0.000000 0.000000 0.034241
#
#
# Mechanical properties :
#
#
# Convention : Reuss Voigt Hill
#
# Bulk Modulus (GPa) = 54.78856 67.48812 61.13834
# Shear Modulus (GPa) = 24.63632 32.90611 28.77121
#
# Velocity S-wave (km/s) = 3.62796 4.19288 3.92061
# Velocity P-wave (km/s) = 6.84255 7.71338 7.29098
#
# Compressibility (1/GPa) = 0.01825198
#
# Stress axis : x y z
#
# Youngs Moduli (GPa) = 52.25089 28.57957 74.75162
#
# Poissons Ratio (x) = 0.35066 0.37907
# Poissons Ratio (y) = 0.64110 0.54466
# Poissons Ratio (z) = 0.26497 0.20824
#
# Static dielectric constant tensor:
#      x y z
#    x 3.506830 0.000000 0.000000 
#    y 0.000000 3.177280 0.000000 
#    z 0.000000 0.000000 3.557700 
# 
# 
# High freq. dielectric constant tensor:
#      x y z
#    x 1.737430 0.000000 0.000000 
#    y 0.000000 1.701310 0.000000 
#    z 0.000000 0.000000 1.743560 
# 
# From -- ./inp_files/34124.got.cif
#   From: 2010.03.12/outbox.cif.g09.slc.cpg/sg47_18_cif.got.tgz:34124.got - 2010.04.14 03:12:58.
