data_PCOD8197892
_publ_section_title
;
Structure prediction by ZEFSAII (Michael W. Deem and Ramdas Pophale) SiO2 
 PCOD8197892
Probable space group: P M M M
;
_chemical_formula_sum "Si O2"
_cell_formula_units_Z 64
_cell_length_a 15.436360
_cell_length_b 23.921137
_cell_length_c 9.383817
_cell_angle_alpha 90.000000
_cell_angle_beta 90.000000
_cell_angle_gamma 90.000000
_cell_volume 3465.023996
_symmetry_space_group_name_H-M "P M M M"
_symmetry_group_IT_number 47
_symmetry_cell_setting 'orthorhombic'
loop_
_space_group_symop_operation_xyz
x,y,z
-x,-y,z
x,-y,-z
-x,y,-z
-x,-y,-z
x,y,-z
-x,y,z
x,-y,z
loop_
_atom_site_type_symbol
_atom_site_label
_atom_site_fract_x
_atom_site_fract_y
_atom_site_fract_z
Si Si1 0.244379 0.760252 0.832414
Si Si2 0.242009 0.631407 0.831643
Si Si3 0.595541 0.165881 0.836437
Si Si4 0.352024 0.062802 0.665829
Si Si5 0.845537 0.059982 0.331512
Si Si6 0.100090 0.435866 0.665472
Si Si7 0.097111 0.177667 0.665553
Si Si8 0.595340 0.437164 0.169317
O O1 0.251477 0.695819 0.789809
O O2 0.331573 0.791349 0.778437
O O3 0.160610 0.784209 0.755119
O O4 0.231421 0.767914 0.000000
O O5 0.157675 0.605413 0.759029
O O6 0.328842 0.602159 0.770442
O O7 0.232251 0.622645 0.000000
O O8 0.500000 0.193547 0.819085
O O9 0.593151 0.107647 0.752427
O O10 0.615099 0.151830 0.000000
O O11 0.361729 0.076790 0.500000
O O12 0.253132 0.068623 0.716660
O O13 0.386114 0.000000 0.697206
O O14 0.850495 0.056068 0.500000
O O15 0.899890 0.113324 0.278038
O O16 0.880212 0.000000 0.269720
O O17 0.119579 0.424964 0.500000
O O18 0.121575 0.500000 0.705209
O O19 0.000000 0.422808 0.699650
O O20 0.124626 0.180265 0.500000
O O21 0.000000 0.200269 0.687784
O O22 0.500000 0.416810 0.222386
O O23 0.612587 0.500000 0.224232
O O24 0.596816 0.435854 0.000000
#
# Coordination Sequence:
#
# PCOD8197892 Si02
#       8
#     8   8   8   8   8   8   8   8
#     4  10  22  38  52  71 103 140 175 215 260 298
#     4  10  20  33  53  79 104 135 177 218 253 294
#     4  10  21  36  53  73 100 137 178 216 258 310
#     4   9  17  31  53  78 102 129 163 209 265 318
#     4   8  14  27  49  76 102 124 152 200 258 309
#     4   9  19  36  56  79 109 142 172 205 252 307
#     4  10  20  34  55  79 100 129 170 212 255 307
#     4   8  14  26  47  77 108 131 155 197 252 301
#
# _framework density 18.470289999999999
#
# number of rings (size 3 to 8) (size 9 to 14) (size 15 to 20)
#    0.000    2.750    1.250    1.875    0.000    3.750 
#    0.000    8.125    0.000    0.750    0.000    4.375 
#    0.000    0.000    0.000    0.000    0.000    0.000 
#
# Total GULP energy -793285.871078 kJ/mol
# GULP energy per Si atom -12395.091736 kJ/mol
# Density = 1.842825 g / cm^3
# Si number density = 18.470290 Si / 1000 Ang^3
#
#
#
# Elastic Constant Matrix: (Units=GPa)
#
#
# Indices 1 2 3 4 5 6 
#
# 1 122.8802 78.1261 36.1802 0.0000 0.0000 0.0000
# 2 78.1261 134.8149 42.8568 0.0000 0.0000 0.0000
# 3 36.1802 42.8568 33.1289 0.0000 0.0000 0.0000
# 4 0.0000 0.0000 0.0000 26.2800 0.0000 0.0000
# 5 0.0000 0.0000 0.0000 0.0000 19.3424 0.0000
# 6 0.0000 0.0000 0.0000 0.0000 0.0000 14.5120
#
#
#
# Elastic Compliance Matrix: (Units=1/GPa)
#
#
# Indices 1 2 3 4 5 6 
#
# 1 0.014083 -0.005557 -0.008191 0.000000 0.000000 0.000000
# 2 -0.005557 0.014792 -0.013066 0.000000 0.000000 0.000000
# 3 -0.008191 -0.013066 0.056033 0.000000 0.000000 0.000000
# 4 0.000000 0.000000 0.000000 0.038052 0.000000 0.000000
# 5 0.000000 0.000000 0.000000 0.000000 0.051700 0.000000
# 6 0.000000 0.000000 0.000000 0.000000 0.000000 0.068908
#
#
# Mechanical properties :
#
#
# Convention : Reuss Voigt Hill
#
# Bulk Modulus (GPa) = 31.96998 67.23889 49.60443
# Shear Modulus (GPa) = 16.25371 20.93761 18.59566
#
# Velocity S-wave (km/s) = 2.96968 3.37053 3.17643
# Velocity P-wave (km/s) = 5.39492 7.18541 6.35355
#
# Compressibility (1/GPa) = 0.03127935
#
# Stress axis : x y z
#
# Youngs Moduli (GPa) = 71.00753 67.60585 17.84670
#
# Poissons Ratio (x) = 0.37571 0.14618
# Poissons Ratio (y) = 0.39461 0.23318
# Poissons Ratio (z) = 0.58162 0.88332
#
# Static dielectric constant tensor:
#      x y z
#    x 3.518330 0.000000 0.000000 
#    y 0.000000 3.328740 0.000000 
#    z 0.000000 0.000000 3.017880 
# 
# 
# High freq. dielectric constant tensor:
#      x y z
#    x 1.724050 0.000000 0.000000 
#    y 0.000000 1.717640 0.000000 
#    z 0.000000 0.000000 1.676680 
# 
# From -- ./inp_files/7822.got.cif
#   From: 2010.03.12/outbox.cif.g09.slc.cpg/sg47_4_cif.got.tgz:7822.got - 2010.04.14 03:12:58.
