data_PCOD8197228
_publ_section_title
;
Structure prediction by ZEFSAII (Michael W. Deem and Ramdas Pophale) SiO2 
 PCOD8197228
Probable space group: P M M M
;
_chemical_formula_sum "Si O2"
_cell_formula_units_Z 48
_cell_length_a 13.574748
_cell_length_b 13.604967
_cell_length_c 13.594937
_cell_angle_alpha 90.000000
_cell_angle_beta 90.000000
_cell_angle_gamma 90.000000
_cell_volume 2510.767326
_symmetry_space_group_name_H-M "P M M M"
_symmetry_group_IT_number 47
_symmetry_cell_setting 'orthorhombic'
loop_
_space_group_symop_operation_xyz
x,y,z
-x,-y,z
x,-y,-z
-x,y,-z
-x,-y,-z
x,y,-z
-x,y,z
x,-y,z
loop_
_atom_site_type_symbol
_atom_site_label
_atom_site_fract_x
_atom_site_fract_y
_atom_site_fract_z
Si Si1 0.383670 0.107048 0.609594
Si Si2 0.614549 0.298874 0.721045
Si Si3 0.116407 0.500000 0.891276
Si Si4 0.389062 0.000000 0.884290
Si Si5 0.714372 0.797909 0.883420
Si Si6 0.114724 0.698555 0.785425
Si Si7 0.782779 0.612122 0.612717
O O1 0.338672 0.116233 0.500000
O O2 0.500000 0.115303 0.602162
O O3 0.345596 0.195978 0.675566
O O4 0.354046 0.000000 0.655381
O O5 0.500000 0.321687 0.708151
O O6 0.644477 0.287597 0.835979
O O7 0.674771 0.383041 0.664085
O O8 0.151058 0.597424 0.835645
O O9 0.000000 0.500000 0.897884
O O10 0.163418 0.500000 0.000000
O O11 0.329171 0.096439 0.852169
O O12 0.500000 0.000000 0.836501
O O13 0.402358 0.000000 0.000000
O O14 0.824323 0.786414 0.837504
O O15 0.717113 0.783179 0.000000
O O16 0.141378 0.684223 0.670189
O O17 0.000000 0.722177 0.799013
O O18 0.776457 0.647605 0.500000
O O19 0.820377 0.500000 0.617989
#
# Coordination Sequence:
#
# PCOD8197228 Si02
#       7
#     8   8   4   4   8   8   8
#     4   8  14  25  42  66  95 126 165 215 266 311
#     4  10  20  32  50  74 105 145 187 229 272 323
#     4   9  16  28  51  79 104 135 175 219 271 327
#     4   9  18  34  55  79 110 149 189 225 267 319
#     4  10  21  35  53  81 113 145 186 231 275 325
#     4  10  20  36  57  82 109 140 181 228 280 336
#     4  10  21  36  54  79 110 141 178 226 276 331
#
# _framework density 19.117660999999998
#
# number of rings (size 3 to 8) (size 9 to 14) (size 15 to 20)
#    0.000    2.500    0.833    2.000    1.167    3.667 
#    0.000    2.083    0.000    1.500    0.000    2.333 
#    0.000    3.000    0.000    0.000    0.000    0.000 
#
# Total GULP energy -594888.687976 kJ/mol
# GULP energy per Si atom -12393.514333 kJ/mol
# Density = 1.907415 g / cm^3
# Si number density = 19.117661 Si / 1000 Ang^3
#
#
#
# Elastic Constant Matrix: (Units=GPa)
#
#
# Indices 1 2 3 4 5 6 
#
# 1 107.7601 35.7853 31.0875 0.0000 0.0000 0.0000
# 2 35.7853 62.4680 28.6264 0.0000 0.0000 0.0000
# 3 31.0875 28.6264 105.3172 0.0000 0.0000 0.0000
# 4 0.0000 0.0000 0.0000 27.7610 0.0000 0.0000
# 5 0.0000 0.0000 0.0000 0.0000 20.2613 0.0000
# 6 0.0000 0.0000 0.0000 0.0000 0.0000 26.5081
#
#
#
# Elastic Compliance Matrix: (Units=1/GPa)
#
#
# Indices 1 2 3 4 5 6 
#
# 1 0.011776 -0.005886 -0.001876 0.000000 0.000000 0.000000
# 2 -0.005886 0.021228 -0.004033 0.000000 0.000000 0.000000
# 3 -0.001876 -0.004033 0.011145 0.000000 0.000000 0.000000
# 4 0.000000 0.000000 0.000000 0.036022 0.000000 0.000000
# 5 0.000000 0.000000 0.000000 0.000000 0.049355 0.000000
# 6 0.000000 0.000000 0.000000 0.000000 0.000000 0.037724
#
#
# Mechanical properties :
#
#
# Convention : Reuss Voigt Hill
#
# Bulk Modulus (GPa) = 48.63970 51.83821 50.23895
# Shear Modulus (GPa) = 25.29176 26.90914 26.10045
#
# Velocity S-wave (km/s) = 3.64119 3.75581 3.69894
# Velocity P-wave (km/s) = 6.57078 6.78103 6.67673
#
# Compressibility (1/GPa) = 0.02055934
#
# Stress axis : x y z
#
# Youngs Moduli (GPa) = 84.92004 47.10742 89.72643
#
# Poissons Ratio (x) = 0.27728 0.16833
# Poissons Ratio (y) = 0.49985 0.36183
# Poissons Ratio (z) = 0.15931 0.18996
#
# Static dielectric constant tensor:
#      x y z
#    x 3.209550 0.000000 0.000000 
#    y 0.000000 3.558360 0.000000 
#    z 0.000000 0.000000 3.787490 
# 
# 
# High freq. dielectric constant tensor:
#      x y z
#    x 1.712370 0.000000 0.000000 
#    y 0.000000 1.725320 0.000000 
#    z 0.000000 0.000000 1.763110 
# 
# From -- ./inp_files/23615.got.cif
#   From: 2010.03.12/outbox.cif.g09.slc.cpg/sg47_12_cif.got.tgz:23615.got - 2010.04.14 03:12:58.
