data_PCOD8197838
_publ_section_title
;
Structure prediction by ZEFSAII (Michael W. Deem and Ramdas Pophale) SiO2 
 PCOD8197838
Probable space group: P M M M
;
_chemical_formula_sum "Si O2"
_cell_formula_units_Z 44
_cell_length_a 9.290997
_cell_length_b 8.682543
_cell_length_c 28.239020
_cell_angle_alpha 90.000000
_cell_angle_beta 90.000000
_cell_angle_gamma 90.000000
_cell_volume 2278.027086
_symmetry_space_group_name_H-M "P M M M"
_symmetry_group_IT_number 47
_symmetry_cell_setting 'orthorhombic'
loop_
_space_group_symop_operation_xyz
x,y,z
-x,-y,z
x,-y,-z
-x,y,-z
-x,-y,-z
x,y,-z
-x,y,z
x,-y,z
loop_
_atom_site_type_symbol
_atom_site_label
_atom_site_fract_x
_atom_site_fract_y
_atom_site_fract_z
Si Si1 0.838827 0.317384 0.359763
Si Si2 0.662435 0.183252 0.000000
Si Si3 0.833553 0.321076 0.810342
Si Si4 0.338481 0.316809 0.447676
Si Si5 0.333952 0.179683 0.726013
Si Si6 0.166300 0.822248 0.090578
O O1 0.843924 0.500000 0.362400
O O2 0.766956 0.248782 0.407581
O O3 0.746748 0.271837 0.314646
O O4 0.000000 0.249743 0.355465
O O5 0.741810 0.244557 0.046928
O O6 0.500000 0.245776 0.000000
O O7 0.668824 0.000000 0.000000
O O8 0.802502 0.500000 0.801626
O O9 0.734650 0.220495 0.776301
O O10 0.792513 0.278020 0.863849
O O11 0.000000 0.280721 0.800129
O O12 0.287072 0.262176 0.500000
O O13 0.500000 0.255939 0.437819
O O14 0.338272 0.500000 0.445632
O O15 0.500000 0.230129 0.726252
O O16 0.316239 0.000000 0.716307
O O17 0.000000 0.803039 0.076924
O O18 0.203452 0.000000 0.101380
#
# Coordination Sequence:
#
# PCOD8197838 Si02
#       6
#     8   4   8   8   8   8
#     4  10  20  33  52  79 108 138 173 214 260 308
#     4   9  17  29  48  75 104 134 172 217 256 293
#     4  10  21  37  57  81 107 135 170 213 262 314
#     4   8  14  26  46  73 105 140 175 210 251 301
#     4  11  24  39  55  76 102 135 175 216 260 312
#     4   9  17  31  52  76 103 137 174 210 252 303
#
# _framework density 19.314959000000002
#
# number of rings (size 3 to 8) (size 9 to 14) (size 15 to 20)
#    0.000    2.455    0.000    3.000    0.000    8.000 
#    0.000    4.091    0.000    3.273    0.000    3.818 
#    0.000    0.000    0.000    0.000    0.000    0.000 
#
# Total GULP energy -545630.040103 kJ/mol
# GULP energy per Si atom -12400.682730 kJ/mol
# Density = 1.927100 g / cm^3
# Si number density = 19.314959 Si / 1000 Ang^3
#
#
#
# Elastic Constant Matrix: (Units=GPa)
#
#
# Indices 1 2 3 4 5 6 
#
# 1 127.7225 18.3075 79.4609 0.0000 0.0000 0.0000
# 2 18.3075 18.2460 9.5974 0.0000 0.0000 0.0000
# 3 79.4609 9.5974 134.8537 0.0000 0.0000 0.0000
# 4 0.0000 0.0000 0.0000 -7.2045 0.0000 0.0000
# 5 0.0000 0.0000 0.0000 0.0000 36.8062 0.0000
# 6 0.0000 0.0000 0.0000 0.0000 0.0000 19.2559
#
#
#
# Elastic Compliance Matrix: (Units=1/GPa)
#
#
# Indices 1 2 3 4 5 6 
#
# 1 0.013930 -0.010035 -0.007494 0.000000 0.000000 0.000000
# 2 -0.010035 0.064168 0.001346 0.000000 0.000000 0.000000
# 3 -0.007494 0.001346 0.011735 0.000000 0.000000 0.000000
# 4 0.000000 0.000000 0.000000 -0.138803 0.000000 0.000000
# 5 0.000000 0.000000 0.000000 0.000000 0.027169 0.000000
# 6 0.000000 0.000000 0.000000 0.000000 0.000000 0.051932
#
#
# Mechanical properties :
#
#
# Convention : Reuss Voigt Hill
#
# Bulk Modulus (GPa) = 17.40118 55.06154 36.23136
# Shear Modulus (GPa) = 61.23453 21.33529 41.28491
#
# Velocity S-wave (km/s) = 5.63666 3.32716 4.62828
# Velocity P-wave (km/s) = 7.16878 6.58248 6.88188
#
# Compressibility (1/GPa) = 0.05746736
#
# Stress axis : x y z
#
# Youngs Moduli (GPa) = 71.78639 15.58420 85.21257
#
# Poissons Ratio (x) = 0.15639 0.63858
# Poissons Ratio (y) = 0.72040 -0.11474
# Poissons Ratio (z) = 0.53797 -0.02098
#
# Static dielectric constant tensor:
#      x y z
#    x 3.737560 0.000000 0.000000 
#    y 0.000000 3.161730 0.000000 
#    z 0.000000 0.000000 3.720950 
# 
# 
# High freq. dielectric constant tensor:
#      x y z
#    x 1.753800 0.000000 0.000000 
#    y 0.000000 1.715020 0.000000 
#    z 0.000000 0.000000 1.767610 
# 
# From -- ./inp_files/13688.got.cif
#   From: 2010.03.12/outbox.cif.g09.slc.cpg/sg47_7_cif.got.tgz:13688.got - 2010.04.14 03:12:58.
