data_PCOD8197481
_publ_section_title
;
Structure prediction by ZEFSAII (Michael W. Deem and Ramdas Pophale) SiO2 
 PCOD8197481
Probable space group: P M M M
;
_chemical_formula_sum "Si O2"
_cell_formula_units_Z 52
_cell_length_a 9.123436
_cell_length_b 15.898832
_cell_length_c 19.232334
_cell_angle_alpha 90.000000
_cell_angle_beta 90.000000
_cell_angle_gamma 90.000000
_cell_volume 2789.688054
_symmetry_space_group_name_H-M "P M M M"
_symmetry_group_IT_number 47
_symmetry_cell_setting 'orthorhombic'
loop_
_space_group_symop_operation_xyz
x,y,z
-x,-y,z
x,-y,-z
-x,y,-z
-x,-y,-z
x,y,-z
-x,y,z
x,-y,z
loop_
_atom_site_type_symbol
_atom_site_label
_atom_site_fract_x
_atom_site_fract_y
_atom_site_fract_z
Si Si1 0.164425 0.000000 0.417674
Si Si2 0.174230 0.752102 0.300953
Si Si3 0.827295 0.408363 0.216349
Si Si4 0.831450 0.907135 0.206277
Si Si5 0.671228 0.847439 0.921952
Si Si6 0.831592 0.674106 0.922885
Si Si7 0.328298 0.832498 0.580701
O O1 0.251300 0.917911 0.392992
O O2 0.154081 0.000000 0.500000
O O3 0.000000 0.000000 0.385065
O O4 0.233544 0.667100 0.264275
O O5 0.225996 0.833055 0.256274
O O6 0.255938 0.756961 0.375241
O O7 0.000000 0.751420 0.312260
O O8 0.761819 0.500000 0.237931
O O9 0.787308 0.393778 0.135316
O O10 0.000000 0.410132 0.225908
O O11 0.745405 0.908698 0.133515
O O12 0.000000 0.889866 0.188767
O O13 0.810027 0.000000 0.240992
O O14 0.500000 0.845840 0.907520
O O15 0.730918 0.754093 0.911353
O O16 0.705975 0.879934 0.000000
O O17 0.000000 0.702737 0.912354
O O18 0.808193 0.635045 0.000000
O O19 0.296629 0.814245 0.500000
O O20 0.500000 0.840040 0.595479
#
# Coordination Sequence:
#
# PCOD8197481 Si02
#       7
#     4   8   8   8   8   8   8
#     4   9  17  31  53  81 111 143 178 213 252 303
#     4  10  20  35  55  79 107 139 175 216 265 320
#     4   9  17  31  53  81 109 135 169 218 271 318
#     4  10  21  36  53  75 103 137 178 220 262 310
#     4  10  20  33  50  72 101 138 180 224 266 308
#     4   9  16  29  51  76 103 135 172 214 263 318
#     4  10  21  36  54  79 111 144 179 219 262 311
#
# _framework density 18.640077000000002
#
# number of rings (size 3 to 8) (size 9 to 14) (size 15 to 20)
#    0.000    2.385    1.538    1.154    1.077    4.308 
#    0.000    3.077    0.000    2.308    0.000    5.385 
#    0.000    0.000    0.000    0.000    0.000    0.000 
#
# Total GULP energy -644632.472583 kJ/mol
# GULP energy per Si atom -12396.778319 kJ/mol
# Density = 1.859765 g / cm^3
# Si number density = 18.640077 Si / 1000 Ang^3
#
#
#
# Elastic Constant Matrix: (Units=GPa)
#
#
# Indices 1 2 3 4 5 6 
#
# 1 56.9295 29.0845 38.1705 0.0000 0.0000 0.0000
# 2 29.0845 130.3985 63.9174 0.0000 0.0000 0.0000
# 3 38.1705 63.9174 98.2380 0.0000 0.0000 0.0000
# 4 0.0000 0.0000 0.0000 21.6687 0.0000 0.0000
# 5 0.0000 0.0000 0.0000 0.0000 26.0163 0.0000
# 6 0.0000 0.0000 0.0000 0.0000 0.0000 10.0633
#
#
#
# Elastic Compliance Matrix: (Units=1/GPa)
#
#
# Indices 1 2 3 4 5 6 
#
# 1 0.023869 -0.001142 -0.008531 0.000000 0.000000 0.000000
# 2 -0.001142 0.011314 -0.006918 0.000000 0.000000 0.000000
# 3 -0.008531 -0.006918 0.017995 0.000000 0.000000 0.000000
# 4 0.000000 0.000000 0.000000 0.046150 0.000000 0.000000
# 5 0.000000 0.000000 0.000000 0.000000 0.038437 0.000000
# 6 0.000000 0.000000 0.000000 0.000000 0.000000 0.099371
#
#
# Mechanical properties :
#
#
# Convention : Reuss Voigt Hill
#
# Bulk Modulus (GPa) = 50.00904 60.87897 55.44400
# Shear Modulus (GPa) = 18.05154 21.84257 19.94706
#
# Velocity S-wave (km/s) = 3.11533 3.42688 3.27481
# Velocity P-wave (km/s) = 6.31090 6.95623 6.64141
#
# Compressibility (1/GPa) = 0.01999638
#
# Stress axis : x y z
#
# Youngs Moduli (GPa) = 41.89499 88.38243 55.57020
#
# Poissons Ratio (x) = 0.10094 0.47409
# Poissons Ratio (y) = 0.04785 0.38443
# Poissons Ratio (z) = 0.35742 0.61142
#
# Static dielectric constant tensor:
#      x y z
#    x 3.252330 0.000000 0.000000 
#    y 0.000000 3.484710 0.000000 
#    z 0.000000 0.000000 3.500400 
# 
# 
# High freq. dielectric constant tensor:
#      x y z
#    x 1.703300 0.000000 0.000000 
#    y 0.000000 1.704230 0.000000 
#    z 0.000000 0.000000 1.724350 
# 
# From -- ./inp_files/21475.got.cif
#   From: 2010.03.12/outbox.cif.g09.slc.cpg/sg47_11_cif.got.tgz:21475.got - 2010.04.14 03:12:58.
