data_PCOD8197041
_publ_section_title
;
Structure prediction by ZEFSAII (Michael W. Deem and Ramdas Pophale) SiO2 
 PCOD8197041
Probable space group: P M M M
;
_chemical_formula_sum "Si O2"
_cell_formula_units_Z 52
_cell_length_a 8.280490
_cell_length_b 35.016893
_cell_length_c 9.854119
_cell_angle_alpha 90.000000
_cell_angle_beta 90.000000
_cell_angle_gamma 90.000000
_cell_volume 2857.271101
_symmetry_space_group_name_H-M "P M M M"
_symmetry_group_IT_number 47
_symmetry_cell_setting 'orthorhombic'
loop_
_space_group_symop_operation_xyz
x,y,z
-x,-y,z
x,-y,-z
-x,y,-z
-x,-y,-z
x,y,-z
-x,y,z
x,-y,z
loop_
_atom_site_type_symbol
_atom_site_label
_atom_site_fract_x
_atom_site_fract_y
_atom_site_fract_z
Si Si1 0.813895 0.826355 0.153451
Si Si2 0.816764 0.685283 0.659217
Si Si3 0.307866 0.542481 0.151629
Si Si4 0.313240 0.763703 0.348649
Si Si5 0.819845 0.913561 0.839214
Si Si6 0.500000 0.043610 0.838539
Si Si7 0.311505 0.393457 0.348670
O O1 0.714583 0.800036 0.254492
O O2 0.790403 0.869791 0.202512
O O3 0.000000 0.814412 0.159823
O O4 0.747963 0.821427 0.000000
O O5 0.784258 0.688825 0.500000
O O6 0.761718 0.725783 0.722103
O O7 0.719930 0.648537 0.715323
O O8 0.000000 0.677877 0.697942
O O9 0.500000 0.545297 0.150631
O O10 0.254412 0.500000 0.198738
O O11 0.232681 0.573870 0.253759
O O12 0.242301 0.550619 0.000000
O O13 0.240009 0.771307 0.500000
O O14 0.500000 0.755761 0.362093
O O15 0.666805 0.937552 0.780581
O O16 0.000000 0.926844 0.785350
O O17 0.823774 0.917485 0.000000
O O18 0.500000 0.000000 0.790270
O O19 0.500000 0.047409 0.000000
O O20 0.234117 0.396269 0.500000
O O21 0.500000 0.400631 0.358354
#
# Coordination Sequence:
#
# PCOD8197041 Si02
#       7
#     8   8   8   8   8   4   8
#     4   9  18  32  49  69  94 127 164 197 236 288
#     4   9  17  30  47  64  86 119 152 182 224 275
#     4   8  14  25  41  62  88 115 140 169 212 264
#     4  10  20  32  48  72  98 123 156 198 240 283
#     4   8  15  27  41  60  89 123 158 198 243 292
#     4   9  16  24  38  62  89 123 165 201 241 295
#     4   9  16  26  43  66  87 107 138 181 220 256
#
# _framework density 18.199183999999999
#
# number of rings (size 3 to 8) (size 9 to 14) (size 15 to 20)
#    0.000    3.154    0.000    2.308    1.077    3.692 
#    0.000    3.846    0.000    3.692    0.000    3.231 
#    0.000    1.231    0.000    3.385    0.000    3.385 
#
# Total GULP energy -644338.400392 kJ/mol
# GULP energy per Si atom -12391.123084 kJ/mol
# Density = 1.815776 g / cm^3
# Si number density = 18.199184 Si / 1000 Ang^3
#
#
#
# Elastic Constant Matrix: (Units=GPa)
#
#
# Indices 1 2 3 4 5 6 
#
# 1 64.5699 46.6148 17.0522 0.0000 0.0000 0.0000
# 2 46.6148 136.6112 45.6245 0.0000 0.0000 0.0000
# 3 17.0522 45.6245 46.1371 0.0000 0.0000 0.0000
# 4 0.0000 0.0000 0.0000 15.0237 0.0000 0.0000
# 5 0.0000 0.0000 0.0000 0.0000 12.3476 0.0000
# 6 0.0000 0.0000 0.0000 0.0000 0.0000 9.5177
#
#
#
# Elastic Compliance Matrix: (Units=1/GPa)
#
#
# Indices 1 2 3 4 5 6 
#
# 1 0.020579 -0.006692 -0.000988 0.000000 0.000000 0.000000
# 2 -0.006692 0.013106 -0.010487 0.000000 0.000000 0.000000
# 3 -0.000988 -0.010487 0.032410 0.000000 0.000000 0.000000
# 4 0.000000 0.000000 0.000000 0.066562 0.000000 0.000000
# 5 0.000000 0.000000 0.000000 0.000000 0.080988 0.000000
# 6 0.000000 0.000000 0.000000 0.000000 0.000000 0.105067
#
#
# Mechanical properties :
#
#
# Convention : Reuss Voigt Hill
#
# Bulk Modulus (GPa) = 33.60132 51.76682 42.68407
# Shear Modulus (GPa) = 13.69990 16.57958 15.13974
#
# Velocity S-wave (km/s) = 2.74665 3.02156 2.88738
# Velocity P-wave (km/s) = 5.34434 6.37805 5.88394
#
# Compressibility (1/GPa) = 0.02976073
#
# Stress axis : x y z
#
# Youngs Moduli (GPa) = 48.59263 76.30178 30.85450
#
# Poissons Ratio (x) = 0.51061 0.03050
# Poissons Ratio (y) = 0.32518 0.32357
# Poissons Ratio (z) = 0.04803 0.80017
#
# Static dielectric constant tensor:
#      x y z
#    x 3.317270 0.000000 0.000000 
#    y 0.000000 3.516360 0.000000 
#    z 0.000000 0.000000 3.106640 
# 
# 
# High freq. dielectric constant tensor:
#      x y z
#    x 1.695340 0.000000 0.000000 
#    y 0.000000 1.713180 0.000000 
#    z 0.000000 0.000000 1.649970 
# 
# From -- ./inp_files/15472.got.cif
#   From: 2010.03.12/outbox.cif.g09.slc.cpg/sg47_8_cif.got.tgz:15472.got - 2010.04.14 03:12:58.
