data_PCOD8197595
_publ_section_title
;
Structure prediction by ZEFSAII (Michael W. Deem and Ramdas Pophale) SiO2 
 PCOD8197595
Probable space group: P M M M
;
_chemical_formula_sum "Si O2"
_cell_formula_units_Z 48
_cell_length_a 9.225318
_cell_length_b 31.195648
_cell_length_c 9.027543
_cell_angle_alpha 90.000000
_cell_angle_beta 90.000000
_cell_angle_gamma 90.000000
_cell_volume 2598.034551
_symmetry_space_group_name_H-M "P M M M"
_symmetry_group_IT_number 47
_symmetry_cell_setting 'orthorhombic'
loop_
_space_group_symop_operation_xyz
x,y,z
-x,-y,z
x,-y,-z
-x,y,-z
-x,-y,-z
x,y,-z
-x,y,z
x,-y,z
loop_
_atom_site_type_symbol
_atom_site_label
_atom_site_fract_x
_atom_site_fract_y
_atom_site_fract_z
Si Si1 0.327760 0.500000 0.667089
Si Si2 0.336372 0.000000 0.176266
Si Si3 0.171194 0.337344 0.670819
Si Si4 0.172487 0.748120 0.833059
Si Si5 0.831768 0.916962 0.826825
Si Si6 0.669836 0.585320 0.827372
Si Si7 0.827318 0.168342 0.667072
O O1 0.500000 0.500000 0.667607
O O2 0.266428 0.500000 0.500000
O O3 0.270715 0.457940 0.751324
O O4 0.255407 0.042255 0.235613
O O5 0.500000 0.000000 0.236628
O O6 0.331325 0.000000 0.000000
O O7 0.218225 0.338457 0.500000
O O8 0.226322 0.292779 0.740413
O O9 0.246871 0.375208 0.757909
O O10 0.000000 0.342396 0.689339
O O11 0.235084 0.790900 0.756139
O O12 0.000000 0.749830 0.834735
O O13 0.233531 0.745176 0.000000
O O14 0.771699 0.875105 0.743565
O O15 0.000000 0.925166 0.792752
O O16 0.804871 0.909692 0.000000
O O17 0.500000 0.591436 0.797662
O O18 0.705418 0.582397 0.000000
O O19 0.767978 0.170190 0.500000
O O20 0.000000 0.169507 0.669645
#
# Coordination Sequence:
#
# PCOD8197595 Si02
#       7
#     4   4   8   8   8   8   8
#     4   9  17  31  52  75  98 127 164 206 252 299
#     4   9  17  29  46  67  90 118 152 187 224 270
#     4  10  20  33  50  74 104 136 168 203 245 293
#     4   9  16  27  45  69  97 128 160 195 237 285
#     4   9  16  27  45  68  91 115 147 188 230 270
#     4  10  20  34  53  76 101 130 166 207 249 295
#     4   9  16  26  42  66  94 121 151 190 234 277
#
# _framework density 18.475505999999999
#
# number of rings (size 3 to 8) (size 9 to 14) (size 15 to 20)
#    0.000    2.667    0.000    2.500    0.000    8.000 
#    0.000    0.833    0.000    6.500    0.000    2.333 
#    0.000    0.000    0.000    0.000    0.000    0.000 
#
# Total GULP energy -595224.949689 kJ/mol
# GULP energy per Si atom -12400.519785 kJ/mol
# Density = 1.843346 g / cm^3
# Si number density = 18.475506 Si / 1000 Ang^3
#
#
#
# Elastic Constant Matrix: (Units=GPa)
#
#
# Indices 1 2 3 4 5 6 
#
# 1 28.8515 36.3079 23.2802 0.0000 0.0000 0.0000
# 2 36.3079 182.9590 65.4435 0.0000 0.0000 0.0000
# 3 23.2802 65.4435 106.5867 0.0000 0.0000 0.0000
# 4 0.0000 0.0000 0.0000 24.0568 0.0000 0.0000
# 5 0.0000 0.0000 0.0000 0.0000 15.9753 0.0000
# 6 0.0000 0.0000 0.0000 0.0000 0.0000 -10.1220
#
#
#
# Elastic Compliance Matrix: (Units=1/GPa)
#
#
# Indices 1 2 3 4 5 6 
#
# 1 0.049086 -0.007568 -0.006074 0.000000 0.000000 0.000000
# 2 -0.007568 0.008171 -0.003364 0.000000 0.000000 0.000000
# 3 -0.006074 -0.003364 0.012774 0.000000 0.000000 0.000000
# 4 0.000000 0.000000 0.000000 0.041568 0.000000 0.000000
# 5 0.000000 0.000000 0.000000 0.000000 0.062597 0.000000
# 6 0.000000 0.000000 0.000000 0.000000 0.000000 -0.098795
#
#
# Mechanical properties :
#
#
# Convention : Reuss Voigt Hill
#
# Bulk Modulus (GPa) = 27.76383 63.16224 45.46303
# Shear Modulus (GPa) = 41.17948 18.87305 30.02627
#
# Velocity S-wave (km/s) = 4.72621 3.19959 4.03574
# Velocity P-wave (km/s) = 6.69647 6.92178 6.81006
#
# Compressibility (1/GPa) = 0.03601809
#
# Stress axis : x y z
#
# Youngs Moduli (GPa) = 20.37252 122.38666 78.28343
#
# Poissons Ratio (x) = 0.92625 0.47551
# Poissons Ratio (y) = 0.15418 0.26333
# Poissons Ratio (z) = 0.12375 0.41169
#
# Static dielectric constant tensor:
#      x y z
#    x 2.932450 0.000000 0.000000 
#    y 0.000000 3.668620 0.000000 
#    z 0.000000 0.000000 3.504300 
# 
# 
# High freq. dielectric constant tensor:
#      x y z
#    x 1.659920 0.000000 0.000000 
#    y 0.000000 1.737210 0.000000 
#    z 0.000000 0.000000 1.721300 
# 
# From -- ./inp_files/2624.got.cif
#   From: 2010.03.12/outbox.cif.g09.slc.cpg/sg47_2_cif.got.tgz:2624.got - 2010.04.14 03:12:58.
