data_PCOD8197115
_publ_section_title
;
Structure prediction by ZEFSAII (Michael W. Deem and Ramdas Pophale) SiO2 
 PCOD8197115
Probable space group: P M M M
;
_chemical_formula_sum "Si O2"
_cell_formula_units_Z 48
_cell_length_a 8.955849
_cell_length_b 29.093890
_cell_length_c 10.127454
_cell_angle_alpha 90.000000
_cell_angle_beta 90.000000
_cell_angle_gamma 90.000000
_cell_volume 2638.814333
_symmetry_space_group_name_H-M "P M M M"
_symmetry_group_IT_number 47
_symmetry_cell_setting 'orthorhombic'
loop_
_space_group_symop_operation_xyz
x,y,z
-x,-y,z
x,-y,-z
-x,y,-z
-x,-y,-z
x,y,-z
-x,y,z
x,-y,z
loop_
_atom_site_type_symbol
_atom_site_label
_atom_site_fract_x
_atom_site_fract_y
_atom_site_fract_z
Si Si1 0.675610 0.640847 0.651279
Si Si2 0.170830 0.815200 0.847032
Si Si3 0.825205 0.054127 0.500000
Si Si4 0.167858 0.449809 0.656635
Si Si5 0.322949 0.098691 0.248160
Si Si6 0.830500 0.945683 0.000000
Si Si7 0.175454 0.710155 0.850515
O O1 0.730898 0.648233 0.500000
O O2 0.500000 0.642692 0.659083
O O3 0.727533 0.591281 0.707806
O O4 0.740134 0.680228 0.743242
O O5 0.276801 0.847705 0.760106
O O6 0.220834 0.762821 0.824140
O O7 0.000000 0.822001 0.802279
O O8 0.189122 0.828886 0.000000
O O9 0.747395 0.076318 0.624455
O O10 0.000000 0.065741 0.500000
O O11 0.796780 0.000000 0.500000
O O12 0.170870 0.450869 0.500000
O O13 0.223144 0.500000 0.709227
O O14 0.000000 0.440503 0.707412
O O15 0.500000 0.094457 0.252082
O O16 0.257707 0.071001 0.126427
O O17 0.000000 0.925907 0.000000
O O18 0.835120 0.000000 0.000000
O O19 0.000000 0.703294 0.832236
O O20 0.222010 0.696228 0.000000
#
# Coordination Sequence:
#
# PCOD8197115 Si02
#       7
#     8   8   4   8   8   4   8
#     4  10  20  32  48  76 112 146 178 219 272 327
#     4   9  18  36  61  84 109 143 185 229 271 326
#     4  11  25  45  65  83 111 155 195 223 266 333
#     4   8  14  26  46  71  99 135 179 225 270 317
#     4  12  24  38  60  90 119 146 180 230 284 327
#     4  11  23  39  61  87 115 151 191 227 266 321
#     4   9  19  36  58  81 103 138 186 229 269 319
#
# _framework density 18.189986000000001
#
# number of rings (size 3 to 8) (size 9 to 14) (size 15 to 20)
#    0.000    2.167    0.833    4.500    0.000    5.667 
#    1.500    3.333    0.000    0.500    0.000    3.500 
#    0.000    0.000    0.000    0.000    0.000    0.000 
#
# Total GULP energy -595116.720904 kJ/mol
# GULP energy per Si atom -12398.265019 kJ/mol
# Density = 1.814858 g / cm^3
# Si number density = 18.189986 Si / 1000 Ang^3
#
#
#
# Elastic Constant Matrix: (Units=GPa)
#
#
# Indices 1 2 3 4 5 6 
#
# 1 114.9580 75.4372 66.0614 0.0000 0.0000 0.0000
# 2 75.4372 131.5515 69.2736 0.0000 0.0000 0.0000
# 3 66.0614 69.2736 111.0977 0.0000 0.0000 0.0000
# 4 0.0000 0.0000 0.0000 28.0995 0.0000 0.0000
# 5 0.0000 0.0000 0.0000 0.0000 15.9200 0.0000
# 6 0.0000 0.0000 0.0000 0.0000 0.0000 5.3296
#
#
#
# Elastic Compliance Matrix: (Units=1/GPa)
#
#
# Indices 1 2 3 4 5 6 
#
# 1 0.016025 -0.006211 -0.005656 0.000000 0.000000 0.000000
# 2 -0.006211 0.013725 -0.004865 0.000000 0.000000 0.000000
# 3 -0.005656 -0.004865 0.015398 0.000000 0.000000 0.000000
# 4 0.000000 0.000000 0.000000 0.035588 0.000000 0.000000
# 5 0.000000 0.000000 0.000000 0.000000 0.062814 0.000000
# 6 0.000000 0.000000 0.000000 0.000000 0.000000 0.187633
#
#
# Mechanical properties :
#
#
# Convention : Reuss Voigt Hill
#
# Bulk Modulus (GPa) = 85.58780 86.57241 86.08010
# Shear Modulus (GPa) = 13.56704 19.65882 16.61293
#
# Velocity S-wave (km/s) = 2.73399 3.29104 3.02537
# Velocity P-wave (km/s) = 7.55782 7.88277 7.72200
#
# Compressibility (1/GPa) = 0.01168391
#
# Stress axis : x y z
#
# Youngs Moduli (GPa) = 62.40348 72.85991 64.94473
#
# Poissons Ratio (x) = 0.45252 0.36733
# Poissons Ratio (y) = 0.38758 0.31595
# Poissons Ratio (z) = 0.35295 0.35446
#
# Static dielectric constant tensor:
#      x y z
#    x 3.369790 0.000000 0.000000 
#    y 0.000000 3.733170 0.000000 
#    z 0.000000 0.000000 3.187020 
# 
# 
# High freq. dielectric constant tensor:
#      x y z
#    x 1.704410 0.000000 0.000000 
#    y 0.000000 1.721690 0.000000 
#    z 0.000000 0.000000 1.680600 
# 
# From -- ./inp_files/2741.got.cif
#   From: 2010.03.12/outbox.cif.g09.slc.cpg/sg47_2_cif.got.tgz:2741.got - 2010.04.14 03:12:58.
