data_PCOD8197649
_publ_section_title
;
Structure prediction by ZEFSAII (Michael W. Deem and Ramdas Pophale) SiO2 
 PCOD8197649
Probable space group: P M M M
;
_chemical_formula_sum "Si O2"
_cell_formula_units_Z 56
_cell_length_a 18.831754
_cell_length_b 18.476560
_cell_length_c 9.230068
_cell_angle_alpha 90.000000
_cell_angle_beta 90.000000
_cell_angle_gamma 90.000000
_cell_volume 3211.565542
_symmetry_space_group_name_H-M "P M M M"
_symmetry_group_IT_number 47
_symmetry_cell_setting 'orthorhombic'
loop_
_space_group_symop_operation_xyz
x,y,z
-x,-y,z
x,-y,-z
-x,y,-z
-x,-y,-z
x,y,-z
-x,y,z
x,-y,z
loop_
_atom_site_type_symbol
_atom_site_label
_atom_site_fract_x
_atom_site_fract_y
_atom_site_fract_z
Si Si1 0.289110 0.829343 0.668761
Si Si2 0.285566 0.584665 0.668518
Si Si3 0.213837 0.294965 0.171193
Si Si4 0.421891 0.414170 0.162280
Si Si5 0.150152 0.081491 0.332437
Si Si6 0.578848 0.080774 0.671846
Si Si7 0.079470 0.205072 0.832462
O O1 0.293476 0.806771 0.500000
O O2 0.272834 0.758971 0.764085
O O3 0.229472 0.889962 0.693877
O O4 0.362780 0.862576 0.729195
O O5 0.281026 0.603018 0.500000
O O6 0.274412 0.500000 0.699343
O O7 0.223795 0.626846 0.754502
O O8 0.362030 0.612828 0.726302
O O9 0.135122 0.267226 0.214215
O O10 0.224031 0.301723 0.000000
O O11 0.500000 0.384800 0.209423
O O12 0.423979 0.500000 0.163224
O O13 0.403334 0.386757 0.000000
O O14 0.129981 0.083749 0.500000
O O15 0.092917 0.130634 0.251193
O O16 0.145677 0.000000 0.271607
O O17 0.584758 0.077121 0.500000
O O18 0.500000 0.106789 0.719235
O O19 0.593371 0.000000 0.733761
O O20 0.000000 0.233120 0.798120
O O21 0.089672 0.186820 0.000000
#
# Coordination Sequence:
#
# PCOD8197649 Si02
#       7
#     8   8   8   8   8   8   8
#     4   9  16  28  46  66  92 125 159 197 239 280
#     4  10  20  33  51  75 100 125 156 196 238 281
#     4  10  20  34  52  71  92 121 156 193 235 286
#     4   8  14  26  45  69  97 127 156 186 223 268
#     4   9  17  28  44  69  98 126 157 192 231 278
#     4   8  13  22  40  67  94 121 159 205 245 276
#     4   9  19  35  52  70  93 122 156 193 234 281
#
# _framework density 17.436978
#
# number of rings (size 3 to 8) (size 9 to 14) (size 15 to 20)
#    0.000    3.000    0.000    2.143    0.000    4.286 
#    0.000    3.571    0.000    4.714    0.000    4.000 
#    0.000    0.000    0.000    0.000    0.000    0.000 
#
# Total GULP energy -694203.236555 kJ/mol
# GULP energy per Si atom -12396.486367 kJ/mol
# Density = 1.739729 g / cm^3
# Si number density = 17.436978 Si / 1000 Ang^3
#
#
#
# Elastic Constant Matrix: (Units=GPa)
#
#
# Indices 1 2 3 4 5 6 
#
# 1 116.7968 54.7145 43.3142 0.0000 0.0000 0.0000
# 2 54.7145 83.4940 46.2701 0.0000 0.0000 0.0000
# 3 43.3142 46.2701 69.3881 0.0000 0.0000 0.0000
# 4 0.0000 0.0000 0.0000 22.3195 0.0000 0.0000
# 5 0.0000 0.0000 0.0000 0.0000 22.8517 0.0000
# 6 0.0000 0.0000 0.0000 0.0000 0.0000 20.3597
#
#
#
# Elastic Compliance Matrix: (Units=1/GPa)
#
#
# Indices 1 2 3 4 5 6 
#
# 1 0.012973 -0.006366 -0.003853 0.000000 0.000000 0.000000
# 2 -0.006366 0.022121 -0.010777 0.000000 0.000000 0.000000
# 3 -0.003853 -0.010777 0.024003 0.000000 0.000000 0.000000
# 4 0.000000 0.000000 0.000000 0.044804 0.000000 0.000000
# 5 0.000000 0.000000 0.000000 0.000000 0.043760 0.000000
# 6 0.000000 0.000000 0.000000 0.000000 0.000000 0.049117
#
#
# Mechanical properties :
#
#
# Convention : Reuss Voigt Hill
#
# Bulk Modulus (GPa) = 58.46248 62.03073 60.24660
# Shear Modulus (GPa) = 20.45217 21.46483 20.95850
#
# Velocity S-wave (km/s) = 3.42851 3.51236 3.47069
# Velocity P-wave (km/s) = 7.01951 7.21806 7.11948
#
# Compressibility (1/GPa) = 0.01710499
#
# Stress axis : x y z
#
# Youngs Moduli (GPa) = 77.08275 45.20574 41.66075
#
# Poissons Ratio (x) = 0.28779 0.16052
# Poissons Ratio (y) = 0.49072 0.44898
# Poissons Ratio (z) = 0.29700 0.48719
#
# Static dielectric constant tensor:
#      x y z
#    x 3.434630 0.000000 0.000000 
#    y 0.000000 3.129770 0.000000 
#    z 0.000000 0.000000 3.118870 
# 
# 
# High freq. dielectric constant tensor:
#      x y z
#    x 1.671270 0.000000 0.000000 
#    y 0.000000 1.654250 0.000000 
#    z 0.000000 0.000000 1.658320 
# 
# From -- ./inp_files/9849.got.cif
#   From: 2010.03.12/outbox.cif.g09.slc.cpg/sg47_5_cif.got.tgz:9849.got - 2010.04.14 03:12:58.
