data_PCOD8197611
_publ_section_title
;
Structure prediction by ZEFSAII (Michael W. Deem and Ramdas Pophale) SiO2 
 PCOD8197611
Probable space group: P M M M
;
_chemical_formula_sum "Si O2"
_cell_formula_units_Z 56
_cell_length_a 23.474936
_cell_length_b 14.368325
_cell_length_c 9.004890
_cell_angle_alpha 90.000000
_cell_angle_beta 90.000000
_cell_angle_gamma 90.000000
_cell_volume 3037.308963
_symmetry_space_group_name_H-M "P M M M"
_symmetry_group_IT_number 47
_symmetry_cell_setting 'orthorhombic'
loop_
_space_group_symop_operation_xyz
x,y,z
-x,-y,z
x,-y,-z
-x,y,-z
-x,-y,-z
x,y,-z
-x,y,z
x,-y,z
loop_
_atom_site_type_symbol
_atom_site_label
_atom_site_fract_x
_atom_site_fract_y
_atom_site_fract_z
Si Si1 0.763300 0.889801 0.167689
Si Si2 0.122494 0.106243 0.325157
Si Si3 0.847013 0.608952 0.667989
Si Si4 0.337685 0.212142 0.324160
Si Si5 0.433922 0.105928 0.171623
Si Si6 0.280442 0.397827 0.676058
Si Si7 0.935637 0.735370 0.171391
O O1 0.819320 0.854674 0.253204
O O2 0.708057 0.855745 0.252976
O O3 0.761176 0.000000 0.168215
O O4 0.764057 0.850750 0.000000
O O5 0.127784 0.117102 0.500000
O O6 0.071564 0.168678 0.262255
O O7 0.110505 0.000000 0.278749
O O8 0.853675 0.647646 0.500000
O O9 0.859223 0.500000 0.671084
O O10 0.783265 0.629369 0.729908
O O11 0.892776 0.656836 0.772971
O O12 0.334513 0.202922 0.500000
O O13 0.399628 0.180674 0.268706
O O14 0.325140 0.318725 0.272641
O O15 0.500000 0.127710 0.197050
O O16 0.420098 0.000000 0.221600
O O17 0.417156 0.118267 0.000000
O O18 0.278091 0.404668 0.500000
O O19 0.298434 0.500000 0.739772
O O20 0.000000 0.699824 0.196274
O O21 0.923241 0.756208 0.000000
#
# Coordination Sequence:
#
# PCOD8197611 Si02
#       7
#     8   8   8   8   8   8   8
#     4  10  20  33  50  74 106 140 168 198 247 313
#     4  10  21  37  56  76  99 129 168 216 264 306
#     4   9  18  35  59  81 101 131 171 213 258 308
#     4  11  20  29  50  81 107 134 171 216 259 296
#     4   9  19  36  54  71  99 143 185 215 252 305
#     4   8  16  32  52  75 103 132 162 200 250 306
#     4  11  24  38  52  73 102 136 171 208 255 315
#
# _framework density 18.437373000000001
#
# number of rings (size 3 to 8) (size 9 to 14) (size 15 to 20)
#    0.000    2.286    0.000    4.286    0.000    7.143 
#    0.000    4.286    0.000    3.857    0.000    3.000 
#    0.000    0.000    0.000    0.000    0.000    0.000 
#
# Total GULP energy -694392.752231 kJ/mol
# GULP energy per Si atom -12399.870576 kJ/mol
# Density = 1.839541 g / cm^3
# Si number density = 18.437373 Si / 1000 Ang^3
#
#
#
# Elastic Constant Matrix: (Units=GPa)
#
#
# Indices 1 2 3 4 5 6 
#
# 1 94.1789 56.3831 43.9604 0.0000 0.0000 0.0000
# 2 56.3831 84.1991 36.9870 0.0000 0.0000 0.0000
# 3 43.9604 36.9870 83.0166 0.0000 0.0000 0.0000
# 4 0.0000 0.0000 0.0000 21.9416 0.0000 0.0000
# 5 0.0000 0.0000 0.0000 0.0000 32.9194 0.0000
# 6 0.0000 0.0000 0.0000 0.0000 0.0000 27.4287
#
#
#
# Elastic Compliance Matrix: (Units=1/GPa)
#
#
# Indices 1 2 3 4 5 6 
#
# 1 0.019644 -0.010674 -0.005647 0.000000 0.000000 0.000000
# 2 -0.010674 0.020567 -0.003511 0.000000 0.000000 0.000000
# 3 -0.005647 -0.003511 0.016600 0.000000 0.000000 0.000000
# 4 0.000000 0.000000 0.000000 0.045576 0.000000 0.000000
# 5 0.000000 0.000000 0.000000 0.000000 0.030377 0.000000
# 6 0.000000 0.000000 0.000000 0.000000 0.000000 0.036458
#
#
# Mechanical properties :
#
#
# Convention : Reuss Voigt Hill
#
# Bulk Modulus (GPa) = 58.31666 59.56174 58.93920
# Shear Modulus (GPa) = 23.29905 24.72886 24.01395
#
# Velocity S-wave (km/s) = 3.55869 3.66626 3.61288
# Velocity P-wave (km/s) = 6.97022 7.09204 7.03139
#
# Compressibility (1/GPa) = 0.01714776
#
# Stress axis : x y z
#
# Youngs Moduli (GPa) = 50.90571 48.62235 60.24052
#
# Poissons Ratio (x) = 0.51900 0.34015
# Poissons Ratio (y) = 0.54337 0.21150
# Poissons Ratio (z) = 0.28744 0.17071
#
# Static dielectric constant tensor:
#      x y z
#    x 3.319940 0.000000 0.000000 
#    y 0.000000 3.578020 0.000000 
#    z 0.000000 0.000000 3.364560 
# 
# 
# High freq. dielectric constant tensor:
#      x y z
#    x 1.703120 0.000000 0.000000 
#    y 0.000000 1.716900 0.000000 
#    z 0.000000 0.000000 1.708500 
# 
# From -- ./inp_files/7269.got.cif
#   From: 2010.03.12/outbox.cif.g09.slc.cpg/sg47_4_cif.got.tgz:7269.got - 2010.04.14 03:12:58.
