data_PCOD8197318
_publ_section_title
;
Structure prediction by ZEFSAII (Michael W. Deem and Ramdas Pophale) SiO2 
 PCOD8197318
Probable space group: P M M M
;
_chemical_formula_sum "Si O2"
_cell_formula_units_Z 44
_cell_length_a 9.286169
_cell_length_b 18.103242
_cell_length_c 15.134273
_cell_angle_alpha 90.000000
_cell_angle_beta 90.000000
_cell_angle_gamma 90.000000
_cell_volume 2544.219072
_symmetry_space_group_name_H-M "P M M M"
_symmetry_group_IT_number 47
_symmetry_cell_setting 'orthorhombic'
loop_
_space_group_symop_operation_xyz
x,y,z
-x,-y,z
x,-y,-z
-x,y,-z
-x,-y,-z
x,y,-z
-x,y,z
x,-y,z
loop_
_atom_site_type_symbol
_atom_site_label
_atom_site_fract_x
_atom_site_fract_y
_atom_site_fract_z
Si Si1 0.664414 0.417093 0.848804
Si Si2 0.829289 0.917853 0.598725
Si Si3 0.829806 0.213556 0.279280
Si Si4 0.665462 0.646455 0.341036
Si Si5 0.841785 0.585276 0.500000
Si Si6 0.833997 0.277151 0.903197
O O1 0.500000 0.409170 0.879748
O O2 0.720943 0.500000 0.870604
O O3 0.678077 0.404317 0.744721
O O4 0.753687 0.355379 0.900119
O O5 0.777463 0.892629 0.500000
O O6 0.776329 0.863274 0.676914
O O7 0.000000 0.920094 0.599000
O O8 0.768711 0.000000 0.619279
O O9 0.742756 0.275566 0.330143
O O10 0.788758 0.219371 0.174397
O O11 0.000000 0.224896 0.293693
O O12 0.500000 0.660213 0.367527
O O13 0.748753 0.603944 0.415680
O O14 0.871871 0.500000 0.500000
O O15 0.000000 0.625044 0.500000
O O16 0.000000 0.297026 0.891082
O O17 0.803917 0.241066 0.000000
#
# Coordination Sequence:
#
# PCOD8197318 Si02
#       6
#     8   8   8   8   4   8
#     4   9  18  32  48  65  87 116 152 196 243 287
#     4   8  14  25  44  72 100 123 151 190 234 279
#     4   9  17  30  49  70  93 124 158 194 233 279
#     4  10  20  33  48  67  92 123 157 195 240 286
#     4  11  23  35  47  65  90 123 164 203 235 274
#     4   9  18  31  45  64  91 122 156 193 237 285
#
# _framework density 17.294108000000001
#
# number of rings (size 3 to 8) (size 9 to 14) (size 15 to 20)
#    0.000    2.818    0.000    1.909    1.273    3.273 
#    0.000    1.818    0.000    1.091    0.000    5.091 
#    0.000    0.000    0.000    9.091    0.000    9.455 
#
# Total GULP energy -545228.689102 kJ/mol
# GULP energy per Si atom -12391.561116 kJ/mol
# Density = 1.725475 g / cm^3
# Si number density = 17.294108 Si / 1000 Ang^3
#
#
#
# Elastic Constant Matrix: (Units=GPa)
#
#
# Indices 1 2 3 4 5 6 
#
# 1 50.1008 22.7343 30.1094 0.0000 0.0000 0.0000
# 2 22.7343 107.0138 62.4429 0.0000 0.0000 0.0000
# 3 30.1094 62.4429 114.4248 0.0000 0.0000 0.0000
# 4 0.0000 0.0000 0.0000 6.0421 0.0000 0.0000
# 5 0.0000 0.0000 0.0000 0.0000 19.4807 0.0000
# 6 0.0000 0.0000 0.0000 0.0000 0.0000 8.5325
#
#
#
# Elastic Compliance Matrix: (Units=1/GPa)
#
#
# Indices 1 2 3 4 5 6 
#
# 1 0.024019 -0.002076 -0.005188 0.000000 0.000000 0.000000
# 2 -0.002076 0.013890 -0.007034 0.000000 0.000000 0.000000
# 3 -0.005188 -0.007034 0.013943 0.000000 0.000000 0.000000
# 4 0.000000 0.000000 0.000000 0.165506 0.000000 0.000000
# 5 0.000000 0.000000 0.000000 0.000000 0.051333 0.000000
# 6 0.000000 0.000000 0.000000 0.000000 0.000000 0.117199
#
#
# Mechanical properties :
#
#
# Convention : Reuss Voigt Hill
#
# Bulk Modulus (GPa) = 42.99616 55.79027 49.39322
# Shear Modulus (GPa) = 11.84170 17.22790 14.53480
#
# Velocity S-wave (km/s) = 2.61956 3.15964 2.90219
# Velocity P-wave (km/s) = 5.83654 6.75580 6.31293
#
# Compressibility (1/GPa) = 0.02325789
#
# Stress axis : x y z
#
# Youngs Moduli (GPa) = 41.63319 71.99600 71.72211
#
# Poissons Ratio (x) = 0.14944 0.37207
# Poissons Ratio (y) = 0.08642 0.50446
# Poissons Ratio (z) = 0.21598 0.50639
#
# Static dielectric constant tensor:
#      x y z
#    x 3.178540 0.000000 0.000000 
#    y 0.000000 3.259000 0.000000 
#    z 0.000000 0.000000 4.162350 
# 
# 
# High freq. dielectric constant tensor:
#      x y z
#    x 1.651950 0.000000 0.000000 
#    y 0.000000 1.646450 0.000000 
#    z 0.000000 0.000000 1.674850 
# 
# From -- ./inp_files/8962.got.cif
#   From: 2010.03.12/outbox.cif.g09.slc.cpg/sg47_5_cif.got.tgz:8962.got - 2010.04.14 03:12:58.
