data_PCOD8197342
_publ_section_title
;
Structure prediction by ZEFSAII (Michael W. Deem and Ramdas Pophale) SiO2 
 PCOD8197342
Probable space group: P M M M
;
_chemical_formula_sum "Si O2"
_cell_formula_units_Z 52
_cell_length_a 8.208181
_cell_length_b 27.889492
_cell_length_c 16.789556
_cell_angle_alpha 90.000000
_cell_angle_beta 90.000000
_cell_angle_gamma 90.000000
_cell_volume 3843.498711
_symmetry_space_group_name_H-M "P M M M"
_symmetry_group_IT_number 47
_symmetry_cell_setting 'orthorhombic'
loop_
_space_group_symop_operation_xyz
x,y,z
-x,-y,z
x,-y,-z
-x,y,-z
-x,-y,-z
x,y,-z
-x,y,z
x,-y,z
loop_
_atom_site_type_symbol
_atom_site_label
_atom_site_fract_x
_atom_site_fract_y
_atom_site_fract_z
Si Si1 0.310164 0.106116 0.657900
Si Si2 0.185694 0.944006 0.810236
Si Si3 0.500000 0.943251 0.911030
Si Si4 0.817860 0.694436 0.594794
Si Si5 0.189261 0.500000 0.410600
Si Si6 0.693449 0.946334 0.500000
Si Si7 0.311820 0.596966 0.411183
Si Si8 0.805792 0.200873 0.408788
O O1 0.500000 0.095059 0.673592
O O2 0.203210 0.085868 0.729566
O O3 0.243103 0.080748 0.578221
O O4 0.281372 0.162897 0.648786
O O5 0.330577 0.926186 0.869281
O O6 0.000000 0.935365 0.843972
O O7 0.210840 0.000000 0.791096
O O8 0.500000 0.000000 0.914646
O O9 0.500000 0.921455 0.000000
O O10 0.809062 0.694369 0.500000
O O11 0.725373 0.648022 0.631528
O O12 0.747011 0.746260 0.621589
O O13 0.000000 0.689547 0.626308
O O14 0.266908 0.500000 0.500000
O O15 0.243598 0.549385 0.366121
O O16 0.000000 0.500000 0.415076
O O17 0.500000 0.946773 0.500000
O O18 0.764515 0.000000 0.500000
O O19 0.232826 0.598756 0.500000
O O20 0.500000 0.589968 0.416668
O O21 0.749708 0.192043 0.500000
O O22 0.000000 0.197028 0.402652
#
# Coordination Sequence:
#
# PCOD8197342 Si02
#       8
#     8   8   4   8   4   4   8   8
#     4  11  19  29  43  58  80 107 135 168 199 230
#     4  10  20  33  49  68  89 111 132 157 192 233
#     4   9  18  34  54  73  91 107 125 152 186 231
#     4   8  14  24  35  44  57  81 110 142 182 222
#     4   9  15  21  29  39  53  73  95 119 157 219
#     4   9  18  28  39  55  75 104 137 166 196 228
#     4   9  15  21  29  42  57  72  93 129 172 215
#     4   9  17  28  39  51  70  95 127 165 196 228
#
# _framework density 13.529339
#
# number of rings (size 3 to 8) (size 9 to 14) (size 15 to 20)
#    0.000    2.692    1.538    2.538    0.000    4.308 
#    0.000    3.077    0.000    1.846    0.000    0.000 
#    0.000    0.000    0.000    0.000    0.000    0.000 
#
# Total GULP energy -644206.365451 kJ/mol
# GULP energy per Si atom -12388.583951 kJ/mol
# Density = 1.349855 g / cm^3
# Si number density = 13.529339 Si / 1000 Ang^3
#
#
#
# Elastic Constant Matrix: (Units=GPa)
#
#
# Indices 1 2 3 4 5 6 
#
# 1 62.5277 27.5314 22.9660 0.0000 0.0000 0.0000
# 2 27.5314 107.9162 21.5151 0.0000 0.0000 0.0000
# 3 22.9660 21.5151 46.8277 0.0000 0.0000 0.0000
# 4 0.0000 0.0000 0.0000 3.3887 0.0000 0.0000
# 5 0.0000 0.0000 0.0000 0.0000 9.8431 0.0000
# 6 0.0000 0.0000 0.0000 0.0000 0.0000 21.4230
#
#
#
# Elastic Compliance Matrix: (Units=1/GPa)
#
#
# Indices 1 2 3 4 5 6 
#
# 1 0.020694 -0.003584 -0.008502 0.000000 0.000000 0.000000
# 2 -0.003584 0.010822 -0.003214 0.000000 0.000000 0.000000
# 3 -0.008502 -0.003214 0.027001 0.000000 0.000000 0.000000
# 4 0.000000 0.000000 0.000000 0.295096 0.000000 0.000000
# 5 0.000000 0.000000 0.000000 0.000000 0.101593 0.000000
# 6 0.000000 0.000000 0.000000 0.000000 0.000000 0.046679
#
#
# Mechanical properties :
#
#
# Convention : Reuss Voigt Hill
#
# Bulk Modulus (GPa) = 35.82225 40.14408 37.98317
# Shear Modulus (GPa) = 9.22863 16.61492 12.92177
#
# Velocity S-wave (km/s) = 2.61458 3.50818 3.09381
# Velocity P-wave (km/s) = 5.97073 6.79309 6.39514
#
# Compressibility (1/GPa) = 0.02791561
#
# Stress axis : x y z
#
# Youngs Moduli (GPa) = 48.32331 92.40711 37.03504
#
# Poissons Ratio (x) = 0.33122 0.31488
# Poissons Ratio (y) = 0.17321 0.11904
# Poissons Ratio (z) = 0.41086 0.29701
#
# Static dielectric constant tensor:
#      x y z
#    x 2.700510 0.000000 0.000000 
#    y 0.000000 3.032790 0.000000 
#    z 0.000000 0.000000 2.232110 
# 
# 
# High freq. dielectric constant tensor:
#      x y z
#    x 1.524130 0.000000 0.000000 
#    y 0.000000 1.522760 0.000000 
#    z 0.000000 0.000000 1.430380 
# 
# From -- ./inp_files/22044.got.cif
#   From: 2010.03.12/outbox.cif.g09.slc.cpg/sg47_12_cif.got.tgz:22044.got - 2010.04.14 03:12:58.
