data_PCOD8197763
_publ_section_title
;
Structure prediction by ZEFSAII (Michael W. Deem and Ramdas Pophale) SiO2 
 PCOD8197763
Probable space group: P M M M
;
_chemical_formula_sum "Si O2"
_cell_formula_units_Z 48
_cell_length_a 9.074617
_cell_length_b 9.256997
_cell_length_c 30.462777
_cell_angle_alpha 90.000000
_cell_angle_beta 90.000000
_cell_angle_gamma 90.000000
_cell_volume 2558.986052
_symmetry_space_group_name_H-M "P M M M"
_symmetry_group_IT_number 47
_symmetry_cell_setting 'orthorhombic'
loop_
_space_group_symop_operation_xyz
x,y,z
-x,-y,z
x,-y,-z
-x,y,-z
-x,-y,-z
x,y,-z
-x,y,z
x,-y,z
loop_
_atom_site_type_symbol
_atom_site_label
_atom_site_fract_x
_atom_site_fract_y
_atom_site_fract_z
Si Si1 0.169089 0.833812 0.050943
Si Si2 0.332494 0.668581 0.550167
Si Si3 0.827105 0.832195 0.202511
Si Si4 0.170509 0.168232 0.375405
Si Si5 0.329231 0.330359 0.124429
Si Si6 0.333773 0.171800 0.289565
O O1 0.277663 0.731225 0.077750
O O2 0.000000 0.797532 0.062790
O O3 0.202372 0.000000 0.062805
O O4 0.199498 0.804457 0.000000
O O5 0.295771 0.708417 0.500000
O O6 0.500000 0.713341 0.561353
O O7 0.309636 0.500000 0.558326
O O8 0.220694 0.754555 0.580447
O O9 0.765912 0.742381 0.162199
O O10 0.752857 0.772201 0.246914
O O11 0.000000 0.807099 0.206677
O O12 0.788940 0.000000 0.194838
O O13 0.257404 0.232471 0.333530
O O14 0.000000 0.199055 0.367192
O O15 0.203796 0.000000 0.381244
O O16 0.500000 0.292929 0.131626
O O17 0.300174 0.500000 0.125027
O O18 0.500000 0.231032 0.287587
O O19 0.328984 0.000000 0.290498
#
# Coordination Sequence:
#
# PCOD8197763 Si02
#       6
#     8   8   8   8   8   8
#     4   9  19  37  60  84 108 136 175 221 265 312
#     4   9  19  36  55  74  99 134 176 219 262 310
#     4  10  20  35  57  82 106 135 174 218 262 310
#     4  10  20  33  51  78 110 139 170 212 260 310
#     4  11  24  38  52  76 111 146 179 217 261 309
#     4   9  17  31  53  79 106 137 172 211 258 310
#
# _framework density 18.757429999999999
#
# number of rings (size 3 to 8) (size 9 to 14) (size 15 to 20)
#    0.000    2.333    0.000    3.500    0.000    9.333 
#    0.000    5.833    0.000    5.000    0.000    0.000 
#    0.000    0.000    0.000    0.000    0.000    0.000 
#
# Total GULP energy -595337.042510 kJ/mol
# GULP energy per Si atom -12402.855052 kJ/mol
# Density = 1.871474 g / cm^3
# Si number density = 18.757430 Si / 1000 Ang^3
#
#
#
# Elastic Constant Matrix: (Units=GPa)
#
#
# Indices 1 2 3 4 5 6 
#
# 1 99.2901 47.7211 62.7025 0.0000 0.0000 0.0000
# 2 47.7211 54.6979 47.2540 0.0000 0.0000 0.0000
# 3 62.7025 47.2540 124.4814 0.0000 0.0000 0.0000
# 4 0.0000 0.0000 0.0000 -9.6532 0.0000 0.0000
# 5 0.0000 0.0000 0.0000 0.0000 42.9378 0.0000
# 6 0.0000 0.0000 0.0000 0.0000 0.0000 28.6923
#
#
#
# Elastic Compliance Matrix: (Units=1/GPa)
#
#
# Indices 1 2 3 4 5 6 
#
# 1 0.019178 -0.012479 -0.004923 0.000000 0.000000 0.000000
# 2 -0.012479 0.035323 -0.007123 0.000000 0.000000 0.000000
# 3 -0.004923 -0.007123 0.013217 0.000000 0.000000 0.000000
# 4 0.000000 0.000000 0.000000 -0.103593 0.000000 0.000000
# 5 0.000000 0.000000 0.000000 0.000000 0.023290 0.000000
# 6 0.000000 0.000000 0.000000 0.000000 0.000000 0.034853
#
#
# Mechanical properties :
#
#
# Convention : Reuss Voigt Hill
#
# Bulk Modulus (GPa) = 53.56721 65.98052 59.77387
# Shear Modulus (GPa) = 64.48199 20.44815 42.46507
#
# Velocity S-wave (km/s) = 5.86953 3.30530 4.76321
# Velocity P-wave (km/s) = 8.63453 7.05824 7.88587
#
# Compressibility (1/GPa) = 0.01866814
#
# Stress axis : x y z
#
# Youngs Moduli (GPa) = 52.14287 28.31005 75.65883
#
# Poissons Ratio (x) = 0.35327 0.37248
# Poissons Ratio (y) = 0.65068 0.53894
# Poissons Ratio (z) = 0.25671 0.20166
#
# Static dielectric constant tensor:
#      x y z
#    x 3.516980 0.000000 0.000000 
#    y 0.000000 3.180780 0.000000 
#    z 0.000000 0.000000 3.554900 
# 
# 
# High freq. dielectric constant tensor:
#      x y z
#    x 1.737450 0.000000 0.000000 
#    y 0.000000 1.701190 0.000000 
#    z 0.000000 0.000000 1.743470 
# 
# From -- ./inp_files/2452.got.cif
#   From: 2010.03.12/outbox.cif.g09.slc.cpg/sg47_2_cif.got.tgz:2452.got - 2010.04.14 03:12:58.
