data_PCOD8197619
_publ_section_title
;
Structure prediction by ZEFSAII (Michael W. Deem and Ramdas Pophale) SiO2 
 PCOD8197619
Probable space group: P M M M
;
_chemical_formula_sum "Si O2"
_cell_formula_units_Z 40
_cell_length_a 8.669616
_cell_length_b 11.945822
_cell_length_c 20.647456
_cell_angle_alpha 90.000000
_cell_angle_beta 90.000000
_cell_angle_gamma 90.000000
_cell_volume 2138.368018
_symmetry_space_group_name_H-M "P M M M"
_symmetry_group_IT_number 47
_symmetry_cell_setting 'orthorhombic'
loop_
_space_group_symop_operation_xyz
x,y,z
-x,-y,z
x,-y,-z
-x,y,-z
-x,-y,-z
x,y,-z
-x,y,z
x,-y,z
loop_
_atom_site_type_symbol
_atom_site_label
_atom_site_fract_x
_atom_site_fract_y
_atom_site_fract_z
Si Si1 0.316934 0.268360 0.928461
Si Si2 0.683756 0.500000 0.127924
Si Si3 0.816776 0.125183 0.428397
Si Si4 0.681862 0.870909 0.806901
Si Si5 0.182601 0.269068 0.690439
Si Si6 0.317445 0.500000 0.725333
O O1 0.500000 0.274900 0.930294
O O2 0.251337 0.389801 0.907710
O O3 0.264724 0.174023 0.877305
O O4 0.252734 0.237633 0.000000
O O5 0.500000 0.500000 0.127794
O O6 0.745285 0.500000 0.201294
O O7 0.763008 0.165593 0.500000
O O8 0.751257 0.207331 0.373456
O O9 0.000000 0.123084 0.425108
O O10 0.753453 0.000000 0.415073
O O11 0.500000 0.853455 0.797231
O O12 0.769497 0.800505 0.753187
O O13 0.730219 0.000000 0.801610
O O14 0.255612 0.391354 0.688863
O O15 0.000000 0.279642 0.688947
O O16 0.500000 0.500000 0.723676
#
# Coordination Sequence:
#
# PCOD8197619 Si02
#       6
#     8   4   8   8   8   4
#     4   9  16  27  46  73 101 130 173 226 267 302
#     4   9  15  27  48  71  95 125 167 216 263 304
#     4   8  15  30  53  80 108 137 171 214 259 299
#     4  10  20  33  50  75 107 142 177 214 263 318
#     4  11  21  34  55  82 107 134 175 220 263 310
#     4  11  21  36  56  76 106 142 173 211 265 319
#
# _framework density 18.705853999999999
#
# number of rings (size 3 to 8) (size 9 to 14) (size 15 to 20)
#    0.000    2.400    2.000    2.400    0.000    2.800 
#    0.000    2.500    0.000    6.000    0.000    9.800 
#    0.000    0.000    0.000    0.000    0.000    0.000 
#
# Total GULP energy -495907.489100 kJ/mol
# GULP energy per Si atom -12397.687227 kJ/mol
# Density = 1.866328 g / cm^3
# Si number density = 18.705854 Si / 1000 Ang^3
#
#
#
# Elastic Constant Matrix: (Units=GPa)
#
#
# Indices 1 2 3 4 5 6 
#
# 1 30.1080 26.3683 24.6385 0.0000 0.0000 0.0000
# 2 26.3683 149.2193 83.1960 0.0000 0.0000 0.0000
# 3 24.6385 83.1960 166.9898 0.0000 0.0000 0.0000
# 4 0.0000 0.0000 0.0000 34.3831 0.0000 0.0000
# 5 0.0000 0.0000 0.0000 0.0000 20.6283 0.0000
# 6 0.0000 0.0000 0.0000 0.0000 0.0000 23.3221
#
#
#
# Elastic Compliance Matrix: (Units=1/GPa)
#
#
# Indices 1 2 3 4 5 6 
#
# 1 0.040601 -0.005309 -0.003345 0.000000 0.000000 0.000000
# 2 -0.005309 0.009973 -0.004185 0.000000 0.000000 0.000000
# 3 -0.003345 -0.004185 0.008567 0.000000 0.000000 0.000000
# 4 0.000000 0.000000 0.000000 0.029084 0.000000 0.000000
# 5 0.000000 0.000000 0.000000 0.000000 0.048477 0.000000
# 6 0.000000 0.000000 0.000000 0.000000 0.000000 0.042878
#
#
# Mechanical properties :
#
#
# Convention : Reuss Voigt Hill
#
# Bulk Modulus (GPa) = 29.88511 68.30251 49.09381
# Shear Modulus (GPa) = 23.10378 29.80767 26.45573
#
# Velocity S-wave (km/s) = 3.51823 3.99619 3.76480
# Velocity P-wave (km/s) = 5.70218 7.60828 6.72313
#
# Compressibility (1/GPa) = 0.03346148
#
# Stress axis : x y z
#
# Youngs Moduli (GPa) = 24.62976 100.26761 116.72440
#
# Poissons Ratio (x) = 0.53236 0.39048
# Poissons Ratio (y) = 0.13077 0.48854
# Poissons Ratio (z) = 0.08239 0.41966
#
# Static dielectric constant tensor:
#      x y z
#    x 2.962500 0.000000 0.000000 
#    y 0.000000 3.621350 0.000000 
#    z 0.000000 0.000000 3.814820 
# 
# 
# High freq. dielectric constant tensor:
#      x y z
#    x 1.676600 0.000000 0.000000 
#    y 0.000000 1.732540 0.000000 
#    z 0.000000 0.000000 1.735830 
# 
# From -- ./inp_files/10716.got.cif
#   From: 2010.03.12/outbox.cif.g09.slc.cpg/sg47_6_cif.got.tgz:10716.got - 2010.04.14 03:12:58.
