data_PCOD8197848
_publ_section_title
;
Structure prediction by ZEFSAII (Michael W. Deem and Ramdas Pophale) SiO2 
 PCOD8197848
Probable space group: P M M M
;
_chemical_formula_sum "Si O2"
_cell_formula_units_Z 48
_cell_length_a 9.031020
_cell_length_b 15.121356
_cell_length_c 19.974236
_cell_angle_alpha 90.000000
_cell_angle_beta 90.000000
_cell_angle_gamma 90.000000
_cell_volume 2727.707005
_symmetry_space_group_name_H-M "P M M M"
_symmetry_group_IT_number 47
_symmetry_cell_setting 'orthorhombic'
loop_
_space_group_symop_operation_xyz
x,y,z
-x,-y,z
x,-y,-z
-x,y,-z
-x,-y,-z
x,y,-z
-x,y,z
x,-y,z
loop_
_atom_site_type_symbol
_atom_site_label
_atom_site_fract_x
_atom_site_fract_y
_atom_site_fract_z
Si Si1 0.825638 0.000000 0.075931
Si Si2 0.666071 0.104505 0.500000
Si Si3 0.664872 0.169493 0.883395
Si Si4 0.333425 0.235688 0.733582
Si Si5 0.826856 0.400786 0.215468
Si Si6 0.170267 0.333395 0.927177
Si Si7 0.175165 0.102606 0.365205
O O1 0.766189 0.915812 0.114566
O O2 0.000000 0.000000 0.079959
O O3 0.767808 0.000000 0.000000
O O4 0.500000 0.144942 0.500000
O O5 0.754407 0.136148 0.565343
O O6 0.657237 0.000000 0.500000
O O7 0.500000 0.147919 0.909254
O O8 0.661995 0.200229 0.807791
O O9 0.733555 0.244778 0.929967
O O10 0.500000 0.243218 0.704083
O O11 0.259909 0.333189 0.736178
O O12 0.237686 0.166507 0.691575
O O13 0.785327 0.500000 0.238092
O O14 0.782656 0.393022 0.136411
O O15 0.000000 0.381900 0.224634
O O16 0.000000 0.305168 0.918820
O O17 0.193738 0.381534 0.000000
O O18 0.000000 0.113572 0.369859
O O19 0.217574 0.000000 0.349927
#
# Coordination Sequence:
#
# PCOD8197848 Si02
#       7
#     4   4   8   8   8   8   8
#     4  11  23  35  47  63  85 118 161 206 253 303
#     4   9  17  31  51  77 110 147 178 207 243 285
#     4  10  21  34  47  65  90 122 161 206 251 298
#     4  10  21  35  51  73 101 133 169 209 253 302
#     4   9  18  33  52  73  98 128 164 209 259 311
#     4   9  17  30  48  69  93 121 155 199 253 311
#     4  10  20  33  52  79 110 143 177 211 247 289
#
# _framework density 17.597197999999999
#
# number of rings (size 3 to 8) (size 9 to 14) (size 15 to 20)
#    0.000    2.333    0.000    2.500    1.167    7.667 
#    0.000    1.667    0.000    0.000    0.000    5.250 
#    0.000    4.667    0.000    0.000    0.000    0.000 
#
# Total GULP energy -595031.118797 kJ/mol
# GULP energy per Si atom -12396.481642 kJ/mol
# Density = 1.755715 g / cm^3
# Si number density = 17.597198 Si / 1000 Ang^3
#
#
#
# Elastic Constant Matrix: (Units=GPa)
#
#
# Indices 1 2 3 4 5 6 
#
# 1 94.1162 44.5926 31.7243 0.0000 0.0000 0.0000
# 2 44.5926 99.1241 26.8610 0.0000 0.0000 0.0000
# 3 31.7243 26.8610 59.4105 0.0000 0.0000 0.0000
# 4 0.0000 0.0000 0.0000 18.8346 0.0000 0.0000
# 5 0.0000 0.0000 0.0000 0.0000 26.9162 0.0000
# 6 0.0000 0.0000 0.0000 0.0000 0.0000 26.3222
#
#
#
# Elastic Compliance Matrix: (Units=1/GPa)
#
#
# Indices 1 2 3 4 5 6 
#
# 1 0.015002 -0.005217 -0.005652 0.000000 0.000000 0.000000
# 2 -0.005217 0.013311 -0.003232 0.000000 0.000000 0.000000
# 3 -0.005652 -0.003232 0.021312 0.000000 0.000000 0.000000
# 4 0.000000 0.000000 0.000000 0.053094 0.000000 0.000000
# 5 0.000000 0.000000 0.000000 0.000000 0.037152 0.000000
# 6 0.000000 0.000000 0.000000 0.000000 0.000000 0.037991
#
#
# Mechanical properties :
#
#
# Convention : Reuss Voigt Hill
#
# Bulk Modulus (GPa) = 46.68197 51.00075 48.84136
# Shear Modulus (GPa) = 23.45139 24.37945 23.91542
#
# Velocity S-wave (km/s) = 3.65455 3.72616 3.69052
# Velocity P-wave (km/s) = 6.66283 6.89620 6.78052
#
# Compressibility (1/GPa) = 0.02142155
#
# Stress axis : x y z
#
# Youngs Moduli (GPa) = 66.65593 75.12327 46.92267
#
# Poissons Ratio (x) = 0.39195 0.26521
# Poissons Ratio (y) = 0.34777 0.15167
# Poissons Ratio (z) = 0.37675 0.24283
#
# Static dielectric constant tensor:
#      x y z
#    x 3.529450 0.000000 0.000000 
#    y 0.000000 2.912280 0.000000 
#    z 0.000000 0.000000 3.222600 
# 
# 
# High freq. dielectric constant tensor:
#      x y z
#    x 1.692310 0.000000 0.000000 
#    y 0.000000 1.660700 0.000000 
#    z 0.000000 0.000000 1.662860 
# 
# From -- ./inp_files/6514.got.cif
#   From: 2010.03.12/outbox.cif.g09.slc.cpg/sg47_4_cif.got.tgz:6514.got - 2010.04.14 03:12:58.
