data_PCOD8197482
_publ_section_title
;
Structure prediction by ZEFSAII (Michael W. Deem and Ramdas Pophale) SiO2 
 PCOD8197482
Probable space group: P M M M
;
_chemical_formula_sum "Si O2"
_cell_formula_units_Z 52
_cell_length_a 33.596817
_cell_length_b 9.684835
_cell_length_c 9.002925
_cell_angle_alpha 90.000000
_cell_angle_beta 90.000000
_cell_angle_gamma 90.000000
_cell_volume 2929.368398
_symmetry_space_group_name_H-M "P M M M"
_symmetry_group_IT_number 47
_symmetry_cell_setting 'orthorhombic'
loop_
_space_group_symop_operation_xyz
x,y,z
-x,-y,z
x,-y,-z
-x,y,-z
-x,-y,-z
x,y,-z
-x,y,z
x,-y,z
loop_
_atom_site_type_symbol
_atom_site_label
_atom_site_fract_x
_atom_site_fract_y
_atom_site_fract_z
Si Si1 0.343755 0.664149 0.667180
Si Si2 0.043900 0.344931 0.176466
Si Si3 0.578337 0.335254 0.832333
Si Si4 0.736231 0.339791 0.825568
Si Si5 0.115230 0.840394 0.171795
Si Si6 0.500000 0.664606 0.667587
Si Si7 0.803247 0.839625 0.673315
O O1 0.342482 0.722760 0.500000
O O2 0.345665 0.500000 0.666225
O O3 0.382795 0.723442 0.748829
O O4 0.304667 0.714543 0.753623
O O5 0.053510 0.500000 0.230545
O O6 0.077779 0.243340 0.238381
O O7 0.000000 0.300038 0.234925
O O8 0.043810 0.338408 0.000000
O O9 0.578595 0.500000 0.831111
O O10 0.539091 0.278488 0.750389
O O11 0.578454 0.278928 0.000000
O O12 0.743671 0.500000 0.786829
O O13 0.771858 0.251617 0.760415
O O14 0.733276 0.315592 0.000000
O O15 0.153386 0.798290 0.267571
O O16 0.104596 0.000000 0.190754
O O17 0.123808 0.803346 0.000000
O O18 0.500000 0.500000 0.668567
O O19 0.500000 0.721244 0.500000
O O20 0.800808 0.805433 0.500000
O O21 0.794425 0.000000 0.705940
#
# Coordination Sequence:
#
# PCOD8197482 Si02
#       7
#     8   8   8   8   8   4   8
#     4   9  16  26  40  58  82 112 145 183 228 277
#     4   8  14  25  42  66  95 123 151 187 231 275
#     4   9  15  22  32  47  70 102 141 184 228 274
#     4  10  20  33  50  72  95 120 154 195 237 283
#     4   9  17  29  46  68  92 118 151 191 232 275
#     4   9  15  21  29  43  65  97 140 185 228 277
#     4  10  21  36  52  70  95 127 160 195 238 286
#
# _framework density 17.751266999999999
#
# number of rings (size 3 to 8) (size 9 to 14) (size 15 to 20)
#    0.000    2.846    0.000    2.538    0.000    7.385 
#    0.000    3.077    0.000    0.462    0.000    3.231 
#    0.000    0.000    0.000    0.692    0.000   13.538 
#
# Total GULP energy -644726.479701 kJ/mol
# GULP energy per Si atom -12398.586148 kJ/mol
# Density = 1.771086 g / cm^3
# Si number density = 17.751267 Si / 1000 Ang^3
#
#
#
# Elastic Constant Matrix: (Units=GPa)
#
#
# Indices 1 2 3 4 5 6 
#
# 1 171.8174 56.3584 73.0722 0.0000 0.0000 0.0000
# 2 56.3584 38.6918 31.8134 0.0000 0.0000 0.0000
# 3 73.0722 31.8134 114.1631 0.0000 0.0000 0.0000
# 4 0.0000 0.0000 0.0000 14.0000 0.0000 0.0000
# 5 0.0000 0.0000 0.0000 0.0000 13.3925 0.0000
# 6 0.0000 0.0000 0.0000 0.0000 0.0000 -0.9464
#
#
#
# Elastic Compliance Matrix: (Units=1/GPa)
#
#
# Indices 1 2 3 4 5 6 
#
# 1 0.012254 -0.014789 -0.003722 0.000000 0.000000 0.000000
# 2 -0.014789 0.051375 -0.004851 0.000000 0.000000 0.000000
# 3 -0.003722 -0.004851 0.012494 0.000000 0.000000 0.000000
# 4 0.000000 0.000000 0.000000 0.071429 0.000000 0.000000
# 5 0.000000 0.000000 0.000000 0.000000 0.074668 0.000000
# 6 0.000000 0.000000 0.000000 0.000000 0.000000 -1.056658
#
#
# Mechanical properties :
#
#
# Convention : Reuss Voigt Hill
#
# Bulk Modulus (GPa) = 34.01457 71.90670 52.96064
# Shear Modulus (GPa) = -6.42744 16.18444 4.87850
#
# Velocity S-wave (km/s) = -1.90491 3.02277 1.65959
# Velocity P-wave (km/s) = 3.79013 7.26490 5.79413
#
# Compressibility (1/GPa) = 0.02939916
#
# Stress axis : x y z
#
# Youngs Moduli (GPa) = 81.60536 19.46479 80.04047
#
# Poissons Ratio (x) = 0.28786 0.29794
# Poissons Ratio (y) = 1.20684 0.38825
# Poissons Ratio (z) = 0.30376 0.09442
#
# Static dielectric constant tensor:
#      x y z
#    x 3.588610 0.000000 0.000000 
#    y 0.000000 2.888040 0.000000 
#    z 0.000000 0.000000 3.298930 
# 
# 
# High freq. dielectric constant tensor:
#      x y z
#    x 1.704500 0.000000 0.000000 
#    y 0.000000 1.632060 0.000000 
#    z 0.000000 0.000000 1.683150 
# 
# From -- ./inp_files/14096.got.cif
#   From: 2010.03.12/outbox.cif.g09.slc.cpg/sg47_8_cif.got.tgz:14096.got - 2010.04.14 03:12:58.
