data_PCOD8197448
_publ_section_title
;
Structure prediction by ZEFSAII (Michael W. Deem and Ramdas Pophale) SiO2 
 PCOD8197448
Probable space group: P M M M
;
_chemical_formula_sum "Si O2"
_cell_formula_units_Z 48
_cell_length_a 18.596490
_cell_length_b 8.667421
_cell_length_c 16.135479
_cell_angle_alpha 90.000000
_cell_angle_beta 90.000000
_cell_angle_gamma 90.000000
_cell_volume 2600.774721
_symmetry_space_group_name_H-M "P M M M"
_symmetry_group_IT_number 47
_symmetry_cell_setting 'orthorhombic'
loop_
_space_group_symop_operation_xyz
x,y,z
-x,-y,z
x,-y,-z
-x,y,-z
-x,-y,-z
x,y,-z
-x,y,z
x,-y,z
loop_
_atom_site_type_symbol
_atom_site_label
_atom_site_fract_x
_atom_site_fract_y
_atom_site_fract_z
Si Si1 0.918786 0.322667 0.194151
Si Si2 0.710353 0.683342 0.251547
Si Si3 0.414963 0.673885 0.000000
Si Si4 0.789158 0.678684 0.910203
Si Si5 0.082667 0.317375 0.500000
Si Si6 0.417528 0.818054 0.828347
Si Si7 0.162120 0.180275 0.342922
O O1 0.911262 0.500000 0.225137
O O2 0.873613 0.297936 0.110090
O O3 0.889341 0.212156 0.265456
O O4 0.000000 0.277716 0.173525
O O5 0.712170 0.500000 0.259303
O O6 0.743926 0.749055 0.165550
O O7 0.628300 0.745331 0.247970
O O8 0.757228 0.752775 0.326922
O O9 0.387048 0.756689 0.916721
O O10 0.384878 0.500000 0.000000
O O11 0.500000 0.678935 0.000000
O O12 0.769908 0.500000 0.915961
O O13 0.771838 0.756222 0.000000
O O14 0.081464 0.500000 0.500000
O O15 0.126047 0.259951 0.420999
O O16 0.000000 0.254780 0.500000
O O17 0.500000 0.765856 0.815262
O O18 0.410195 0.000000 0.827392
O O19 0.168800 0.000000 0.359734
#
# Coordination Sequence:
#
# PCOD8197448 Si02
#       7
#     8   8   4   8   4   8   8
#     4   9  17  30  48  69  96 131 170 214 262 309
#     4  10  20  34  53  74 102 139 179 221 265 316
#     4   9  17  29  45  67  97 135 180 225 268 319
#     4   8  15  27  43  66  93 124 169 220 262 300
#     4  11  23  39  61  87 114 141 172 213 261 317
#     4  10  20  33  49  73 105 139 177 225 280 328
#     4  11  22  36  54  78 108 138 171 209 259 320
#
# _framework density 18.456040000000002
#
# number of rings (size 3 to 8) (size 9 to 14) (size 15 to 20)
#    0.000    2.333    0.000    4.500    1.167    5.333 
#    0.000    1.667    0.000    4.500    0.000    5.250 
#    0.000    4.667    0.000    0.000    0.000    0.000 
#
# Total GULP energy -594952.886496 kJ/mol
# GULP energy per Si atom -12394.851802 kJ/mol
# Density = 1.841403 g / cm^3
# Si number density = 18.456040 Si / 1000 Ang^3
#
#
#
# Elastic Constant Matrix: (Units=GPa)
#
#
# Indices 1 2 3 4 5 6 
#
# 1 100.2958 33.7577 34.0584 0.0000 0.0000 0.0000
# 2 33.7577 76.5616 24.9469 0.0000 0.0000 0.0000
# 3 34.0584 24.9469 82.7704 0.0000 0.0000 0.0000
# 4 0.0000 0.0000 0.0000 11.6261 0.0000 0.0000
# 5 0.0000 0.0000 0.0000 0.0000 38.1903 0.0000
# 6 0.0000 0.0000 0.0000 0.0000 0.0000 25.1650
#
#
#
# Elastic Compliance Matrix: (Units=1/GPa)
#
#
# Indices 1 2 3 4 5 6 
#
# 1 0.012773 -0.004346 -0.003946 0.000000 0.000000 0.000000
# 2 -0.004346 0.015963 -0.003023 0.000000 0.000000 0.000000
# 3 -0.003946 -0.003023 0.014616 0.000000 0.000000 0.000000
# 4 0.000000 0.000000 0.000000 0.086013 0.000000 0.000000
# 5 0.000000 0.000000 0.000000 0.000000 0.026185 0.000000
# 6 0.000000 0.000000 0.000000 0.000000 0.000000 0.039738
#
#
# Mechanical properties :
#
#
# Convention : Reuss Voigt Hill
#
# Bulk Modulus (GPa) = 48.25704 49.46152 48.85928
# Shear Modulus (GPa) = 22.23944 26.12060 24.18002
#
# Velocity S-wave (km/s) = 3.47507 3.76611 3.62351
# Velocity P-wave (km/s) = 6.50425 6.76530 6.63606
#
# Compressibility (1/GPa) = 0.02072237
#
# Stress axis : x y z
#
# Youngs Moduli (GPa) = 78.28782 62.64613 68.41640
#
# Poissons Ratio (x) = 0.27228 0.26997
# Poissons Ratio (y) = 0.34026 0.20680
# Poissons Ratio (z) = 0.30893 0.18936
#
# Static dielectric constant tensor:
#      x y z
#    x 3.651550 0.000000 0.000000 
#    y 0.000000 3.235190 0.000000 
#    z 0.000000 0.000000 3.550400 
# 
# 
# High freq. dielectric constant tensor:
#      x y z
#    x 1.726490 0.000000 0.000000 
#    y 0.000000 1.704350 0.000000 
#    z 0.000000 0.000000 1.682050 
# 
# From -- ./inp_files/24495.got.cif
#   From: 2010.03.12/outbox.cif.g09.slc.cpg/sg47_13_cif.got.tgz:24495.got - 2010.04.14 03:12:58.
