data_PCOD8197815
_publ_section_title
;
Structure prediction by ZEFSAII (Michael W. Deem and Ramdas Pophale) SiO2 
 PCOD8197815
Probable space group: P M M M
;
_chemical_formula_sum "Si O2"
_cell_formula_units_Z 44
_cell_length_a 13.428756
_cell_length_b 8.803737
_cell_length_c 19.150902
_cell_angle_alpha 90.000000
_cell_angle_beta 90.000000
_cell_angle_gamma 90.000000
_cell_volume 2264.081608
_symmetry_space_group_name_H-M "P M M M"
_symmetry_group_IT_number 47
_symmetry_cell_setting 'orthorhombic'
loop_
_space_group_symop_operation_xyz
x,y,z
-x,-y,z
x,-y,-z
-x,y,-z
-x,-y,-z
x,y,-z
-x,y,z
x,-y,z
loop_
_atom_site_type_symbol
_atom_site_label
_atom_site_fract_x
_atom_site_fract_y
_atom_site_fract_z
Si Si1 0.000000 0.179005 0.079058
Si Si2 0.610227 0.674970 0.199632
Si Si3 0.789419 0.677819 0.579627
Si Si4 0.820410 0.325297 0.161254
Si Si5 0.885481 0.829111 0.704097
Si Si6 0.387925 0.825642 0.652928
O O1 0.102921 0.231357 0.114400
O O2 0.000000 0.000000 0.082819
O O3 0.000000 0.239739 0.000000
O O4 0.500000 0.705379 0.165553
O O5 0.617600 0.500000 0.224370
O O6 0.702057 0.706300 0.144932
O O7 0.623985 0.781312 0.266403
O O8 0.805998 0.727937 0.500000
O O9 0.806242 0.500000 0.589161
O O10 0.869613 0.767474 0.626162
O O11 0.678667 0.721302 0.603481
O O12 0.848283 0.500000 0.149971
O O13 0.830211 0.281712 0.242395
O O14 0.000000 0.828195 0.724035
O O15 0.842730 0.000000 0.710303
O O16 0.500000 0.800642 0.627200
O O17 0.354829 0.000000 0.645161
#
# Coordination Sequence:
#
# PCOD8197815 Si02
#       6
#     4   8   8   8   8   8
#     4  11  25  43  63  91 128 165 198 237 287 337
#     4   9  18  33  55  85 119 152 189 236 289 345
#     4  11  24  39  54  74 104 145 192 243 299 354
#     4  11  21  35  62  93 121 156 195 238 287 345
#     4  11  23  38  58  82 110 145 188 238 291 352
#     4  10  20  33  52  78 107 142 186 238 293 348
#
# _framework density 19.433928999999999
#
# number of rings (size 3 to 8) (size 9 to 14) (size 15 to 20)
#    0.000    1.545    2.727    2.455    0.000    5.818 
#    0.000    3.636    0.000    0.545    0.000    3.818 
#    0.000    0.000    0.000    0.000    0.000    0.000 
#
# Total GULP energy -545410.981433 kJ/mol
# GULP energy per Si atom -12395.704123 kJ/mol
# Density = 1.938970 g / cm^3
# Si number density = 19.433929 Si / 1000 Ang^3
#
#
#
# Elastic Constant Matrix: (Units=GPa)
#
#
# Indices 1 2 3 4 5 6 
#
# 1 113.6478 22.5860 44.9171 0.0000 0.0000 0.0000
# 2 22.5860 55.5437 21.7756 0.0000 0.0000 0.0000
# 3 44.9171 21.7756 74.6572 0.0000 0.0000 0.0000
# 4 0.0000 0.0000 0.0000 23.4728 0.0000 0.0000
# 5 0.0000 0.0000 0.0000 0.0000 19.0213 0.0000
# 6 0.0000 0.0000 0.0000 0.0000 0.0000 24.6654
#
#
#
# Elastic Compliance Matrix: (Units=1/GPa)
#
#
# Indices 1 2 3 4 5 6 
#
# 1 0.011793 -0.002274 -0.006432 0.000000 0.000000 0.000000
# 2 -0.002274 0.020767 -0.004689 0.000000 0.000000 0.000000
# 3 -0.006432 -0.004689 0.018632 0.000000 0.000000 0.000000
# 4 0.000000 0.000000 0.000000 0.042603 0.000000 0.000000
# 5 0.000000 0.000000 0.000000 0.000000 0.052573 0.000000
# 6 0.000000 0.000000 0.000000 0.000000 0.000000 0.040543
#
#
# Mechanical properties :
#
#
# Convention : Reuss Voigt Hill
#
# Bulk Modulus (GPa) = 40.98024 46.93400 43.95712
# Shear Modulus (GPa) = 22.53940 23.73657 23.13798
#
# Velocity S-wave (km/s) = 3.40927 3.49864 3.45425
# Velocity P-wave (km/s) = 6.05229 6.36582 6.21103
#
# Compressibility (1/GPa) = 0.02440200
#
# Stress axis : x y z
#
# Youngs Moduli (GPa) = 84.79481 48.15383 53.67089
#
# Poissons Ratio (x) = 0.10949 0.34522
# Poissons Ratio (y) = 0.19281 0.25167
# Poissons Ratio (z) = 0.54541 0.22580
#
# Static dielectric constant tensor:
#      x y z
#    x 3.951910 0.000000 0.000000 
#    y 0.000000 3.630140 0.000000 
#    z 0.000000 0.000000 3.232420 
# 
# 
# High freq. dielectric constant tensor:
#      x y z
#    x 1.780970 0.000000 0.000000 
#    y 0.000000 1.768020 0.000000 
#    z 0.000000 0.000000 1.710730 
# 
# From -- ./inp_files/26352.got.cif
#   From: 2010.03.12/outbox.cif.g09.slc.cpg/sg47_14_cif.got.tgz:26352.got - 2010.04.14 03:12:58.
