data_PCOD8197816
_publ_section_title
;
Structure prediction by ZEFSAII (Michael W. Deem and Ramdas Pophale) SiO2 
 PCOD8197816
Probable space group: P M M M
;
_chemical_formula_sum "Si O2"
_cell_formula_units_Z 64
_cell_length_a 20.621209
_cell_length_b 19.465619
_cell_length_c 8.874902
_cell_angle_alpha 90.000000
_cell_angle_beta 90.000000
_cell_angle_gamma 90.000000
_cell_volume 3562.426467
_symmetry_space_group_name_H-M "P M M M"
_symmetry_group_IT_number 47
_symmetry_cell_setting 'orthorhombic'
loop_
_space_group_symop_operation_xyz
x,y,z
-x,-y,z
x,-y,-z
-x,y,-z
-x,-y,-z
x,y,-z
-x,y,z
x,-y,z
loop_
_atom_site_type_symbol
_atom_site_label
_atom_site_fract_x
_atom_site_fract_y
_atom_site_fract_z
Si Si1 0.311868 0.203782 0.677859
Si Si2 0.119854 0.077723 0.675926
Si Si3 0.742777 0.922370 0.825382
Si Si4 0.813528 0.710155 0.677503
Si Si5 0.072876 0.206535 0.826931
Si Si6 0.573430 0.716522 0.175772
Si Si7 0.624288 0.426037 0.178318
Si Si8 0.229281 0.422633 0.176122
O O1 0.310617 0.192628 0.500000
O O2 0.310320 0.130163 0.761039
O O3 0.251103 0.250012 0.733376
O O4 0.379387 0.237791 0.724490
O O5 0.117053 0.094807 0.500000
O O6 0.192689 0.090236 0.730289
O O7 0.072808 0.128725 0.764626
O O8 0.097181 0.000000 0.709534
O O9 0.716840 0.000000 0.802885
O O10 0.757284 0.907372 0.000000
O O11 0.815798 0.708774 0.500000
O O12 0.877977 0.746794 0.734705
O O13 0.814845 0.632290 0.737617
O O14 0.000000 0.235599 0.808384
O O15 0.094564 0.206111 0.000000
O O16 0.500000 0.740821 0.204525
O O17 0.579362 0.637029 0.230035
O O18 0.592341 0.723306 0.000000
O O19 0.598227 0.500000 0.240832
O O20 0.697375 0.413978 0.236543
O O21 0.626289 0.430667 0.000000
O O22 0.204346 0.500000 0.210277
O O23 0.224997 0.406520 0.000000
#
# Coordination Sequence:
#
# PCOD8197816 Si02
#       8
#     8   8   8   8   8   8   8   8
#     4  11  22  35  54  80 109 145 183 222 271 323
#     4  10  20  34  53  79 112 148 183 218 262 320
#     4  10  20  34  56  84 110 138 175 223 274 320
#     4  11  22  35  55  82 109 143 183 225 274 324
#     4  11  24  39  56  79 108 145 186 228 274 322
#     4  10  20  33  52  78 108 145 186 228 273 319
#     4   8  14  26  46  74 106 139 177 219 263 311
#     4   9  17  31  54  81 108 141 180 224 273 321
#
# _framework density 17.965284
#
# number of rings (size 3 to 8) (size 9 to 14) (size 15 to 20)
#    0.000    2.000    2.500    2.625    0.000    4.500 
#    0.000    2.500    0.000    1.125    0.000    6.125 
#    0.000    0.000    0.000    0.000    0.000    0.000 
#
# Total GULP energy -793554.787265 kJ/mol
# GULP energy per Si atom -12399.293551 kJ/mol
# Density = 1.792439 g / cm^3
# Si number density = 17.965284 Si / 1000 Ang^3
#
#
#
# Elastic Constant Matrix: (Units=GPa)
#
#
# Indices 1 2 3 4 5 6 
#
# 1 74.5878 43.5705 23.2322 0.0000 0.0000 0.0000
# 2 43.5705 105.8189 37.7754 0.0000 0.0000 0.0000
# 3 23.2322 37.7754 53.2500 0.0000 0.0000 0.0000
# 4 0.0000 0.0000 0.0000 26.4691 0.0000 0.0000
# 5 0.0000 0.0000 0.0000 0.0000 21.7262 0.0000
# 6 0.0000 0.0000 0.0000 0.0000 0.0000 25.1816
#
#
#
# Elastic Compliance Matrix: (Units=1/GPa)
#
#
# Indices 1 2 3 4 5 6 
#
# 1 0.018127 -0.006214 -0.003500 0.000000 0.000000 0.000000
# 2 -0.006214 0.014785 -0.007777 0.000000 0.000000 0.000000
# 3 -0.003500 -0.007777 0.025824 0.000000 0.000000 0.000000
# 4 0.000000 0.000000 0.000000 0.037780 0.000000 0.000000
# 5 0.000000 0.000000 0.000000 0.000000 0.046027 0.000000
# 6 0.000000 0.000000 0.000000 0.000000 0.000000 0.039712
#
#
# Mechanical properties :
#
#
# Convention : Reuss Voigt Hill
#
# Bulk Modulus (GPa) = 42.10115 49.20146 45.65130
# Shear Modulus (GPa) = 22.20676 23.28060 22.74368
#
# Velocity S-wave (km/s) = 3.51963 3.60372 3.56192
# Velocity P-wave (km/s) = 6.32476 6.69045 6.51018
#
# Compressibility (1/GPa) = 0.02375232
#
# Stress axis : x y z
#
# Youngs Moduli (GPa) = 55.16519 67.63518 38.72411
#
# Poissons Ratio (x) = 0.42031 0.13555
# Poissons Ratio (y) = 0.34282 0.30117
# Poissons Ratio (z) = 0.19309 0.52602
#
# Static dielectric constant tensor:
#      x y z
#    x 3.060050 0.000000 0.000000 
#    y 0.000000 3.576130 0.000000 
#    z 0.000000 0.000000 3.213970 
# 
# 
# High freq. dielectric constant tensor:
#      x y z
#    x 1.666420 0.000000 0.000000 
#    y 0.000000 1.701930 0.000000 
#    z 0.000000 0.000000 1.689980 
# 
# From -- ./inp_files/10030.got.cif
#   From: 2010.03.12/outbox.cif.g09.slc.cpg/sg47_6_cif.got.tgz:10030.got - 2010.04.14 03:12:58.
