data_PCOD8197732
_publ_section_title
;
Structure prediction by ZEFSAII (Michael W. Deem and Ramdas Pophale) SiO2 
 PCOD8197732
Probable space group: P M M M
;
_chemical_formula_sum "Si O2"
_cell_formula_units_Z 52
_cell_length_a 9.616865
_cell_length_b 9.164078
_cell_length_c 32.514220
_cell_angle_alpha 90.000000
_cell_angle_beta 90.000000
_cell_angle_gamma 90.000000
_cell_volume 2865.468486
_symmetry_space_group_name_H-M "P M M M"
_symmetry_group_IT_number 47
_symmetry_cell_setting 'orthorhombic'
loop_
_space_group_symop_operation_xyz
x,y,z
-x,-y,z
x,-y,-z
-x,y,-z
-x,-y,-z
x,y,-z
-x,y,z
x,-y,z
loop_
_atom_site_type_symbol
_atom_site_label
_atom_site_fract_x
_atom_site_fract_y
_atom_site_fract_z
Si Si1 0.338151 0.329900 0.419441
Si Si2 0.339183 0.670067 0.805615
Si Si3 0.334699 0.835217 0.500000
Si Si4 0.160134 0.166517 0.740864
Si Si5 0.160223 0.333289 0.047597
Si Si6 0.160110 0.833100 0.354484
Si Si7 0.339165 0.170105 0.112513
O O1 0.500000 0.295729 0.412397
O O2 0.311363 0.500000 0.426157
O O3 0.279402 0.246805 0.459519
O O4 0.256322 0.275863 0.379705
O O5 0.500000 0.706632 0.797607
O O6 0.312746 0.500000 0.811756
O O7 0.254404 0.724347 0.766510
O O8 0.285036 0.750118 0.846528
O O9 0.500000 0.832149 0.500000
O O10 0.276852 0.000000 0.500000
O O11 0.187288 0.199511 0.693196
O O12 0.000000 0.194942 0.752037
O O13 0.200668 0.000000 0.751187
O O14 0.201058 0.500000 0.057542
O O15 0.254300 0.224675 0.073469
O O16 0.000000 0.305578 0.058813
O O17 0.187413 0.298660 0.000000
O O18 0.000000 0.803448 0.365667
O O19 0.199471 0.000000 0.364918
O O20 0.500000 0.206721 0.104524
O O21 0.312733 0.000000 0.118554
#
# Coordination Sequence:
#
# PCOD8197732 Si02
#       7
#     8   8   4   8   8   8   8
#     4  10  20  33  51  77 107 136 168 209 256 305
#     4  10  21  36  54  77 105 136 171 212 257 305
#     4   9  17  31  52  75 100 133 172 212 254 301
#     4   9  19  36  56  77 102 134 172 212 255 304
#     4   9  19  36  56  78 105 137 173 212 254 302
#     4   9  19  36  55  75 102 136 173 212 253 300
#     4  10  21  36  54  77 105 137 173 212 255 304
#
# _framework density 18.147120999999999
#
# number of rings (size 3 to 8) (size 9 to 14) (size 15 to 20)
#    0.000    2.538    0.000    3.000    0.000    7.077 
#    0.000    7.308    0.000    2.308    0.000    0.000 
#    0.000    0.000    0.000    0.000    0.000    0.000 
#
# Total GULP energy -644961.643364 kJ/mol
# GULP energy per Si atom -12403.108526 kJ/mol
# Density = 1.810582 g / cm^3
# Si number density = 18.147121 Si / 1000 Ang^3
#
#
#
# Elastic Constant Matrix: (Units=GPa)
#
#
# Indices 1 2 3 4 5 6 
#
# 1 63.3860 53.7245 56.6359 0.0000 0.0000 0.0000
# 2 53.7245 109.3733 66.8501 0.0000 0.0000 0.0000
# 3 56.6359 66.8501 105.3798 0.0000 0.0000 0.0000
# 4 0.0000 0.0000 0.0000 39.6624 0.0000 0.0000
# 5 0.0000 0.0000 0.0000 0.0000 -85.7472 0.0000
# 6 0.0000 0.0000 0.0000 0.0000 0.0000 33.2359
#
#
#
# Elastic Compliance Matrix: (Units=1/GPa)
#
#
# Indices 1 2 3 4 5 6 
#
# 1 0.035438 -0.009418 -0.013072 0.000000 0.000000 0.000000
# 2 -0.009418 0.017436 -0.005999 0.000000 0.000000 0.000000
# 3 -0.013072 -0.005999 0.020321 0.000000 0.000000 0.000000
# 4 0.000000 0.000000 0.000000 0.025213 0.000000 0.000000
# 5 0.000000 0.000000 0.000000 0.000000 -0.011662 0.000000
# 6 0.000000 0.000000 0.000000 0.000000 0.000000 0.030088
#
#
# Mechanical properties :
#
#
# Convention : Reuss Voigt Hill
#
# Bulk Modulus (GPa) = 61.66317 70.28444 65.97380
# Shear Modulus (GPa) = 27.89913 4.15880 16.02896
#
# Velocity S-wave (km/s) = 3.92520 1.51548 2.97522
# Velocity P-wave (km/s) = 7.38893 6.47122 6.94525
#
# Compressibility (1/GPa) = 0.01621714
#
# Stress axis : x y z
#
# Youngs Moduli (GPa) = 28.21793 57.35297 49.21103
#
# Poissons Ratio (x) = 0.54014 0.64328
# Poissons Ratio (y) = 0.26575 0.29523
# Poissons Ratio (z) = 0.36886 0.34408
#
# Static dielectric constant tensor:
#      x y z
#    x 3.181750 0.000000 0.000000 
#    y 0.000000 3.346930 0.000000 
#    z 0.000000 0.000000 3.332670 
# 
# 
# High freq. dielectric constant tensor:
#      x y z
#    x 1.689770 0.000000 0.000000 
#    y 0.000000 1.709670 0.000000 
#    z 0.000000 0.000000 1.709870 
# 
# From -- ./inp_files/33573.got.cif
#   From: 2010.03.12/outbox.cif.g09.slc.cpg/sg47_17_cif.got.tgz:33573.got - 2010.04.14 03:12:58.
