data_PCOD8197753
_publ_section_title
;
Structure prediction by ZEFSAII (Michael W. Deem and Ramdas Pophale) SiO2 
 PCOD8197753
Probable space group: P M M M
;
_chemical_formula_sum "Si O2"
_cell_formula_units_Z 52
_cell_length_a 10.779225
_cell_length_b 8.902136
_cell_length_c 30.452210
_cell_angle_alpha 90.000000
_cell_angle_beta 90.000000
_cell_angle_gamma 90.000000
_cell_volume 2922.137032
_symmetry_space_group_name_H-M "P M M M"
_symmetry_group_IT_number 47
_symmetry_cell_setting 'orthorhombic'
loop_
_space_group_symop_operation_xyz
x,y,z
-x,-y,z
x,-y,-z
-x,y,-z
-x,-y,-z
x,y,-z
-x,y,z
x,-y,z
loop_
_atom_site_type_symbol
_atom_site_label
_atom_site_fract_x
_atom_site_fract_y
_atom_site_fract_z
Si Si1 0.645238 0.164940 0.751681
Si Si2 0.767698 0.177250 0.413693
Si Si3 0.647386 0.331603 0.667185
Si Si4 0.000000 0.676582 0.449727
Si Si5 0.854498 0.833059 0.000000
Si Si6 0.633162 0.178063 0.500000
Si Si7 0.357233 0.821541 0.149465
Si Si8 0.144086 0.678165 0.910128
O O1 0.500000 0.147319 0.744412
O O2 0.698700 0.276798 0.714637
O O3 0.669991 0.228004 0.800426
O O4 0.707063 0.000000 0.746183
O O5 0.697010 0.219331 0.369526
O O6 0.694986 0.236762 0.456011
O O7 0.892677 0.267241 0.418236
O O8 0.790839 0.000000 0.414549
O O9 0.500000 0.327288 0.665825
O O10 0.696882 0.500000 0.659247
O O11 0.000000 0.500000 0.453981
O O12 0.000000 0.745161 0.500000
O O13 0.813676 0.741328 0.957208
O O14 0.000000 0.851874 0.000000
O O15 0.793040 0.000000 0.000000
O O16 0.500000 0.253546 0.500000
O O17 0.627302 0.000000 0.500000
O O18 0.500000 0.773879 0.136250
O O19 0.247573 0.741338 0.122852
O O20 0.345010 0.000000 0.143925
O O21 0.153277 0.500000 0.911102
O O22 0.000000 0.725699 0.898583
#
# Coordination Sequence:
#
# PCOD8197753 Si02
#       8
#     8   8   8   4   4   4   8   8
#     4   8  15  30  52  76 102 134 172 213 256 305
#     4  11  21  35  56  77 101 132 172 211 244 292
#     4  10  20  33  51  79 111 138 166 205 258 311
#     4  11  23  39  57  75 101 133 167 205 251 300
#     4   9  17  31  52  75 100 137 184 228 270 317
#     4   9  18  31  49  76 104 127 156 199 246 287
#     4   9  18  33  54  80 108 139 179 225 270 317
#     4  10  20  33  51  77 109 143 179 221 270 324
#
# _framework density 17.795196000000001
#
# number of rings (size 3 to 8) (size 9 to 14) (size 15 to 20)
#    0.000    2.385    0.769    3.231    0.000    4.615 
#    0.000    1.923    1.692    4.154    0.000    0.000 
#    0.000    0.000    0.000    0.000    0.000    0.000 
#
# Total GULP energy -644313.426448 kJ/mol
# GULP energy per Si atom -12390.642816 kJ/mol
# Density = 1.775469 g / cm^3
# Si number density = 17.795196 Si / 1000 Ang^3
#
#
#
# Elastic Constant Matrix: (Units=GPa)
#
#
# Indices 1 2 3 4 5 6 
#
# 1 84.6472 37.7084 51.8151 0.0000 0.0000 0.0000
# 2 37.7084 81.1712 48.1606 0.0000 0.0000 0.0000
# 3 51.8151 48.1606 133.9265 0.0000 0.0000 0.0000
# 4 0.0000 0.0000 0.0000 30.1248 0.0000 0.0000
# 5 0.0000 0.0000 0.0000 0.0000 -165.1606 0.0000
# 6 0.0000 0.0000 0.0000 0.0000 0.0000 22.6316
#
#
#
# Elastic Compliance Matrix: (Units=1/GPa)
#
#
# Indices 1 2 3 4 5 6 
#
# 1 0.016977 -0.005072 -0.004745 0.000000 0.000000 0.000000
# 2 -0.005072 0.017176 -0.004214 0.000000 0.000000 0.000000
# 3 -0.004745 -0.004214 0.010818 0.000000 0.000000 0.000000
# 4 0.000000 0.000000 0.000000 0.033195 0.000000 0.000000
# 5 0.000000 0.000000 0.000000 0.000000 -0.006055 0.000000
# 6 0.000000 0.000000 0.000000 0.000000 0.000000 0.044186
#
#
# Mechanical properties :
#
#
# Convention : Reuss Voigt Hill
#
# Bulk Modulus (GPa) = 59.13672 63.90145 61.51908
# Shear Modulus (GPa) = 33.33409 -11.67679 10.82865
#
# Velocity S-wave (km/s) = 4.33275 -2.56437 2.46949
# Velocity P-wave (km/s) = 7.63769 5.21721 6.54040
#
# Compressibility (1/GPa) = 0.01690997
#
# Stress axis : x y z
#
# Youngs Moduli (GPa) = 58.90173 58.21981 92.43903
#
# Poissons Ratio (x) = 0.29528 0.43858
# Poissons Ratio (y) = 0.29874 0.38958
# Poissons Ratio (z) = 0.27946 0.24536
#
# Static dielectric constant tensor:
#      x y z
#    x 3.037930 0.000000 0.000000 
#    y 0.000000 3.390540 0.000000 
#    z 0.000000 0.000000 3.478370 
# 
# 
# High freq. dielectric constant tensor:
#      x y z
#    x 1.662920 0.000000 0.000000 
#    y 0.000000 1.688930 0.000000 
#    z 0.000000 0.000000 1.694620 
# 
# From -- ./inp_files/33691.got.cif
#   From: 2010.03.12/outbox.cif.g09.slc.cpg/sg47_17_cif.got.tgz:33691.got - 2010.04.14 03:12:58.
