data_PCOD8197602
_publ_section_title
;
Structure prediction by ZEFSAII (Michael W. Deem and Ramdas Pophale) SiO2 
 PCOD8197602
Probable space group: P M M M
;
_chemical_formula_sum "Si O2"
_cell_formula_units_Z 48
_cell_length_a 8.928563
_cell_length_b 8.952068
_cell_length_c 30.929750
_cell_angle_alpha 90.000000
_cell_angle_beta 90.000000
_cell_angle_gamma 90.000000
_cell_volume 2472.187177
_symmetry_space_group_name_H-M "P M M M"
_symmetry_group_IT_number 47
_symmetry_cell_setting 'orthorhombic'
loop_
_space_group_symop_operation_xyz
x,y,z
-x,-y,z
x,-y,-z
-x,y,-z
-x,-y,-z
x,y,-z
-x,y,z
x,-y,z
loop_
_atom_site_type_symbol
_atom_site_label
_atom_site_fract_x
_atom_site_fract_y
_atom_site_fract_z
Si Si1 0.668890 0.322755 0.671357
Si Si2 0.324069 0.172281 0.839584
Si Si3 0.825784 0.674171 0.080878
Si Si4 0.669086 0.321833 0.500000
Si Si5 0.173475 0.827406 0.249595
Si Si6 0.168985 0.678030 0.585647
Si Si7 0.328855 0.176684 0.000000
O O1 0.500000 0.260297 0.675496
O O2 0.668653 0.500000 0.671137
O O3 0.769058 0.269523 0.710855
O O4 0.740274 0.261165 0.626981
O O5 0.500000 0.200082 0.841347
O O6 0.245502 0.277540 0.874093
O O7 0.264698 0.220430 0.792785
O O8 0.283667 0.000000 0.849429
O O9 0.797239 0.500000 0.073378
O O10 0.750569 0.763751 0.042425
O O11 0.000000 0.713509 0.081656
O O12 0.670059 0.500000 0.500000
O O13 0.500000 0.260806 0.500000
O O14 0.752905 0.259803 0.542383
O O15 0.000000 0.792516 0.241317
O O16 0.201114 0.000000 0.260615
O O17 0.169046 0.500000 0.585195
O O18 0.000000 0.739841 0.587774
O O19 0.500000 0.231231 0.000000
O O20 0.318002 0.000000 0.000000
#
# Coordination Sequence:
#
# PCOD8197602 Si02
#       7
#     8   8   8   4   8   8   4
#     4  10  20  33  50  74 104 137 173 215 265 318
#     4  10  21  38  60  84 109 140 180 223 267 318
#     4  11  24  40  59  86 118 150 185 225 270 320
#     4   9  15  23  37  59  90 127 166 209 258 313
#     4  10  21  37  57  80 106 139 179 221 266 317
#     4   9  16  26  41  63  93 129 168 211 260 313
#     4  11  24  41  62  88 116 149 190 231 272 320
#
# _framework density 19.416007
#
# number of rings (size 3 to 8) (size 9 to 14) (size 15 to 20)
#    0.000    2.000    0.000    3.750    0.000   11.667 
#    0.000    0.000    0.000    0.000    0.000    0.583 
#    0.000    4.667    0.000    0.000    0.000    0.000 
#
# Total GULP energy -595387.162047 kJ/mol
# GULP energy per Si atom -12403.899209 kJ/mol
# Density = 1.937182 g / cm^3
# Si number density = 19.416007 Si / 1000 Ang^3
#
#
#
# Elastic Constant Matrix: (Units=GPa)
#
#
# Indices 1 2 3 4 5 6 
#
# 1 125.2298 35.7670 55.6135 0.0000 0.0000 0.0000
# 2 35.7670 24.4388 31.3841 0.0000 0.0000 0.0000
# 3 55.6135 31.3841 139.5355 0.0000 0.0000 0.0000
# 4 0.0000 0.0000 0.0000 97.7593 0.0000 0.0000
# 5 0.0000 0.0000 0.0000 0.0000 46.2715 0.0000
# 6 0.0000 0.0000 0.0000 0.0000 0.0000 23.8735
#
#
#
# Elastic Compliance Matrix: (Units=1/GPa)
#
#
# Indices 1 2 3 4 5 6 
#
# 1 0.013901 -0.018602 -0.001356 0.000000 0.000000 0.000000
# 2 -0.018602 0.082432 -0.011126 0.000000 0.000000 0.000000
# 3 -0.001356 -0.011126 0.010210 0.000000 0.000000 0.000000
# 4 0.000000 0.000000 0.000000 0.010229 0.000000 0.000000
# 5 0.000000 0.000000 0.000000 0.000000 0.021612 0.000000
# 6 0.000000 0.000000 0.000000 0.000000 0.000000 0.041887
#
#
# Mechanical properties :
#
#
# Convention : Reuss Voigt Hill
#
# Bulk Modulus (GPa) = 22.53647 59.41482 40.97564
# Shear Modulus (GPa) = 19.43774 44.67682 32.05728
#
# Velocity S-wave (km/s) = 3.16748 4.80211 4.06775
# Velocity P-wave (km/s) = 5.00096 7.83673 6.57358
#
# Compressibility (1/GPa) = 0.04437251
#
# Stress axis : x y z
#
# Youngs Moduli (GPa) = 71.93892 12.13119 97.94612
#
# Poissons Ratio (x) = 0.22567 0.13284
# Poissons Ratio (y) = 1.33824 1.08978
# Poissons Ratio (z) = 0.09757 0.13498
#
# Static dielectric constant tensor:
#      x y z
#    x 3.834440 0.000000 0.000000 
#    y 0.000000 3.206470 0.000000 
#    z 0.000000 0.000000 3.717680 
# 
# 
# High freq. dielectric constant tensor:
#      x y z
#    x 1.777600 0.000000 0.000000 
#    y 0.000000 1.719140 0.000000 
#    z 0.000000 0.000000 1.774070 
# 
# From -- ./inp_files/13908.got.cif
#   From: 2010.03.12/outbox.cif.g09.slc.cpg/sg47_7_cif.got.tgz:13908.got - 2010.04.14 03:12:58.
