data_PCOD8197287
_publ_section_title
;
Structure prediction by ZEFSAII (Michael W. Deem and Ramdas Pophale) SiO2 
 PCOD8197287
Probable space group: P M M M
;
_chemical_formula_sum "Si O2"
_cell_formula_units_Z 52
_cell_length_a 9.451622
_cell_length_b 29.303943
_cell_length_c 12.016978
_cell_angle_alpha 90.000000
_cell_angle_beta 90.000000
_cell_angle_gamma 90.000000
_cell_volume 3328.339901
_symmetry_space_group_name_H-M "P M M M"
_symmetry_group_IT_number 47
_symmetry_cell_setting 'orthorhombic'
loop_
_space_group_symop_operation_xyz
x,y,z
-x,-y,z
x,-y,-z
-x,y,-z
-x,-y,-z
x,y,-z
-x,y,z
x,-y,z
loop_
_atom_site_type_symbol
_atom_site_label
_atom_site_fract_x
_atom_site_fract_y
_atom_site_fract_z
Si Si1 0.747253 0.611613 0.367556
Si Si2 0.000000 0.551943 0.367093
Si Si3 0.838684 0.795784 0.632330
Si Si4 0.835833 0.945888 0.214501
Si Si5 0.336051 0.883621 0.631878
Si Si6 0.500000 0.550304 0.632634
Si Si7 0.338621 0.709979 0.367223
Si Si8 0.337856 0.054181 0.000000
O O1 0.749303 0.614729 0.500000
O O2 0.627497 0.579203 0.321299
O O3 0.729226 0.662909 0.320842
O O4 0.877220 0.583575 0.320187
O O5 0.000000 0.500000 0.318924
O O6 0.000000 0.548205 0.500000
O O7 0.843158 0.794834 0.500000
O O8 0.744409 0.838214 0.673858
O O9 0.760785 0.750526 0.678178
O O10 0.000000 0.798604 0.678825
O O11 0.751841 0.926141 0.320099
O O12 0.750554 0.928319 0.106286
O O13 0.000000 0.929389 0.210466
O O14 0.830712 0.000000 0.224161
O O15 0.330687 0.887855 0.500000
O O16 0.500000 0.883196 0.672524
O O17 0.500000 0.500000 0.685430
O O18 0.500000 0.546592 0.500000
O O19 0.340588 0.709952 0.500000
O O20 0.500000 0.715699 0.323804
O O21 0.500000 0.073363 0.000000
O O22 0.343579 0.000000 0.000000
#
# Coordination Sequence:
#
# PCOD8197287 Si02
#       8
#     8   4   8   8   8   4   8   4
#     4   9  15  21  28  38  51  69  95 129 169 219
#     4   9  16  22  26  34  50  70  92 124 169 220
#     4   9  17  27  40  55  71  94 123 158 200 245
#     4  10  20  33  50  71  95 121 148 180 215 253
#     4  10  20  33  47  64  88 117 148 180 216 261
#     4   9  14  20  28  36  48  68  94 124 165 218
#     4   9  15  23  33  45  60  78 105 142 183 228
#     4   9  17  31  51  73  95 119 149 181 213 249
#
# _framework density 15.623405
#
# number of rings (size 3 to 8) (size 9 to 14) (size 15 to 20)
#    0.000    2.692    0.769    2.077    1.077    6.769 
#    0.000    1.538    0.000    0.000    0.000    0.000 
#    0.000    0.000    0.000    0.000    0.000    0.000 
#
# Total GULP energy -644206.628134 kJ/mol
# GULP energy per Si atom -12388.589003 kJ/mol
# Density = 1.558784 g / cm^3
# Si number density = 15.623405 Si / 1000 Ang^3
#
#
#
# Elastic Constant Matrix: (Units=GPa)
#
#
# Indices 1 2 3 4 5 6 
#
# 1 165.6300 59.8230 22.3276 0.0000 0.0000 0.0000
# 2 59.8230 83.7769 18.9298 0.0000 0.0000 0.0000
# 3 22.3276 18.9298 17.1796 0.0000 0.0000 0.0000
# 4 0.0000 0.0000 0.0000 0.7194 0.0000 0.0000
# 5 0.0000 0.0000 0.0000 0.0000 14.2623 0.0000
# 6 0.0000 0.0000 0.0000 0.0000 0.0000 7.7636
#
#
#
# Elastic Compliance Matrix: (Units=1/GPa)
#
#
# Indices 1 2 3 4 5 6 
#
# 1 0.008555 -0.004789 -0.005842 0.000000 0.000000 0.000000
# 2 -0.004789 0.018574 -0.014243 0.000000 0.000000 0.000000
# 3 -0.005842 -0.014243 0.081495 0.000000 0.000000 0.000000
# 4 0.000000 0.000000 0.000000 1.390053 0.000000 0.000000
# 5 0.000000 0.000000 0.000000 0.000000 0.070115 0.000000
# 6 0.000000 0.000000 0.000000 0.000000 0.000000 0.128807
#
#
# Mechanical properties :
#
#
# Convention : Reuss Voigt Hill
#
# Bulk Modulus (GPa) = 16.98448 52.08302 34.53375
# Shear Modulus (GPa) = 2.82970 15.58278 9.20624
#
# Velocity S-wave (km/s) = 1.34727 3.16159 2.43010
# Velocity P-wave (km/s) = 3.64896 6.83641 5.47957
#
# Compressibility (1/GPa) = 0.05887729
#
# Stress axis : x y z
#
# Youngs Moduli (GPa) = 116.89570 53.83814 12.27077
#
# Poissons Ratio (x) = 0.25782 0.07168
# Poissons Ratio (y) = 0.55978 0.17477
# Poissons Ratio (z) = 0.68285 0.76680
#
# Static dielectric constant tensor:
#      x y z
#    x 3.317710 0.000000 0.000000 
#    y 0.000000 3.135500 0.000000 
#    z 0.000000 0.000000 2.292680 
# 
# 
# High freq. dielectric constant tensor:
#      x y z
#    x 1.626710 0.000000 0.000000 
#    y 0.000000 1.607680 0.000000 
#    z 0.000000 0.000000 1.503080 
# 
# From -- ./inp_files/15698.got.cif
#   From: 2010.03.12/outbox.cif.g09.slc.cpg/sg47_8_cif.got.tgz:15698.got - 2010.04.14 03:12:58.
