data_PCOD8197573
_publ_section_title
;
Structure prediction by ZEFSAII (Michael W. Deem and Ramdas Pophale) SiO2 
 PCOD8197573
Probable space group: P M M M
;
_chemical_formula_sum "Si O2"
_cell_formula_units_Z 48
_cell_length_a 27.986563
_cell_length_b 9.086926
_cell_length_c 10.372272
_cell_angle_alpha 90.000000
_cell_angle_beta 90.000000
_cell_angle_gamma 90.000000
_cell_volume 2637.791442
_symmetry_space_group_name_H-M "P M M M"
_symmetry_group_IT_number 47
_symmetry_cell_setting 'orthorhombic'
loop_
_space_group_symop_operation_xyz
x,y,z
-x,-y,z
x,-y,-z
-x,y,-z
-x,-y,-z
x,y,-z
-x,y,z
x,-y,z
loop_
_atom_site_type_symbol
_atom_site_label
_atom_site_fract_x
_atom_site_fract_y
_atom_site_fract_z
Si Si1 0.310270 0.674325 0.350923
Si Si2 0.943419 0.162691 0.500000
Si Si3 0.500000 0.666639 0.345975
Si Si4 0.053962 0.327560 0.751453
Si Si5 0.759643 0.173866 0.149803
Si Si6 0.592656 0.165111 0.652187
Si Si7 0.864294 0.842028 0.854304
O O1 0.297198 0.716182 0.500000
O O2 0.313599 0.500000 0.335991
O O3 0.272521 0.736543 0.249285
O O4 0.360630 0.743598 0.309684
O O5 0.925877 0.251944 0.376906
O O6 0.000000 0.155712 0.500000
O O7 0.920958 0.000000 0.500000
O O8 0.500000 0.500000 0.293027
O O9 0.500000 0.665211 0.500000
O O10 0.546533 0.750771 0.291347
O O11 0.054678 0.500000 0.732439
O O12 0.092523 0.276100 0.855303
O O13 0.000000 0.276132 0.788222
O O14 0.813531 0.213469 0.200883
O O15 0.750189 0.000000 0.164216
O O16 0.750646 0.222527 0.000000
O O17 0.587586 0.155114 0.500000
O O18 0.595577 0.000000 0.710608
O O19 0.880217 0.000000 0.791336
O O20 0.851378 0.874664 0.000000
#
# Coordination Sequence:
#
# PCOD8197573 Si02
#       7
#     8   4   4   8   8   8   8
#     4  10  20  33  50  76 108 138 171 214 263 311
#     4   9  17  31  51  71  93 125 163 197 231 278
#     4   9  15  23  37  61  96 135 172 211 258 311
#     4  10  20  33  50  74 103 131 159 196 244 296
#     4   9  19  37  58  77  99 131 173 217 259 308
#     4   9  16  26  42  65  96 135 175 214 257 305
#     4   9  19  36  55  74  97 127 165 206 246 293
#
# _framework density 18.197040999999999
#
# number of rings (size 3 to 8) (size 9 to 14) (size 15 to 20)
#    0.000    2.667    0.000    3.000    0.000    7.667 
#    1.500    3.333    0.000    0.000    0.000    0.583 
#    0.000    4.667    0.000    0.000    0.000    0.000 
#
# Total GULP energy -594748.552573 kJ/mol
# GULP energy per Si atom -12390.594845 kJ/mol
# Density = 1.815562 g / cm^3
# Si number density = 18.197041 Si / 1000 Ang^3
#
#
#
# Elastic Constant Matrix: (Units=GPa)
#
#
# Indices 1 2 3 4 5 6 
#
# 1 143.1608 75.1173 42.7740 0.0000 0.0000 0.0000
# 2 75.1173 118.1510 33.9048 0.0000 0.0000 0.0000
# 3 42.7740 33.9048 49.8799 0.0000 0.0000 0.0000
# 4 0.0000 0.0000 0.0000 21.4321 0.0000 0.0000
# 5 0.0000 0.0000 0.0000 0.0000 9.0410 0.0000
# 6 0.0000 0.0000 0.0000 0.0000 0.0000 32.0823
#
#
#
# Elastic Compliance Matrix: (Units=1/GPa)
#
#
# Indices 1 2 3 4 5 6 
#
# 1 0.011878 -0.005750 -0.006277 0.000000 0.000000 0.000000
# 2 -0.005750 0.013299 -0.004108 0.000000 0.000000 0.000000
# 3 -0.006277 -0.004108 0.028224 0.000000 0.000000 0.000000
# 4 0.000000 0.000000 0.000000 0.046659 0.000000 0.000000
# 5 0.000000 0.000000 0.000000 0.000000 0.110607 0.000000
# 6 0.000000 0.000000 0.000000 0.000000 0.000000 0.031170
#
#
# Mechanical properties :
#
#
# Convention : Reuss Voigt Hill
#
# Bulk Modulus (GPa) = 47.32931 68.30935 57.81933
# Shear Modulus (GPa) = 17.78407 23.13744 20.46076
#
# Velocity S-wave (km/s) = 3.12958 3.56967 3.35685
# Velocity P-wave (km/s) = 6.25499 7.38988 6.84599
#
# Compressibility (1/GPa) = 0.02112856
#
# Stress axis : x y z
#
# Youngs Moduli (GPa) = 84.19009 75.19594 35.43146
#
# Poissons Ratio (x) = 0.43240 0.22241
# Poissons Ratio (y) = 0.48412 0.14556
# Poissons Ratio (z) = 0.52847 0.30893
#
# Static dielectric constant tensor:
#      x y z
#    x 3.410430 0.000000 0.000000 
#    y 0.000000 3.435980 0.000000 
#    z 0.000000 0.000000 3.076260 
# 
# 
# High freq. dielectric constant tensor:
#      x y z
#    x 1.708190 0.000000 0.000000 
#    y 0.000000 1.714730 0.000000 
#    z 0.000000 0.000000 1.662660 
# 
# From -- ./inp_files/13961.got.cif
#   From: 2010.03.12/outbox.cif.g09.slc.cpg/sg47_7_cif.got.tgz:13961.got - 2010.04.14 03:12:58.
