data_PCOD8197328
_publ_section_title
;
Structure prediction by ZEFSAII (Michael W. Deem and Ramdas Pophale) SiO2 
 PCOD8197328
Probable space group: P M M M
;
_chemical_formula_sum "Si O2"
_cell_formula_units_Z 64
_cell_length_a 18.518206
_cell_length_b 20.776225
_cell_length_c 9.150729
_cell_angle_alpha 90.000000
_cell_angle_beta 90.000000
_cell_angle_gamma 90.000000
_cell_volume 3520.636967
_symmetry_space_group_name_H-M "P M M M"
_symmetry_group_IT_number 47
_symmetry_cell_setting 'orthorhombic'
loop_
_space_group_symop_operation_xyz
x,y,z
-x,-y,z
x,-y,-z
-x,y,-z
-x,-y,-z
x,y,-z
-x,y,z
x,-y,z
loop_
_atom_site_type_symbol
_atom_site_label
_atom_site_fract_x
_atom_site_fract_y
_atom_site_fract_z
Si Si1 0.580711 0.428973 0.173409
Si Si2 0.085848 0.070051 0.835098
Si Si3 0.918334 0.807324 0.329208
Si Si4 0.414263 0.928953 0.164117
Si Si5 0.669250 0.307583 0.825517
Si Si6 0.414311 0.195197 0.332216
Si Si7 0.821269 0.312939 0.672972
Si Si8 0.919475 0.571723 0.326594
O O1 0.500000 0.415397 0.233758
O O2 0.606761 0.500000 0.226336
O O3 0.634627 0.374476 0.232149
O O4 0.578715 0.427006 0.000000
O O5 0.117293 0.128488 0.739695
O O6 0.000000 0.071095 0.826777
O O7 0.113305 0.000000 0.777622
O O8 0.112645 0.080155 0.000000
O O9 0.917808 0.818121 0.500000
O O10 0.871892 0.746238 0.283264
O O11 0.000000 0.795825 0.272559
O O12 0.500000 0.928920 0.164231
O O13 0.386047 0.874129 0.274523
O O14 0.386620 0.000000 0.214271
O O15 0.386248 0.914128 0.000000
O O16 0.621304 0.249702 0.765961
O O17 0.748524 0.303817 0.761047
O O18 0.671572 0.303645 0.000000
O O19 0.389866 0.202498 0.500000
O O20 0.500000 0.201364 0.315467
O O21 0.805818 0.315528 0.500000
O O22 0.861095 0.377271 0.731437
O O23 0.922319 0.575927 0.500000
O O24 0.896153 0.500000 0.275981
O O25 0.000000 0.587620 0.266326
#
# Coordination Sequence:
#
# PCOD8197328 Si02
#       8
#     8   8   8   8   8   8   8   8
#     4   8  15  30  52  75  96 120 155 199 243 287
#     4   8  14  25  42  66  95 123 151 189 239 290
#     4   9  17  29  47  70  94 124 162 201 241 285
#     4   8  14  26  46  73 103 132 163 201 244 291
#     4  11  22  34  50  72  99 133 170 205 243 294
#     4  10  20  33  51  75 102 132 166 206 251 296
#     4  10  20  33  48  69 100 132 162 203 249 289
#     4   8  14  27  50  77 100 126 164 205 244 292
#
# _framework density 18.178528
#
# number of rings (size 3 to 8) (size 9 to 14) (size 15 to 20)
#    0.000    3.000    0.000    3.000    0.000    4.250 
#    0.000    2.500    0.000    3.000    0.000    8.750 
#    0.000    0.000    0.000    0.000    0.000    0.000 
#
# Total GULP energy -793205.177655 kJ/mol
# GULP energy per Si atom -12393.830901 kJ/mol
# Density = 1.813715 g / cm^3
# Si number density = 18.178528 Si / 1000 Ang^3
#
#
#
# Elastic Constant Matrix: (Units=GPa)
#
#
# Indices 1 2 3 4 5 6 
#
# 1 63.6515 58.4079 35.1321 0.0000 0.0000 0.0000
# 2 58.4079 172.0139 54.6306 0.0000 0.0000 0.0000
# 3 35.1321 54.6306 50.7964 0.0000 0.0000 0.0000
# 4 0.0000 0.0000 0.0000 16.4526 0.0000 0.0000
# 5 0.0000 0.0000 0.0000 0.0000 18.2601 0.0000
# 6 0.0000 0.0000 0.0000 0.0000 0.0000 1.3016
#
#
#
# Elastic Compliance Matrix: (Units=1/GPa)
#
#
# Indices 1 2 3 4 5 6 
#
# 1 0.028092 -0.005115 -0.013927 0.000000 0.000000 0.000000
# 2 -0.005115 0.009761 -0.006960 0.000000 0.000000 0.000000
# 3 -0.013927 -0.006960 0.036804 0.000000 0.000000 0.000000
# 4 0.000000 0.000000 0.000000 0.060781 0.000000 0.000000
# 5 0.000000 0.000000 0.000000 0.000000 0.054764 0.000000
# 6 0.000000 0.000000 0.000000 0.000000 0.000000 0.768282
#
#
# Mechanical properties :
#
#
# Convention : Reuss Voigt Hill
#
# Bulk Modulus (GPa) = 44.14706 64.75588 54.45147
# Shear Modulus (GPa) = 4.91141 16.42229 10.66685
#
# Velocity S-wave (km/s) = 1.64549 3.00890 2.42499
# Velocity P-wave (km/s) = 5.28660 6.91165 6.15301
#
# Compressibility (1/GPa) = 0.02265156
#
# Stress axis : x y z
#
# Youngs Moduli (GPa) = 35.59776 102.45127 27.17100
#
# Poissons Ratio (x) = 0.52407 0.37842
# Poissons Ratio (y) = 0.18209 0.18910
# Poissons Ratio (z) = 0.49579 0.71302
#
# Static dielectric constant tensor:
#      x y z
#    x 3.124590 0.000000 0.000000 
#    y 0.000000 3.912660 0.000000 
#    z 0.000000 0.000000 3.131100 
# 
# 
# High freq. dielectric constant tensor:
#      x y z
#    x 1.671000 0.000000 0.000000 
#    y 0.000000 1.726380 0.000000 
#    z 0.000000 0.000000 1.674980 
# 
# From -- ./inp_files/10011.got.cif
#   From: 2010.03.12/outbox.cif.g09.slc.cpg/sg47_6_cif.got.tgz:10011.got - 2010.04.14 03:12:58.
