data_PCOD8197965
_publ_section_title
;
Structure prediction by ZEFSAII (Michael W. Deem and Ramdas Pophale) SiO2 
 PCOD8197965
Probable space group: P M M M
;
_chemical_formula_sum "Si O2"
_cell_formula_units_Z 40
_cell_length_a 11.475429
_cell_length_b 8.832046
_cell_length_c 23.234100
_cell_angle_alpha 90.000000
_cell_angle_beta 90.000000
_cell_angle_gamma 90.000000
_cell_volume 2354.811276
_symmetry_space_group_name_H-M "P M M M"
_symmetry_group_IT_number 47
_symmetry_cell_setting 'orthorhombic'
loop_
_space_group_symop_operation_xyz
x,y,z
-x,-y,z
x,-y,-z
-x,y,-z
-x,-y,-z
x,y,-z
-x,y,z
x,-y,z
loop_
_atom_site_type_symbol
_atom_site_label
_atom_site_fract_x
_atom_site_fract_y
_atom_site_fract_z
Si Si1 0.237272 0.820998 0.395328
Si Si2 0.000000 0.321165 0.567078
Si Si3 0.363717 0.675756 0.709165
Si Si4 0.361431 0.670319 0.063023
Si Si5 0.637411 0.670574 0.500000
Si Si6 0.638243 0.168181 0.174845
O O1 0.110991 0.748323 0.401626
O O2 0.289644 0.777566 0.333929
O O3 0.322653 0.758132 0.443801
O O4 0.227570 0.000000 0.401180
O O5 0.000000 0.500000 0.575178
O O6 0.000000 0.275290 0.500000
O O7 0.500000 0.709898 0.699464
O O8 0.335743 0.500000 0.698982
O O9 0.324234 0.721607 0.773352
O O10 0.500000 0.669706 0.066941
O O11 0.314488 0.500000 0.070669
O O12 0.308534 0.771325 0.114539
O O13 0.322926 0.733652 0.000000
O O14 0.690428 0.500000 0.500000
O O15 0.500000 0.662492 0.500000
O O16 0.500000 0.164042 0.170241
O O17 0.687655 0.000000 0.186106
#
# Coordination Sequence:
#
# PCOD8197965 Si02
#       6
#     8   4   8   8   4   8
#     4  12  24  37  56  79 102 125 157 201 246 287
#     4  11  23  41  63  79  98 128 161 194 235 292
#     4  10  20  34  51  70  96 131 167 200 240 294
#     4   8  13  21  33  50  75 111 155 197 235 279
#     4  11  23  38  55  76 103 133 163 193 232 285
#     4   9  16  25  38  58  85 117 155 199 243 284
#
# _framework density 16.986498000000001
#
# number of rings (size 3 to 8) (size 9 to 14) (size 15 to 20)
#    0.000    2.000    1.000    4.800    0.000    7.600 
#    0.000    2.000    0.000    0.000    0.000    0.000 
#    0.000    0.000    0.000    0.900    0.000   17.000 
#
# Total GULP energy -495959.300022 kJ/mol
# GULP energy per Si atom -12398.982501 kJ/mol
# Density = 1.694784 g / cm^3
# Si number density = 16.986498 Si / 1000 Ang^3
#
#
#
# Elastic Constant Matrix: (Units=GPa)
#
#
# Indices 1 2 3 4 5 6 
#
# 1 51.2726 30.9494 32.4431 0.0000 0.0000 0.0000
# 2 30.9494 106.9343 46.8236 0.0000 0.0000 0.0000
# 3 32.4431 46.8236 127.4185 0.0000 0.0000 0.0000
# 4 0.0000 0.0000 0.0000 14.8551 0.0000 0.0000
# 5 0.0000 0.0000 0.0000 0.0000 -2.7193 0.0000
# 6 0.0000 0.0000 0.0000 0.0000 0.0000 16.8785
#
#
#
# Elastic Compliance Matrix: (Units=1/GPa)
#
#
# Indices 1 2 3 4 5 6 
#
# 1 0.025656 -0.005441 -0.004533 0.000000 0.000000 0.000000
# 2 -0.005441 0.012299 -0.003134 0.000000 0.000000 0.000000
# 3 -0.004533 -0.003134 0.010154 0.000000 0.000000 0.000000
# 4 0.000000 0.000000 0.000000 0.067317 0.000000 0.000000
# 5 0.000000 0.000000 0.000000 0.000000 -0.367739 0.000000
# 6 0.000000 0.000000 0.000000 0.000000 0.000000 0.059247
#
#
# Mechanical properties :
#
#
# Convention : Reuss Voigt Hill
#
# Bulk Modulus (GPa) = 45.67701 56.22863 50.95282
# Shear Modulus (GPa) = -31.33760 17.49682 -6.92039
#
# Velocity S-wave (km/s) = -4.29984 3.21291 -2.02062
# Velocity P-wave (km/s) = 1.51562 6.85110 4.96158
#
# Compressibility (1/GPa) = 0.02189285
#
# Stress axis : x y z
#
# Youngs Moduli (GPa) = 38.97722 81.31051 98.48193
#
# Poissons Ratio (x) = 0.44237 0.44644
# Poissons Ratio (y) = 0.21206 0.30866
# Poissons Ratio (z) = 0.17669 0.25484
#
# Static dielectric constant tensor:
#      x y z
#    x 2.743320 0.000000 0.000000 
#    y 0.000000 3.400950 0.000000 
#    z 0.000000 0.000000 3.491860 
# 
# 
# High freq. dielectric constant tensor:
#      x y z
#    x 1.591060 0.000000 0.000000 
#    y 0.000000 1.670650 0.000000 
#    z 0.000000 0.000000 1.670060 
# 
# From -- ./inp_files/4142.got.cif
#   From: 2010.03.12/outbox.cif.g09.slc.cpg/sg47_3_cif.got.tgz:4142.got - 2010.04.14 03:12:58.
