data_PCOD8197606
_publ_section_title
;
Structure prediction by ZEFSAII (Michael W. Deem and Ramdas Pophale) SiO2 
 PCOD8197606
Probable space group: P M M M
;
_chemical_formula_sum "Si O2"
_cell_formula_units_Z 64
_cell_length_a 20.673763
_cell_length_b 8.882206
_cell_length_c 19.746530
_cell_angle_alpha 90.000000
_cell_angle_beta 90.000000
_cell_angle_gamma 90.000000
_cell_volume 3626.028088
_symmetry_space_group_name_H-M "P M M M"
_symmetry_group_IT_number 47
_symmetry_cell_setting 'orthorhombic'
loop_
_space_group_symop_operation_xyz
x,y,z
-x,-y,z
x,-y,-z
-x,y,-z
-x,-y,-z
x,y,-z
-x,y,z
x,-y,z
loop_
_atom_site_type_symbol
_atom_site_label
_atom_site_fract_x
_atom_site_fract_y
_atom_site_fract_z
Si Si1 0.618907 0.175239 0.923382
Si Si2 0.927194 0.177374 0.286854
Si Si3 0.427069 0.327451 0.795593
Si Si4 0.686986 0.178419 0.283944
Si Si5 0.874064 0.178730 0.426510
Si Si6 0.247479 0.328799 0.075004
Si Si7 0.728347 0.821560 0.573280
Si Si8 0.189675 0.674370 0.213482
O O1 0.574101 0.268707 0.872665
O O2 0.693405 0.217117 0.910824
O O3 0.610179 0.000000 0.907877
O O4 0.597854 0.214657 0.000000
O O5 0.916943 0.237627 0.363872
O O6 0.878205 0.256639 0.235917
O O7 0.000000 0.218060 0.264626
O O8 0.914312 0.000000 0.283502
O O9 0.500000 0.309378 0.767909
O O10 0.404511 0.500000 0.794117
O O11 0.379461 0.232139 0.748833
O O12 0.685357 0.231583 0.362906
O O13 0.749529 0.246509 0.248165
O O14 0.691956 0.000000 0.277307
O O15 0.900571 0.236175 0.500000
O O16 0.801168 0.238907 0.415941
O O17 0.874573 0.000000 0.426713
O O18 0.273792 0.500000 0.079977
O O19 0.193406 0.300971 0.132177
O O20 0.217834 0.298424 0.000000
O O21 0.701350 0.762568 0.500000
O O22 0.730380 0.000000 0.571563
O O23 0.191597 0.500000 0.233196
#
# Coordination Sequence:
#
# PCOD8197606 Si02
#       8
#     8   8   8   8   8   8   8   8
#     4  10  20  33  52  79 108 138 174 216 259 305
#     4  10  20  33  50  74 104 138 177 219 262 307
#     4  11  24  39  53  73 106 146 182 215 258 314
#     4  11  20  33  57  82 105 134 173 222 264 304
#     4   8  13  24  44  71 102 133 169 212 255 301
#     4   9  18  33  53  76 102 133 170 213 261 311
#     4   8  14  26  48  78 106 131 164 211 264 310
#     4  11  21  33  53  78 105 137 172 212 260 317
#
# _framework density 17.650165999999999
#
# number of rings (size 3 to 8) (size 9 to 14) (size 15 to 20)
#    0.000    2.250    2.500    2.250    0.000    3.000 
#    0.000    2.500    0.000    3.375    0.000    6.125 
#    0.000    0.000    0.000    0.000    0.000    0.000 
#
# Total GULP energy -793231.616244 kJ/mol
# GULP energy per Si atom -12394.244004 kJ/mol
# Density = 1.760999 g / cm^3
# Si number density = 17.650166 Si / 1000 Ang^3
#
#
#
# Elastic Constant Matrix: (Units=GPa)
#
#
# Indices 1 2 3 4 5 6 
#
# 1 92.3347 36.1919 60.0295 0.0000 0.0000 0.0000
# 2 36.1919 57.0313 38.3362 0.0000 0.0000 0.0000
# 3 60.0295 38.3362 127.9891 0.0000 0.0000 0.0000
# 4 0.0000 0.0000 0.0000 12.2413 0.0000 0.0000
# 5 0.0000 0.0000 0.0000 0.0000 25.1713 0.0000
# 6 0.0000 0.0000 0.0000 0.0000 0.0000 23.9783
#
#
#
# Elastic Compliance Matrix: (Units=1/GPa)
#
#
# Indices 1 2 3 4 5 6 
#
# 1 0.017575 -0.007027 -0.006138 0.000000 0.000000 0.000000
# 2 -0.007027 0.024764 -0.004122 0.000000 0.000000 0.000000
# 3 -0.006138 -0.004122 0.011927 0.000000 0.000000 0.000000
# 4 0.000000 0.000000 0.000000 0.081691 0.000000 0.000000
# 5 0.000000 0.000000 0.000000 0.000000 0.039728 0.000000
# 6 0.000000 0.000000 0.000000 0.000000 0.000000 0.041704
#
#
# Mechanical properties :
#
#
# Convention : Reuss Voigt Hill
#
# Bulk Modulus (GPa) = 50.78218 60.71892 55.75055
# Shear Modulus (GPa) = 19.34032 21.79801 20.56917
#
# Velocity S-wave (km/s) = 3.31382 3.51807 3.41747
# Velocity P-wave (km/s) = 6.59362 7.13992 6.87220
#
# Compressibility (1/GPa) = 0.01969195
#
# Stress axis : x y z
#
# Youngs Moduli (GPa) = 56.89835 40.38096 83.84520
#
# Poissons Ratio (x) = 0.28376 0.51467
# Poissons Ratio (y) = 0.39982 0.34559
# Poissons Ratio (z) = 0.34926 0.16644
#
# Static dielectric constant tensor:
#      x y z
#    x 3.036660 0.000000 0.000000 
#    y 0.000000 3.132290 0.000000 
#    z 0.000000 0.000000 3.808340 
# 
# 
# High freq. dielectric constant tensor:
#      x y z
#    x 1.651150 0.000000 0.000000 
#    y 0.000000 1.665440 0.000000 
#    z 0.000000 0.000000 1.695090 
# 
# From -- ./inp_files/28783.got.cif
#   From: 2010.03.12/outbox.cif.g09.slc.cpg/sg47_15_cif.got.tgz:28783.got - 2010.04.14 03:12:58.
