data_PCOD8197300
_publ_section_title
;
Structure prediction by ZEFSAII (Michael W. Deem and Ramdas Pophale) SiO2 
 PCOD8197300
Probable space group: P M M M
;
_chemical_formula_sum "Si O2"
_cell_formula_units_Z 64
_cell_length_a 31.127740
_cell_length_b 14.343191
_cell_length_c 9.273632
_cell_angle_alpha 90.000000
_cell_angle_beta 90.000000
_cell_angle_gamma 90.000000
_cell_volume 4140.408868
_symmetry_space_group_name_H-M "P M M M"
_symmetry_group_IT_number 47
_symmetry_cell_setting 'orthorhombic'
loop_
_space_group_symop_operation_xyz
x,y,z
-x,-y,z
x,-y,-z
-x,y,-z
-x,-y,-z
x,y,-z
-x,y,z
x,-y,z
loop_
_atom_site_type_symbol
_atom_site_label
_atom_site_fract_x
_atom_site_fract_y
_atom_site_fract_z
Si Si1 0.794656 0.219267 0.829577
Si Si2 0.372568 0.111165 0.338014
Si Si3 0.952868 0.789439 0.328718
Si Si4 0.710015 0.107226 0.167200
Si Si5 0.914566 0.600869 0.329273
Si Si6 0.452634 0.889133 0.838010
Si Si7 0.131496 0.892233 0.330566
Si Si8 0.815750 0.605465 0.667292
O O1 0.751763 0.164435 0.787456
O O2 0.834730 0.168122 0.757107
O O3 0.789093 0.323334 0.766586
O O4 0.801964 0.222465 0.000000
O O5 0.370768 0.149528 0.500000
O O6 0.330511 0.147254 0.254766
O O7 0.415607 0.152599 0.264369
O O8 0.373811 0.000000 0.333849
O O9 0.953699 0.784033 0.500000
O O10 0.942282 0.686206 0.265508
O O11 0.916569 0.863006 0.280615
O O12 0.000000 0.820240 0.270596
O O13 0.719227 0.000000 0.206812
O O14 0.698861 0.118760 0.000000
O O15 0.918545 0.598678 0.500000
O O16 0.930448 0.500000 0.268107
O O17 0.865209 0.616564 0.287113
O O18 0.500000 0.857186 0.783333
O O19 0.450220 0.000000 0.837438
O O20 0.444820 0.852303 0.000000
O O21 0.138004 0.872412 0.500000
O O22 0.138032 0.000000 0.292473
O O23 0.809201 0.631263 0.500000
O O24 0.799830 0.500000 0.697243
#
# Coordination Sequence:
#
# PCOD8197300 Si02
#       8
#     8   8   8   8   8   8   8   8
#     4  11  21  32  49  70  90 112 142 181 218 258
#     4   9  16  24  35  53  76 102 136 181 227 263
#     4   9  16  26  42  65  90 112 138 174 213 253
#     4   9  18  31  43  56  79 112 146 179 218 261
#     4   8  13  23  41  64  88 110 131 161 203 248
#     4   8  13  21  33  48  68 100 141 180 219 263
#     4  10  20  33  48  65  87 115 146 181 219 257
#     4   9  17  31  51  71  92 116 139 167 206 254
#
# _framework density 15.457411
#
# number of rings (size 3 to 8) (size 9 to 14) (size 15 to 20)
#    0.000    2.875    1.250    2.250    0.000    4.250 
#    0.000    5.000    0.000    0.375    0.000    0.875 
#    0.000    2.000    0.000    0.000    0.000    0.625 
#
# Total GULP energy -793232.651440 kJ/mol
# GULP energy per Si atom -12394.260179 kJ/mol
# Density = 1.542223 g / cm^3
# Si number density = 15.457411 Si / 1000 Ang^3
#
#
#
# Elastic Constant Matrix: (Units=GPa)
#
#
# Indices 1 2 3 4 5 6 
#
# 1 118.5904 39.1629 51.8335 0.0000 0.0000 0.0000
# 2 39.1629 67.8629 29.6944 0.0000 0.0000 0.0000
# 3 51.8335 29.6944 57.5260 0.0000 0.0000 0.0000
# 4 0.0000 0.0000 0.0000 14.7295 0.0000 0.0000
# 5 0.0000 0.0000 0.0000 0.0000 20.2632 0.0000
# 6 0.0000 0.0000 0.0000 0.0000 0.0000 5.0119
#
#
#
# Elastic Compliance Matrix: (Units=1/GPa)
#
#
# Indices 1 2 3 4 5 6 
#
# 1 0.014502 -0.003425 -0.011299 0.000000 0.000000 0.000000
# 2 -0.003425 0.019844 -0.007157 0.000000 0.000000 0.000000
# 3 -0.011299 -0.007157 0.031259 0.000000 0.000000 0.000000
# 4 0.000000 0.000000 0.000000 0.067891 0.000000 0.000000
# 5 0.000000 0.000000 0.000000 0.000000 0.049351 0.000000
# 6 0.000000 0.000000 0.000000 0.000000 0.000000 0.199527
#
#
# Mechanical properties :
#
#
# Convention : Reuss Voigt Hill
#
# Bulk Modulus (GPa) = 45.78254 53.92898 49.85576
# Shear Modulus (GPa) = 11.53625 16.22013 13.87819
#
# Velocity S-wave (km/s) = 2.73486 3.24287 2.99964
# Velocity P-wave (km/s) = 6.29725 6.99901 6.65738
#
# Compressibility (1/GPa) = 0.02184239
#
# Stress axis : x y z
#
# Youngs Moduli (GPa) = 68.95605 50.39357 31.99096
#
# Poissons Ratio (x) = 0.17259 0.36147
# Poissons Ratio (y) = 0.23617 0.22897
# Poissons Ratio (z) = 0.77914 0.36068
#
# Static dielectric constant tensor:
#      x y z
#    x 3.090340 0.000000 0.000000 
#    y 0.000000 2.888260 0.000000 
#    z 0.000000 0.000000 2.799180 
# 
# 
# High freq. dielectric constant tensor:
#      x y z
#    x 1.588090 0.000000 0.000000 
#    y 0.000000 1.558710 0.000000 
#    z 0.000000 0.000000 1.570460 
# 
# From -- ./inp_files/14256.got.cif
#   From: 2010.03.12/outbox.cif.g09.slc.cpg/sg47_8_cif.got.tgz:14256.got - 2010.04.14 03:12:58.
