data_PCOD8197719
_publ_section_title
;
Structure prediction by ZEFSAII (Michael W. Deem and Ramdas Pophale) SiO2 
 PCOD8197719
Probable space group: P M M M
;
_chemical_formula_sum "Si O2"
_cell_formula_units_Z 44
_cell_length_a 9.235571
_cell_length_b 9.200177
_cell_length_c 28.289373
_cell_angle_alpha 90.000000
_cell_angle_beta 90.000000
_cell_angle_gamma 90.000000
_cell_volume 2403.716563
_symmetry_space_group_name_H-M "P M M M"
_symmetry_group_IT_number 47
_symmetry_cell_setting 'orthorhombic'
loop_
_space_group_symop_operation_xyz
x,y,z
-x,-y,z
x,-y,-z
-x,y,-z
-x,-y,-z
x,y,-z
-x,y,z
x,-y,z
loop_
_atom_site_type_symbol
_atom_site_label
_atom_site_fract_x
_atom_site_fract_y
_atom_site_fract_z
Si Si1 0.327195 0.164647 0.500000
Si Si2 0.334429 0.171813 0.133392
Si Si3 0.163463 0.827057 0.775755
Si Si4 0.835018 0.331550 0.945587
Si Si5 0.327689 0.664186 0.408947
Si Si6 0.331267 0.830821 0.683702
O O1 0.500000 0.164298 0.500000
O O2 0.266919 0.247605 0.546113
O O3 0.267914 0.000000 0.500000
O O4 0.500000 0.219766 0.139769
O O5 0.245554 0.233693 0.178149
O O6 0.273348 0.237615 0.085371
O O7 0.319157 0.000000 0.129930
O O8 0.244441 0.771332 0.728908
O O9 0.000000 0.766811 0.775950
O O10 0.166248 0.000000 0.776459
O O11 0.811427 0.500000 0.934015
O O12 0.000000 0.286201 0.934352
O O13 0.798555 0.299161 0.000000
O O14 0.500000 0.664232 0.410401
O O15 0.267308 0.500000 0.410468
O O16 0.273522 0.742285 0.361390
O O17 0.500000 0.802841 0.693355
O O18 0.300973 0.000000 0.674032
#
# Coordination Sequence:
#
# PCOD8197719 Si02
#       6
#     4   8   8   8   8   8
#     4   9  15  23  37  59  88 121 156 191 228 274
#     4  10  20  33  51  77 106 133 164 205 251 297
#     4   9  17  30  49  71  94 123 160 200 241 286
#     4   9  19  36  55  74  99 133 171 208 247 294
#     4   9  16  25  38  59  89 122 153 188 232 279
#     4   9  16  27  44  65  89 118 153 192 233 278
#
# _framework density 18.304986
#
# number of rings (size 3 to 8) (size 9 to 14) (size 15 to 20)
#    0.000    2.818    0.000    2.455    0.000    7.636 
#    0.000    3.636    0.000    3.818    0.000    0.636 
#    0.000    5.091    0.000    0.000    0.000    0.000 
#
# Total GULP energy -545612.359442 kJ/mol
# GULP energy per Si atom -12400.280896 kJ/mol
# Density = 1.826332 g / cm^3
# Si number density = 18.304986 Si / 1000 Ang^3
#
#
#
# Elastic Constant Matrix: (Units=GPa)
#
#
# Indices 1 2 3 4 5 6 
#
# 1 90.9824 36.1184 70.7473 0.0000 0.0000 0.0000
# 2 36.1184 68.1212 55.7812 0.0000 0.0000 0.0000
# 3 70.7473 55.7812 158.8761 0.0000 0.0000 0.0000
# 4 0.0000 0.0000 0.0000 10.6065 0.0000 0.0000
# 5 0.0000 0.0000 0.0000 0.0000 11.3817 0.0000
# 6 0.0000 0.0000 0.0000 0.0000 0.0000 15.9076
#
#
#
# Elastic Compliance Matrix: (Units=1/GPa)
#
#
# Indices 1 2 3 4 5 6 
#
# 1 0.017588 -0.004087 -0.006397 0.000000 0.000000 0.000000
# 2 -0.004087 0.021553 -0.005747 0.000000 0.000000 0.000000
# 3 -0.006397 -0.005747 0.011161 0.000000 0.000000 0.000000
# 4 0.000000 0.000000 0.000000 0.094282 0.000000 0.000000
# 5 0.000000 0.000000 0.000000 0.000000 0.087861 0.000000
# 6 0.000000 0.000000 0.000000 0.000000 0.000000 0.062863
#
#
# Mechanical properties :
#
#
# Convention : Reuss Voigt Hill
#
# Bulk Modulus (GPa) = 56.05729 71.47483 63.76606
# Shear Modulus (GPa) = 14.98284 17.93468 16.45876
#
# Velocity S-wave (km/s) = 2.86407 3.13352 3.00182
# Velocity P-wave (km/s) = 6.45195 7.22657 6.85022
#
# Compressibility (1/GPa) = 0.01783889
#
# Stress axis : x y z
#
# Youngs Moduli (GPa) = 56.85761 46.39767 89.60138
#
# Poissons Ratio (x) = 0.18963 0.57317
# Poissons Ratio (y) = 0.23238 0.51496
# Poissons Ratio (z) = 0.36371 0.26666
#
# Static dielectric constant tensor:
#      x y z
#    x 3.135570 0.000000 0.000000 
#    y 0.000000 3.180790 0.000000 
#    z 0.000000 0.000000 3.532710 
# 
# 
# High freq. dielectric constant tensor:
#      x y z
#    x 1.678290 0.000000 0.000000 
#    y 0.000000 1.687960 0.000000 
#    z 0.000000 0.000000 1.725980 
# 
# From -- ./inp_files/2073.got.cif
#   From: 2010.03.12/outbox.cif.g09.slc.cpg/sg47_2_cif.got.tgz:2073.got - 2010.04.14 03:12:58.
