data_PCOD8197072
_publ_section_title
;
Structure prediction by ZEFSAII (Michael W. Deem and Ramdas Pophale) SiO2 
 PCOD8197072
Probable space group: P M M M
;
_chemical_formula_sum "Si O2"
_cell_formula_units_Z 44
_cell_length_a 9.397178
_cell_length_b 30.134289
_cell_length_c 7.870956
_cell_angle_alpha 90.000000
_cell_angle_beta 90.000000
_cell_angle_gamma 90.000000
_cell_volume 2228.875892
_symmetry_space_group_name_H-M "P M M M"
_symmetry_group_IT_number 47
_symmetry_cell_setting 'orthorhombic'
loop_
_space_group_symop_operation_xyz
x,y,z
-x,-y,z
x,-y,-z
-x,y,-z
-x,-y,-z
x,y,-z
-x,y,z
x,-y,z
loop_
_atom_site_type_symbol
_atom_site_label
_atom_site_fract_x
_atom_site_fract_y
_atom_site_fract_z
Si Si1 0.169846 0.949862 0.500000
Si Si2 0.659959 0.288529 0.796850
Si Si3 0.842871 0.369482 0.804270
Si Si4 0.660273 0.449888 0.299796
Si Si5 0.169502 0.891512 0.810477
Si Si6 0.842161 0.792961 0.799289
O O1 0.228630 0.925878 0.670232
O O2 0.000000 0.948720 0.500000
O O3 0.227648 0.000000 0.500000
O O4 0.500000 0.290117 0.724253
O O5 0.744740 0.331079 0.722324
O O6 0.735643 0.244092 0.725898
O O7 0.657190 0.288942 0.000000
O O8 0.770976 0.417348 0.787989
O O9 0.000000 0.369916 0.718353
O O10 0.861423 0.357953 0.000000
O O11 0.671929 0.444513 0.500000
O O12 0.500000 0.438455 0.239341
O O13 0.699104 0.500000 0.245091
O O14 0.217854 0.841980 0.755274
O O15 0.000000 0.892515 0.816170
O O16 0.227827 0.903699 0.000000
O O17 0.000000 0.786010 0.720189
O O18 0.853950 0.788041 0.000000
#
# Coordination Sequence:
#
# PCOD8197072 Si02
#       6
#     4   8   8   8   8   8
#     4   9  16  24  36  58  89 123 157 195 240 289
#     4   9  16  26  43  68  95 122 155 194 236 284
#     4  10  20  32  48  73 103 131 160 197 240 289
#     4   9  19  36  55  72  92 123 162 202 246 294
#     4   8  14  24  38  57  83 118 157 195 238 288
#     4   8  13  23  40  60  84 117 154 189 229 280
#
# _framework density 19.740891999999999
#
# number of rings (size 3 to 8) (size 9 to 14) (size 15 to 20)
#    0.000    3.182    0.000    2.727    0.000    4.727 
#    0.000    4.545    2.000    0.000    0.000    0.000 
#    0.000    1.455    0.000    7.091    0.000    7.273 
#
# Total GULP energy -545336.038434 kJ/mol
# GULP energy per Si atom -12394.000873 kJ/mol
# Density = 1.969596 g / cm^3
# Si number density = 19.740892 Si / 1000 Ang^3
#
#
#
# Elastic Constant Matrix: (Units=GPa)
#
#
# Indices 1 2 3 4 5 6 
#
# 1 115.1422 77.9154 20.8849 0.0000 0.0000 0.0000
# 2 77.9154 174.9925 41.1744 0.0000 0.0000 0.0000
# 3 20.8849 41.1744 49.0878 0.0000 0.0000 0.0000
# 4 0.0000 0.0000 0.0000 -0.2008 0.0000 0.0000
# 5 0.0000 0.0000 0.0000 0.0000 7.6167 0.0000
# 6 0.0000 0.0000 0.0000 0.0000 0.0000 13.3624
#
#
#
# Elastic Compliance Matrix: (Units=1/GPa)
#
#
# Indices 1 2 3 4 5 6 
#
# 1 0.012456 -0.005356 -0.000807 0.000000 0.000000 0.000000
# 2 -0.005356 0.009423 -0.005625 0.000000 0.000000 0.000000
# 3 -0.000807 -0.005625 0.025433 0.000000 0.000000 0.000000
# 4 0.000000 0.000000 0.000000 -4.980947 0.000000 0.000000
# 5 0.000000 0.000000 0.000000 0.000000 0.131291 0.000000
# 6 0.000000 0.000000 0.000000 0.000000 0.000000 0.074837
#
#
# Mechanical properties :
#
#
# Convention : Reuss Voigt Hill
#
# Bulk Modulus (GPa) = 42.13017 68.79686 55.46351
# Shear Modulus (GPa) = -1.06473 17.43885 8.18706
#
# Velocity S-wave (km/s) = -0.73520 2.97541 2.03869
# Velocity P-wave (km/s) = 4.54612 6.83591 5.80503
#
# Compressibility (1/GPa) = 0.02373596
#
# Stress axis : x y z
#
# Youngs Moduli (GPa) = 80.28504 106.12518 39.31877
#
# Poissons Ratio (x) = 0.56841 0.03172
# Poissons Ratio (y) = 0.43001 0.22117
# Poissons Ratio (z) = 0.06477 0.59696
#
# Static dielectric constant tensor:
#      x y z
#    x 3.519480 0.000000 0.000000 
#    y 0.000000 3.834700 0.000000 
#    z 0.000000 0.000000 3.302590 
# 
# 
# High freq. dielectric constant tensor:
#      x y z
#    x 1.732850 0.000000 0.000000 
#    y 0.000000 1.775650 0.000000 
#    z 0.000000 0.000000 1.738260 
# 
# From -- ./inp_files/2023.got.cif
#   From: 2010.03.12/outbox.cif.g09.slc.cpg/sg47_2_cif.got.tgz:2023.got - 2010.04.14 03:12:58.
