data_PCOD8197891
_publ_section_title
;
Structure prediction by ZEFSAII (Michael W. Deem and Ramdas Pophale) SiO2 
 PCOD8197891
Probable space group: P M M M
;
_chemical_formula_sum "Si O2"
_cell_formula_units_Z 40
_cell_length_a 11.790627
_cell_length_b 8.686631
_cell_length_c 20.289469
_cell_angle_alpha 90.000000
_cell_angle_beta 90.000000
_cell_angle_gamma 90.000000
_cell_volume 2078.064174
_symmetry_space_group_name_H-M "P M M M"
_symmetry_group_IT_number 47
_symmetry_cell_setting 'orthorhombic'
loop_
_space_group_symop_operation_xyz
x,y,z
-x,-y,z
x,-y,-z
-x,y,-z
-x,-y,-z
x,y,-z
-x,y,z
x,-y,z
loop_
_atom_site_type_symbol
_atom_site_label
_atom_site_fract_x
_atom_site_fract_y
_atom_site_fract_z
Si Si1 0.128963 0.319126 0.575134
Si Si2 0.000000 0.320260 0.895951
Si Si3 0.367651 0.678495 0.809309
Si Si4 0.230075 0.818000 0.304086
Si Si5 0.000000 0.820497 0.756517
Si Si6 0.227456 0.176861 0.072201
O O1 0.157428 0.275671 0.500000
O O2 0.138879 0.500000 0.586387
O O3 0.224344 0.234084 0.619588
O O4 0.000000 0.264081 0.591932
O O5 0.000000 0.214888 0.832381
O O6 0.886942 0.276356 0.935175
O O7 0.000000 0.500000 0.878802
O O8 0.500000 0.709008 0.817017
O O9 0.336308 0.500000 0.813203
O O10 0.331249 0.742560 0.737736
O O11 0.307137 0.763312 0.869698
O O12 0.113383 0.749769 0.274378
O O13 0.243240 0.000000 0.298817
O O14 0.000000 0.000000 0.742785
O O15 0.197158 0.000000 0.088272
O O16 0.287750 0.190156 0.000000
#
# Coordination Sequence:
#
# PCOD8197891 Si02
#       6
#     8   4   8   8   4   8
#     4   9  18  32  52  82 121 160 193 227 273 333
#     4  12  23  35  58  88 119 153 188 230 282 342
#     4  11  25  43  62  84 110 145 193 245 292 341
#     4  11  21  35  58  85 117 153 189 233 284 340
#     4  10  20  33  52  83 118 151 186 229 285 344
#     4  11  24  41  61  85 116 152 188 232 287 346
#
# _framework density 19.248684000000001
#
# number of rings (size 3 to 8) (size 9 to 14) (size 15 to 20)
#    0.000    1.400    3.000    3.600    0.000    6.000 
#    0.000    3.000    0.000    0.600    0.000    4.200 
#    0.000    0.000    0.000    0.000    0.000    0.000 
#
# Total GULP energy -495920.786447 kJ/mol
# GULP energy per Si atom -12398.019661 kJ/mol
# Density = 1.920487 g / cm^3
# Si number density = 19.248684 Si / 1000 Ang^3
#
#
#
# Elastic Constant Matrix: (Units=GPa)
#
#
# Indices 1 2 3 4 5 6 
#
# 1 72.5840 41.1614 41.2687 0.0000 0.0000 0.0000
# 2 41.1614 59.1457 28.9876 0.0000 0.0000 0.0000
# 3 41.2687 28.9876 126.3081 0.0000 0.0000 0.0000
# 4 0.0000 0.0000 0.0000 30.5869 0.0000 0.0000
# 5 0.0000 0.0000 0.0000 0.0000 102.0789 0.0000
# 6 0.0000 0.0000 0.0000 0.0000 0.0000 24.4590
#
#
#
# Elastic Compliance Matrix: (Units=1/GPa)
#
#
# Indices 1 2 3 4 5 6 
#
# 1 0.025020 -0.015104 -0.004708 0.000000 0.000000 0.000000
# 2 -0.015104 0.028169 -0.001530 0.000000 0.000000 0.000000
# 3 -0.004708 -0.001530 0.009807 0.000000 0.000000 0.000000
# 4 0.000000 0.000000 0.000000 0.032694 0.000000 0.000000
# 5 0.000000 0.000000 0.000000 0.000000 0.009796 0.000000
# 6 0.000000 0.000000 0.000000 0.000000 0.000000 0.040885
#
#
# Mechanical properties :
#
#
# Convention : Reuss Voigt Hill
#
# Bulk Modulus (GPa) = 49.23606 53.43036 51.33321
# Shear Modulus (GPa) = 25.53310 41.19962 33.36636
#
# Velocity S-wave (km/s) = 3.64605 4.63145 4.16797
# Velocity P-wave (km/s) = 6.58478 7.51123 7.06321
#
# Compressibility (1/GPa) = 0.02031032
#
# Stress axis : x y z
#
# Youngs Moduli (GPa) = 39.96878 35.50037 101.97312
#
# Poissons Ratio (x) = 0.53621 0.48011
# Poissons Ratio (y) = 0.60370 0.15598
# Poissons Ratio (z) = 0.18818 0.05430
#
# Static dielectric constant tensor:
#      x y z
#    x 3.391730 0.000000 0.000000 
#    y 0.000000 3.475610 0.000000 
#    z 0.000000 0.000000 3.662150 
# 
# 
# High freq. dielectric constant tensor:
#      x y z
#    x 1.717200 0.000000 0.000000 
#    y 0.000000 1.754200 0.000000 
#    z 0.000000 0.000000 1.763410 
# 
# From -- ./inp_files/29359.got.cif
#   From: 2010.03.12/outbox.cif.g09.slc.cpg/sg47_15_cif.got.tgz:29359.got - 2010.04.14 03:12:58.
