data_PCOD8197764
_publ_section_title
;
Structure prediction by ZEFSAII (Michael W. Deem and Ramdas Pophale) SiO2 
 PCOD8197764
Probable space group: P M M M
;
_chemical_formula_sum "Si O2"
_cell_formula_units_Z 44
_cell_length_a 8.932015
_cell_length_b 9.087129
_cell_length_c 28.243104
_cell_angle_alpha 90.000000
_cell_angle_beta 90.000000
_cell_angle_gamma 90.000000
_cell_volume 2292.390301
_symmetry_space_group_name_H-M "P M M M"
_symmetry_group_IT_number 47
_symmetry_cell_setting 'orthorhombic'
loop_
_space_group_symop_operation_xyz
x,y,z
-x,-y,z
x,-y,-z
-x,y,-z
-x,-y,-z
x,y,-z
-x,y,z
x,-y,z
loop_
_atom_site_type_symbol
_atom_site_label
_atom_site_fract_x
_atom_site_fract_y
_atom_site_fract_z
Si Si1 0.675492 0.171785 0.588056
Si Si2 0.174449 0.672634 0.325110
Si Si3 0.822979 0.330183 0.500000
Si Si4 0.331894 0.325255 0.229886
Si Si5 0.826958 0.329758 0.863360
Si Si6 0.669307 0.826927 0.946528
O O1 0.500000 0.201147 0.583027
O O2 0.731786 0.235505 0.637404
O O3 0.759611 0.253569 0.546243
O O4 0.713631 0.000000 0.585387
O O5 0.205534 0.500000 0.333028
O O6 0.229966 0.726026 0.273695
O O7 0.000000 0.709214 0.330261
O O8 0.773979 0.500000 0.500000
O O9 0.000000 0.313503 0.500000
O O10 0.500000 0.263861 0.236285
O O11 0.331421 0.500000 0.227449
O O12 0.263715 0.262195 0.181106
O O13 0.788178 0.500000 0.870115
O O14 0.784316 0.249495 0.911532
O O15 0.000000 0.304252 0.852483
O O16 0.500000 0.778044 0.934299
O O17 0.686198 0.000000 0.941030
O O18 0.709525 0.778804 0.000000
#
# Coordination Sequence:
#
# PCOD8197764 Si02
#       6
#     8   8   4   8   8   8
#     4  11  24  40  58  83 115 149 185 225 270 319
#     4  10  20  35  57  84 112 143 181 223 267 318
#     4  11  24  41  62  88 114 143 184 229 272 322
#     4   9  17  31  53  79 107 141 179 219 265 315
#     4  10  20  33  51  78 110 140 173 217 267 318
#     4   9  19  36  55  74  99 134 176 220 266 318
#
# _framework density 19.193939
#
# number of rings (size 3 to 8) (size 9 to 14) (size 15 to 20)
#    0.000    2.091    0.000    3.818    0.000   10.909 
#    0.000    3.636    0.000    5.455    0.000    0.000 
#    0.000    0.000    0.000    0.000    0.000    0.000 
#
# Total GULP energy -545716.392827 kJ/mol
# GULP energy per Si atom -12402.645292 kJ/mol
# Density = 1.915025 g / cm^3
# Si number density = 19.193939 Si / 1000 Ang^3
#
#
#
# Elastic Constant Matrix: (Units=GPa)
#
#
# Indices 1 2 3 4 5 6 
#
# 1 63.8800 41.4262 37.2132 0.0000 0.0000 0.0000
# 2 41.4262 65.0434 48.6191 0.0000 0.0000 0.0000
# 3 37.2132 48.6191 133.5347 0.0000 0.0000 0.0000
# 4 0.0000 0.0000 0.0000 59.9436 0.0000 0.0000
# 5 0.0000 0.0000 0.0000 0.0000 49.5889 0.0000
# 6 0.0000 0.0000 0.0000 0.0000 0.0000 27.6555
#
#
#
# Elastic Compliance Matrix: (Units=1/GPa)
#
#
# Indices 1 2 3 4 5 6 
#
# 1 0.026959 -0.015875 -0.001733 0.000000 0.000000 0.000000
# 2 -0.015875 0.030471 -0.006670 0.000000 0.000000 0.000000
# 3 -0.001733 -0.006670 0.010400 0.000000 0.000000 0.000000
# 4 0.000000 0.000000 0.000000 0.016682 0.000000 0.000000
# 5 0.000000 0.000000 0.000000 0.000000 0.020166 0.000000
# 6 0.000000 0.000000 0.000000 0.000000 0.000000 0.036159
#
#
# Mechanical properties :
#
#
# Convention : Reuss Voigt Hill
#
# Bulk Modulus (GPa) = 51.88350 57.44170 54.66260
# Shear Modulus (GPa) = 25.53400 36.45090 30.99245
#
# Velocity S-wave (km/s) = 3.65131 4.36258 4.02269
# Velocity P-wave (km/s) = 6.69820 7.44097 7.07934
#
# Compressibility (1/GPa) = 0.01927395
#
# Stress axis : x y z
#
# Youngs Moduli (GPa) = 37.09401 32.81822 96.15151
#
# Poissons Ratio (x) = 0.52098 0.16662
# Poissons Ratio (y) = 0.58885 0.64136
# Poissons Ratio (z) = 0.06428 0.21891
#
# Static dielectric constant tensor:
#      x y z
#    x 3.624750 0.000000 0.000000 
#    y 0.000000 3.309130 0.000000 
#    z 0.000000 0.000000 3.800450 
# 
# 
# High freq. dielectric constant tensor:
#      x y z
#    x 1.759010 0.000000 0.000000 
#    y 0.000000 1.721300 0.000000 
#    z 0.000000 0.000000 1.764710 
# 
# From -- ./inp_files/33873.got.cif
#   From: 2010.03.12/outbox.cif.g09.slc.cpg/sg47_17_cif.got.tgz:33873.got - 2010.04.14 03:12:58.
