data_PCOD8197591
_publ_section_title
;
Structure prediction by ZEFSAII (Michael W. Deem and Ramdas Pophale) SiO2 
 PCOD8197591
Probable space group: P M M M
;
_chemical_formula_sum "Si O2"
_cell_formula_units_Z 48
_cell_length_a 9.034001
_cell_length_b 16.304922
_cell_length_c 18.148663
_cell_angle_alpha 90.000000
_cell_angle_beta 90.000000
_cell_angle_gamma 90.000000
_cell_volume 2673.274134
_symmetry_space_group_name_H-M "P M M M"
_symmetry_group_IT_number 47
_symmetry_cell_setting 'orthorhombic'
loop_
_space_group_symop_operation_xyz
x,y,z
-x,-y,z
x,-y,-z
-x,y,-z
-x,-y,-z
x,y,-z
-x,y,z
x,-y,z
loop_
_atom_site_type_symbol
_atom_site_label
_atom_site_fract_x
_atom_site_fract_y
_atom_site_fract_z
Si Si1 0.670358 0.407600 0.796856
Si Si2 0.826684 0.162251 0.415696
Si Si3 0.669502 0.252736 0.705503
Si Si4 0.326766 0.838628 0.854993
Si Si5 0.831464 0.314013 0.083554
Si Si6 0.334646 0.000000 0.412562
Si Si7 0.175781 0.000000 0.914043
O O1 0.500000 0.395094 0.820594
O O2 0.701568 0.500000 0.769512
O O3 0.708812 0.344863 0.731233
O O4 0.770687 0.388493 0.867408
O O5 0.780898 0.180850 0.500000
O O6 0.772991 0.236640 0.364780
O O7 0.000000 0.149424 0.408608
O O8 0.749283 0.080445 0.384480
O O9 0.500000 0.246033 0.680031
O O10 0.702499 0.187954 0.770624
O O11 0.500000 0.851018 0.870641
O O12 0.266133 0.767472 0.907713
O O13 0.240677 0.921541 0.872500
O O14 0.000000 0.293730 0.106348
O O15 0.821742 0.344350 0.000000
O O16 0.500000 0.000000 0.379458
O O17 0.336815 0.000000 0.500000
O O18 0.000000 0.000000 0.905916
O O19 0.222634 0.000000 0.000000
#
# Coordination Sequence:
#
# PCOD8197591 Si02
#       7
#     8   8   8   8   8   4   4
#     4   9  19  36  56  77 101 130 166 208 253 303
#     4  10  20  33  51  77 107 137 170 207 248 297
#     4   9  19  35  54  76 101 130 166 208 253 302
#     4  10  21  36  53  73  98 133 177 218 256 301
#     4  10  20  33  50  74 104 134 165 206 255 305
#     4   9  17  30  49  72  99 132 166 199 238 282
#     4  11  23  36  51  74 104 138 178 221 261 301
#
# _framework density 17.955508999999999
#
# number of rings (size 3 to 8) (size 9 to 14) (size 15 to 20)
#    0.000    2.333    0.000    3.500    0.000   10.667 
#    0.000    2.500    0.000    0.500    0.000    3.500 
#    0.000    0.000    0.000    0.000    0.000    0.000 
#
# Total GULP energy -595277.695774 kJ/mol
# GULP energy per Si atom -12401.618662 kJ/mol
# Density = 1.791464 g / cm^3
# Si number density = 17.955509 Si / 1000 Ang^3
#
#
#
# Elastic Constant Matrix: (Units=GPa)
#
#
# Indices 1 2 3 4 5 6 
#
# 1 97.9358 50.2131 53.3624 0.0000 0.0000 0.0000
# 2 50.2131 132.1649 55.2916 0.0000 0.0000 0.0000
# 3 53.3624 55.2916 87.4646 0.0000 0.0000 0.0000
# 4 0.0000 0.0000 0.0000 17.3158 0.0000 0.0000
# 5 0.0000 0.0000 0.0000 0.0000 31.1453 0.0000
# 6 0.0000 0.0000 0.0000 0.0000 0.0000 17.6894
#
#
#
# Elastic Compliance Matrix: (Units=1/GPa)
#
#
# Indices 1 2 3 4 5 6 
#
# 1 0.015978 -0.002709 -0.008036 0.000000 0.000000 0.000000
# 2 -0.002709 0.010746 -0.005141 0.000000 0.000000 0.000000
# 3 -0.008036 -0.005141 0.019586 0.000000 0.000000 0.000000
# 4 0.000000 0.000000 0.000000 0.057751 0.000000 0.000000
# 5 0.000000 0.000000 0.000000 0.000000 0.032108 0.000000
# 6 0.000000 0.000000 0.000000 0.000000 0.000000 0.056531
#
#
# Mechanical properties :
#
#
# Convention : Reuss Voigt Hill
#
# Bulk Modulus (GPa) = 68.77937 70.58884 69.68410
# Shear Modulus (GPa) = 21.80398 23.80999 22.80699
#
# Velocity S-wave (km/s) = 3.48851 3.64545 3.56785
# Velocity P-wave (km/s) = 7.39019 7.55762 7.47437
#
# Compressibility (1/GPa) = 0.01453924
#
# Stress axis : x y z
#
# Youngs Moduli (GPa) = 62.58560 93.05800 51.05770
#
# Poissons Ratio (x) = 0.25206 0.41030
# Poissons Ratio (y) = 0.16952 0.26247
# Poissons Ratio (z) = 0.50294 0.47838
#
# Static dielectric constant tensor:
#      x y z
#    x 3.445290 0.000000 0.000000 
#    y 0.000000 3.332440 0.000000 
#    z 0.000000 0.000000 3.167290 
# 
# 
# High freq. dielectric constant tensor:
#      x y z
#    x 1.706980 0.000000 0.000000 
#    y 0.000000 1.687890 0.000000 
#    z 0.000000 0.000000 1.678460 
# 
# From -- ./inp_files/26564.got.cif
#   From: 2010.03.12/outbox.cif.g09.slc.cpg/sg47_14_cif.got.tgz:26564.got - 2010.04.14 03:12:58.
