data_PCOD8197870
_publ_section_title
;
Structure prediction by ZEFSAII (Michael W. Deem and Ramdas Pophale) SiO2 
 PCOD8197870
Probable space group: P M M M
;
_chemical_formula_sum "Si O2"
_cell_formula_units_Z 36
_cell_length_a 23.166528
_cell_length_b 8.861188
_cell_length_c 8.915889
_cell_angle_alpha 90.000000
_cell_angle_beta 90.000000
_cell_angle_gamma 90.000000
_cell_volume 1830.280084
_symmetry_space_group_name_H-M "P M M M"
_symmetry_group_IT_number 47
_symmetry_cell_setting 'orthorhombic'
loop_
_space_group_symop_operation_xyz
x,y,z
-x,-y,z
x,-y,-z
-x,y,-z
-x,-y,-z
x,y,-z
-x,y,z
x,-y,z
loop_
_atom_site_type_symbol
_atom_site_label
_atom_site_fract_x
_atom_site_fract_y
_atom_site_fract_z
Si Si1 0.000000 0.178394 0.830380
Si Si2 0.436722 0.169235 0.677990
Si Si3 0.677267 0.672945 0.677126
Si Si4 0.891565 0.675879 0.674141
Si Si5 0.783814 0.174442 0.824147
O O1 0.943259 0.234060 0.748146
O O2 0.000000 0.000000 0.828265
O O3 0.000000 0.240211 0.000000
O O4 0.437379 0.168122 0.500000
O O5 0.500000 0.223529 0.736436
O O6 0.386717 0.281523 0.734359
O O7 0.424067 0.000000 0.737168
O O8 0.684108 0.698822 0.500000
O O9 0.688603 0.500000 0.720783
O O10 0.721732 0.779759 0.761948
O O11 0.889602 0.716587 0.500000
O O12 0.902009 0.500000 0.701209
O O13 0.831414 0.722726 0.746197
O O14 0.795695 0.000000 0.786439
O O15 0.785953 0.205054 0.000000
#
# Coordination Sequence:
#
# PCOD8197870 Si02
#       5
#     4   8   8   8   8
#     4  11  24  41  62  90 122 155 192 229 268 320
#     4   8  14  26  46  73 105 141 180 222 270 324
#     4  10  20  33  52  80 111 143 181 225 275 331
#     4  11  24  41  62  89 118 148 186 230 276 327
#     4  11  24  40  58  81 109 144 187 231 277 331
#
# _framework density 19.669118999999998
#
# number of rings (size 3 to 8) (size 9 to 14) (size 15 to 20)
#    0.000    1.889    0.000    4.667    0.000   12.889 
#    0.000    2.222    0.000    0.667    0.000    4.667 
#    0.000    0.000    0.000    0.000    0.000    0.000 
#
# Total GULP energy -446456.496001 kJ/mol
# GULP energy per Si atom -12401.569333 kJ/mol
# Density = 1.962435 g / cm^3
# Si number density = 19.669119 Si / 1000 Ang^3
#
#
#
# Elastic Constant Matrix: (Units=GPa)
#
#
# Indices 1 2 3 4 5 6 
#
# 1 129.1401 28.3902 42.6112 0.0000 0.0000 0.0000
# 2 28.3902 57.7598 42.7240 0.0000 0.0000 0.0000
# 3 42.6112 42.7240 77.5543 0.0000 0.0000 0.0000
# 4 0.0000 0.0000 0.0000 24.7979 0.0000 0.0000
# 5 0.0000 0.0000 0.0000 0.0000 48.8207 0.0000
# 6 0.0000 0.0000 0.0000 0.0000 0.0000 16.0031
#
#
#
# Elastic Compliance Matrix: (Units=1/GPa)
#
#
# Indices 1 2 3 4 5 6 
#
# 1 0.009522 -0.001368 -0.004478 0.000000 0.000000 0.000000
# 2 -0.001368 0.029416 -0.015454 0.000000 0.000000 0.000000
# 3 -0.004478 -0.015454 0.023868 0.000000 0.000000 0.000000
# 4 0.000000 0.000000 0.000000 0.040326 0.000000 0.000000
# 5 0.000000 0.000000 0.000000 0.000000 0.020483 0.000000
# 6 0.000000 0.000000 0.000000 0.000000 0.000000 0.062488
#
#
# Mechanical properties :
#
#
# Convention : Reuss Voigt Hill
#
# Bulk Modulus (GPa) = 49.48819 54.65611 52.07215
# Shear Modulus (GPa) = 21.23705 27.97291 24.60498
#
# Velocity S-wave (km/s) = 3.28947 3.77526 3.54071
# Velocity P-wave (km/s) = 6.29622 6.84482 6.57625
#
# Compressibility (1/GPa) = 0.02020684
#
# Stress axis : x y z
#
# Youngs Moduli (GPa) = 105.02177 33.99491 41.89728
#
# Poissons Ratio (x) = 0.04650 0.18762
# Poissons Ratio (y) = 0.14365 0.64746
# Poissons Ratio (z) = 0.47030 0.52534
#
# Static dielectric constant tensor:
#      x y z
#    x 4.041210 0.000000 0.000000 
#    y 0.000000 3.668510 0.000000 
#    z 0.000000 0.000000 3.453200 
# 
# 
# High freq. dielectric constant tensor:
#      x y z
#    x 1.787430 0.000000 0.000000 
#    y 0.000000 1.773320 0.000000 
#    z 0.000000 0.000000 1.744910 
# 
# From -- ./inp_files/12073.got.cif
#   From: 2010.03.12/outbox.cif.g09.slc.cpg/sg47_7_cif.got.tgz:12073.got - 2010.04.14 03:12:58.
