data_PCOD8197980
_publ_section_title
;
Structure prediction by ZEFSAII (Michael W. Deem and Ramdas Pophale) SiO2 
 PCOD8197980
Probable space group: P M M M
;
_chemical_formula_sum "Si O2"
_cell_formula_units_Z 52
_cell_length_a 14.248969
_cell_length_b 8.882042
_cell_length_c 23.201894
_cell_angle_alpha 90.000000
_cell_angle_beta 90.000000
_cell_angle_gamma 90.000000
_cell_volume 2936.430338
_symmetry_space_group_name_H-M "P M M M"
_symmetry_group_IT_number 47
_symmetry_cell_setting 'orthorhombic'
loop_
_space_group_symop_operation_xyz
x,y,z
-x,-y,z
x,-y,-z
-x,y,-z
-x,-y,-z
x,y,-z
-x,y,z
x,-y,z
loop_
_atom_site_type_symbol
_atom_site_label
_atom_site_fract_x
_atom_site_fract_y
_atom_site_fract_z
Si Si1 0.891425 0.677302 0.664836
Si Si2 0.263043 0.667085 0.144346
Si Si3 0.736379 0.177361 0.738721
Si Si4 0.104783 0.678486 0.063929
Si Si5 0.603813 0.177553 0.362415
Si Si6 0.222436 0.821812 0.434385
Si Si7 0.389881 0.500000 0.066438
O O1 0.876135 0.500000 0.664225
O O2 0.833171 0.747030 0.717885
O O3 0.856773 0.742916 0.603854
O O4 0.000000 0.720495 0.673474
O O5 0.234639 0.500000 0.167751
O O6 0.291468 0.772405 0.197191
O O7 0.176575 0.746169 0.110589
O O8 0.348855 0.648739 0.098604
O O9 0.650621 0.228833 0.697788
O O10 0.751071 0.000000 0.736114
O O11 0.119701 0.500000 0.061375
O O12 0.000000 0.720048 0.084056
O O13 0.123659 0.744886 0.000000
O O14 0.500000 0.251916 0.369160
O O15 0.673084 0.228393 0.414037
O O16 0.592237 0.000000 0.363360
O O17 0.208651 0.770121 0.500000
O O18 0.210800 0.000000 0.426804
O O19 0.500000 0.500000 0.072303
O O20 0.357056 0.500000 0.000000
#
# Coordination Sequence:
#
# PCOD8197980 Si02
#       7
#     8   8   8   8   8   8   4
#     4  10  21  36  54  73  99 137 177 216 257 302
#     4   9  18  29  48  73  98 128 167 207 247 298
#     4  10  20  34  51  74 104 133 167 213 263 313
#     4   8  13  23  42  67  91 116 151 195 238 280
#     4   8  15  29  49  71  96 129 166 205 251 301
#     4   9  18  32  51  77 106 134 169 213 258 308
#     4   9  18  32  51  75 103 137 175 214 254 298
#
# _framework density 17.708576000000001
#
# number of rings (size 3 to 8) (size 9 to 14) (size 15 to 20)
#    0.462    2.538    0.000    2.769    0.000    3.385 
#    0.000    4.615    0.000    6.000    0.000    6.462 
#    0.000    0.000    0.000    0.000    0.000    0.000 
#
# Total GULP energy -644445.644053 kJ/mol
# GULP energy per Si atom -12393.185463 kJ/mol
# Density = 1.766827 g / cm^3
# Si number density = 17.708576 Si / 1000 Ang^3
#
#
#
# Elastic Constant Matrix: (Units=GPa)
#
#
# Indices 1 2 3 4 5 6 
#
# 1 103.7576 28.6952 42.1522 0.0000 0.0000 0.0000
# 2 28.6952 38.7792 27.4151 0.0000 0.0000 0.0000
# 3 42.1522 27.4151 117.2794 0.0000 0.0000 0.0000
# 4 0.0000 0.0000 0.0000 27.3193 0.0000 0.0000
# 5 0.0000 0.0000 0.0000 0.0000 15.9947 0.0000
# 6 0.0000 0.0000 0.0000 0.0000 0.0000 13.3501
#
#
#
# Elastic Compliance Matrix: (Units=1/GPa)
#
#
# Indices 1 2 3 4 5 6 
#
# 1 0.012880 -0.007497 -0.002877 0.000000 0.000000 0.000000
# 2 -0.007497 0.035256 -0.005547 0.000000 0.000000 0.000000
# 3 -0.002877 -0.005547 0.010857 0.000000 0.000000 0.000000
# 4 0.000000 0.000000 0.000000 0.036604 0.000000 0.000000
# 5 0.000000 0.000000 0.000000 0.000000 0.062521 0.000000
# 6 0.000000 0.000000 0.000000 0.000000 0.000000 0.074906
#
#
# Mechanical properties :
#
#
# Convention : Reuss Voigt Hill
#
# Bulk Modulus (GPa) = 36.82983 50.70458 43.76721
# Shear Modulus (GPa) = 18.25381 22.10306 20.17843
#
# Velocity S-wave (km/s) = 3.21407 3.53676 3.37927
# Velocity P-wave (km/s) = 5.88359 6.73596 6.32415
#
# Compressibility (1/GPa) = 0.02715190
#
# Stress axis : x y z
#
# Youngs Moduli (GPa) = 77.64028 28.36405 92.10442
#
# Poissons Ratio (x) = 0.21264 0.26496
# Poissons Ratio (y) = 0.58206 0.51089
# Poissons Ratio (z) = 0.22335 0.15733
#
# Static dielectric constant tensor:
#      x y z
#    x 3.439430 0.000000 0.000000 
#    y 0.000000 2.863300 0.000000 
#    z 0.000000 0.000000 3.390150 
# 
# 
# High freq. dielectric constant tensor:
#      x y z
#    x 1.688000 0.000000 0.000000 
#    y 0.000000 1.639940 0.000000 
#    z 0.000000 0.000000 1.689290 
# 
# From -- ./inp_files/32669.got.cif
#   From: 2010.03.12/outbox.cif.g09.slc.cpg/sg47_17_cif.got.tgz:32669.got - 2010.04.14 03:12:58.
