data_PCOD8197433
_publ_section_title
;
Structure prediction by ZEFSAII (Michael W. Deem and Ramdas Pophale) SiO2 
 PCOD8197433
Probable space group: P M M M
;
_chemical_formula_sum "Si O2"
_cell_formula_units_Z 64
_cell_length_a 19.309606
_cell_length_b 9.158991
_cell_length_c 20.519732
_cell_angle_alpha 90.000000
_cell_angle_beta 90.000000
_cell_angle_gamma 90.000000
_cell_volume 3629.048138
_symmetry_space_group_name_H-M "P M M M"
_symmetry_group_IT_number 47
_symmetry_cell_setting 'orthorhombic'
loop_
_space_group_symop_operation_xyz
x,y,z
-x,-y,z
x,-y,-z
-x,y,-z
-x,-y,-z
x,y,-z
-x,y,z
x,-y,z
loop_
_atom_site_type_symbol
_atom_site_label
_atom_site_fract_x
_atom_site_fract_y
_atom_site_fract_z
Si Si1 0.671812 0.663028 0.570518
Si Si2 0.163584 0.664199 0.427931
Si Si3 0.825732 0.326066 0.174566
Si Si4 0.670009 0.159953 0.309566
Si Si5 0.834365 0.836749 0.305268
Si Si6 0.318738 0.826414 0.832729
Si Si7 0.081039 0.165889 0.925109
Si Si8 0.420321 0.665551 0.924133
O O1 0.651256 0.732967 0.500000
O O2 0.642640 0.500000 0.573502
O O3 0.753990 0.662747 0.577114
O O4 0.637775 0.746246 0.631602
O O5 0.141142 0.721482 0.500000
O O6 0.135556 0.500000 0.417599
O O7 0.132610 0.766802 0.370988
O O8 0.819322 0.500000 0.180074
O O9 0.853354 0.262256 0.243139
O O10 0.752375 0.257875 0.154131
O O11 0.879653 0.283286 0.118762
O O12 0.752509 0.155265 0.313500
O O13 0.650339 0.220733 0.237972
O O14 0.638285 0.000000 0.318801
O O15 0.864815 0.000000 0.295957
O O16 0.374014 0.782144 0.886605
O O17 0.304423 0.000000 0.834586
O O18 0.000000 0.189524 0.914397
O O19 0.101852 0.000000 0.905825
O O20 0.101168 0.195170 0.000000
O O21 0.500000 0.699283 0.908250
O O22 0.401842 0.500000 0.903070
O O23 0.405323 0.686585 0.000000
#
# Coordination Sequence:
#
# PCOD8197433 Si02
#       8
#     8   8   8   8   8   8   8   8
#     4   8  13  20  31  49  74 107 146 183 220 267
#     4   8  13  21  33  51  78 113 152 191 232 280
#     4  11  21  32  49  72  99 130 162 198 241 286
#     4   8  15  25  36  54  81 113 148 187 228 268
#     4   9  16  26  39  57  85 119 156 196 236 280
#     4  10  20  33  49  71  98 127 162 200 237 282
#     4   9  19  37  58  76  96 124 156 192 237 287
#     4   9  19  36  55  74  97 124 155 193 237 285
#
# _framework density 17.635479
#
# number of rings (size 3 to 8) (size 9 to 14) (size 15 to 20)
#    0.000    3.000    0.000    4.125    0.000    5.500 
#    0.000    3.750    0.000    0.000    0.000    0.000 
#    0.000    1.000    0.000   10.750    0.000   15.250 
#
# Total GULP energy -793164.955829 kJ/mol
# GULP energy per Si atom -12393.202435 kJ/mol
# Density = 1.759534 g / cm^3
# Si number density = 17.635479 Si / 1000 Ang^3
#
#
#
# Elastic Constant Matrix: (Units=GPa)
#
#
# Indices 1 2 3 4 5 6 
#
# 1 30.9802 31.3407 41.1845 0.0000 0.0000 0.0000
# 2 31.3407 113.7111 69.3310 0.0000 0.0000 0.0000
# 3 41.1845 69.3310 129.4152 0.0000 0.0000 0.0000
# 4 0.0000 0.0000 0.0000 37.1135 0.0000 0.0000
# 5 0.0000 0.0000 0.0000 0.0000 -2.1136 0.0000
# 6 0.0000 0.0000 0.0000 0.0000 0.0000 18.5145
#
#
#
# Elastic Compliance Matrix: (Units=1/GPa)
#
#
# Indices 1 2 3 4 5 6 
#
# 1 0.059702 -0.007234 -0.015124 0.000000 0.000000 0.000000
# 2 -0.007234 0.013937 -0.005164 0.000000 0.000000 0.000000
# 3 -0.015124 -0.005164 0.015307 0.000000 0.000000 0.000000
# 4 0.000000 0.000000 0.000000 0.026944 0.000000 0.000000
# 5 0.000000 0.000000 0.000000 0.000000 -0.473116 0.000000
# 6 0.000000 0.000000 0.000000 0.000000 0.000000 0.054012
#
#
# Mechanical properties :
#
#
# Convention : Reuss Voigt Hill
#
# Bulk Modulus (GPa) = 29.49710 61.97987 45.73848
# Shear Modulus (GPa) = -21.10858 19.51955 -0.79451
#
# Velocity S-wave (km/s) = -3.46343 3.33052 -0.67194
# Velocity P-wave (km/s) = 0.87663 7.07185 5.03883
#
# Compressibility (1/GPa) = 0.03390164
#
# Stress axis : x y z
#
# Youngs Moduli (GPa) = 16.74980 71.75351 65.33084
#
# Poissons Ratio (x) = 0.51903 0.98807
# Poissons Ratio (y) = 0.12116 0.33738
# Poissons Ratio (z) = 0.25333 0.37055
#
# Static dielectric constant tensor:
#      x y z
#    x 2.649030 0.000000 0.000000 
#    y 0.000000 3.397000 0.000000 
#    z 0.000000 0.000000 3.600150 
# 
# 
# High freq. dielectric constant tensor:
#      x y z
#    x 1.612710 0.000000 0.000000 
#    y 0.000000 1.683280 0.000000 
#    z 0.000000 0.000000 1.700180 
# 
# From -- ./inp_files/11581.got.cif
#   From: 2010.03.12/outbox.cif.g09.slc.cpg/sg47_6_cif.got.tgz:11581.got - 2010.04.14 03:12:58.
