data_PCOD8197807
_publ_section_title
;
Structure prediction by ZEFSAII (Michael W. Deem and Ramdas Pophale) SiO2 
 PCOD8197807
Probable space group: P M M M
;
_chemical_formula_sum "Si O2"
_cell_formula_units_Z 32
_cell_length_a 7.899776
_cell_length_b 22.392354
_cell_length_c 9.304345
_cell_angle_alpha 90.000000
_cell_angle_beta 90.000000
_cell_angle_gamma 90.000000
_cell_volume 1645.888208
_symmetry_space_group_name_H-M "P M M M"
_symmetry_group_IT_number 47
_symmetry_cell_setting 'orthorhombic'
loop_
_space_group_symop_operation_xyz
x,y,z
-x,-y,z
x,-y,-z
-x,y,-z
-x,-y,-z
x,y,-z
-x,y,z
x,-y,z
loop_
_atom_site_type_symbol
_atom_site_label
_atom_site_fract_x
_atom_site_fract_y
_atom_site_fract_z
Si Si1 0.196095 0.849695 0.168863
Si Si2 0.805546 0.264148 0.657740
Si Si3 0.500000 0.066519 0.170174
Si Si4 0.305505 0.626735 0.162285
Si Si5 0.190640 0.500000 0.829728
O O1 0.265248 0.789904 0.246036
O O2 0.325784 0.901282 0.220315
O O3 0.000000 0.866383 0.208025
O O4 0.211785 0.837737 0.000000
O O5 0.716378 0.265891 0.500000
O O6 0.789298 0.327256 0.736268
O O7 0.000000 0.250843 0.634487
O O8 0.500000 0.000000 0.237118
O O9 0.500000 0.063067 0.000000
O O10 0.500000 0.644224 0.161793
O O11 0.281793 0.559993 0.226473
O O12 0.230731 0.630629 0.000000
O O13 0.000000 0.500000 0.772199
O O14 0.201112 0.500000 0.000000
#
# Coordination Sequence:
#
# PCOD8197807 Si02
#       5
#     8   8   4   8   4
#     4   9  18  33  54  79 108 142 179 220 266 316
#     4  10  21  36  53  75 104 138 177 221 267 313
#     4   9  18  32  53  83 113 138 173 220 265 315
#     4  10  20  33  52  78 106 135 170 215 265 317
#     4   9  17  31  52  75 100 133 172 214 260 313
#
# _framework density 19.442388999999999
#
# number of rings (size 3 to 8) (size 9 to 14) (size 15 to 20)
#    0.000    2.500    0.000    1.875    1.750    5.000 
#    0.000    3.125    0.000    5.250    0.000    3.500 
#    0.000    0.000    0.000    0.000    0.000    0.000 
#
# Total GULP energy -396624.218387 kJ/mol
# GULP energy per Si atom -12394.506825 kJ/mol
# Density = 1.939814 g / cm^3
# Si number density = 19.442389 Si / 1000 Ang^3
#
#
#
# Elastic Constant Matrix: (Units=GPa)
#
#
# Indices 1 2 3 4 5 6 
#
# 1 73.5640 44.0427 23.4013 0.0000 0.0000 0.0000
# 2 44.0427 170.7082 57.0879 0.0000 0.0000 0.0000
# 3 23.4013 57.0879 71.3145 0.0000 0.0000 0.0000
# 4 0.0000 0.0000 0.0000 2.5930 0.0000 0.0000
# 5 0.0000 0.0000 0.0000 0.0000 10.3547 0.0000
# 6 0.0000 0.0000 0.0000 0.0000 0.0000 35.1076
#
#
#
# Elastic Compliance Matrix: (Units=1/GPa)
#
#
# Indices 1 2 3 4 5 6 
#
# 1 0.016458 -0.003332 -0.002733 0.000000 0.000000 0.000000
# 2 -0.003332 0.008674 -0.005850 0.000000 0.000000 0.000000
# 3 -0.002733 -0.005850 0.019602 0.000000 0.000000 0.000000
# 4 0.000000 0.000000 0.000000 0.385655 0.000000 0.000000
# 5 0.000000 0.000000 0.000000 0.000000 0.096574 0.000000
# 6 0.000000 0.000000 0.000000 0.000000 0.000000 0.028484
#
#
# Mechanical properties :
#
#
# Convention : Reuss Voigt Hill
#
# Bulk Modulus (GPa) = 47.83910 62.73894 55.28902
# Shear Modulus (GPa) = 8.52883 22.34805 15.43844
#
# Velocity S-wave (km/s) = 2.09672 3.39403 2.82097
# Velocity P-wave (km/s) = 5.52455 6.90641 6.25376
#
# Compressibility (1/GPa) = 0.02090340
#
# Stress axis : x y z
#
# Youngs Moduli (GPa) = 60.76080 115.28611 51.01408
#
# Poissons Ratio (x) = 0.38415 0.13943
# Poissons Ratio (y) = 0.20246 0.29845
# Poissons Ratio (z) = 0.16607 0.67445
#
# Static dielectric constant tensor:
#      x y z
#    x 3.553780 0.000000 0.000000 
#    y 0.000000 3.717780 0.000000 
#    z 0.000000 0.000000 3.493290 
# 
# 
# High freq. dielectric constant tensor:
#      x y z
#    x 1.756980 0.000000 0.000000 
#    y 0.000000 1.759990 0.000000 
#    z 0.000000 0.000000 1.720390 
# 
# From -- ./inp_files/1303.got.cif
#   From: 2010.03.12/outbox.cif.g09.slc.cpg/sg47_1_cif.got.tgz:1303.got - 2010.04.14 03:12:58.
