data_PCOD8197478
_publ_section_title
;
Structure prediction by ZEFSAII (Michael W. Deem and Ramdas Pophale) SiO2 
 PCOD8197478
Probable space group: P M M M
;
_chemical_formula_sum "Si O2"
_cell_formula_units_Z 52
_cell_length_a 9.203535
_cell_length_b 19.426579
_cell_length_c 15.908847
_cell_angle_alpha 90.000000
_cell_angle_beta 90.000000
_cell_angle_gamma 90.000000
_cell_volume 2844.393660
_symmetry_space_group_name_H-M "P M M M"
_symmetry_group_IT_number 47
_symmetry_cell_setting 'orthorhombic'
loop_
_space_group_symop_operation_xyz
x,y,z
-x,-y,z
x,-y,-z
-x,y,-z
-x,-y,-z
x,y,-z
-x,y,z
x,-y,z
loop_
_atom_site_type_symbol
_atom_site_label
_atom_site_fract_x
_atom_site_fract_y
_atom_site_fract_z
Si Si1 0.169596 0.577585 0.154255
Si Si2 0.332248 0.703552 0.093067
Si Si3 0.826798 0.078429 0.181676
Si Si4 0.157393 0.080945 0.000000
Si Si5 0.327388 0.797028 0.248067
Si Si6 0.666358 0.423694 0.674123
Si Si7 0.329135 0.286057 0.591453
O O1 0.200582 0.500000 0.121735
O O2 0.246062 0.631707 0.093053
O O3 0.230345 0.587625 0.247301
O O4 0.000000 0.593458 0.156105
O O5 0.500000 0.686552 0.109659
O O6 0.275224 0.754389 0.165997
O O7 0.309560 0.736978 0.000000
O O8 0.763325 0.098917 0.088228
O O9 0.747914 0.128262 0.247516
O O10 0.000000 0.088225 0.184060
O O11 0.785644 0.000000 0.204901
O O12 0.000000 0.117802 0.000000
O O13 0.130244 0.000000 0.000000
O O14 0.500000 0.805995 0.248947
O O15 0.267115 0.759751 0.332112
O O16 0.500000 0.413055 0.704510
O O17 0.687816 0.500000 0.634973
O O18 0.707837 0.366630 0.605239
O O19 0.263349 0.264729 0.500000
O O20 0.500000 0.274930 0.589421
#
# Coordination Sequence:
#
# PCOD8197478 Si02
#       7
#     8   8   8   4   8   8   8
#     4  10  20  33  50  72 100 134 174 219 260 297
#     4  10  21  36  52  72 101 137 175 212 254 303
#     4   9  18  33  53  76 103 136 171 205 244 293
#     4   7  12  26  47  71  99 129 162 197 232 279
#     4  10  20  34  52  76 105 133 164 205 252 301
#     4   9  16  29  51  75 100 131 167 207 255 309
#     4   9  17  31  52  77 103 130 164 210 259 302
#
# _framework density 18.281576000000001
#
# number of rings (size 3 to 8) (size 9 to 14) (size 15 to 20)
#    0.000    2.692    1.538    1.385    1.077    2.769 
#    0.000    3.077    0.000    3.692    0.000    5.385 
#    0.000    0.000    0.000    0.000    0.000    0.000 
#
# Total GULP energy -644376.725646 kJ/mol
# GULP energy per Si atom -12391.860109 kJ/mol
# Density = 1.823997 g / cm^3
# Si number density = 18.281576 Si / 1000 Ang^3
#
#
#
# Elastic Constant Matrix: (Units=GPa)
#
#
# Indices 1 2 3 4 5 6 
#
# 1 35.3228 30.5907 21.9353 0.0000 0.0000 0.0000
# 2 30.5907 116.1776 68.2545 0.0000 0.0000 0.0000
# 3 21.9353 68.2545 127.7467 0.0000 0.0000 0.0000
# 4 0.0000 0.0000 0.0000 19.6571 0.0000 0.0000
# 5 0.0000 0.0000 0.0000 0.0000 7.6364 0.0000
# 6 0.0000 0.0000 0.0000 0.0000 0.0000 26.4928
#
#
#
# Elastic Compliance Matrix: (Units=1/GPa)
#
#
# Indices 1 2 3 4 5 6 
#
# 1 0.036916 -0.008740 -0.001669 0.000000 0.000000 0.000000
# 2 -0.008740 0.014615 -0.006308 0.000000 0.000000 0.000000
# 3 -0.001669 -0.006308 0.011485 0.000000 0.000000 0.000000
# 4 0.000000 0.000000 0.000000 0.050872 0.000000 0.000000
# 5 0.000000 0.000000 0.000000 0.000000 0.130952 0.000000
# 6 0.000000 0.000000 0.000000 0.000000 0.000000 0.037746
#
#
# Mechanical properties :
#
#
# Convention : Reuss Voigt Hill
#
# Bulk Modulus (GPa) = 33.80458 57.86757 45.83608
# Shear Modulus (GPa) = 15.34312 21.32171 18.33241
#
# Velocity S-wave (km/s) = 2.90015 3.41881 3.17011
# Velocity P-wave (km/s) = 5.45396 6.87798 6.20694
#
# Compressibility (1/GPa) = 0.02958179
#
# Stress axis : x y z
#
# Youngs Moduli (GPa) = 27.08877 68.42471 87.07109
#
# Poissons Ratio (x) = 0.59800 0.14534
# Poissons Ratio (y) = 0.23674 0.54923
# Poissons Ratio (z) = 0.04522 0.43161
#
# Static dielectric constant tensor:
#      x y z
#    x 3.062030 0.000000 0.000000 
#    y 0.000000 3.374810 0.000000 
#    z 0.000000 0.000000 3.503580 
# 
# 
# High freq. dielectric constant tensor:
#      x y z
#    x 1.676650 0.000000 0.000000 
#    y 0.000000 1.704460 0.000000 
#    z 0.000000 0.000000 1.693930 
# 
# From -- ./inp_files/11061.got.cif
#   From: 2010.03.12/outbox.cif.g09.slc.cpg/sg47_6_cif.got.tgz:11061.got - 2010.04.14 03:12:58.
