data_PCOD8197996
_publ_section_title
;
Structure prediction by ZEFSAII (Michael W. Deem and Ramdas Pophale) SiO2 
 PCOD8197996
Probable space group: P M M M
;
_chemical_formula_sum "Si O2"
_cell_formula_units_Z 52
_cell_length_a 19.431564
_cell_length_b 9.469758
_cell_length_c 15.867672
_cell_angle_alpha 90.000000
_cell_angle_beta 90.000000
_cell_angle_gamma 90.000000
_cell_volume 2919.845371
_symmetry_space_group_name_H-M "P M M M"
_symmetry_group_IT_number 47
_symmetry_cell_setting 'orthorhombic'
loop_
_space_group_symop_operation_xyz
x,y,z
-x,-y,z
x,-y,-z
-x,y,-z
-x,-y,-z
x,y,-z
-x,y,z
x,-y,z
loop_
_atom_site_type_symbol
_atom_site_label
_atom_site_fract_x
_atom_site_fract_y
_atom_site_fract_z
Si Si1 0.215363 0.166637 0.408441
Si Si2 0.287200 0.836607 0.242208
Si Si3 0.923872 0.835836 0.329189
Si Si4 0.924207 0.339335 0.836030
Si Si5 0.577502 0.838594 0.158031
Si Si6 0.781968 0.337524 0.905791
Si Si7 0.418430 0.658466 0.000000
O O1 0.237834 0.229502 0.500000
O O2 0.261696 0.228313 0.331654
O O3 0.134861 0.205710 0.396111
O O4 0.225679 0.000000 0.410473
O O5 0.370281 0.819482 0.236514
O O6 0.253443 0.758744 0.163565
O O7 0.265137 0.000000 0.235826
O O8 0.907233 0.756645 0.243469
O O9 0.000000 0.796328 0.364705
O O10 0.919562 0.000000 0.307345
O O11 0.923021 0.500000 0.803773
O O12 0.864752 0.314233 0.904794
O O13 0.000000 0.302765 0.874138
O O14 0.500000 0.795775 0.186363
O O15 0.606261 0.740074 0.083184
O O16 0.578252 0.000000 0.125474
O O17 0.763881 0.500000 0.885806
O O18 0.756014 0.297123 0.000000
O O19 0.387318 0.500000 0.000000
O O20 0.500000 0.654588 0.000000
#
# Coordination Sequence:
#
# PCOD8197996 Si02
#       7
#     8   8   8   8   8   8   4
#     4   9  17  30  49  73  98 123 156 200 246 289
#     4  10  20  34  52  72  96 128 163 198 242 293
#     4   9  16  27  46  70  94 121 155 195 238 286
#     4   9  17  30  48  67  91 126 164 200 238 281
#     4   9  18  32  49  69  96 130 165 198 234 283
#     4  10  21  34  48  70  99 130 164 202 243 283
#     4   9  17  29  47  73 101 127 158 195 234 277
#
# _framework density 17.809161
#
# number of rings (size 3 to 8) (size 9 to 14) (size 15 to 20)
#    0.000    2.692    1.538    0.231    1.077    2.462 
#    0.000    3.077    0.000    2.308    0.000    8.615 
#    0.000    0.000    0.000    5.231    0.000    5.538 
#
# Total GULP energy -644370.710133 kJ/mol
# GULP energy per Si atom -12391.744426 kJ/mol
# Density = 1.776863 g / cm^3
# Si number density = 17.809161 Si / 1000 Ang^3
#
#
#
# Elastic Constant Matrix: (Units=GPa)
#
#
# Indices 1 2 3 4 5 6 
#
# 1 91.0649 24.8970 62.0951 0.0000 0.0000 0.0000
# 2 24.8970 44.7495 35.3348 0.0000 0.0000 0.0000
# 3 62.0951 35.3348 130.6959 0.0000 0.0000 0.0000
# 4 0.0000 0.0000 0.0000 3.8742 0.0000 0.0000
# 5 0.0000 0.0000 0.0000 0.0000 21.1593 0.0000
# 6 0.0000 0.0000 0.0000 0.0000 0.0000 16.9557
#
#
#
# Elastic Compliance Matrix: (Units=1/GPa)
#
#
# Indices 1 2 3 4 5 6 
#
# 1 0.016752 -0.003860 -0.006916 0.000000 0.000000 0.000000
# 2 -0.003860 0.029301 -0.006088 0.000000 0.000000 0.000000
# 3 -0.006916 -0.006088 0.012583 0.000000 0.000000 0.000000
# 4 0.000000 0.000000 0.000000 0.258119 0.000000 0.000000
# 5 0.000000 0.000000 0.000000 0.000000 0.047260 0.000000
# 6 0.000000 0.000000 0.000000 0.000000 0.000000 0.058977
#
#
# Mechanical properties :
#
#
# Convention : Reuss Voigt Hill
#
# Bulk Modulus (GPa) = 40.14506 56.79601 48.47054
# Shear Modulus (GPa) = 10.75217 18.01006 14.38112
#
# Velocity S-wave (km/s) = 2.45979 3.18351 2.84476
# Velocity P-wave (km/s) = 5.53698 6.74342 6.16976
#
# Compressibility (1/GPa) = 0.02490966
#
# Stress axis : x y z
#
# Youngs Moduli (GPa) = 59.69446 34.12825 79.47218
#
# Poissons Ratio (x) = 0.13172 0.54960
# Poissons Ratio (y) = 0.23039 0.48384
# Poissons Ratio (z) = 0.41282 0.20778
#
# Static dielectric constant tensor:
#      x y z
#    x 3.595280 0.000000 0.000000 
#    y 0.000000 3.203790 0.000000 
#    z 0.000000 0.000000 3.291440 
# 
# 
# High freq. dielectric constant tensor:
#      x y z
#    x 1.699820 0.000000 0.000000 
#    y 0.000000 1.668040 0.000000 
#    z 0.000000 0.000000 1.661050 
# 
# From -- ./inp_files/10984.got.cif
#   From: 2010.03.12/outbox.cif.g09.slc.cpg/sg47_6_cif.got.tgz:10984.got - 2010.04.14 03:12:58.
