data_PCOD8197755
_publ_section_title
;
Structure prediction by ZEFSAII (Michael W. Deem and Ramdas Pophale) SiO2 
 PCOD8197755
Probable space group: P M M M
;
_chemical_formula_sum "Si O2"
_cell_formula_units_Z 52
_cell_length_a 13.295538
_cell_length_b 8.963149
_cell_length_c 24.094822
_cell_angle_alpha 90.000000
_cell_angle_beta 90.000000
_cell_angle_gamma 90.000000
_cell_volume 2871.377242
_symmetry_space_group_name_H-M "P M M M"
_symmetry_group_IT_number 47
_symmetry_cell_setting 'orthorhombic'
loop_
_space_group_symop_operation_xyz
x,y,z
-x,-y,z
x,-y,-z
-x,y,-z
-x,-y,-z
x,y,-z
-x,y,z
x,-y,z
loop_
_atom_site_type_symbol
_atom_site_label
_atom_site_fract_x
_atom_site_fract_y
_atom_site_fract_z
Si Si1 0.500000 0.177636 0.437126
Si Si2 0.614817 0.331268 0.734312
Si Si3 0.111872 0.831227 0.235477
Si Si4 0.615846 0.673139 0.936834
Si Si5 0.699055 0.826883 0.834793
Si Si6 0.693507 0.176053 0.370103
Si Si7 0.887151 0.675011 0.350122
O O1 0.500000 0.236579 0.500000
O O2 0.601607 0.238435 0.407695
O O3 0.500000 0.000000 0.434395
O O4 0.500000 0.328812 0.715510
O O5 0.657217 0.500000 0.731604
O O6 0.623262 0.266421 0.796120
O O7 0.676633 0.224428 0.693413
O O8 0.187320 0.794916 0.185305
O O9 0.129670 0.719176 0.286158
O O10 0.000000 0.811299 0.211028
O O11 0.128447 0.000000 0.257858
O O12 0.500000 0.716898 0.926553
O O13 0.632607 0.500000 0.923578
O O14 0.687407 0.770907 0.897618
O O15 0.646346 0.709073 0.000000
O O16 0.670724 0.000000 0.831236
O O17 0.801710 0.245121 0.388292
O O18 0.700062 0.000000 0.374713
O O19 0.872815 0.500000 0.356390
O O20 0.000000 0.723308 0.369312
#
# Coordination Sequence:
#
# PCOD8197755 Si02
#       7
#     4   8   8   8   8   8   8
#     4   9  20  38  59  83 111 145 184 227 272 317
#     4  11  22  33  47  71 107 144 172 206 259 318
#     4   9  18  32  48  69 101 137 171 208 255 311
#     4   9  19  36  54  70  93 130 172 211 257 313
#     4  11  21  31  49  76 102 131 169 213 262 312
#     4  11  20  33  55  80 108 141 178 221 268 317
#     4  10  20  33  51  77 109 144 181 220 266 321
#
# _framework density 18.109774999999999
#
# number of rings (size 3 to 8) (size 9 to 14) (size 15 to 20)
#    0.000    1.923    2.308    2.769    0.000    4.923 
#    0.000    0.769    0.000    4.615    0.000    6.462 
#    0.000    0.000    0.000    0.000    0.000    0.000 
#
# Total GULP energy -644754.269014 kJ/mol
# GULP energy per Si atom -12399.120558 kJ/mol
# Density = 1.806856 g / cm^3
# Si number density = 18.109775 Si / 1000 Ang^3
#
#
#
# Elastic Constant Matrix: (Units=GPa)
#
#
# Indices 1 2 3 4 5 6 
#
# 1 138.3464 50.6162 45.4291 0.0000 0.0000 0.0000
# 2 50.6162 75.6147 27.7292 0.0000 0.0000 0.0000
# 3 45.4291 27.7292 72.3469 0.0000 0.0000 0.0000
# 4 0.0000 0.0000 0.0000 11.8626 0.0000 0.0000
# 5 0.0000 0.0000 0.0000 0.0000 18.0066 0.0000
# 6 0.0000 0.0000 0.0000 0.0000 0.0000 29.3155
#
#
#
# Elastic Compliance Matrix: (Units=1/GPa)
#
#
# Indices 1 2 3 4 5 6 
#
# 1 0.010770 -0.005503 -0.004654 0.000000 0.000000 0.000000
# 2 -0.005503 0.018199 -0.003520 0.000000 0.000000 0.000000
# 3 -0.004654 -0.003520 0.018094 0.000000 0.000000 0.000000
# 4 0.000000 0.000000 0.000000 0.084299 0.000000 0.000000
# 5 0.000000 0.000000 0.000000 0.000000 0.055535 0.000000
# 6 0.000000 0.000000 0.000000 0.000000 0.000000 0.034112
#
#
# Mechanical properties :
#
#
# Convention : Reuss Voigt Hill
#
# Bulk Modulus (GPa) = 50.73602 59.31743 55.02672
# Shear Modulus (GPa) = 19.61319 22.67251 21.14285
#
# Velocity S-wave (km/s) = 3.29449 3.54213 3.42055
# Velocity P-wave (km/s) = 6.52290 7.03949 6.78611
#
# Compressibility (1/GPa) = 0.01970986
#
# Stress axis : x y z
#
# Youngs Moduli (GPa) = 92.85477 54.94740 55.26814
#
# Poissons Ratio (x) = 0.30235 0.25719
# Poissons Ratio (y) = 0.51094 0.19455
# Poissons Ratio (z) = 0.43210 0.19342
#
# Static dielectric constant tensor:
#      x y z
#    x 3.659550 0.000000 0.000000 
#    y 0.000000 3.299760 0.000000 
#    z 0.000000 0.000000 3.049250 
# 
# 
# High freq. dielectric constant tensor:
#      x y z
#    x 1.711820 0.000000 0.000000 
#    y 0.000000 1.702000 0.000000 
#    z 0.000000 0.000000 1.663520 
# 
# From -- ./inp_files/32642.got.cif
#   From: 2010.03.12/outbox.cif.g09.slc.cpg/sg47_17_cif.got.tgz:32642.got - 2010.04.14 03:12:58.
