data_PCOD8197618
_publ_section_title
;
Structure prediction by ZEFSAII (Michael W. Deem and Ramdas Pophale) SiO2 
 PCOD8197618
Probable space group: P M M M
;
_chemical_formula_sum "Si O2"
_cell_formula_units_Z 64
_cell_length_a 9.449109
_cell_length_b 14.286448
_cell_length_c 25.277079
_cell_angle_alpha 90.000000
_cell_angle_beta 90.000000
_cell_angle_gamma 90.000000
_cell_volume 3412.259169
_symmetry_space_group_name_H-M "P M M M"
_symmetry_group_IT_number 47
_symmetry_cell_setting 'orthorhombic'
loop_
_space_group_symop_operation_xyz
x,y,z
-x,-y,z
x,-y,-z
-x,y,-z
-x,-y,-z
x,y,-z
-x,y,z
x,-y,z
loop_
_atom_site_type_symbol
_atom_site_label
_atom_site_fract_x
_atom_site_fract_y
_atom_site_fract_z
Si Si1 0.337829 0.226159 0.940672
Si Si2 0.663725 0.606582 0.723264
Si Si3 0.662694 0.394026 0.600511
Si Si4 0.831320 0.778895 0.756973
Si Si5 0.662658 0.891874 0.842054
Si Si6 0.841186 0.602433 0.062899
Si Si7 0.832249 0.895498 0.345092
Si Si8 0.836221 0.771371 0.559316
O O1 0.500000 0.256380 0.942660
O O2 0.313906 0.136912 0.903217
O O3 0.257326 0.315117 0.915131
O O4 0.283625 0.200856 0.000000
O O5 0.500000 0.632199 0.733613
O O6 0.693870 0.500000 0.741289
O O7 0.701631 0.618426 0.661821
O O8 0.764723 0.675180 0.756427
O O9 0.500000 0.368305 0.590769
O O10 0.693454 0.500000 0.582490
O O11 0.757215 0.326844 0.564964
O O12 0.770700 0.833767 0.806812
O O13 0.781545 0.834464 0.704636
O O14 0.000000 0.771524 0.761468
O O15 0.500000 0.872752 0.824965
O O16 0.701970 0.000000 0.836573
O O17 0.789345 0.500000 0.083158
O O18 0.000000 0.621040 0.083181
O O19 0.836292 0.603371 0.000000
O O20 0.776370 0.847478 0.399104
O O21 0.000000 0.902396 0.345829
O O22 0.766932 0.000000 0.341136
O O23 0.813225 0.810504 0.500000
O O24 0.000000 0.751677 0.571101
#
# Coordination Sequence:
#
# PCOD8197618 Si02
#       8
#     8   8   8   8   8   8   8   8
#     4   9  18  33  54  80 108 140 180 223 266 314
#     4   9  18  34  57  83 110 141 177 217 264 321
#     4   9  18  33  53  76 104 140 177 213 259 318
#     4  11  21  35  58  84 110 139 174 222 272 320
#     4  10  22  39  57  79 109 144 181 223 272 323
#     4   8  14  26  46  73 105 140 175 211 255 308
#     4   9  18  33  52  75 102 133 172 218 268 318
#     4  10  20  33  50  75 106 139 178 224 270 316
#
# _framework density 18.755903
#
# number of rings (size 3 to 8) (size 9 to 14) (size 15 to 20)
#    0.000    2.625    1.250    1.875    0.000    3.000 
#    0.000    6.875    0.000    1.875    0.000    3.500 
#    0.000    0.000    0.000    0.000    0.000    0.000 
#
# Total GULP energy -793494.482598 kJ/mol
# GULP energy per Si atom -12398.351291 kJ/mol
# Density = 1.871321 g / cm^3
# Si number density = 18.755903 Si / 1000 Ang^3
#
#
#
# Elastic Constant Matrix: (Units=GPa)
#
#
# Indices 1 2 3 4 5 6 
#
# 1 64.1193 49.8935 37.2508 0.0000 0.0000 0.0000
# 2 49.8935 121.3413 48.6490 0.0000 0.0000 0.0000
# 3 37.2508 48.6490 83.9923 0.0000 0.0000 0.0000
# 4 0.0000 0.0000 0.0000 27.2298 0.0000 0.0000
# 5 0.0000 0.0000 0.0000 0.0000 23.4351 0.0000
# 6 0.0000 0.0000 0.0000 0.0000 0.0000 25.5254
#
#
#
# Elastic Compliance Matrix: (Units=1/GPa)
#
#
# Indices 1 2 3 4 5 6 
#
# 1 0.025647 -0.007796 -0.006859 0.000000 0.000000 0.000000
# 2 -0.007796 0.013103 -0.004132 0.000000 0.000000 0.000000
# 3 -0.006859 -0.004132 0.017341 0.000000 0.000000 0.000000
# 4 0.000000 0.000000 0.000000 0.036725 0.000000 0.000000
# 5 0.000000 0.000000 0.000000 0.000000 0.042671 0.000000
# 6 0.000000 0.000000 0.000000 0.000000 0.000000 0.039177
#
#
# Mechanical properties :
#
#
# Convention : Reuss Voigt Hill
#
# Bulk Modulus (GPa) = 54.00264 60.11549 57.05907
# Shear Modulus (GPa) = 22.89270 24.14868 23.52069
#
# Velocity S-wave (km/s) = 3.49744 3.59210 3.54509
# Velocity P-wave (km/s) = 6.72044 7.02320 6.87349
#
# Compressibility (1/GPa) = 0.01851761
#
# Stress axis : x y z
#
# Youngs Moduli (GPa) = 38.99117 76.31654 57.66564
#
# Poissons Ratio (x) = 0.59493 0.39554
# Poissons Ratio (y) = 0.30396 0.23829
# Poissons Ratio (z) = 0.26745 0.31536
#
# Static dielectric constant tensor:
#      x y z
#    x 3.293410 0.000000 0.000000 
#    y 0.000000 3.637290 0.000000 
#    z 0.000000 0.000000 3.321980 
# 
# 
# High freq. dielectric constant tensor:
#      x y z
#    x 1.710740 0.000000 0.000000 
#    y 0.000000 1.732620 0.000000 
#    z 0.000000 0.000000 1.715350 
# 
# From -- ./inp_files/7788.got.cif
#   From: 2010.03.12/outbox.cif.g09.slc.cpg/sg47_4_cif.got.tgz:7788.got - 2010.04.14 03:12:58.
