data_PCOD8197329
_publ_section_title
;
Structure prediction by ZEFSAII (Michael W. Deem and Ramdas Pophale) SiO2 
 PCOD8197329
Probable space group: P M M M
;
_chemical_formula_sum "Si O2"
_cell_formula_units_Z 56
_cell_length_a 9.141178
_cell_length_b 13.559250
_cell_length_c 23.081018
_cell_angle_alpha 90.000000
_cell_angle_beta 90.000000
_cell_angle_gamma 90.000000
_cell_volume 2860.834889
_symmetry_space_group_name_H-M "P M M M"
_symmetry_group_IT_number 47
_symmetry_cell_setting 'orthorhombic'
loop_
_space_group_symop_operation_xyz
x,y,z
-x,-y,z
x,-y,-z
-x,y,-z
-x,-y,-z
x,y,-z
-x,y,z
x,-y,z
loop_
_atom_site_type_symbol
_atom_site_label
_atom_site_fract_x
_atom_site_fract_y
_atom_site_fract_z
Si Si1 0.832854 0.388741 0.761807
Si Si2 0.834542 0.882525 0.612821
Si Si3 0.330936 0.886504 0.933687
Si Si4 0.658888 0.610576 0.654320
Si Si5 0.831112 0.797213 0.169427
Si Si6 0.827825 0.500000 0.566934
Si Si7 0.335943 0.116322 0.724201
Si Si8 0.665742 0.882350 0.500000
O O1 0.785906 0.500000 0.778875
O O2 0.741265 0.338886 0.708756
O O3 0.809901 0.319015 0.817466
O O4 0.000000 0.387708 0.740745
O O5 0.750262 0.838803 0.668697
O O6 0.749892 0.842174 0.556487
O O7 0.000000 0.841654 0.612440
O O8 0.836236 0.000000 0.613396
O O9 0.500000 0.868944 0.918482
O O10 0.232539 0.816654 0.894032
O O11 0.289222 0.000000 0.922248
O O12 0.298811 0.858121 0.000000
O O13 0.500000 0.660604 0.641407
O O14 0.632559 0.500000 0.677228
O O15 0.759159 0.599912 0.596163
O O16 0.747319 0.862469 0.216489
O O17 0.000000 0.828462 0.171117
O O18 0.784786 0.500000 0.500000
O O19 0.000000 0.500000 0.577361
O O20 0.500000 0.160836 0.725972
O O21 0.344291 0.000000 0.716026
O O22 0.500000 0.841966 0.500000
O O23 0.665518 0.000000 0.500000
#
# Coordination Sequence:
#
# PCOD8197329 Si02
#       8
#     8   8   8   8   8   4   8   4
#     4   9  18  34  53  72 101 139 175 215 265 320
#     4   9  16  26  41  62  89 122 163 212 258 300
#     4   9  19  37  59  82 112 151 187 216 255 311
#     4   8  15  25  41  66  93 123 164 215 263 309
#     4  11  22  33  52  83 109 136 176 219 264 313
#     4   9  15  23  39  65  97 133 170 209 262 331
#     4  10  20  33  48  69 101 138 170 204 254 313
#     4   9  15  23  37  59  87 121 164 207 250 309
#
# _framework density 19.574705999999999
#
# number of rings (size 3 to 8) (size 9 to 14) (size 15 to 20)
#    0.429    2.286    0.000    2.786    0.000    7.429 
#    0.000    0.714    0.000    0.429    1.857    3.000 
#    0.000    0.000    0.000    0.000    0.000    0.000 
#
# Total GULP energy -694071.041925 kJ/mol
# GULP energy per Si atom -12394.125749 kJ/mol
# Density = 1.953015 g / cm^3
# Si number density = 19.574706 Si / 1000 Ang^3
#
#
#
# Elastic Constant Matrix: (Units=GPa)
#
#
# Indices 1 2 3 4 5 6 
#
# 1 160.5187 32.8598 82.6540 0.0000 0.0000 0.0000
# 2 32.8598 35.4667 34.3115 0.0000 0.0000 0.0000
# 3 82.6540 34.3115 140.6154 0.0000 0.0000 0.0000
# 4 0.0000 0.0000 0.0000 14.0736 0.0000 0.0000
# 5 0.0000 0.0000 0.0000 0.0000 41.2543 0.0000
# 6 0.0000 0.0000 0.0000 0.0000 0.0000 15.2418
#
#
#
# Elastic Compliance Matrix: (Units=1/GPa)
#
#
# Indices 1 2 3 4 5 6 
#
# 1 0.009435 -0.004419 -0.004467 0.000000 0.000000 0.000000
# 2 -0.004419 0.038978 -0.006913 0.000000 0.000000 0.000000
# 3 -0.004467 -0.006913 0.011424 0.000000 0.000000 0.000000
# 4 0.000000 0.000000 0.000000 0.071055 0.000000 0.000000
# 5 0.000000 0.000000 0.000000 0.000000 0.024240 0.000000
# 6 0.000000 0.000000 0.000000 0.000000 0.000000 0.065609
#
#
# Mechanical properties :
#
#
# Convention : Reuss Voigt Hill
#
# Bulk Modulus (GPa) = 35.41430 70.69458 53.05444
# Shear Modulus (GPa) = 19.10189 26.56564 22.83376
#
# Velocity S-wave (km/s) = 3.12724 3.68794 3.41910
# Velocity P-wave (km/s) = 5.58307 7.37076 6.53830
#
# Compressibility (1/GPa) = 0.02823718
#
# Stress axis : x y z
#
# Youngs Moduli (GPa) = 105.98964 25.65536 87.53133
#
# Poissons Ratio (x) = 0.11338 0.39104
# Poissons Ratio (y) = 0.46842 0.60513
# Poissons Ratio (z) = 0.47350 0.17736
#
# Static dielectric constant tensor:
#      x y z
#    x 3.836220 0.000000 0.000000 
#    y 0.000000 3.233870 0.000000 
#    z 0.000000 0.000000 3.411000 
# 
# 
# High freq. dielectric constant tensor:
#      x y z
#    x 1.776400 0.000000 0.000000 
#    y 0.000000 1.734770 0.000000 
#    z 0.000000 0.000000 1.746520 
# 
# From -- ./inp_files/29788.got.cif
#   From: 2010.03.12/outbox.cif.g09.slc.cpg/sg47_15_cif.got.tgz:29788.got - 2010.04.14 03:12:58.
