data_PCOD8197048
_publ_section_title
;
Structure prediction by ZEFSAII (Michael W. Deem and Ramdas Pophale) SiO2 
 PCOD8197048
Probable space group: P M M M
;
_chemical_formula_sum "Si O2"
_cell_formula_units_Z 48
_cell_length_a 9.208132
_cell_length_b 31.250128
_cell_length_c 8.751434
_cell_angle_alpha 90.000000
_cell_angle_beta 90.000000
_cell_angle_gamma 90.000000
_cell_volume 2518.271548
_symmetry_space_group_name_H-M "P M M M"
_symmetry_group_IT_number 47
_symmetry_cell_setting 'orthorhombic'
loop_
_space_group_symop_operation_xyz
x,y,z
-x,-y,z
x,-y,-z
-x,y,-z
-x,-y,-z
x,y,-z
-x,y,z
x,-y,z
loop_
_atom_site_type_symbol
_atom_site_label
_atom_site_fract_x
_atom_site_fract_y
_atom_site_fract_z
Si Si1 0.163131 0.452802 0.818283
Si Si2 0.332036 0.793589 0.179982
Si Si3 0.836491 0.872076 0.681563
Si Si4 0.663405 0.627836 0.817510
Si Si5 0.164020 0.709915 0.818127
Si Si6 0.337064 0.952742 0.681666
O O1 0.216334 0.500000 0.764212
O O2 0.268472 0.416199 0.752118
O O3 0.000000 0.444290 0.758427
O O4 0.163476 0.450873 0.000000
O O5 0.500000 0.789685 0.225784
O O6 0.263884 0.834121 0.261511
O O7 0.250334 0.751384 0.240794
O O8 0.311811 0.798868 0.000000
O O9 0.835870 0.872051 0.500000
O O10 0.771929 0.916770 0.746095
O O11 0.000000 0.866785 0.745045
O O12 0.500000 0.631848 0.755070
O O13 0.756422 0.667671 0.754322
O O14 0.664598 0.627778 0.000000
O O15 0.000000 0.711283 0.753983
O O16 0.163237 0.708886 0.000000
O O17 0.337034 0.951635 0.500000
O O18 0.500000 0.943156 0.741548
O O19 0.286803 0.000000 0.737921
#
# Coordination Sequence:
#
# PCOD8197048 Si02
#       6
#     8   8   8   8   8   8
#     4   8  13  20  28  38  55  82 117 157 202 251
#     4  10  20  33  49  68  90 118 153 191 230 271
#     4  10  20  32  48  72  99 125 153 185 223 268
#     4   9  15  21  30  45  65  89 121 163 207 251
#     4   9  16  26  40  56  75 101 134 173 216 260
#     4   8  14  26  45  68  93 121 152 185 221 261
#
# _framework density 19.060690999999998
#
# number of rings (size 3 to 8) (size 9 to 14) (size 15 to 20)
#    0.000    3.000    0.000    3.000    0.000    6.667 
#    0.000    3.333    0.000    0.500    0.000    3.500 
#    0.000    0.000    0.000    0.000    0.000    0.833 
#
# Total GULP energy -594995.318743 kJ/mol
# GULP energy per Si atom -12395.735807 kJ/mol
# Density = 1.901731 g / cm^3
# Si number density = 19.060691 Si / 1000 Ang^3
#
#
#
# Elastic Constant Matrix: (Units=GPa)
#
#
# Indices 1 2 3 4 5 6 
#
# 1 162.5300 100.8759 11.4501 0.0000 0.0000 0.0000
# 2 100.8759 187.7295 10.9549 0.0000 0.0000 0.0000
# 3 11.4501 10.9549 4.0702 0.0000 0.0000 0.0000
# 4 0.0000 0.0000 0.0000 229.9271 0.0000 0.0000
# 5 0.0000 0.0000 0.0000 0.0000 12.0762 0.0000
# 6 0.0000 0.0000 0.0000 0.0000 0.0000 45.9881
#
#
#
# Elastic Compliance Matrix: (Units=1/GPa)
#
#
# Indices 1 2 3 4 5 6 
#
# 1 0.010070 -0.004458 -0.016329 0.000000 0.000000 0.000000
# 2 -0.004458 0.008293 -0.009779 0.000000 0.000000 0.000000
# 3 -0.016329 -0.009779 0.317943 0.000000 0.000000 0.000000
# 4 0.000000 0.000000 0.000000 0.004349 0.000000 0.000000
# 5 0.000000 0.000000 0.000000 0.000000 0.082807 0.000000
# 6 0.000000 0.000000 0.000000 0.000000 0.000000 0.021745
#
#
# Mechanical properties :
#
#
# Convention : Reuss Voigt Hill
#
# Bulk Modulus (GPa) = 3.63407 66.76573 35.19990
# Shear Modulus (GPa) = 8.36028 73.00153 40.68091
#
# Velocity S-wave (km/s) = 2.09658 6.19537 4.62484
# Velocity P-wave (km/s) = 2.78776 9.28875 6.85757
#
# Compressibility (1/GPa) = 0.27517345
#
# Stress axis : x y z
#
# Youngs Moduli (GPa) = 99.30316 120.58206 3.14521
#
# Poissons Ratio (x) = 0.53759 0.05136
# Poissons Ratio (y) = 0.44272 0.03076
# Poissons Ratio (z) = 1.62156 1.17917
#
# Static dielectric constant tensor:
#      x y z
#    x 3.764680 0.000000 0.000000 
#    y 0.000000 3.868460 0.000000 
#    z 0.000000 0.000000 2.687620 
# 
# 
# High freq. dielectric constant tensor:
#      x y z
#    x 1.751090 0.000000 0.000000 
#    y 0.000000 1.762380 0.000000 
#    z 0.000000 0.000000 1.655630 
# 
# From -- ./inp_files/2491.got.cif
#   From: 2010.03.12/outbox.cif.g09.slc.cpg/sg47_2_cif.got.tgz:2491.got - 2010.04.14 03:12:58.
