data_PCOD8197177
_publ_section_title
;
Structure prediction by ZEFSAII (Michael W. Deem and Ramdas Pophale) SiO2 
 PCOD8197177
Probable space group: P M M M
;
_chemical_formula_sum "Si O2"
_cell_formula_units_Z 64
_cell_length_a 23.158283
_cell_length_b 9.086900
_cell_length_c 15.417426
_cell_angle_alpha 90.000000
_cell_angle_beta 90.000000
_cell_angle_gamma 90.000000
_cell_volume 3244.396903
_symmetry_space_group_name_H-M "P M M M"
_symmetry_group_IT_number 47
_symmetry_cell_setting 'orthorhombic'
loop_
_space_group_symop_operation_xyz
x,y,z
-x,-y,z
x,-y,-z
-x,y,-z
-x,-y,-z
x,y,-z
-x,y,z
x,-y,z
loop_
_atom_site_type_symbol
_atom_site_label
_atom_site_fract_x
_atom_site_fract_y
_atom_site_fract_z
Si Si1 0.934071 0.168562 0.235245
Si Si2 0.672064 0.167217 0.673872
Si Si3 0.892651 0.325760 0.399946
Si Si4 0.377334 0.666495 0.906711
Si Si5 0.435758 0.326741 0.266391
Si Si6 0.149994 0.326192 0.899219
Si Si7 0.233344 0.342479 0.598327
Si Si8 0.269212 0.169979 0.857424
O O1 0.932369 0.239564 0.331682
O O2 0.897589 0.255272 0.163126
O O3 0.000000 0.174974 0.203765
O O4 0.912001 0.000000 0.240180
O O5 0.611213 0.252001 0.671593
O O6 0.713975 0.228601 0.600174
O O7 0.709935 0.192470 0.759292
O O8 0.656742 0.000000 0.655459
O O9 0.904557 0.274079 0.500000
O O10 0.903776 0.500000 0.392661
O O11 0.827857 0.285041 0.364870
O O12 0.357021 0.500000 0.885931
O O13 0.421677 0.719362 0.832823
O O14 0.321118 0.768361 0.915367
O O15 0.409336 0.674597 0.000000
O O16 0.500000 0.268334 0.288469
O O17 0.432745 0.500000 0.280384
O O18 0.151203 0.500000 0.882891
O O19 0.212152 0.261769 0.874679
O O20 0.135812 0.290310 0.000000
O O21 0.217778 0.374427 0.500000
O O22 0.250891 0.500000 0.642226
O O23 0.258009 0.000000 0.880251
#
# Coordination Sequence:
#
# PCOD8197177 Si02
#       8
#     8   8   8   8   8   8   8   8
#     4  11  25  42  59  82 113 149 188 229 274 325
#     4  10  20  32  49  75 105 137 171 209 256 309
#     4   9  19  37  62  91 120 150 183 220 266 321
#     4   9  17  29  46  70 100 131 165 209 258 307
#     4   9  18  32  49  68  92 129 175 216 256 302
#     4  11  24  40  59  82 107 140 185 236 286 332
#     4   9  18  33  54  81 110 136 164 202 250 305
#     4  10  20  33  51  77 107 137 171 212 262 321
#
# _framework density 19.726317000000002
#
# number of rings (size 3 to 8) (size 9 to 14) (size 15 to 20)
#    0.000    2.250    0.000    3.375    0.000    9.250 
#    0.000    5.000    0.000    0.375    0.000    6.125 
#    0.000    0.000    0.000    0.000    0.000    0.000 
#
# Total GULP energy -793212.292700 kJ/mol
# GULP energy per Si atom -12393.942073 kJ/mol
# Density = 1.968142 g / cm^3
# Si number density = 19.726317 Si / 1000 Ang^3
#
#
#
# Elastic Constant Matrix: (Units=GPa)
#
#
# Indices 1 2 3 4 5 6 
#
# 1 102.3945 50.0491 26.6656 0.0000 0.0000 0.0000
# 2 50.0491 95.3393 32.7671 0.0000 0.0000 0.0000
# 3 26.6656 32.7671 51.6683 0.0000 0.0000 0.0000
# 4 0.0000 0.0000 0.0000 21.5602 0.0000 0.0000
# 5 0.0000 0.0000 0.0000 0.0000 15.7890 0.0000
# 6 0.0000 0.0000 0.0000 0.0000 0.0000 26.7849
#
#
#
# Elastic Compliance Matrix: (Units=1/GPa)
#
#
# Indices 1 2 3 4 5 6 
#
# 1 0.013531 -0.006014 -0.003169 0.000000 0.000000 0.000000
# 2 -0.006014 0.016085 -0.007097 0.000000 0.000000 0.000000
# 3 -0.003169 -0.007097 0.025491 0.000000 0.000000 0.000000
# 4 0.000000 0.000000 0.000000 0.046382 0.000000 0.000000
# 5 0.000000 0.000000 0.000000 0.000000 0.063335 0.000000
# 6 0.000000 0.000000 0.000000 0.000000 0.000000 0.037334
#
#
# Mechanical properties :
#
#
# Convention : Reuss Voigt Hill
#
# Bulk Modulus (GPa) = 44.35358 52.04064 48.19711
# Shear Modulus (GPa) = 20.64114 22.15484 21.39799
#
# Velocity S-wave (km/s) = 3.23828 3.35492 3.29712
# Velocity P-wave (km/s) = 6.04278 6.43785 6.24344
#
# Compressibility (1/GPa) = 0.02254610
#
# Stress axis : x y z
#
# Youngs Moduli (GPa) = 73.90409 62.16919 39.22991
#
# Poissons Ratio (x) = 0.37388 0.12433
# Poissons Ratio (y) = 0.44446 0.27842
# Poissons Ratio (z) = 0.23423 0.44122
#
# Static dielectric constant tensor:
#      x y z
#    x 3.529190 0.000000 0.000000 
#    y 0.000000 3.588350 0.000000 
#    z 0.000000 0.000000 3.519410 
# 
# 
# High freq. dielectric constant tensor:
#      x y z
#    x 1.763230 0.000000 0.000000 
#    y 0.000000 1.767930 0.000000 
#    z 0.000000 0.000000 1.759590 
# 
# From -- ./inp_files/25592.got.cif
#   From: 2010.03.12/outbox.cif.g09.slc.cpg/sg47_13_cif.got.tgz:25592.got - 2010.04.14 03:12:58.
