data_PCOD8197466
_publ_section_title
;
Structure prediction by ZEFSAII (Michael W. Deem and Ramdas Pophale) SiO2 
 PCOD8197466
Probable space group: P M M M
;
_chemical_formula_sum "Si O2"
_cell_formula_units_Z 64
_cell_length_a 20.403067
_cell_length_b 9.260464
_cell_length_c 19.336028
_cell_angle_alpha 90.000000
_cell_angle_beta 90.000000
_cell_angle_gamma 90.000000
_cell_volume 3653.385239
_symmetry_space_group_name_H-M "P M M M"
_symmetry_group_IT_number 47
_symmetry_cell_setting 'orthorhombic'
loop_
_space_group_symop_operation_xyz
x,y,z
-x,-y,z
x,-y,-z
-x,y,-z
-x,-y,-z
x,y,-z
-x,y,z
x,-y,z
loop_
_atom_site_type_symbol
_atom_site_label
_atom_site_fract_x
_atom_site_fract_y
_atom_site_fract_z
Si Si1 0.924974 0.666255 0.308820
Si Si2 0.306158 0.838314 0.417572
Si Si3 0.304403 0.162828 0.082419
Si Si4 0.820049 0.332139 0.578639
Si Si5 0.923392 0.168037 0.171862
Si Si6 0.427486 0.662399 0.917755
Si Si7 0.572172 0.661985 0.582254
Si Si8 0.177169 0.334075 0.081921
O O1 0.913986 0.500000 0.287055
O O2 0.882748 0.708408 0.375646
O O3 0.902774 0.766852 0.245713
O O4 0.000000 0.695472 0.329285
O O5 0.308702 0.835958 0.500000
O O6 0.242417 0.752928 0.391629
O O7 0.371738 0.765043 0.386552
O O8 0.302587 0.000000 0.388453
O O9 0.371614 0.231892 0.112276
O O10 0.243221 0.257085 0.109138
O O11 0.297998 0.000000 0.111003
O O12 0.305844 0.162926 0.000000
O O13 0.836363 0.286393 0.500000
O O14 0.802454 0.500000 0.582985
O O15 0.885411 0.251851 0.112011
O O16 0.000000 0.192847 0.157971
O O17 0.904641 0.000000 0.170390
O O18 0.500000 0.714392 0.893440
O O19 0.414114 0.500000 0.890850
O O20 0.424400 0.662886 0.000000
O O21 0.576158 0.661796 0.500000
O O22 0.500000 0.717032 0.605764
O O23 0.584025 0.500000 0.609912
O O24 0.178139 0.500000 0.106744
O O25 0.171843 0.323631 0.000000
#
# Coordination Sequence:
#
# PCOD8197466 Si02
#       8
#     8   8   8   8   8   8   8   8
#     4   9  18  33  52  72  94 121 154 192 232 275
#     4   9  16  24  35  54  82 115 149 186 227 270
#     4   9  16  25  38  58  86 118 151 189 232 276
#     4   9  17  29  46  68  94 124 156 191 232 276
#     4  10  21  36  53  72  95 123 153 188 232 280
#     4   8  13  21  33  50  76 113 154 191 227 270
#     4   8  13  21  33  49  72 106 146 184 223 269
#     4  10  20  33  50  71  95 124 157 193 233 278
#
# _framework density 17.517999
#
# number of rings (size 3 to 8) (size 9 to 14) (size 15 to 20)
#    0.000    3.000    0.000    2.250    0.000    6.000 
#    0.000    5.000    0.000    0.000    0.000    3.500 
#    0.000    1.000    0.000    8.750    0.000   14.625 
#
# Total GULP energy -793416.849165 kJ/mol
# GULP energy per Si atom -12397.138268 kJ/mol
# Density = 1.747813 g / cm^3
# Si number density = 17.517999 Si / 1000 Ang^3
#
#
#
# Elastic Constant Matrix: (Units=GPa)
#
#
# Indices 1 2 3 4 5 6 
#
# 1 126.3943 76.3630 34.8694 0.0000 0.0000 0.0000
# 2 76.3630 125.5700 30.3616 0.0000 0.0000 0.0000
# 3 34.8694 30.3616 26.6695 0.0000 0.0000 0.0000
# 4 0.0000 0.0000 0.0000 15.2890 0.0000 0.0000
# 5 0.0000 0.0000 0.0000 0.0000 2.1667 0.0000
# 6 0.0000 0.0000 0.0000 0.0000 0.0000 29.3045
#
#
#
# Elastic Compliance Matrix: (Units=1/GPa)
#
#
# Indices 1 2 3 4 5 6 
#
# 1 0.015144 -0.006102 -0.012854 0.000000 0.000000 0.000000
# 2 -0.006102 0.013447 -0.007331 0.000000 0.000000 0.000000
# 3 -0.012854 -0.007331 0.062648 0.000000 0.000000 0.000000
# 4 0.000000 0.000000 0.000000 0.065407 0.000000 0.000000
# 5 0.000000 0.000000 0.000000 0.000000 0.461538 0.000000
# 6 0.000000 0.000000 0.000000 0.000000 0.000000 0.034124
#
#
# Mechanical properties :
#
#
# Convention : Reuss Voigt Hill
#
# Bulk Modulus (GPa) = 25.86256 62.42465 44.14360
# Shear Modulus (GPa) = 6.96602 18.48800 12.72701
#
# Velocity S-wave (km/s) = 1.99628 3.25217 2.69831
# Velocity P-wave (km/s) = 4.48430 7.05791 5.91283
#
# Compressibility (1/GPa) = 0.03866593
#
# Stress axis : x y z
#
# Youngs Moduli (GPa) = 66.03072 74.36708 15.96222
#
# Poissons Ratio (x) = 0.45377 0.20518
# Poissons Ratio (y) = 0.40290 0.11701
# Poissons Ratio (z) = 0.84878 0.54515
#
# Static dielectric constant tensor:
#      x y z
#    x 3.497020 0.000000 0.000000 
#    y 0.000000 3.447720 0.000000 
#    z 0.000000 0.000000 2.685080 
# 
# 
# High freq. dielectric constant tensor:
#      x y z
#    x 1.691120 0.000000 0.000000 
#    y 0.000000 1.683750 0.000000 
#    z 0.000000 0.000000 1.609220 
# 
# From -- ./inp_files/31377.got.cif
#   From: 2010.03.12/outbox.cif.g09.slc.cpg/sg47_16_cif.got.tgz:31377.got - 2010.04.14 03:12:58.
