data_PCOD8197162
_publ_section_title
;
Structure prediction by ZEFSAII (Michael W. Deem and Ramdas Pophale) SiO2 
 PCOD8197162
Probable space group: P M M M
;
_chemical_formula_sum "Si O2"
_cell_formula_units_Z 52
_cell_length_a 9.381554
_cell_length_b 15.697740
_cell_length_c 19.484052
_cell_angle_alpha 90.000000
_cell_angle_beta 90.000000
_cell_angle_gamma 90.000000
_cell_volume 2869.400663
_symmetry_space_group_name_H-M "P M M M"
_symmetry_group_IT_number 47
_symmetry_cell_setting 'orthorhombic'
loop_
_space_group_symop_operation_xyz
x,y,z
-x,-y,z
x,-y,-z
-x,y,-z
-x,-y,-z
x,y,-z
-x,y,z
x,-y,z
loop_
_atom_site_type_symbol
_atom_site_label
_atom_site_fract_x
_atom_site_fract_y
_atom_site_fract_z
Si Si1 0.331511 0.653821 0.926303
Si Si2 0.333255 0.405186 0.217272
Si Si3 0.165113 0.094197 0.203382
Si Si4 0.666061 0.153147 0.922302
Si Si5 0.659834 0.500000 0.418678
Si Si6 0.836333 0.662528 0.422875
Si Si7 0.835552 0.255051 0.287706
O O1 0.500000 0.654727 0.932400
O O2 0.282987 0.595744 0.862658
O O3 0.279692 0.750187 0.913268
O O4 0.269640 0.620514 0.000000
O O5 0.500000 0.383249 0.222550
O O6 0.301484 0.500000 0.246587
O O7 0.248437 0.334782 0.258082
O O8 0.247419 0.096727 0.131435
O O9 0.221813 0.165281 0.257644
O O10 0.000000 0.110014 0.187592
O O11 0.189402 0.000000 0.235570
O O12 0.500000 0.144520 0.904684
O O13 0.695728 0.121313 0.000000
O O14 0.500000 0.500000 0.387046
O O15 0.654080 0.500000 0.500000
O O16 0.741426 0.584580 0.394397
O O17 0.790904 0.690770 0.500000
O O18 0.814857 0.742032 0.370680
O O19 0.000000 0.631581 0.422715
O O20 0.000000 0.267296 0.268090
#
# Coordination Sequence:
#
# PCOD8197162 Si02
#       7
#     8   8   8   8   4   8   8
#     4   8  14  27  47  69  95 127 163 204 245 284
#     4  10  20  32  49  75 103 132 168 208 248 291
#     4  10  21  36  53  74 100 130 165 207 257 308
#     4   9  17  31  52  75  99 129 166 208 251 297
#     4   9  17  29  47  75 107 133 160 197 240 283
#     4   9  18  33  52  72  97 132 171 204 238 290
#     4  10  21  36  53  72  98 133 167 203 250 301
#
# _framework density 18.122252
#
# number of rings (size 3 to 8) (size 9 to 14) (size 15 to 20)
#    0.000    2.692    1.538    1.154    1.077    3.077 
#    0.000    3.077    0.000    0.923    0.000    4.308 
#    0.000    0.000    0.000    6.615    0.000    7.077 
#
# Total GULP energy -644410.282444 kJ/mol
# GULP energy per Si atom -12392.505432 kJ/mol
# Density = 1.808101 g / cm^3
# Si number density = 18.122252 Si / 1000 Ang^3
#
#
#
# Elastic Constant Matrix: (Units=GPa)
#
#
# Indices 1 2 3 4 5 6 
#
# 1 48.1514 37.4007 33.9425 0.0000 0.0000 0.0000
# 2 37.4007 111.5412 61.8761 0.0000 0.0000 0.0000
# 3 33.9425 61.8761 99.2358 0.0000 0.0000 0.0000
# 4 0.0000 0.0000 0.0000 24.5368 0.0000 0.0000
# 5 0.0000 0.0000 0.0000 0.0000 19.9391 0.0000
# 6 0.0000 0.0000 0.0000 0.0000 0.0000 19.2797
#
#
#
# Elastic Compliance Matrix: (Units=1/GPa)
#
#
# Indices 1 2 3 4 5 6 
#
# 1 0.030369 -0.006758 -0.006173 0.000000 0.000000 0.000000
# 2 -0.006758 0.015210 -0.007172 0.000000 0.000000 0.000000
# 3 -0.006173 -0.007172 0.016661 0.000000 0.000000 0.000000
# 4 0.000000 0.000000 0.000000 0.040755 0.000000 0.000000
# 5 0.000000 0.000000 0.000000 0.000000 0.050153 0.000000
# 6 0.000000 0.000000 0.000000 0.000000 0.000000 0.051868
#
#
# Mechanical properties :
#
#
# Convention : Reuss Voigt Hill
#
# Bulk Modulus (GPa) = 45.38913 58.37412 51.88163
# Shear Modulus (GPa) = 19.79668 21.13172 20.46420
#
# Velocity S-wave (km/s) = 3.30873 3.41847 3.36405
# Velocity P-wave (km/s) = 6.30058 6.91827 6.61664
#
# Compressibility (1/GPa) = 0.02203170
#
# Stress axis : x y z
#
# Youngs Moduli (GPa) = 32.92847 65.74541 60.02167
#
# Poissons Ratio (x) = 0.44433 0.37053
# Poissons Ratio (y) = 0.22254 0.43050
# Poissons Ratio (z) = 0.20328 0.47155
#
# Static dielectric constant tensor:
#      x y z
#    x 3.170970 0.000000 0.000000 
#    y 0.000000 3.313290 0.000000 
#    z 0.000000 0.000000 3.934240 
# 
# 
# High freq. dielectric constant tensor:
#      x y z
#    x 1.678140 0.000000 0.000000 
#    y 0.000000 1.681530 0.000000 
#    z 0.000000 0.000000 1.707500 
# 
# From -- ./inp_files/29539.got.cif
#   From: 2010.03.12/outbox.cif.g09.slc.cpg/sg47_15_cif.got.tgz:29539.got - 2010.04.14 03:12:58.
