data_PCOD8197194
_publ_section_title
;
Structure prediction by ZEFSAII (Michael W. Deem and Ramdas Pophale) SiO2 
 PCOD8197194
Probable space group: P M M M
;
_chemical_formula_sum "Si O2"
_cell_formula_units_Z 40
_cell_length_a 8.975772
_cell_length_b 9.482336
_cell_length_c 25.442127
_cell_angle_alpha 90.000000
_cell_angle_beta 90.000000
_cell_angle_gamma 90.000000
_cell_volume 2165.412147
_symmetry_space_group_name_H-M "P M M M"
_symmetry_group_IT_number 47
_symmetry_cell_setting 'orthorhombic'
loop_
_space_group_symop_operation_xyz
x,y,z
-x,-y,z
x,-y,-z
-x,y,-z
-x,-y,-z
x,y,-z
-x,y,z
x,-y,z
loop_
_atom_site_type_symbol
_atom_site_label
_atom_site_fract_x
_atom_site_fract_y
_atom_site_fract_z
Si Si1 0.828405 0.337554 0.646701
Si Si2 0.823223 0.838218 0.154978
Si Si3 0.675151 0.337586 0.246314
Si Si4 0.669460 0.836063 0.439746
Si Si5 0.177028 0.341917 0.941853
O O1 0.798745 0.500000 0.633362
O O2 0.731448 0.289547 0.696567
O O3 0.782451 0.249550 0.596042
O O4 0.000000 0.308327 0.660044
O O5 0.752919 0.760946 0.204242
O O6 0.761134 0.766141 0.101609
O O7 0.000000 0.824165 0.158857
O O8 0.771699 0.000000 0.154541
O O9 0.500000 0.314727 0.243525
O O10 0.719871 0.500000 0.235460
O O11 0.710495 0.804058 0.500000
O O12 0.500000 0.789092 0.428161
O O13 0.689299 0.000000 0.427272
O O14 0.233633 0.500000 0.928524
O O15 0.000000 0.339906 0.941555
O O16 0.234393 0.296888 0.000000
#
# Coordination Sequence:
#
# PCOD8197194 Si02
#       5
#     8   8   8   8   8
#     4  10  21  36  55  80 107 134 168 213 262 308
#     4  10  20  32  49  76 107 137 169 207 254 306
#     4  10  21  37  56  75  97 131 174 215 257 307
#     4   9  19  36  56  78 106 141 178 212 249 298
#     4   8  14  26  46  72 101 134 171 209 250 297
#
# _framework density 18.472234
#
# number of rings (size 3 to 8) (size 9 to 14) (size 15 to 20)
#    0.000    2.600    0.000    3.000    0.000    6.000 
#    0.000    5.000    0.000    0.600    0.000    4.200 
#    0.000    0.000    0.000    0.000    0.000    0.000 
#
# Total GULP energy -496016.232700 kJ/mol
# GULP energy per Si atom -12400.405818 kJ/mol
# Density = 1.843019 g / cm^3
# Si number density = 18.472234 Si / 1000 Ang^3
#
#
#
# Elastic Constant Matrix: (Units=GPa)
#
#
# Indices 1 2 3 4 5 6 
#
# 1 26.0868 33.0382 25.0139 0.0000 0.0000 0.0000
# 2 33.0382 104.6139 79.9891 0.0000 0.0000 0.0000
# 3 25.0139 79.9891 126.0822 0.0000 0.0000 0.0000
# 4 0.0000 0.0000 0.0000 -0.0105 0.0000 0.0000
# 5 0.0000 0.0000 0.0000 0.0000 -6.8668 0.0000
# 6 0.0000 0.0000 0.0000 0.0000 0.0000 26.4166
#
#
#
# Elastic Compliance Matrix: (Units=1/GPa)
#
#
# Indices 1 2 3 4 5 6 
#
# 1 0.063890 -0.020363 0.000244 0.000000 0.000000 0.000000
# 2 -0.020363 0.025054 -0.011855 0.000000 0.000000 0.000000
# 3 0.000244 -0.011855 0.015404 0.000000 0.000000 0.000000
# 4 0.000000 0.000000 0.000000-94.822054 0.000000 0.000000
# 5 0.000000 0.000000 0.000000 0.000000 -0.145629 0.000000
# 6 0.000000 0.000000 0.000000 0.000000 0.000000 0.037855
#
#
# Mechanical properties :
#
#
# Convention : Reuss Voigt Hill
#
# Bulk Modulus (GPa) = 24.75335 59.20726 41.98031
# Shear Modulus (GPa) = -0.05277 11.82397 5.88560
#
# Velocity S-wave (km/s) = -0.16920 2.53275 1.78693
# Velocity P-wave (km/s) = 3.65940 6.37767 5.19932
#
# Compressibility (1/GPa) = 0.04039857
#
# Stress axis : x y z
#
# Youngs Moduli (GPa) = 15.65200 39.91304 64.91766
#
# Poissons Ratio (x) = 0.81276 -0.01581
# Poissons Ratio (y) = 0.31873 0.76961
# Poissons Ratio (z) = -0.00381 0.47317
#
# Static dielectric constant tensor:
#      x y z
#    x 3.165670 0.000000 0.000000 
#    y 0.000000 3.429490 0.000000 
#    z 0.000000 0.000000 3.572400 
# 
# 
# High freq. dielectric constant tensor:
#      x y z
#    x 1.694270 0.000000 0.000000 
#    y 0.000000 1.713530 0.000000 
#    z 0.000000 0.000000 1.729010 
# 
# From -- ./inp_files/1348.got.cif
#   From: 2010.03.12/outbox.cif.g09.slc.cpg/sg47_1_cif.got.tgz:1348.got - 2010.04.14 03:12:58.
