data_PCOD8197093
_publ_section_title
;
Structure prediction by ZEFSAII (Michael W. Deem and Ramdas Pophale) SiO2 
 PCOD8197093
Probable space group: P M M M
;
_chemical_formula_sum "Si O2"
_cell_formula_units_Z 36
_cell_length_a 16.903038
_cell_length_b 13.659920
_cell_length_c 9.571112
_cell_angle_alpha 90.000000
_cell_angle_beta 90.000000
_cell_angle_gamma 90.000000
_cell_volume 2209.913740
_symmetry_space_group_name_H-M "P M M M"
_symmetry_group_IT_number 47
_symmetry_cell_setting 'orthorhombic'
loop_
_space_group_symop_operation_xyz
x,y,z
-x,-y,z
x,-y,-z
-x,y,-z
-x,-y,-z
x,y,-z
-x,y,z
x,-y,z
loop_
_atom_site_type_symbol
_atom_site_label
_atom_site_fract_x
_atom_site_fract_y
_atom_site_fract_z
Si Si1 0.694282 0.384150 0.755227
Si Si2 0.590093 0.383927 0.500000
Si Si3 0.586142 0.384099 0.000000
Si Si4 0.907528 0.112755 0.341396
Si Si5 0.000000 0.615873 0.662889
Si Si6 0.141746 0.712612 0.830695
O O1 0.710722 0.500000 0.755478
O O2 0.645132 0.347165 0.623981
O O3 0.776412 0.330799 0.777729
O O4 0.634830 0.346988 0.870764
O O5 0.580810 0.500000 0.500000
O O6 0.500000 0.339755 0.500000
O O7 0.576981 0.500000 0.000000
O O8 0.500000 0.334519 0.000000
O O9 0.879368 0.136820 0.500000
O O10 0.861752 0.175833 0.224574
O O11 0.000000 0.137390 0.328470
O O12 0.890819 0.000000 0.306394
O O13 0.075633 0.651492 0.749098
O O14 0.000000 0.500000 0.661706
O O15 0.000000 0.653922 0.500000
O O16 0.132053 0.707048 0.000000
#
# Coordination Sequence:
#
# PCOD8197093 Si02
#       6
#     8   4   4   8   4   8
#     4  10  20  32  48  73 106 142 175 213 255 299
#     4   9  18  32  50  73 100 135 180 223 260 297
#     4   9  16  30  50  69  96 137 176 207 250 307
#     4   9  19  37  59  78  98 129 171 219 270 317
#     4  11  25  39  52  69  98 147 191 220 248 295
#     4  12  23  35  52  78 108 138 175 215 262 311
#
# _framework density 16.290230000000001
#
# number of rings (size 3 to 8) (size 9 to 14) (size 15 to 20)
#    0.000    1.889    2.222    3.000    3.111    4.889 
#    0.000    1.111    0.000    0.000    0.000    0.000 
#    0.000    5.333    0.000    0.000    0.000    0.000 
#
# Total GULP energy -446006.847781 kJ/mol
# GULP energy per Si atom -12389.079105 kJ/mol
# Density = 1.625315 g / cm^3
# Si number density = 16.290230 Si / 1000 Ang^3
#
#
#
# Elastic Constant Matrix: (Units=GPa)
#
#
# Indices 1 2 3 4 5 6 
#
# 1 155.2195 45.8472 83.2044 0.0000 0.0000 0.0000
# 2 45.8472 64.5354 45.4066 0.0000 0.0000 0.0000
# 3 83.2044 45.4066 162.8477 0.0000 0.0000 0.0000
# 4 0.0000 0.0000 0.0000 23.0689 0.0000 0.0000
# 5 0.0000 0.0000 0.0000 0.0000 34.2795 0.0000
# 6 0.0000 0.0000 0.0000 0.0000 0.0000 -11.7998
#
#
#
# Elastic Compliance Matrix: (Units=1/GPa)
#
#
# Indices 1 2 3 4 5 6 
#
# 1 0.009726 -0.004246 -0.003785 0.000000 0.000000 0.000000
# 2 -0.004246 0.021131 -0.003722 0.000000 0.000000 0.000000
# 3 -0.003785 -0.003722 0.009113 0.000000 0.000000 0.000000
# 4 0.000000 0.000000 0.000000 0.043348 0.000000 0.000000
# 5 0.000000 0.000000 0.000000 0.000000 0.029172 0.000000
# 6 0.000000 0.000000 0.000000 0.000000 0.000000 -0.084747
#
#
# Mechanical properties :
#
#
# Convention : Reuss Voigt Hill
#
# Bulk Modulus (GPa) = 60.74692 81.27990 71.01341
# Shear Modulus (GPa) = 88.12545 22.98602 55.55573
#
# Velocity S-wave (km/s) = 7.36305 3.76044 5.84617
# Velocity P-wave (km/s) = 10.47174 8.29806 9.44762
#
# Compressibility (1/GPa) = 0.01646174
#
# Stress axis : x y z
#
# Youngs Moduli (GPa) = 102.82014 47.32401 109.73743
#
# Poissons Ratio (x) = 0.20094 0.41539
# Poissons Ratio (y) = 0.43658 0.40849
# Poissons Ratio (z) = 0.38920 0.17616
#
# Static dielectric constant tensor:
#      x y z
#    x 2.900050 0.000000 0.000000 
#    y 0.000000 2.866390 0.000000 
#    z 0.000000 0.000000 4.001260 
# 
# 
# High freq. dielectric constant tensor:
#      x y z
#    x 1.628110 0.000000 0.000000 
#    y 0.000000 1.588840 0.000000 
#    z 0.000000 0.000000 1.646760 
# 
# From -- ./inp_files/5565.got.cif
#   From: 2010.03.12/outbox.cif.g09.slc.cpg/sg47_3_cif.got.tgz:5565.got - 2010.04.14 03:12:58.
