data_PCOD8197740
_publ_section_title
;
Structure prediction by ZEFSAII (Michael W. Deem and Ramdas Pophale) SiO2 
 PCOD8197740
Probable space group: P M M M
;
_chemical_formula_sum "Si O2"
_cell_formula_units_Z 52
_cell_length_a 14.433852
_cell_length_b 8.820536
_cell_length_c 20.852025
_cell_angle_alpha 90.000000
_cell_angle_beta 90.000000
_cell_angle_gamma 90.000000
_cell_volume 2654.761200
_symmetry_space_group_name_H-M "P M M M"
_symmetry_group_IT_number 47
_symmetry_cell_setting 'orthorhombic'
loop_
_space_group_symop_operation_xyz
x,y,z
-x,-y,z
x,-y,-z
-x,y,-z
-x,-y,-z
x,y,-z
-x,y,z
x,-y,z
loop_
_atom_site_type_symbol
_atom_site_label
_atom_site_fract_x
_atom_site_fract_y
_atom_site_fract_z
Si Si1 0.396955 0.673356 0.361160
Si Si2 0.394287 0.680475 0.000000
Si Si3 0.722367 0.322001 0.878788
Si Si4 0.107705 0.674371 0.308976
Si Si5 0.783260 0.677209 0.430203
Si Si6 0.392932 0.173895 0.229217
Si Si7 0.894729 0.178966 0.175501
O O1 0.500000 0.705607 0.387672
O O2 0.387543 0.500000 0.337037
O O3 0.325616 0.707172 0.418299
O O4 0.373041 0.782716 0.302337
O O5 0.337928 0.740903 0.061689
O O6 0.398822 0.500000 0.000000
O O7 0.500000 0.745146 0.000000
O O8 0.736442 0.500000 0.884661
O O9 0.667976 0.282288 0.814534
O O10 0.824868 0.247385 0.877449
O O11 0.137466 0.500000 0.297886
O O12 0.158057 0.746827 0.371292
O O13 0.137190 0.766547 0.245950
O O14 0.000000 0.690084 0.322696
O O15 0.808734 0.749081 0.500000
O O16 0.805723 0.500000 0.432838
O O17 0.500000 0.201130 0.211997
O O18 0.363833 0.000000 0.218091
O O19 0.000000 0.234353 0.160929
O O20 0.888431 0.000000 0.173093
#
# Coordination Sequence:
#
# PCOD8197740 Si02
#       7
#     8   4   8   8   8   8   8
#     4   9  17  29  46  68  93 125 168 215 261 308
#     4   9  20  38  58  83 114 146 179 213 252 301
#     4  11  21  35  58  83 109 142 178 217 259 305
#     4   9  17  30  50  75 100 128 166 212 260 310
#     4   9  17  28  43  66  95 126 163 209 260 311
#     4  10  20  33  51  77 107 137 172 217 267 316
#     4  10  21  37  57  81 109 140 175 218 267 314
#
# _framework density 19.587448999999999
#
# number of rings (size 3 to 8) (size 9 to 14) (size 15 to 20)
#    0.000    2.385    0.000    2.769    0.000    4.308 
#    0.000    5.000    0.000    6.923    0.000    4.308 
#    0.000    0.000    0.000    0.000    0.000    0.000 
#
# Total GULP energy -644709.981450 kJ/mol
# GULP energy per Si atom -12398.268874 kJ/mol
# Density = 1.954287 g / cm^3
# Si number density = 19.587449 Si / 1000 Ang^3
#
#
#
# Elastic Constant Matrix: (Units=GPa)
#
#
# Indices 1 2 3 4 5 6 
#
# 1 111.9008 26.8883 68.3376 0.0000 0.0000 0.0000
# 2 26.8883 46.2883 22.5207 0.0000 0.0000 0.0000
# 3 68.3376 22.5207 89.6704 0.0000 0.0000 0.0000
# 4 0.0000 0.0000 0.0000 4.0057 0.0000 0.0000
# 5 0.0000 0.0000 0.0000 0.0000 29.6838 0.0000
# 6 0.0000 0.0000 0.0000 0.0000 0.0000 24.3740
#
#
#
# Elastic Compliance Matrix: (Units=1/GPa)
#
#
# Indices 1 2 3 4 5 6 
#
# 1 0.017393 -0.004163 -0.012210 0.000000 0.000000 0.000000
# 2 -0.004163 0.025607 -0.003259 0.000000 0.000000 0.000000
# 3 -0.012210 -0.003259 0.021275 0.000000 0.000000 0.000000
# 4 0.000000 0.000000 0.000000 0.249643 0.000000 0.000000
# 5 0.000000 0.000000 0.000000 0.000000 0.033688 0.000000
# 6 0.000000 0.000000 0.000000 0.000000 0.000000 0.041027
#
#
# Mechanical properties :
#
#
# Convention : Reuss Voigt Hill
#
# Bulk Modulus (GPa) = 39.97907 53.70585 46.84246
# Shear Modulus (GPa) = 11.46169 20.28690 15.87430
#
# Velocity S-wave (km/s) = 2.42162 3.22174 2.84990
# Velocity P-wave (km/s) = 5.31732 6.42787 5.89879
#
# Compressibility (1/GPa) = 0.02501309
#
# Stress axis : x y z
#
# Youngs Moduli (GPa) = 57.49318 39.05115 47.00253
#
# Poissons Ratio (x) = 0.16257 0.57389
# Poissons Ratio (y) = 0.23935 0.15316
# Poissons Ratio (z) = 0.70198 0.12725
#
# Static dielectric constant tensor:
#      x y z
#    x 3.876070 0.000000 0.000000 
#    y 0.000000 3.316810 0.000000 
#    z 0.000000 0.000000 3.590130 
# 
# 
# High freq. dielectric constant tensor:
#      x y z
#    x 1.778800 0.000000 0.000000 
#    y 0.000000 1.732400 0.000000 
#    z 0.000000 0.000000 1.748120 
# 
# From -- ./inp_files/7041.got.cif
#   From: 2010.03.12/outbox.cif.g09.slc.cpg/sg47_4_cif.got.tgz:7041.got - 2010.04.14 03:12:58.
