data_PCOD8197521
_publ_section_title
;
Structure prediction by ZEFSAII (Michael W. Deem and Ramdas Pophale) SiO2 
 PCOD8197521
Probable space group: P M M M
;
_chemical_formula_sum "Si O2"
_cell_formula_units_Z 40
_cell_length_a 9.107354
_cell_length_b 25.831898
_cell_length_c 9.319753
_cell_angle_alpha 90.000000
_cell_angle_beta 90.000000
_cell_angle_gamma 90.000000
_cell_volume 2192.567324
_symmetry_space_group_name_H-M "P M M M"
_symmetry_group_IT_number 47
_symmetry_cell_setting 'orthorhombic'
loop_
_space_group_symop_operation_xyz
x,y,z
-x,-y,z
x,-y,-z
-x,y,-z
-x,-y,-z
x,y,-z
-x,y,z
x,-y,z
loop_
_atom_site_type_symbol
_atom_site_label
_atom_site_fract_x
_atom_site_fract_y
_atom_site_fract_z
Si Si1 0.174961 0.000000 0.837505
Si Si2 0.834174 0.500000 0.670658
Si Si3 0.671116 0.601627 0.333462
Si Si4 0.175209 0.901416 0.338410
Si Si5 0.832683 0.689843 0.830731
Si Si6 0.174206 0.805564 0.840947
O O1 0.234403 0.949508 0.754690
O O2 0.000000 0.000000 0.839403
O O3 0.236091 0.000000 0.000000
O O4 0.828491 0.500000 0.500000
O O5 0.753292 0.448859 0.728864
O O6 0.000000 0.500000 0.729173
O O7 0.708203 0.609916 0.500000
O O8 0.500000 0.593112 0.307481
O O9 0.723538 0.651751 0.249140
O O10 0.236537 0.905884 0.500000
O O11 0.236589 0.848332 0.268766
O O12 0.000000 0.901430 0.339823
O O13 0.782778 0.748031 0.788427
O O14 0.000000 0.679464 0.780839
O O15 0.818884 0.681790 0.000000
O O16 0.000000 0.809445 0.849841
O O17 0.238892 0.816292 0.000000
#
# Coordination Sequence:
#
# PCOD8197521 Si02
#       6
#     4   4   8   8   8   8
#     4   9  15  21  29  41  63 101 144 181 222 275
#     4   9  17  31  52  75  98 127 162 198 236 279
#     4  10  20  33  50  73 100 128 158 194 237 285
#     4   9  15  21  30  47  71  99 136 183 229 272
#     4   9  18  32  49  69  93 122 158 199 240 284
#     4   8  14  25  39  54  75 105 141 181 226 276
#
# _framework density 18.243452999999999
#
# number of rings (size 3 to 8) (size 9 to 14) (size 15 to 20)
#    0.000    3.000    0.000    3.000    0.000    7.200 
#    0.000    2.500    0.000    3.000    0.000    0.000 
#    0.000    0.000    0.000    0.900    0.000   17.800 
#
# Total GULP energy -495897.378939 kJ/mol
# GULP energy per Si atom -12397.434473 kJ/mol
# Density = 1.820193 g / cm^3
# Si number density = 18.243453 Si / 1000 Ang^3
#
#
#
# Elastic Constant Matrix: (Units=GPa)
#
#
# Indices 1 2 3 4 5 6 
#
# 1 44.6114 39.8877 24.1031 0.0000 0.0000 0.0000
# 2 39.8877 173.9753 77.3651 0.0000 0.0000 0.0000
# 3 24.1031 77.3651 97.3199 0.0000 0.0000 0.0000
# 4 0.0000 0.0000 0.0000 29.9355 0.0000 0.0000
# 5 0.0000 0.0000 0.0000 0.0000 14.5356 0.0000
# 6 0.0000 0.0000 0.0000 0.0000 0.0000 2.7781
#
#
#
# Elastic Compliance Matrix: (Units=1/GPa)
#
#
# Indices 1 2 3 4 5 6 
#
# 1 0.028717 -0.005292 -0.002905 0.000000 0.000000 0.000000
# 2 -0.005292 0.009866 -0.006533 0.000000 0.000000 0.000000
# 3 -0.002905 -0.006533 0.016188 0.000000 0.000000 0.000000
# 4 0.000000 0.000000 0.000000 0.033405 0.000000 0.000000
# 5 0.000000 0.000000 0.000000 0.000000 0.068796 0.000000
# 6 0.000000 0.000000 0.000000 0.000000 0.000000 0.359957
#
#
# Mechanical properties :
#
#
# Convention : Reuss Voigt Hill
#
# Bulk Modulus (GPa) = 39.50774 66.51317 53.01046
# Shear Modulus (GPa) = 9.01181 21.08657 15.04919
#
# Velocity S-wave (km/s) = 2.22497 3.40346 2.87524
# Velocity P-wave (km/s) = 5.32010 7.20989 6.33585
#
# Compressibility (1/GPa) = 0.02531149
#
# Stress axis : x y z
#
# Youngs Moduli (GPa) = 34.82230 101.35596 61.77394
#
# Poissons Ratio (x) = 0.53638 0.17948
# Poissons Ratio (y) = 0.18428 0.40354
# Poissons Ratio (z) = 0.10117 0.66211
#
# Static dielectric constant tensor:
#      x y z
#    x 2.813560 0.000000 0.000000 
#    y 0.000000 3.631330 0.000000 
#    z 0.000000 0.000000 3.368030 
# 
# 
# High freq. dielectric constant tensor:
#      x y z
#    x 1.646960 0.000000 0.000000 
#    y 0.000000 1.725510 0.000000 
#    z 0.000000 0.000000 1.696890 
# 
# From -- ./inp_files/1812.got.cif
#   From: 2010.03.12/outbox.cif.g09.slc.cpg/sg47_1_cif.got.tgz:1812.got - 2010.04.14 03:12:58.
