data_PCOD8197852
_publ_section_title
;
Structure prediction by ZEFSAII (Michael W. Deem and Ramdas Pophale) SiO2 
 PCOD8197852
Probable space group: P M M M
;
_chemical_formula_sum "Si O2"
_cell_formula_units_Z 64
_cell_length_a 9.093309
_cell_length_b 14.759150
_cell_length_c 25.000720
_cell_angle_alpha 90.000000
_cell_angle_beta 90.000000
_cell_angle_gamma 90.000000
_cell_volume 3355.334419
_symmetry_space_group_name_H-M "P M M M"
_symmetry_group_IT_number 47
_symmetry_cell_setting 'orthorhombic'
loop_
_space_group_symop_operation_xyz
x,y,z
-x,-y,z
x,-y,-z
-x,y,-z
-x,-y,-z
x,y,-z
-x,y,z
x,-y,z
loop_
_atom_site_type_symbol
_atom_site_label
_atom_site_fract_x
_atom_site_fract_y
_atom_site_fract_z
Si Si1 0.325302 0.754762 0.366567
Si Si2 0.825190 0.603128 0.841982
Si Si3 0.168694 0.725592 0.742523
Si Si4 0.829428 0.105955 0.560426
Si Si5 0.327820 0.101735 0.913447
Si Si6 0.674442 0.598504 0.559127
Si Si7 0.836726 0.099513 0.807283
Si Si8 0.169548 0.721754 0.941209
O O1 0.500000 0.762930 0.365319
O O2 0.271530 0.723518 0.308637
O O3 0.261166 0.846466 0.391962
O O4 0.260898 0.675363 0.403488
O O5 0.762957 0.500000 0.841425
O O6 0.774304 0.655720 0.788251
O O7 0.764498 0.656340 0.894725
O O8 0.000000 0.601022 0.844721
O O9 0.185819 0.828368 0.761337
O O10 0.000000 0.702931 0.727672
O O11 0.779301 0.135227 0.500000
O O12 0.000000 0.129369 0.568199
O O13 0.800830 0.000000 0.567510
O O14 0.500000 0.115075 0.920810
O O15 0.286567 0.113991 0.851649
O O16 0.247676 0.180692 0.945786
O O17 0.281506 0.000000 0.933007
O O18 0.739701 0.612704 0.500000
O O19 0.500000 0.605423 0.557119
O O20 0.722202 0.500000 0.581354
O O21 0.000000 0.111560 0.833155
O O22 0.820875 0.000000 0.781130
O O23 0.000000 0.740163 0.927984
O O24 0.188084 0.675478 0.000000
#
# Coordination Sequence:
#
# PCOD8197852 Si02
#       8
#     8   8   8   8   8   8   8   8
#     4  11  22  33  51  82 114 142 180 229 274 319
#     4   9  18  35  58  82 108 139 180 230 280 328
#     4  10  20  35  53  75 106 145 183 218 267 327
#     4   9  19  37  59  81 109 149 192 229 272 330
#     4  10  20  33  52  79 111 144 174 210 263 322
#     4   8  15  30  51  73 100 136 174 212 260 317
#     4   9  17  32  55  77  98 131 177 222 261 309
#     4  10  20  35  57  84 111 141 182 228 271 323
#
# _framework density 19.074106
#
# number of rings (size 3 to 8) (size 9 to 14) (size 15 to 20)
#    0.000    2.500    1.250    1.875    0.000    4.000 
#    0.000    4.375    0.000    2.250    0.000    5.250 
#    0.000    0.000    0.000    0.000    0.000    0.000 
#
# Total GULP energy -793126.517942 kJ/mol
# GULP energy per Si atom -12392.601843 kJ/mol
# Density = 1.903069 g / cm^3
# Si number density = 19.074106 Si / 1000 Ang^3
#
#
#
# Elastic Constant Matrix: (Units=GPa)
#
#
# Indices 1 2 3 4 5 6 
#
# 1 49.5684 34.5933 37.4115 0.0000 0.0000 0.0000
# 2 34.5933 125.8148 66.4281 0.0000 0.0000 0.0000
# 3 37.4115 66.4281 125.9576 0.0000 0.0000 0.0000
# 4 0.0000 0.0000 0.0000 11.2830 0.0000 0.0000
# 5 0.0000 0.0000 0.0000 0.0000 21.2595 0.0000
# 6 0.0000 0.0000 0.0000 0.0000 0.0000 16.2537
#
#
#
# Elastic Compliance Matrix: (Units=1/GPa)
#
#
# Indices 1 2 3 4 5 6 
#
# 1 0.027760 -0.004545 -0.005848 0.000000 0.000000 0.000000
# 2 -0.004545 0.011760 -0.004852 0.000000 0.000000 0.000000
# 3 -0.005848 -0.004852 0.012235 0.000000 0.000000 0.000000
# 4 0.000000 0.000000 0.000000 0.088629 0.000000 0.000000
# 5 0.000000 0.000000 0.000000 0.000000 0.047038 0.000000
# 6 0.000000 0.000000 0.000000 0.000000 0.000000 0.061524
#
#
# Mechanical properties :
#
#
# Convention : Reuss Voigt Hill
#
# Bulk Modulus (GPa) = 47.02698 64.24519 55.63608
# Shear Modulus (GPa) = 17.45054 20.61977 19.03516
#
# Velocity S-wave (km/s) = 3.02798 3.29148 3.16247
# Velocity P-wave (km/s) = 6.07728 6.94263 6.52432
#
# Compressibility (1/GPa) = 0.02126439
#
# Stress axis : x y z
#
# Youngs Moduli (GPa) = 36.02314 85.03726 81.73262
#
# Poissons Ratio (x) = 0.38649 0.47799
# Poissons Ratio (y) = 0.16372 0.39656
# Poissons Ratio (z) = 0.21067 0.41259
#
# Static dielectric constant tensor:
#      x y z
#    x 3.185180 0.000000 0.000000 
#    y 0.000000 3.800980 0.000000 
#    z 0.000000 0.000000 3.477260 
# 
# 
# High freq. dielectric constant tensor:
#      x y z
#    x 1.707420 0.000000 0.000000 
#    y 0.000000 1.749490 0.000000 
#    z 0.000000 0.000000 1.738720 
# 
# From -- ./inp_files/32116.got.cif
#   From: 2010.03.12/outbox.cif.g09.slc.cpg/sg47_17_cif.got.tgz:32116.got - 2010.04.14 03:12:58.
