data_PCOD8197506
_publ_section_title
;
Structure prediction by ZEFSAII (Michael W. Deem and Ramdas Pophale) SiO2 
 PCOD8197506
Probable space group: P M M M
;
_chemical_formula_sum "Si O2"
_cell_formula_units_Z 44
_cell_length_a 10.367415
_cell_length_b 9.054107
_cell_length_c 24.976641
_cell_angle_alpha 90.000000
_cell_angle_beta 90.000000
_cell_angle_gamma 90.000000
_cell_volume 2344.499463
_symmetry_space_group_name_H-M "P M M M"
_symmetry_group_IT_number 47
_symmetry_cell_setting 'orthorhombic'
loop_
_space_group_symop_operation_xyz
x,y,z
-x,-y,z
x,-y,-z
-x,y,-z
-x,-y,-z
x,y,-z
-x,y,z
x,-y,z
loop_
_atom_site_type_symbol
_atom_site_label
_atom_site_fract_x
_atom_site_fract_y
_atom_site_fract_z
Si Si1 0.000000 0.335245 0.563240
Si Si2 0.743750 0.825505 0.561352
Si Si3 0.645791 0.338126 0.656479
Si Si4 0.652970 0.164848 0.756666
Si Si5 0.853997 0.830370 0.937029
Si Si6 0.648298 0.325828 0.864847
O O1 0.122542 0.242652 0.582231
O O2 0.000000 0.500000 0.588297
O O3 0.000000 0.346480 0.500000
O O4 0.711899 0.781680 0.500000
O O5 0.640456 0.753441 0.600897
O O6 0.747024 0.000000 0.567849
O O7 0.500000 0.363930 0.674203
O O8 0.711956 0.500000 0.649066
O O9 0.713528 0.246758 0.704534
O O10 0.500000 0.155486 0.751628
O O11 0.693632 0.253449 0.809378
O O12 0.711742 0.000000 0.759422
O O13 0.745840 0.728439 0.910305
O O14 0.000000 0.785626 0.919334
O O15 0.827722 0.000000 0.921188
O O16 0.839777 0.807996 0.000000
O O17 0.500000 0.281260 0.879087
O O18 0.660351 0.500000 0.858694
#
# Coordination Sequence:
#
# PCOD8197506 Si02
#       6
#     4   8   8   8   8   8
#     4   9  17  31  51  71  91 119 157 199 244 295
#     4  10  20  33  50  72  98 129 166 207 251 303
#     4  10  20  33  50  73 102 134 167 206 254 308
#     4   9  17  31  52  75  99 131 171 211 254 305
#     4   9  19  36  56  78 107 145 186 224 265 316
#     4  10  20  33  52  80 111 141 177 222 268 316
#
# _framework density 18.767334000000002
#
# number of rings (size 3 to 8) (size 9 to 14) (size 15 to 20)
#    0.000    2.455    0.000    3.000    0.000    8.000 
#    0.000    4.545    2.000    0.000    0.000    0.000 
#    0.000    0.000    0.000    0.000    0.000    0.000 
#
# Total GULP energy -545405.376327 kJ/mol
# GULP energy per Si atom -12395.576735 kJ/mol
# Density = 1.872462 g / cm^3
# Si number density = 18.767334 Si / 1000 Ang^3
#
#
#
# Elastic Constant Matrix: (Units=GPa)
#
#
# Indices 1 2 3 4 5 6 
#
# 1 57.2525 37.4651 36.3384 0.0000 0.0000 0.0000
# 2 37.4651 136.3299 61.2916 0.0000 0.0000 0.0000
# 3 36.3384 61.2916 97.7547 0.0000 0.0000 0.0000
# 4 0.0000 0.0000 0.0000 35.2311 0.0000 0.0000
# 5 0.0000 0.0000 0.0000 0.0000 8.1367 0.0000
# 6 0.0000 0.0000 0.0000 0.0000 0.0000 27.7998
#
#
#
# Elastic Compliance Matrix: (Units=1/GPa)
#
#
# Indices 1 2 3 4 5 6 
#
# 1 0.024072 -0.003610 -0.006685 0.000000 0.000000 0.000000
# 2 -0.003610 0.010756 -0.005402 0.000000 0.000000 0.000000
# 3 -0.006685 -0.005402 0.016102 0.000000 0.000000 0.000000
# 4 0.000000 0.000000 0.000000 0.028384 0.000000 0.000000
# 5 0.000000 0.000000 0.000000 0.000000 0.122899 0.000000
# 6 0.000000 0.000000 0.000000 0.000000 0.000000 0.035972
#
#
# Mechanical properties :
#
#
# Convention : Reuss Voigt Hill
#
# Bulk Modulus (GPa) = 51.18789 62.39193 56.78991
# Shear Modulus (GPa) = 18.11011 24.64966 21.37988
#
# Velocity S-wave (km/s) = 3.10978 3.62806 3.37888
# Velocity P-wave (km/s) = 6.34260 7.13215 6.74893
#
# Compressibility (1/GPa) = 0.01953587
#
# Stress axis : x y z
#
# Youngs Moduli (GPa) = 41.54281 92.97326 62.10553
#
# Poissons Ratio (x) = 0.33561 0.41516
# Poissons Ratio (y) = 0.14996 0.33549
# Poissons Ratio (z) = 0.27771 0.50224
#
# Static dielectric constant tensor:
#      x y z
#    x 3.251780 0.000000 0.000000 
#    y 0.000000 3.695480 0.000000 
#    z 0.000000 0.000000 3.346990 
# 
# 
# High freq. dielectric constant tensor:
#      x y z
#    x 1.694210 0.000000 0.000000 
#    y 0.000000 1.745750 0.000000 
#    z 0.000000 0.000000 1.723280 
# 
# From -- ./inp_files/15276.got.cif
#   From: 2010.03.12/outbox.cif.g09.slc.cpg/sg47_8_cif.got.tgz:15276.got - 2010.04.14 03:12:58.
