data_PCOD8197097
_publ_section_title
;
Structure prediction by ZEFSAII (Michael W. Deem and Ramdas Pophale) SiO2 
 PCOD8197097
Probable space group: P M M M
;
_chemical_formula_sum "Si O2"
_cell_formula_units_Z 52
_cell_length_a 9.417100
_cell_length_b 33.437644
_cell_length_c 9.020232
_cell_angle_alpha 90.000000
_cell_angle_beta 90.000000
_cell_angle_gamma 90.000000
_cell_volume 2840.341502
_symmetry_space_group_name_H-M "P M M M"
_symmetry_group_IT_number 47
_symmetry_cell_setting 'orthorhombic'
loop_
_space_group_symop_operation_xyz
x,y,z
-x,-y,z
x,-y,-z
-x,y,-z
-x,-y,-z
x,y,-z
-x,y,z
x,-y,z
loop_
_atom_site_type_symbol
_atom_site_label
_atom_site_fract_x
_atom_site_fract_y
_atom_site_fract_z
Si Si1 0.666893 0.150420 0.172291
Si Si2 0.168611 0.000000 0.167102
Si Si3 0.165147 0.545856 0.831059
Si Si4 0.336038 0.387681 0.327632
Si Si5 0.331212 0.230561 0.666857
Si Si6 0.833989 0.079833 0.673386
Si Si7 0.330740 0.308478 0.832652
O O1 0.500000 0.144317 0.197853
O O2 0.719358 0.192517 0.238665
O O3 0.748867 0.116110 0.257510
O O4 0.706892 0.149361 0.000000
O O5 0.223716 0.960793 0.252062
O O6 0.000000 0.000000 0.166261
O O7 0.229484 0.000000 0.000000
O O8 0.202135 0.500000 0.795127
O O9 0.253077 0.572886 0.719378
O O10 0.000000 0.554061 0.805208
O O11 0.207344 0.556017 0.000000
O O12 0.313439 0.379648 0.500000
O O13 0.500000 0.394531 0.287937
O O14 0.274520 0.349155 0.241908
O O15 0.270759 0.227332 0.500000
O O16 0.500000 0.232642 0.663962
O O17 0.269400 0.270503 0.743263
O O18 0.802335 0.077198 0.500000
O O19 0.000000 0.086159 0.705964
O O20 0.500000 0.307539 0.828903
O O21 0.273175 0.306508 0.000000
#
# Coordination Sequence:
#
# PCOD8197097 Si02
#       7
#     8   4   8   8   8   8   8
#     4  10  20  33  50  74 103 134 169 207 246 291
#     4   9  17  31  52  75  98 127 164 204 246 295
#     4   9  19  36  55  73  95 127 167 206 244 292
#     4  10  20  32  48  74 105 132 161 201 247 292
#     4   9  16  27  45  69  98 131 165 202 244 290
#     4  10  20  34  53  76 101 130 165 205 249 297
#     4   9  16  27  45  69  97 129 165 203 242 286
#
# _framework density 18.307658
#
# number of rings (size 3 to 8) (size 9 to 14) (size 15 to 20)
#    0.000    2.538    0.000    3.000    0.000    8.308 
#    0.000    2.692    0.000    3.231    0.000    0.000 
#    0.000    0.000    0.000    0.000    0.000    0.000 
#
# Total GULP energy -644867.371654 kJ/mol
# GULP energy per Si atom -12401.295609 kJ/mol
# Density = 1.826599 g / cm^3
# Si number density = 18.307658 Si / 1000 Ang^3
#
#
#
# Elastic Constant Matrix: (Units=GPa)
#
#
# Indices 1 2 3 4 5 6 
#
# 1 26.7837 38.0411 31.0820 0.0000 0.0000 0.0000
# 2 38.0411 150.1864 69.3931 0.0000 0.0000 0.0000
# 3 31.0820 69.3931 124.1503 0.0000 0.0000 0.0000
# 4 0.0000 0.0000 0.0000 42.7638 0.0000 0.0000
# 5 0.0000 0.0000 0.0000 0.0000 23.2327 0.0000
# 6 0.0000 0.0000 0.0000 0.0000 0.0000 -158.7149
#
#
#
# Elastic Compliance Matrix: (Units=1/GPa)
#
#
# Indices 1 2 3 4 5 6 
#
# 1 0.065930 -0.012232 -0.009669 0.000000 0.000000 0.000000
# 2 -0.012232 0.011246 -0.003224 0.000000 0.000000 0.000000
# 3 -0.009669 -0.003224 0.012277 0.000000 0.000000 0.000000
# 4 0.000000 0.000000 0.000000 0.023384 0.000000 0.000000
# 5 0.000000 0.000000 0.000000 0.000000 0.043043 0.000000
# 6 0.000000 0.000000 0.000000 0.000000 0.000000 -0.006301
#
#
# Mechanical properties :
#
#
# Convention : Reuss Voigt Hill
#
# Bulk Modulus (GPa) = 25.50747 64.23920 44.87334
# Shear Modulus (GPa) = 23.48544 -7.70339 7.89103
#
# Velocity S-wave (km/s) = 3.58553 -2.05350 2.07836
# Velocity P-wave (km/s) = 5.57713 5.43529 5.50666
#
# Compressibility (1/GPa) = 0.03920420
#
# Stress axis : x y z
#
# Youngs Moduli (GPa) = 15.16753 88.91955 81.45131
#
# Poissons Ratio (x) = 1.08767 0.78756
# Poissons Ratio (y) = 0.18553 0.26256
# Poissons Ratio (z) = 0.14666 0.28664
#
# Static dielectric constant tensor:
#      x y z
#    x 2.902050 0.000000 0.000000 
#    y 0.000000 3.554280 0.000000 
#    z 0.000000 0.000000 3.551700 
# 
# 
# High freq. dielectric constant tensor:
#      x y z
#    x 1.656250 0.000000 0.000000 
#    y 0.000000 1.726780 0.000000 
#    z 0.000000 0.000000 1.726810 
# 
# From -- ./inp_files/4556.got.cif
#   From: 2010.03.12/outbox.cif.g09.slc.cpg/sg47_3_cif.got.tgz:4556.got - 2010.04.14 03:12:58.
