data_PCOD8197796
_publ_section_title
;
Structure prediction by ZEFSAII (Michael W. Deem and Ramdas Pophale) SiO2 
 PCOD8197796
Probable space group: P M M M
;
_chemical_formula_sum "Si O2"
_cell_formula_units_Z 52
_cell_length_a 9.348743
_cell_length_b 12.152816
_cell_length_c 25.287762
_cell_angle_alpha 90.000000
_cell_angle_beta 90.000000
_cell_angle_gamma 90.000000
_cell_volume 2873.032501
_symmetry_space_group_name_H-M "P M M M"
_symmetry_group_IT_number 47
_symmetry_cell_setting 'orthorhombic'
loop_
_space_group_symop_operation_xyz
x,y,z
-x,-y,z
x,-y,-z
-x,y,-z
-x,-y,-z
x,y,-z
-x,y,z
x,-y,z
loop_
_atom_site_type_symbol
_atom_site_label
_atom_site_fract_x
_atom_site_fract_y
_atom_site_fract_z
Si Si1 0.662775 0.623181 0.092018
Si Si2 0.329972 0.629283 0.385189
Si Si3 0.662792 0.625096 0.785107
Si Si4 0.171085 0.000000 0.861933
Si Si5 0.666428 0.626735 0.500000
Si Si6 0.164667 0.180370 0.058346
Si Si7 0.831736 0.000000 0.257526
Si Si8 0.830233 0.237243 0.704281
O O1 0.500000 0.656222 0.081641
O O2 0.692790 0.500000 0.072356
O O3 0.698848 0.633255 0.153657
O O4 0.760250 0.702237 0.057901
O O5 0.500000 0.644978 0.378291
O O6 0.291851 0.500000 0.376424
O O7 0.276058 0.671959 0.443588
O O8 0.247344 0.708156 0.345417
O O9 0.500000 0.663624 0.772975
O O10 0.680988 0.500000 0.764800
O O11 0.777764 0.701850 0.756748
O O12 0.229297 0.104703 0.894946
O O13 0.234281 0.000000 0.802245
O O14 0.000000 0.000000 0.862513
O O15 0.703136 0.500000 0.500000
O O16 0.500000 0.647685 0.500000
O O17 0.000000 0.201223 0.070080
O O18 0.185755 0.126557 0.000000
O O19 0.785415 0.891419 0.290225
O O20 0.000000 0.000000 0.249425
O O21 0.000000 0.250929 0.698421
#
# Coordination Sequence:
#
# PCOD8197796 Si02
#       8
#     8   8   8   4   4   8   4   8
#     4   9  19  35  52  70  96 131 164 192 231 288
#     4   9  17  31  52  77 105 135 166 202 244 288
#     4   9  18  33  51  71  97 127 159 198 244 292
#     4   9  17  34  56  72  91 123 162 202 247 292
#     4   7  12  26  49  74  99 132 170 201 236 285
#     4  10  20  33  52  77  99 120 153 199 246 292
#     4   9  20  35  49  67  95 132 167 202 243 288
#     4  11  21  32  48  72 101 131 166 205 246 292
#
# _framework density 18.099342
#
# number of rings (size 3 to 8) (size 9 to 14) (size 15 to 20)
#    0.000    2.692    0.000    3.923    0.000    6.154 
#    0.000    5.385    0.000    6.462    0.000    3.231 
#    0.000    0.000    0.000    0.000    0.000    0.000 
#
# Total GULP energy -644354.432747 kJ/mol
# GULP energy per Si atom -12391.431399 kJ/mol
# Density = 1.805815 g / cm^3
# Si number density = 18.099342 Si / 1000 Ang^3
#
#
#
# Elastic Constant Matrix: (Units=GPa)
#
#
# Indices 1 2 3 4 5 6 
#
# 1 51.2574 43.2779 38.6062 0.0000 0.0000 0.0000
# 2 43.2779 105.7284 57.5533 0.0000 0.0000 0.0000
# 3 38.6062 57.5533 104.2058 0.0000 0.0000 0.0000
# 4 0.0000 0.0000 0.0000 21.1142 0.0000 0.0000
# 5 0.0000 0.0000 0.0000 0.0000 22.4868 0.0000
# 6 0.0000 0.0000 0.0000 0.0000 0.0000 -35.5186
#
#
#
# Elastic Compliance Matrix: (Units=1/GPa)
#
#
# Indices 1 2 3 4 5 6 
#
# 1 0.032857 -0.009756 -0.006784 0.000000 0.000000 0.000000
# 2 -0.009756 0.016421 -0.005455 0.000000 0.000000 0.000000
# 3 -0.006784 -0.005455 0.015123 0.000000 0.000000 0.000000
# 4 0.000000 0.000000 0.000000 0.047362 0.000000 0.000000
# 5 0.000000 0.000000 0.000000 0.000000 0.044470 0.000000
# 6 0.000000 0.000000 0.000000 0.000000 0.000000 -0.028154
#
#
# Mechanical properties :
#
#
# Convention : Reuss Voigt Hill
#
# Bulk Modulus (GPa) = 48.99708 60.00738 54.50223
# Shear Modulus (GPa) = 27.95293 9.73344 18.84319
#
# Velocity S-wave (km/s) = 3.93417 2.32152 3.23011
# Velocity P-wave (km/s) = 6.91136 6.35707 6.64000
#
# Compressibility (1/GPa) = 0.02040938
#
# Stress axis : x y z
#
# Youngs Moduli (GPa) = 30.43533 60.89728 66.12588
#
# Poissons Ratio (x) = 0.59412 0.44862
# Poissons Ratio (y) = 0.29693 0.36072
# Poissons Ratio (z) = 0.20648 0.33219
#
# Static dielectric constant tensor:
#      x y z
#    x 3.053680 0.000000 0.000000 
#    y 0.000000 3.390990 0.000000 
#    z 0.000000 0.000000 3.600950 
# 
# 
# High freq. dielectric constant tensor:
#      x y z
#    x 1.672990 0.000000 0.000000 
#    y 0.000000 1.688320 0.000000 
#    z 0.000000 0.000000 1.710520 
# 
# From -- ./inp_files/33343.got.cif
#   From: 2010.03.12/outbox.cif.g09.slc.cpg/sg47_17_cif.got.tgz:33343.got - 2010.04.14 03:12:58.
