data_PCOD8197854
_publ_section_title
;
Structure prediction by ZEFSAII (Michael W. Deem and Ramdas Pophale) SiO2 
 PCOD8197854
Probable space group: P M M M
;
_chemical_formula_sum "Si O2"
_cell_formula_units_Z 64
_cell_length_a 9.230455
_cell_length_b 24.990744
_cell_length_c 14.639557
_cell_angle_alpha 90.000000
_cell_angle_beta 90.000000
_cell_angle_gamma 90.000000
_cell_volume 3376.993542
_symmetry_space_group_name_H-M "P M M M"
_symmetry_group_IT_number 47
_symmetry_cell_setting 'orthorhombic'
loop_
_space_group_symop_operation_xyz
x,y,z
-x,-y,z
x,-y,-z
-x,y,-z
-x,-y,-z
x,y,-z
-x,y,z
x,-y,z
loop_
_atom_site_type_symbol
_atom_site_label
_atom_site_fract_x
_atom_site_fract_y
_atom_site_fract_z
Si Si1 0.829833 0.632521 0.234334
Si Si2 0.660613 0.438789 0.106640
Si Si3 0.666889 0.741207 0.779071
Si Si4 0.337673 0.197933 0.600813
Si Si5 0.333119 0.059038 0.225062
Si Si6 0.672259 0.157339 0.896525
Si Si7 0.172187 0.560032 0.602218
Si Si8 0.830111 0.908442 0.603051
O O1 0.790303 0.592960 0.152988
O O2 0.758741 0.688413 0.207090
O O3 0.768671 0.605199 0.327793
O O4 0.000000 0.641310 0.239970
O O5 0.500000 0.418481 0.136750
O O6 0.678214 0.500000 0.134972
O O7 0.679376 0.430877 0.000000
O O8 0.500000 0.729287 0.802373
O O9 0.689529 0.755869 0.673371
O O10 0.724856 0.789167 0.844133
O O11 0.320468 0.223265 0.500000
O O12 0.500000 0.173777 0.614206
O O13 0.220328 0.152273 0.616386
O O14 0.500000 0.072040 0.246375
O O15 0.269677 0.104529 0.157005
O O16 0.249525 0.056161 0.321417
O O17 0.316602 0.000000 0.179570
O O18 0.500000 0.155414 0.898756
O O19 0.734387 0.157339 0.000000
O O20 0.224970 0.575135 0.500000
O O21 0.228517 0.500000 0.627661
O O22 0.000000 0.559445 0.606604
O O23 0.791964 0.928370 0.500000
O O24 0.000000 0.911795 0.620529
#
# Coordination Sequence:
#
# PCOD8197854 Si02
#       8
#     8   8   8   8   8   8   8   8
#     4  11  22  33  51  82 114 142 179 227 272 315
#     4   9  19  37  59  80 104 138 178 219 270 332
#     4  10  20  35  53  75 106 145 183 217 264 324
#     4   9  17  32  55  78 102 136 180 226 266 310
#     4  10  20  35  57  84 110 137 175 224 274 325
#     4   9  18  35  58  81 104 134 176 224 274 326
#     4   8  15  30  51  74 104 144 184 219 262 316
#     4  10  20  33  52  79 111 145 177 212 260 317
#
# _framework density 18.951768000000001
#
# number of rings (size 3 to 8) (size 9 to 14) (size 15 to 20)
#    0.000    2.500    1.250    1.875    0.000    4.000 
#    0.000    4.375    0.000    2.250    0.000    5.250 
#    0.000    0.000    0.000    0.000    0.000    0.000 
#
# Total GULP energy -793277.872316 kJ/mol
# GULP energy per Si atom -12394.966755 kJ/mol
# Density = 1.890863 g / cm^3
# Si number density = 18.951768 Si / 1000 Ang^3
#
#
#
# Elastic Constant Matrix: (Units=GPa)
#
#
# Indices 1 2 3 4 5 6 
#
# 1 46.6509 34.1443 37.1104 0.0000 0.0000 0.0000
# 2 34.1443 124.2689 63.0640 0.0000 0.0000 0.0000
# 3 37.1104 63.0640 145.8361 0.0000 0.0000 0.0000
# 4 0.0000 0.0000 0.0000 8.5656 0.0000 0.0000
# 5 0.0000 0.0000 0.0000 0.0000 19.6975 0.0000
# 6 0.0000 0.0000 0.0000 0.0000 0.0000 9.2958
#
#
#
# Elastic Compliance Matrix: (Units=1/GPa)
#
#
# Indices 1 2 3 4 5 6 
#
# 1 0.029558 -0.005515 -0.005137 0.000000 0.000000 0.000000
# 2 -0.005515 0.011338 -0.003500 0.000000 0.000000 0.000000
# 3 -0.005137 -0.003500 0.009678 0.000000 0.000000 0.000000
# 4 0.000000 0.000000 0.000000 0.116746 0.000000 0.000000
# 5 0.000000 0.000000 0.000000 0.000000 0.050768 0.000000
# 6 0.000000 0.000000 0.000000 0.000000 0.000000 0.107576
#
#
# Mechanical properties :
#
#
# Convention : Reuss Voigt Hill
#
# Bulk Modulus (GPa) = 44.89998 65.04370 54.97184
# Shear Modulus (GPa) = 13.83547 19.67426 16.75486
#
# Velocity S-wave (km/s) = 2.70485 3.22549 2.97657
# Velocity P-wave (km/s) = 5.78775 6.94743 6.39394
#
# Compressibility (1/GPa) = 0.02227173
#
# Stress axis : x y z
#
# Youngs Moduli (GPa) = 33.83127 88.19636 103.33151
#
# Poissons Ratio (x) = 0.48637 0.53081
# Poissons Ratio (y) = 0.18657 0.36164
# Poissons Ratio (z) = 0.17379 0.30867
#
# Static dielectric constant tensor:
#      x y z
#    x 3.196240 0.000000 0.000000 
#    y 0.000000 3.412490 0.000000 
#    z 0.000000 0.000000 3.732620 
# 
# 
# High freq. dielectric constant tensor:
#      x y z
#    x 1.703130 0.000000 0.000000 
#    y 0.000000 1.732440 0.000000 
#    z 0.000000 0.000000 1.741840 
# 
# From -- ./inp_files/21912.got.cif
#   From: 2010.03.12/outbox.cif.g09.slc.cpg/sg47_11_cif.got.tgz:21912.got - 2010.04.14 03:12:58.
