data_PCOD8197106
_publ_section_title
;
Structure prediction by ZEFSAII (Michael W. Deem and Ramdas Pophale) SiO2 
 PCOD8197106
Probable space group: P M M M
;
_chemical_formula_sum "Si O2"
_cell_formula_units_Z 52
_cell_length_a 8.919165
_cell_length_b 21.043008
_cell_length_c 14.044568
_cell_angle_alpha 90.000000
_cell_angle_beta 90.000000
_cell_angle_gamma 90.000000
_cell_volume 2635.969639
_symmetry_space_group_name_H-M "P M M M"
_symmetry_group_IT_number 47
_symmetry_cell_setting 'orthorhombic'
loop_
_space_group_symop_operation_xyz
x,y,z
-x,-y,z
x,-y,-z
-x,y,-z
-x,-y,-z
x,y,-z
-x,y,z
x,-y,z
loop_
_atom_site_type_symbol
_atom_site_label
_atom_site_fract_x
_atom_site_fract_y
_atom_site_fract_z
Si Si1 0.329502 0.500000 0.885856
Si Si2 0.328748 0.694982 0.613169
Si Si3 0.676925 0.246234 0.108249
Si Si4 0.168969 0.625224 0.113061
Si Si5 0.822029 0.190410 0.720190
Si Si6 0.821996 0.070013 0.606490
Si Si7 0.830233 0.430412 0.386828
O O1 0.500000 0.500000 0.849585
O O2 0.244581 0.438179 0.844260
O O3 0.324923 0.500000 0.000000
O O4 0.312157 0.697517 0.500000
O O5 0.500000 0.703700 0.645840
O O6 0.229968 0.751146 0.655787
O O7 0.270572 0.627087 0.653910
O O8 0.500000 0.244862 0.118362
O O9 0.735138 0.314211 0.146025
O O10 0.751533 0.192849 0.174275
O O11 0.728095 0.233483 0.000000
O O12 0.000000 0.631465 0.152315
O O13 0.169234 0.620686 0.000000
O O14 0.759787 0.124840 0.675299
O O15 0.000000 0.191353 0.727645
O O16 0.759414 0.081772 0.500000
O O17 0.000000 0.073316 0.603802
O O18 0.770281 0.000000 0.642709
O O19 0.825038 0.428906 0.500000
O O20 0.770784 0.500000 0.351898
O O21 0.000000 0.420104 0.351258
#
# Coordination Sequence:
#
# PCOD8197106 Si02
#       7
#     4   8   8   8   8   8   8
#     4   9  15  23  39  65  95 127 164 207 264 333
#     4  10  20  32  48  74 109 145 179 217 263 320
#     4  10  21  37  55  74 101 139 181 226 277 331
#     4   9  16  27  45  69  95 124 165 218 272 325
#     4  11  21  33  55  83 110 141 179 224 271 320
#     4   8  15  30  54  86 121 151 178 211 256 312
#     4   8  14  26  45  68  95 131 176 223 269 317
#
# _framework density 19.727087000000001
#
# number of rings (size 3 to 8) (size 9 to 14) (size 15 to 20)
#    0.000    2.692    0.000    3.462    0.000    5.538 
#    0.000    1.538    1.692    2.308    0.000    8.615 
#    0.000    0.000    0.000    0.000    0.000    0.000 
#
# Total GULP energy -644715.905427 kJ/mol
# GULP energy per Si atom -12398.382797 kJ/mol
# Density = 1.968219 g / cm^3
# Si number density = 19.727087 Si / 1000 Ang^3
#
#
#
# Elastic Constant Matrix: (Units=GPa)
#
#
# Indices 1 2 3 4 5 6 
#
# 1 90.8141 49.7319 25.5868 0.0000 0.0000 0.0000
# 2 49.7319 166.3150 67.8648 0.0000 0.0000 0.0000
# 3 25.5868 67.8648 60.4730 0.0000 0.0000 0.0000
# 4 0.0000 0.0000 0.0000 28.5005 0.0000 0.0000
# 5 0.0000 0.0000 0.0000 0.0000 20.9431 0.0000
# 6 0.0000 0.0000 0.0000 0.0000 0.0000 9.0228
#
#
#
# Elastic Compliance Matrix: (Units=1/GPa)
#
#
# Indices 1 2 3 4 5 6 
#
# 1 0.013318 -0.003105 -0.002151 0.000000 0.000000 0.000000
# 2 -0.003105 0.011816 -0.011946 0.000000 0.000000 0.000000
# 3 -0.002151 -0.011946 0.030853 0.000000 0.000000 0.000000
# 4 0.000000 0.000000 0.000000 0.035087 0.000000 0.000000
# 5 0.000000 0.000000 0.000000 0.000000 0.047748 0.000000
# 6 0.000000 0.000000 0.000000 0.000000 0.000000 0.110831
#
#
# Mechanical properties :
#
#
# Convention : Reuss Voigt Hill
#
# Bulk Modulus (GPa) = 46.33313 67.10767 56.72040
# Shear Modulus (GPa) = 17.16736 23.32119 20.24428
#
# Velocity S-wave (km/s) = 2.95319 3.44203 3.20694
# Velocity P-wave (km/s) = 5.93013 7.06319 6.52132
#
# Compressibility (1/GPa) = 0.02158283
#
# Stress axis : x y z
#
# Youngs Moduli (GPa) = 75.08826 84.63236 32.41181
#
# Poissons Ratio (x) = 0.26276 0.06971
# Poissons Ratio (y) = 0.23313 0.38721
# Poissons Ratio (z) = 0.16149 1.01106
#
# Static dielectric constant tensor:
#      x y z
#    x 3.499020 0.000000 0.000000 
#    y 0.000000 3.820760 0.000000 
#    z 0.000000 0.000000 3.531580 
# 
# 
# High freq. dielectric constant tensor:
#      x y z
#    x 1.757790 0.000000 0.000000 
#    y 0.000000 1.756590 0.000000 
#    z 0.000000 0.000000 1.763680 
# 
# From -- ./inp_files/21372.got.cif
#   From: 2010.03.12/outbox.cif.g09.slc.cpg/sg47_11_cif.got.tgz:21372.got - 2010.04.14 03:12:58.
