data_PCOD8197138
_publ_section_title
;
Structure prediction by ZEFSAII (Michael W. Deem and Ramdas Pophale) SiO2 
 PCOD8197138
Probable space group: P M M M
;
_chemical_formula_sum "Si O2"
_cell_formula_units_Z 52
_cell_length_a 9.105933
_cell_length_b 23.630637
_cell_length_c 13.649468
_cell_angle_alpha 90.000000
_cell_angle_beta 90.000000
_cell_angle_gamma 90.000000
_cell_volume 2937.078837
_symmetry_space_group_name_H-M "P M M M"
_symmetry_group_IT_number 47
_symmetry_cell_setting 'orthorhombic'
loop_
_space_group_symop_operation_xyz
x,y,z
-x,-y,z
x,-y,-z
-x,y,-z
-x,-y,-z
x,y,-z
-x,y,z
x,-y,z
loop_
_atom_site_type_symbol
_atom_site_label
_atom_site_fract_x
_atom_site_fract_y
_atom_site_fract_z
Si Si1 0.328034 0.835274 0.386741
Si Si2 0.000000 0.567739 0.111984
Si Si3 0.162494 0.609077 0.284289
Si Si4 0.830652 0.103262 0.781125
Si Si5 0.671461 0.277561 0.722700
Si Si6 0.325495 0.000000 0.114244
Si Si7 0.166975 0.219703 0.111426
Si Si8 0.174549 0.500000 0.611658
O O1 0.285887 0.842954 0.500000
O O2 0.500000 0.845778 0.368019
O O3 0.237105 0.881342 0.324879
O O4 0.284525 0.771632 0.354099
O O5 0.143985 0.593053 0.168137
O O6 0.000000 0.500000 0.119705
O O7 0.000000 0.588630 0.000000
O O8 0.258490 0.663512 0.308597
O O9 0.240151 0.556204 0.338088
O O10 0.000000 0.620290 0.329338
O O11 0.815310 0.155816 0.853386
O O12 0.000000 0.085092 0.766869
O O13 0.739188 0.054034 0.831292
O O14 0.500000 0.286486 0.727466
O O15 0.728274 0.261566 0.830041
O O16 0.500000 0.000000 0.125013
O O17 0.278393 0.000000 0.000000
O O18 0.000000 0.240541 0.125618
O O19 0.217776 0.222407 0.000000
O O20 0.222799 0.500000 0.500000
O O21 0.000000 0.500000 0.628392
#
# Coordination Sequence:
#
# PCOD8197138 Si02
#       8
#     8   4   8   8   8   4   8   4
#     4   9  19  37  57  75 102 143 182 215 259 316
#     4   9  16  30  52  72  90 126 172 211 246 301
#     4   9  17  32  48  72  97 125 166 208 250 310
#     4  10  20  35  56  82 110 138 173 225 269 307
#     4  10  20  32  49  74 105 134 167 211 256 305
#     4  11  23  37  56  83 114 149 183 210 250 313
#     4   9  18  33  52  74 101 136 172 207 252 305
#     4   9  16  30  51  73  97 122 156 209 260 299
#
# _framework density 17.704664999999999
#
# number of rings (size 3 to 8) (size 9 to 14) (size 15 to 20)
#    0.462    2.077    0.769    1.615    0.000    4.308 
#    0.000    0.769    0.000    2.769    0.000    1.077 
#    0.000    0.000    0.000    0.000    0.000    0.000 
#
# Total GULP energy -644632.307429 kJ/mol
# GULP energy per Si atom -12396.775143 kJ/mol
# Density = 1.766437 g / cm^3
# Si number density = 17.704665 Si / 1000 Ang^3
#
#
#
# Elastic Constant Matrix: (Units=GPa)
#
#
# Indices 1 2 3 4 5 6 
#
# 1 72.9893 54.1897 46.8297 0.0000 0.0000 0.0000
# 2 54.1897 113.8581 60.4451 0.0000 0.0000 0.0000
# 3 46.8297 60.4451 135.6502 0.0000 0.0000 0.0000
# 4 0.0000 0.0000 0.0000 14.9353 0.0000 0.0000
# 5 0.0000 0.0000 0.0000 0.0000 20.8935 0.0000
# 6 0.0000 0.0000 0.0000 0.0000 0.0000 29.8153
#
#
#
# Elastic Compliance Matrix: (Units=1/GPa)
#
#
# Indices 1 2 3 4 5 6 
#
# 1 0.022702 -0.008703 -0.003959 0.000000 0.000000 0.000000
# 2 -0.008703 0.014841 -0.003608 0.000000 0.000000 0.000000
# 3 -0.003959 -0.003608 0.010347 0.000000 0.000000 0.000000
# 4 0.000000 0.000000 0.000000 0.066956 0.000000 0.000000
# 5 0.000000 0.000000 0.000000 0.000000 0.047862 0.000000
# 6 0.000000 0.000000 0.000000 0.000000 0.000000 0.033540
#
#
# Mechanical properties :
#
#
# Convention : Reuss Voigt Hill
#
# Bulk Modulus (GPa) = 65.15497 71.71407 68.43452
# Shear Modulus (GPa) = 21.37626 23.86436 22.62031
#
# Velocity S-wave (km/s) = 3.47851 3.67538 3.57830
# Velocity P-wave (km/s) = 7.28109 7.65538 7.47058
#
# Compressibility (1/GPa) = 0.01534802
#
# Stress axis : x y z
#
# Youngs Moduli (GPa) = 44.04829 67.38260 96.64940
#
# Poissons Ratio (x) = 0.58643 0.38267
# Poissons Ratio (y) = 0.38335 0.34875
# Poissons Ratio (z) = 0.17440 0.24315
#
# Static dielectric constant tensor:
#      x y z
#    x 3.129520 0.000000 0.000000 
#    y 0.000000 3.293060 0.000000 
#    z 0.000000 0.000000 3.303810 
# 
# 
# High freq. dielectric constant tensor:
#      x y z
#    x 1.664240 0.000000 0.000000 
#    y 0.000000 1.688600 0.000000 
#    z 0.000000 0.000000 1.684180 
# 
# From -- ./inp_files/21506.got.cif
#   From: 2010.03.12/outbox.cif.g09.slc.cpg/sg47_11_cif.got.tgz:21506.got - 2010.04.14 03:12:58.
