data_PCOD8197180
_publ_section_title
;
Structure prediction by ZEFSAII (Michael W. Deem and Ramdas Pophale) SiO2 
 PCOD8197180
Probable space group: P M M M
;
_chemical_formula_sum "Si O2"
_cell_formula_units_Z 52
_cell_length_a 8.757888
_cell_length_b 14.246652
_cell_length_c 20.755789
_cell_angle_alpha 90.000000
_cell_angle_beta 90.000000
_cell_angle_gamma 90.000000
_cell_volume 2589.711886
_symmetry_space_group_name_H-M "P M M M"
_symmetry_group_IT_number 47
_symmetry_cell_setting 'orthorhombic'
loop_
_space_group_symop_operation_xyz
x,y,z
-x,-y,z
x,-y,-z
-x,y,-z
-x,-y,-z
x,y,-z
-x,y,z
x,-y,z
loop_
_atom_site_type_symbol
_atom_site_label
_atom_site_fract_x
_atom_site_fract_y
_atom_site_fract_z
Si Si1 0.821765 0.219682 0.382363
Si Si2 0.680092 0.707881 0.928083
Si Si3 0.325839 0.108908 0.727781
Si Si4 0.320157 0.607669 0.676479
Si Si5 0.680634 0.898688 0.873007
Si Si6 0.319104 0.107827 0.500000
Si Si7 0.829053 0.610568 0.808689
O O1 0.789449 0.167238 0.315706
O O2 0.759347 0.326563 0.377125
O O3 0.737962 0.162658 0.437816
O O4 0.000000 0.222939 0.397504
O O5 0.500000 0.699740 0.916997
O O6 0.734975 0.816059 0.920161
O O7 0.761783 0.644046 0.876179
O O8 0.725484 0.674861 0.000000
O O9 0.500000 0.144867 0.717959
O O10 0.268102 0.125747 0.800452
O O11 0.316374 0.000000 0.708992
O O12 0.500000 0.617608 0.669971
O O13 0.267375 0.500000 0.664794
O O14 0.272018 0.643153 0.747849
O O15 0.500000 0.907840 0.873161
O O16 0.749806 0.000000 0.894724
O O17 0.500000 0.107900 0.500000
O O18 0.258363 0.000000 0.500000
O O19 0.829917 0.500000 0.812423
O O20 0.000000 0.650136 0.799462
#
# Coordination Sequence:
#
# PCOD8197180 Si02
#       7
#     8   8   8   8   8   4   8
#     4  12  24  37  58  88 122 156 189 232 284 335
#     4  10  20  32  49  75 105 141 186 231 276 334
#     4   9  17  31  53  79 107 144 191 238 283 336
#     4  10  21  39  64  90 115 146 186 232 281 336
#     4   8  15  29  49  73 101 134 176 227 277 324
#     4  11  25  45  66  87 118 163 209 244 274 319
#     4  10  21  37  57  81 109 141 179 228 287 343
#
# _framework density 20.079452
#
# number of rings (size 3 to 8) (size 9 to 14) (size 15 to 20)
#    0.000    2.077    0.000    4.846    0.000    6.769 
#    0.000    3.462    0.000    3.692    0.000    1.077 
#    0.000    0.000    0.000    0.000    0.000    0.000 
#
# Total GULP energy -644730.769309 kJ/mol
# GULP energy per Si atom -12398.668641 kJ/mol
# Density = 2.003375 g / cm^3
# Si number density = 20.079452 Si / 1000 Ang^3
#
#
#
# Elastic Constant Matrix: (Units=GPa)
#
#
# Indices 1 2 3 4 5 6 
#
# 1 77.5387 37.3387 33.4391 0.0000 0.0000 0.0000
# 2 37.3387 78.3063 54.3590 0.0000 0.0000 0.0000
# 3 33.4391 54.3590 80.1007 0.0000 0.0000 0.0000
# 4 0.0000 0.0000 0.0000 30.6186 0.0000 0.0000
# 5 0.0000 0.0000 0.0000 0.0000 -0.8331 0.0000
# 6 0.0000 0.0000 0.0000 0.0000 0.0000 21.5232
#
#
#
# Elastic Compliance Matrix: (Units=1/GPa)
#
#
# Indices 1 2 3 4 5 6 
#
# 1 0.017123 -0.006055 -0.003039 0.000000 0.000000 0.000000
# 2 -0.006055 0.026286 -0.015311 0.000000 0.000000 0.000000
# 3 -0.003039 -0.015311 0.024144 0.000000 0.000000 0.000000
# 4 0.000000 0.000000 0.000000 0.032660 0.000000 0.000000
# 5 0.000000 0.000000 0.000000 0.000000 -1.200274 0.000000
# 6 0.000000 0.000000 0.000000 0.000000 0.000000 0.046461
#
#
# Mechanical properties :
#
#
# Convention : Reuss Voigt Hill
#
# Bulk Modulus (GPa) = 53.35427 54.02439 53.68933
# Shear Modulus (GPa) = -5.00730 17.64900 6.32085
#
# Velocity S-wave (km/s) = -1.58087 2.96794 1.77616
# Velocity P-wave (km/s) = 4.82670 6.22162 5.56802
#
# Compressibility (1/GPa) = 0.01874264
#
# Stress axis : x y z
#
# Youngs Moduli (GPa) = 58.39995 38.04265 41.41897
#
# Poissons Ratio (x) = 0.23036 0.12588
# Poissons Ratio (y) = 0.35362 0.63416
# Poissons Ratio (z) = 0.17748 0.58247
#
# Static dielectric constant tensor:
#      x y z
#    x 3.481800 0.000000 0.000000 
#    y 0.000000 4.548760 0.000000 
#    z 0.000000 0.000000 3.680440 
# 
# 
# High freq. dielectric constant tensor:
#      x y z
#    x 1.763270 0.000000 0.000000 
#    y 0.000000 1.797870 0.000000 
#    z 0.000000 0.000000 1.773510 
# 
# From -- ./inp_files/29546.got.cif
#   From: 2010.03.12/outbox.cif.g09.slc.cpg/sg47_15_cif.got.tgz:29546.got - 2010.04.14 03:12:58.
