data_PCOD8197358
_publ_section_title
;
Structure prediction by ZEFSAII (Michael W. Deem and Ramdas Pophale) SiO2 
 PCOD8197358
Probable space group: P M M M
;
_chemical_formula_sum "Si O2"
_cell_formula_units_Z 64
_cell_length_a 23.011073
_cell_length_b 8.768725
_cell_length_c 18.263331
_cell_angle_alpha 90.000000
_cell_angle_beta 90.000000
_cell_angle_gamma 90.000000
_cell_volume 3685.134222
_symmetry_space_group_name_H-M "P M M M"
_symmetry_group_IT_number 47
_symmetry_cell_setting 'orthorhombic'
loop_
_space_group_symop_operation_xyz
x,y,z
-x,-y,z
x,-y,-z
-x,y,-z
-x,-y,-z
x,y,-z
-x,y,z
x,-y,z
loop_
_atom_site_type_symbol
_atom_site_label
_atom_site_fract_x
_atom_site_fract_y
_atom_site_fract_z
Si Si1 0.828184 0.323445 0.334346
Si Si2 0.815119 0.674134 0.916848
Si Si3 0.935595 0.829953 0.710125
Si Si4 0.257132 0.170212 0.582550
Si Si5 0.252910 0.819019 0.787862
Si Si6 0.657641 0.322538 0.312681
Si Si7 0.431961 0.823729 0.582633
Si Si8 0.064541 0.175293 0.882238
O O1 0.812453 0.500000 0.335380
O O2 0.896690 0.298136 0.328281
O O3 0.807806 0.237218 0.408612
O O4 0.796205 0.240896 0.267039
O O5 0.815110 0.500000 0.889772
O O6 0.767957 0.764788 0.867997
O O7 0.881942 0.730810 0.915006
O O8 0.792929 0.689165 0.000000
O O9 0.934432 0.803686 0.795998
O O10 0.000000 0.807997 0.678808
O O11 0.912651 0.000000 0.691934
O O12 0.277386 0.164276 0.500000
O O13 0.295780 0.293009 0.624185
O O14 0.262791 0.000000 0.616832
O O15 0.317006 0.756162 0.762058
O O16 0.255626 0.000000 0.788212
O O17 0.649646 0.500000 0.296198
O O18 0.598004 0.258647 0.347835
O O19 0.415023 0.763360 0.500000
O O20 0.500000 0.800918 0.594395
O O21 0.413826 0.000000 0.586597
O O22 0.000000 0.229162 0.910627
O O23 0.073756 0.000000 0.904594
#
# Coordination Sequence:
#
# PCOD8197358 Si02
#       8
#     8   8   8   8   8   8   8   8
#     4  11  20  30  48  71  94 117 146 191 246 292
#     4  11  23  36  50  71 100 129 158 200 256 309
#     4   9  17  30  48  68  89 115 149 189 232 284
#     4  10  20  33  49  68  92 125 163 198 236 286
#     4  11  21  35  53  70  93 126 168 207 241 291
#     4  11  21  32  50  75 104 135 168 210 254 289
#     4   9  18  33  52  75 108 150 189 218 245 284
#     4   9  18  32  50  70  92 123 161 198 237 291
#
# _framework density 17.367075
#
# number of rings (size 3 to 8) (size 9 to 14) (size 15 to 20)
#    0.000    1.875    1.250    7.125    0.000    4.750 
#    0.000    3.125    0.000    0.375    0.000    2.625 
#    0.000    0.500    0.000    5.250    0.000    2.250 
#
# Total GULP energy -792926.865187 kJ/mol
# GULP energy per Si atom -12389.482269 kJ/mol
# Density = 1.732755 g / cm^3
# Si number density = 17.367075 Si / 1000 Ang^3
#
#
#
# Elastic Constant Matrix: (Units=GPa)
#
#
# Indices 1 2 3 4 5 6 
#
# 1 76.3324 37.4395 34.6145 0.0000 0.0000 0.0000
# 2 37.4395 106.0477 32.7419 0.0000 0.0000 0.0000
# 3 34.6145 32.7419 57.3029 0.0000 0.0000 0.0000
# 4 0.0000 0.0000 0.0000 22.5536 0.0000 0.0000
# 5 0.0000 0.0000 0.0000 0.0000 26.2644 0.0000
# 6 0.0000 0.0000 0.0000 0.0000 0.0000 23.8484
#
#
#
# Elastic Compliance Matrix: (Units=1/GPa)
#
#
# Indices 1 2 3 4 5 6 
#
# 1 0.019286 -0.003900 -0.009421 0.000000 0.000000 0.000000
# 2 -0.003900 0.012238 -0.004637 0.000000 0.000000 0.000000
# 3 -0.009421 -0.004637 0.025792 0.000000 0.000000 0.000000
# 4 0.000000 0.000000 0.000000 0.044339 0.000000 0.000000
# 5 0.000000 0.000000 0.000000 0.000000 0.038074 0.000000
# 6 0.000000 0.000000 0.000000 0.000000 0.000000 0.041932
#
#
# Mechanical properties :
#
#
# Convention : Reuss Voigt Hill
#
# Bulk Modulus (GPa) = 46.73084 49.91941 48.32513
# Shear Modulus (GPa) = 22.25089 23.52574 22.88832
#
# Velocity S-wave (km/s) = 3.58328 3.68451 3.63425
# Velocity P-wave (km/s) = 6.63973 6.84886 6.74511
#
# Compressibility (1/GPa) = 0.02139914
#
# Stress axis : x y z
#
# Youngs Moduli (GPa) = 51.85170 81.71147 38.77212
#
# Poissons Ratio (x) = 0.31866 0.36529
# Poissons Ratio (y) = 0.20222 0.17978
# Poissons Ratio (z) = 0.48852 0.37889
#
# Static dielectric constant tensor:
#      x y z
#    x 3.838170 0.000000 0.000000 
#    y 0.000000 3.308430 0.000000 
#    z 0.000000 0.000000 3.278690 
# 
# 
# High freq. dielectric constant tensor:
#      x y z
#    x 1.655430 0.000000 0.000000 
#    y 0.000000 1.677900 0.000000 
#    z 0.000000 0.000000 1.642800 
# 
# From -- ./inp_files/31568.got.cif
#   From: 2010.03.12/outbox.cif.g09.slc.cpg/sg47_16_cif.got.tgz:31568.got - 2010.04.14 03:12:58.
