data_PCOD8197422
_publ_section_title
;
Structure prediction by ZEFSAII (Michael W. Deem and Ramdas Pophale) SiO2 
 PCOD8197422
Probable space group: P M M M
;
_chemical_formula_sum "Si O2"
_cell_formula_units_Z 44
_cell_length_a 28.391304
_cell_length_b 9.447156
_cell_length_c 9.104156
_cell_angle_alpha 90.000000
_cell_angle_beta 90.000000
_cell_angle_gamma 90.000000
_cell_volume 2441.890119
_symmetry_space_group_name_H-M "P M M M"
_symmetry_group_IT_number 47
_symmetry_cell_setting 'orthorhombic'
loop_
_space_group_symop_operation_xyz
x,y,z
-x,-y,z
x,-y,-z
-x,y,-z
-x,-y,-z
x,y,-z
-x,y,z
x,-y,z
loop_
_atom_site_type_symbol
_atom_site_label
_atom_site_fract_x
_atom_site_fract_y
_atom_site_fract_z
Si Si1 0.898041 0.832643 0.171976
Si Si2 0.000000 0.835135 0.830226
Si Si3 0.445730 0.163979 0.832460
Si Si4 0.276277 0.668304 0.165791
Si Si5 0.368550 0.664624 0.329361
Si Si6 0.816747 0.664480 0.328070
O O1 0.860622 0.751016 0.268605
O O2 0.949795 0.777857 0.230805
O O3 0.892527 0.000000 0.197031
O O4 0.891336 0.796498 0.000000
O O5 0.000000 0.000000 0.801896
O O6 0.000000 0.800185 0.000000
O O7 0.500000 0.197134 0.798084
O O8 0.415071 0.255709 0.722060
O O9 0.434735 0.000000 0.805371
O O10 0.433749 0.205519 0.000000
O O11 0.276921 0.500000 0.169919
O O12 0.323159 0.726450 0.244370
O O13 0.230296 0.723779 0.250740
O O14 0.274936 0.726686 0.000000
O O15 0.360137 0.692373 0.500000
O O16 0.375776 0.500000 0.294614
O O17 0.811127 0.690380 0.500000
O O18 0.824696 0.500000 0.290980
#
# Coordination Sequence:
#
# PCOD8197422 Si02
#       6
#     8   4   8   8   8   8
#     4   9  17  31  52  75  97 124 162 206 248 290
#     4   7  12  26  48  71  94 122 158 201 246 289
#     4   9  19  36  55  74  99 133 171 208 246 289
#     4   9  17  31  52  74  96 127 166 204 243 289
#     4  10  20  33  51  77 106 132 161 201 247 294
#     4  10  20  33  49  71 101 134 164 197 242 294
#
# _framework density 18.018829
#
# number of rings (size 3 to 8) (size 9 to 14) (size 15 to 20)
#    0.000    2.818    0.000    3.273    0.000    5.818 
#    0.000    4.545    0.000    9.818    0.000    0.000 
#    0.000    0.000    0.000    0.000    0.000    0.000 
#
# Total GULP energy -545394.906840 kJ/mol
# GULP energy per Si atom -12395.338792 kJ/mol
# Density = 1.797782 g / cm^3
# Si number density = 18.018829 Si / 1000 Ang^3
#
#
#
# Elastic Constant Matrix: (Units=GPa)
#
#
# Indices 1 2 3 4 5 6 
#
# 1 155.8266 48.7454 72.4664 0.0000 0.0000 0.0000
# 2 48.7454 39.9057 39.1604 0.0000 0.0000 0.0000
# 3 72.4664 39.1604 99.6992 0.0000 0.0000 0.0000
# 4 0.0000 0.0000 0.0000 26.1510 0.0000 0.0000
# 5 0.0000 0.0000 0.0000 0.0000 17.1200 0.0000
# 6 0.0000 0.0000 0.0000 0.0000 0.0000 44.4454
#
#
#
# Elastic Compliance Matrix: (Units=1/GPa)
#
#
# Indices 1 2 3 4 5 6 
#
# 1 0.011577 -0.009574 -0.004654 0.000000 0.000000 0.000000
# 2 -0.009574 0.048694 -0.012168 0.000000 0.000000 0.000000
# 3 -0.004654 -0.012168 0.018192 0.000000 0.000000 0.000000
# 4 0.000000 0.000000 0.000000 0.038239 0.000000 0.000000
# 5 0.000000 0.000000 0.000000 0.000000 0.058411 0.000000
# 6 0.000000 0.000000 0.000000 0.000000 0.000000 0.022500
#
#
# Mechanical properties :
#
#
# Convention : Reuss Voigt Hill
#
# Bulk Modulus (GPa) = 38.95299 68.46401 53.70850
# Shear Modulus (GPa) = 19.30791 26.54722 22.92757
#
# Velocity S-wave (km/s) = 3.27699 3.84253 3.57097
# Velocity P-wave (km/s) = 5.99859 7.60033 6.84646
#
# Compressibility (1/GPa) = 0.02567197
#
# Stress axis : x y z
#
# Youngs Moduli (GPa) = 86.38117 20.53637 54.96885
#
# Poissons Ratio (x) = 0.19661 0.25582
# Poissons Ratio (y) = 0.82701 0.66883
# Poissons Ratio (z) = 0.40201 0.24988
#
# Static dielectric constant tensor:
#      x y z
#    x 3.619660 0.000000 0.000000 
#    y 0.000000 2.966080 0.000000 
#    z 0.000000 0.000000 3.271960 
# 
# 
# High freq. dielectric constant tensor:
#      x y z
#    x 1.718570 0.000000 0.000000 
#    y 0.000000 1.659860 0.000000 
#    z 0.000000 0.000000 1.693640 
# 
# From -- ./inp_files/2028.got.cif
#   From: 2010.03.12/outbox.cif.g09.slc.cpg/sg47_2_cif.got.tgz:2028.got - 2010.04.14 03:12:58.
