data_PCOD8197622
_publ_section_title
;
Structure prediction by ZEFSAII (Michael W. Deem and Ramdas Pophale) SiO2 
 PCOD8197622
Probable space group: P M M M
;
_chemical_formula_sum "Si O2"
_cell_formula_units_Z 52
_cell_length_a 28.094244
_cell_length_b 8.807324
_cell_length_c 11.709087
_cell_angle_alpha 90.000000
_cell_angle_beta 90.000000
_cell_angle_gamma 90.000000
_cell_volume 2897.239223
_symmetry_space_group_name_H-M "P M M M"
_symmetry_group_IT_number 47
_symmetry_cell_setting 'orthorhombic'
loop_
_space_group_symop_operation_xyz
x,y,z
-x,-y,z
x,-y,-z
-x,y,-z
-x,-y,-z
x,y,-z
-x,y,z
x,-y,z
loop_
_atom_site_type_symbol
_atom_site_label
_atom_site_fract_x
_atom_site_fract_y
_atom_site_fract_z
Si Si1 0.945455 0.174503 0.778879
Si Si2 0.868762 0.323128 0.631251
Si Si3 0.801478 0.820779 0.000000
Si Si4 0.094775 0.321527 0.000000
Si Si5 0.594965 0.670629 0.635754
Si Si6 0.500000 0.828662 0.363694
Si Si7 0.224546 0.321698 0.230234
Si Si8 0.308661 0.174771 0.365378
O O1 0.914020 0.227467 0.672123
O O2 0.000000 0.197204 0.742866
O O3 0.934234 0.000000 0.808583
O O4 0.934792 0.275512 0.889167
O O5 0.858468 0.284072 0.500000
O O6 0.879830 0.500000 0.648933
O O7 0.823112 0.271999 0.703671
O O8 0.772882 0.764632 0.110414
O O9 0.854394 0.756735 0.000000
O O10 0.803825 0.000000 0.000000
O O11 0.103382 0.500000 0.000000
O O12 0.592725 0.668808 0.500000
O O13 0.599782 0.500000 0.683763
O O14 0.546722 0.744611 0.684722
O O15 0.639699 0.769893 0.677242
O O16 0.500000 0.826756 0.500000
O O17 0.500000 0.000000 0.317488
O O18 0.225072 0.500000 0.207597
O O19 0.269498 0.277383 0.305480
O O20 0.303238 0.198929 0.500000
O O21 0.302078 0.000000 0.330684
#
# Coordination Sequence:
#
# PCOD8197622 Si02
#       8
#     8   8   4   4   8   4   8   8
#     4  11  24  40  59  84 112 142 176 217 264 312
#     4  10  22  39  59  82 109 143 180 216 257 311
#     4  12  24  39  61  86 110 136 169 214 265 314
#     4  12  23  39  62  87 110 138 173 213 263 316
#     4   9  16  26  41  63  94 135 181 225 268 316
#     4   9  15  23  37  59  91 132 177 224 271 319
#     4  11  22  38  59  82 107 139 177 217 264 317
#     4  10  20  33  50  75 108 145 183 223 268 317
#
# _framework density 17.948121
#
# number of rings (size 3 to 8) (size 9 to 14) (size 15 to 20)
#    0.000    1.615    1.538    4.154    0.000    7.692 
#    0.000    1.538    0.000    0.000    0.000    0.000 
#    0.000    0.615    0.000    6.154    0.000    5.538 
#
# Total GULP energy -645037.371079 kJ/mol
# GULP energy per Si atom -12404.564828 kJ/mol
# Density = 1.790727 g / cm^3
# Si number density = 17.948121 Si / 1000 Ang^3
#
#
#
# Elastic Constant Matrix: (Units=GPa)
#
#
# Indices 1 2 3 4 5 6 
#
# 1 120.1014 48.7313 31.6333 0.0000 0.0000 0.0000
# 2 48.7313 110.1732 39.6486 0.0000 0.0000 0.0000
# 3 31.6333 39.6486 69.7443 0.0000 0.0000 0.0000
# 4 0.0000 0.0000 0.0000 25.1711 0.0000 0.0000
# 5 0.0000 0.0000 0.0000 0.0000 -20.7924 0.0000
# 6 0.0000 0.0000 0.0000 0.0000 0.0000 36.3575
#
#
#
# Elastic Compliance Matrix: (Units=1/GPa)
#
#
# Indices 1 2 3 4 5 6 
#
# 1 0.010530 -0.003695 -0.002676 0.000000 0.000000 0.000000
# 2 -0.003695 0.012708 -0.005548 0.000000 0.000000 0.000000
# 3 -0.002676 -0.005548 0.018706 0.000000 0.000000 0.000000
# 4 0.000000 0.000000 0.000000 0.039728 0.000000 0.000000
# 5 0.000000 0.000000 0.000000 0.000000 -0.048094 0.000000
# 6 0.000000 0.000000 0.000000 0.000000 0.000000 0.027505
#
#
# Mechanical properties :
#
#
# Convention : Reuss Voigt Hill
#
# Bulk Modulus (GPa) = 55.22990 60.00505 57.61747
# Shear Modulus (GPa) = 54.97259 20.14763 37.56011
#
# Velocity S-wave (km/s) = 5.54032 3.35408 4.57957
# Velocity P-wave (km/s) = 8.47146 6.96454 7.75469
#
# Compressibility (1/GPa) = 0.01810614
#
# Stress axis : x y z
#
# Youngs Moduli (GPa) = 94.96509 78.69345 53.45949
#
# Poissons Ratio (x) = 0.29075 0.14304
# Poissons Ratio (y) = 0.35087 0.29661
# Poissons Ratio (z) = 0.25410 0.43661
#
# Static dielectric constant tensor:
#      x y z
#    x 3.421880 0.000000 0.000000 
#    y 0.000000 3.514820 0.000000 
#    z 0.000000 0.000000 3.098210 
# 
# 
# High freq. dielectric constant tensor:
#      x y z
#    x 1.701900 0.000000 0.000000 
#    y 0.000000 1.711900 0.000000 
#    z 0.000000 0.000000 1.657300 
# 
# From -- ./inp_files/19873.got.cif
#   From: 2010.03.12/outbox.cif.g09.slc.cpg/sg47_10_cif.got.tgz:19873.got - 2010.04.14 03:12:58.
