data_PCOD8197628
_publ_section_title
;
Structure prediction by ZEFSAII (Michael W. Deem and Ramdas Pophale) SiO2 
 PCOD8197628
Probable space group: P M M M
;
_chemical_formula_sum "Si O2"
_cell_formula_units_Z 52
_cell_length_a 9.731423
_cell_length_b 15.852833
_cell_length_c 18.515278
_cell_angle_alpha 90.000000
_cell_angle_beta 90.000000
_cell_angle_gamma 90.000000
_cell_volume 2856.363485
_symmetry_space_group_name_H-M "P M M M"
_symmetry_group_IT_number 47
_symmetry_cell_setting 'orthorhombic'
loop_
_space_group_symop_operation_xyz
x,y,z
-x,-y,z
x,-y,-z
-x,y,-z
-x,-y,-z
x,y,-z
-x,y,z
x,-y,z
loop_
_atom_site_type_symbol
_atom_site_label
_atom_site_fract_x
_atom_site_fract_y
_atom_site_fract_z
Si Si1 0.847497 0.356164 0.917254
Si Si2 0.154312 0.805038 0.820324
Si Si3 0.162967 0.593684 0.418163
Si Si4 0.837143 0.763113 0.341150
Si Si5 0.347280 0.099241 0.079716
Si Si6 0.344341 0.904582 0.414655
Si Si7 0.653705 0.500000 0.913723
O O1 0.836074 0.270827 0.875084
O O2 0.734740 0.419036 0.884334
O O3 0.000000 0.396022 0.909073
O O4 0.814274 0.336047 0.000000
O O5 0.202983 0.772534 0.742473
O O6 0.251814 0.876116 0.853087
O O7 0.000000 0.841583 0.815621
O O8 0.214628 0.609807 0.500000
O O9 0.215079 0.500000 0.392027
O O10 0.216569 0.670855 0.368085
O O11 0.000000 0.593207 0.416329
O O12 0.762549 0.838422 0.382561
O O13 0.000000 0.771684 0.354562
O O14 0.500000 0.137283 0.091836
O O15 0.355829 0.000000 0.080456
O O16 0.292650 0.128789 0.000000
O O17 0.333830 0.898751 0.500000
O O18 0.500000 0.883066 0.389634
O O19 0.306388 0.000000 0.389388
O O20 0.500000 0.500000 0.882386
O O21 0.655213 0.500000 0.000000
#
# Coordination Sequence:
#
# PCOD8197628 Si02
#       7
#     8   8   8   8   8   8   4
#     4   9  17  31  49  67  92 128 167 204 245 298
#     4  10  21  34  48  74 107 136 168 206 254 311
#     4   8  14  27  49  75 101 131 169 212 256 302
#     4  10  20  33  50  78 111 138 171 214 261 311
#     4   9  19  36  56  76  97 127 173 222 263 308
#     4   9  19  36  56  77 102 136 177 214 252 306
#     4   9  17  29  47  71  93 115 154 207 254 293
#
# _framework density 18.204965999999999
#
# number of rings (size 3 to 8) (size 9 to 14) (size 15 to 20)
#    0.000    2.846    0.000    2.538    0.000    5.231 
#    1.385    6.154    0.000    0.462    0.000    2.154 
#    0.000    0.000    0.000    0.000    0.000    0.000 
#
# Total GULP energy -644410.027057 kJ/mol
# GULP energy per Si atom -12392.500520 kJ/mol
# Density = 1.816353 g / cm^3
# Si number density = 18.204966 Si / 1000 Ang^3
#
#
#
# Elastic Constant Matrix: (Units=GPa)
#
#
# Indices 1 2 3 4 5 6 
#
# 1 68.4493 44.5416 35.2059 0.0000 0.0000 0.0000
# 2 44.5416 104.9095 50.3664 0.0000 0.0000 0.0000
# 3 35.2059 50.3664 85.7852 0.0000 0.0000 0.0000
# 4 0.0000 0.0000 0.0000 223.2866 0.0000 0.0000
# 5 0.0000 0.0000 0.0000 0.0000 15.9777 0.0000
# 6 0.0000 0.0000 0.0000 0.0000 0.0000 -116.4179
#
#
#
# Elastic Compliance Matrix: (Units=1/GPa)
#
#
# Indices 1 2 3 4 5 6 
#
# 1 0.021535 -0.006823 -0.004832 0.000000 0.000000 0.000000
# 2 -0.006823 0.015436 -0.006262 0.000000 0.000000 0.000000
# 3 -0.004832 -0.006262 0.017317 0.000000 0.000000 0.000000
# 4 0.000000 0.000000 0.000000 0.004479 0.000000 0.000000
# 5 0.000000 0.000000 0.000000 0.000000 0.062587 0.000000
# 6 0.000000 0.000000 0.000000 0.000000 0.000000 -0.008590
#
#
# Mechanical properties :
#
#
# Convention : Reuss Voigt Hill
#
# Bulk Modulus (GPa) = 54.19377 57.70799 55.95088
# Shear Modulus (GPa) = 32.31062 33.17126 32.74094
#
# Velocity S-wave (km/s) = 4.21744 4.27324 4.24543
# Velocity P-wave (km/s) = 7.31772 7.49101 7.40487
#
# Compressibility (1/GPa) = 0.01845231
#
# Stress axis : x y z
#
# Youngs Moduli (GPa) = 46.43708 64.78565 57.74815
#
# Poissons Ratio (x) = 0.44206 0.27901
# Poissons Ratio (y) = 0.31686 0.36163
# Poissons Ratio (z) = 0.22436 0.40570
#
# Static dielectric constant tensor:
#      x y z
#    x 3.466640 0.000000 0.000000 
#    y 0.000000 3.490860 0.000000 
#    z 0.000000 0.000000 3.491390 
# 
# 
# High freq. dielectric constant tensor:
#      x y z
#    x 1.686420 0.000000 0.000000 
#    y 0.000000 1.709170 0.000000 
#    z 0.000000 0.000000 1.692490 
# 
# From -- ./inp_files/29569.got.cif
#   From: 2010.03.12/outbox.cif.g09.slc.cpg/sg47_15_cif.got.tgz:29569.got - 2010.04.14 03:12:58.
