data_PCOD8197155
_publ_section_title
;
Structure prediction by ZEFSAII (Michael W. Deem and Ramdas Pophale) SiO2 
 PCOD8197155
Probable space group: P M M M
;
_chemical_formula_sum "Si O2"
_cell_formula_units_Z 52
_cell_length_a 9.183858
_cell_length_b 9.383321
_cell_length_c 33.557565
_cell_angle_alpha 90.000000
_cell_angle_beta 90.000000
_cell_angle_gamma 90.000000
_cell_volume 2891.826105
_symmetry_space_group_name_H-M "P M M M"
_symmetry_group_IT_number 47
_symmetry_cell_setting 'orthorhombic'
loop_
_space_group_symop_operation_xyz
x,y,z
-x,-y,z
x,-y,-z
-x,y,-z
-x,-y,-z
x,y,-z
-x,y,z
x,-y,z
loop_
_atom_site_type_symbol
_atom_site_label
_atom_site_fract_x
_atom_site_fract_y
_atom_site_fract_z
Si Si1 0.163240 0.830771 0.043897
Si Si2 0.335221 0.170069 0.500000
Si Si3 0.170604 0.334920 0.811409
Si Si4 0.332296 0.334821 0.731849
Si Si5 0.331313 0.165941 0.345445
Si Si6 0.164464 0.830270 0.576848
Si Si7 0.333121 0.831037 0.120090
O O1 0.273079 0.774185 0.077609
O O2 0.000000 0.775404 0.053316
O O3 0.163535 0.000000 0.043812
O O4 0.212766 0.775679 0.000000
O O5 0.500000 0.228327 0.500000
O O6 0.252752 0.229464 0.461047
O O7 0.334936 0.000000 0.500000
O O8 0.206731 0.500000 0.819674
O O9 0.236977 0.286096 0.769347
O O10 0.241091 0.240592 0.845438
O O11 0.000000 0.305233 0.810445
O O12 0.500000 0.299553 0.741596
O O13 0.309426 0.500000 0.722128
O O14 0.276967 0.247548 0.693734
O O15 0.500000 0.197174 0.354297
O O16 0.240429 0.224893 0.382870
O O17 0.302357 0.000000 0.338262
O O18 0.000000 0.771714 0.575124
O O19 0.166339 0.000000 0.575974
O O20 0.500000 0.783550 0.123654
O O21 0.315122 0.000000 0.123858
#
# Coordination Sequence:
#
# PCOD8197155 Si02
#       7
#     8   4   8   8   8   8   8
#     4   8  14  26  45  69  98 131 163 195 234 280
#     4   9  15  23  37  57  84 119 154 185 220 266
#     4  10  21  36  53  72  95 126 163 201 243 291
#     4   9  18  33  51  69  91 121 156 193 234 282
#     4   9  17  29  45  66  92 120 150 186 228 273
#     4   9  16  25  38  59  88 119 150 185 225 268
#     4  10  20  32  49  75 103 130 162 200 241 285
#
# _framework density 17.981717
#
# number of rings (size 3 to 8) (size 9 to 14) (size 15 to 20)
#    0.000    2.846    0.000    2.077    0.000    6.154 
#    0.000    3.077    0.000    0.462    0.000    3.769 
#    0.000    4.308    0.000    0.000    0.000    0.000 
#
# Total GULP energy -644761.065040 kJ/mol
# GULP energy per Si atom -12399.251251 kJ/mol
# Density = 1.794079 g / cm^3
# Si number density = 17.981717 Si / 1000 Ang^3
#
#
#
# Elastic Constant Matrix: (Units=GPa)
#
#
# Indices 1 2 3 4 5 6 
#
# 1 121.0452 27.0953 92.6579 0.0000 0.0000 0.0000
# 2 27.0953 22.9630 39.9494 0.0000 0.0000 0.0000
# 3 92.6579 39.9494 181.9956 0.0000 0.0000 0.0000
# 4 0.0000 0.0000 0.0000 -4.2155 0.0000 0.0000
# 5 0.0000 0.0000 0.0000 0.0000 36.9783 0.0000
# 6 0.0000 0.0000 0.0000 0.0000 0.0000 16.9053
#
#
#
# Elastic Compliance Matrix: (Units=1/GPa)
#
#
# Indices 1 2 3 4 5 6 
#
# 1 0.014153 -0.006737 -0.005727 0.000000 0.000000 0.000000
# 2 -0.006737 0.073660 -0.012739 0.000000 0.000000 0.000000
# 3 -0.005727 -0.012739 0.011207 0.000000 0.000000 0.000000
# 4 0.000000 0.000000 0.000000 -0.237222 0.000000 0.000000
# 5 0.000000 0.000000 0.000000 0.000000 0.027043 0.000000
# 6 0.000000 0.000000 0.000000 0.000000 0.000000 0.059153
#
#
# Mechanical properties :
#
#
# Convention : Reuss Voigt Hill
#
# Bulk Modulus (GPa) = 20.57009 71.71211 46.14110
# Shear Modulus (GPa) = 342.35221 21.02036 181.68629
#
# Velocity S-wave (km/s) = 13.81312 3.42275 10.06274
# Velocity P-wave (km/s) = 16.30544 7.45570 12.67783
#
# Compressibility (1/GPa) = 0.04861427
#
# Stress axis : x y z
#
# Youngs Moduli (GPa) = 70.65502 13.57586 89.23268
#
# Poissons Ratio (x) = 0.09146 0.51103
# Poissons Ratio (y) = 0.47600 1.13674
# Poissons Ratio (z) = 0.40464 0.17294
#
# Static dielectric constant tensor:
#      x y z
#    x 3.462340 0.000000 0.000000 
#    y 0.000000 2.866690 0.000000 
#    z 0.000000 0.000000 3.615650 
# 
# 
# High freq. dielectric constant tensor:
#      x y z
#    x 1.702500 0.000000 0.000000 
#    y 0.000000 1.642650 0.000000 
#    z 0.000000 0.000000 1.712880 
# 
# From -- ./inp_files/33249.got.cif
#   From: 2010.03.12/outbox.cif.g09.slc.cpg/sg47_17_cif.got.tgz:33249.got - 2010.04.14 03:12:58.
