data_PCOD8197152
_publ_section_title
;
Structure prediction by ZEFSAII (Michael W. Deem and Ramdas Pophale) SiO2 
 PCOD8197152
Probable space group: P M M M
;
_chemical_formula_sum "Si O2"
_cell_formula_units_Z 48
_cell_length_a 9.316798
_cell_length_b 31.006186
_cell_length_c 9.328595
_cell_angle_alpha 90.000000
_cell_angle_beta 90.000000
_cell_angle_gamma 90.000000
_cell_volume 2694.829334
_symmetry_space_group_name_H-M "P M M M"
_symmetry_group_IT_number 47
_symmetry_cell_setting 'orthorhombic'
loop_
_space_group_symop_operation_xyz
x,y,z
-x,-y,z
x,-y,-z
-x,y,-z
-x,-y,-z
x,y,-z
-x,y,z
x,-y,z
loop_
_atom_site_type_symbol
_atom_site_label
_atom_site_fract_x
_atom_site_fract_y
_atom_site_fract_z
Si Si1 0.664768 0.128928 0.670192
Si Si2 0.664825 0.287984 0.833309
Si Si3 0.160712 0.047641 0.329808
Si Si4 0.167637 0.797270 0.167101
Si Si5 0.161855 0.452777 0.670399
Si Si6 0.332846 0.371642 0.334065
O O1 0.679394 0.133159 0.500000
O O2 0.500000 0.132138 0.719659
O O3 0.727464 0.083267 0.726463
O O4 0.756485 0.166261 0.741180
O O5 0.500000 0.277286 0.792462
O O6 0.763231 0.248064 0.787299
O O7 0.722644 0.329463 0.748301
O O8 0.680217 0.298388 0.000000
O O9 0.160674 0.047395 0.500000
O O10 0.000000 0.058787 0.274510
O O11 0.206644 0.000000 0.273701
O O12 0.000000 0.796178 0.204597
O O13 0.194786 0.806606 0.000000
O O14 0.169197 0.452010 0.500000
O O15 0.216325 0.500000 0.724248
O O16 0.258458 0.414178 0.732621
O O17 0.000000 0.445243 0.723606
O O18 0.293503 0.365360 0.500000
O O19 0.500000 0.378252 0.309152
#
# Coordination Sequence:
#
# PCOD8197152 Si02
#       6
#     8   8   8   8   8   8
#     4  10  20  32  49  75 103 130 161 198 240 284
#     4   9  18  33  50  66  89 122 154 185 229 284
#     4   8  14  26  45  69  98 131 163 195 234 280
#     4  10  21  36  53  72  94 124 163 202 241 288
#     4   8  14  25  41  62  89 119 148 179 219 267
#     4   9  17  28  44  68  93 115 145 187 228 265
#
# _framework density 17.811889000000001
#
# number of rings (size 3 to 8) (size 9 to 14) (size 15 to 20)
#    0.000    3.000    0.000    2.000    0.000    4.000 
#    0.000    5.000    0.000    1.000    0.000    7.000 
#    0.000    0.000    0.000    0.000    0.000    0.000 
#
# Total GULP energy -595035.547885 kJ/mol
# GULP energy per Si atom -12396.573914 kJ/mol
# Density = 1.777135 g / cm^3
# Si number density = 17.811889 Si / 1000 Ang^3
#
#
#
# Elastic Constant Matrix: (Units=GPa)
#
#
# Indices 1 2 3 4 5 6 
#
# 1 107.8068 93.5254 30.2421 0.0000 0.0000 0.0000
# 2 93.5254 184.9617 44.0728 0.0000 0.0000 0.0000
# 3 30.2421 44.0728 25.2378 0.0000 0.0000 0.0000
# 4 0.0000 0.0000 0.0000 -4.9194 0.0000 0.0000
# 5 0.0000 0.0000 0.0000 0.0000 18.3921 0.0000
# 6 0.0000 0.0000 0.0000 0.0000 0.0000 41.4648
#
#
#
# Elastic Compliance Matrix: (Units=1/GPa)
#
#
# Indices 1 2 3 4 5 6 
#
# 1 0.017787 -0.006706 -0.009604 0.000000 0.000000 0.000000
# 2 -0.006706 0.011787 -0.012549 0.000000 0.000000 0.000000
# 3 -0.009604 -0.012549 0.073047 0.000000 0.000000 0.000000
# 4 0.000000 0.000000 0.000000 -0.203279 0.000000 0.000000
# 5 0.000000 0.000000 0.000000 0.000000 0.054371 0.000000
# 6 0.000000 0.000000 0.000000 0.000000 0.000000 0.024117
#
#
# Mechanical properties :
#
#
# Convention : Reuss Voigt Hill
#
# Bulk Modulus (GPa) = 22.27018 72.63186 47.45102
# Shear Modulus (GPa) = 98.97777 20.99857 59.98817
#
# Velocity S-wave (km/s) = 7.46251 3.43725 5.80963
# Velocity P-wave (km/s) = 9.31569 7.52453 8.46761
#
# Compressibility (1/GPa) = 0.04490309
#
# Stress axis : x y z
#
# Youngs Moduli (GPa) = 56.21965 84.83624 13.68991
#
# Poissons Ratio (x) = 0.56888 0.13148
# Poissons Ratio (y) = 0.37699 0.17180
# Poissons Ratio (z) = 0.53995 1.06462
#
# Static dielectric constant tensor:
#      x y z
#    x 3.407380 0.000000 0.000000 
#    y 0.000000 3.718800 0.000000 
#    z 0.000000 0.000000 2.915700 
# 
# 
# High freq. dielectric constant tensor:
#      x y z
#    x 1.689620 0.000000 0.000000 
#    y 0.000000 1.706220 0.000000 
#    z 0.000000 0.000000 1.643420 
# 
# From -- ./inp_files/2443.got.cif
#   From: 2010.03.12/outbox.cif.g09.slc.cpg/sg47_2_cif.got.tgz:2443.got - 2010.04.14 03:12:58.
