data_PCOD8197586
_publ_section_title
;
Structure prediction by ZEFSAII (Michael W. Deem and Ramdas Pophale) SiO2 
 PCOD8197586
Probable space group: P M M M
;
_chemical_formula_sum "Si O2"
_cell_formula_units_Z 48
_cell_length_a 9.232314
_cell_length_b 31.040849
_cell_length_c 8.957827
_cell_angle_alpha 90.000000
_cell_angle_beta 90.000000
_cell_angle_gamma 90.000000
_cell_volume 2567.123893
_symmetry_space_group_name_H-M "P M M M"
_symmetry_group_IT_number 47
_symmetry_cell_setting 'orthorhombic'
loop_
_space_group_symop_operation_xyz
x,y,z
-x,-y,z
x,-y,-z
-x,y,-z
-x,-y,-z
x,y,-z
-x,y,z
x,-y,z
loop_
_atom_site_type_symbol
_atom_site_label
_atom_site_fract_x
_atom_site_fract_y
_atom_site_fract_z
Si Si1 0.672822 0.500000 0.168686
Si Si2 0.672306 0.000000 0.831497
Si Si3 0.672425 0.414939 0.668384
Si Si4 0.832670 0.836669 0.174763
Si Si5 0.328234 0.671027 0.829474
Si Si6 0.671780 0.914154 0.329218
Si Si7 0.832837 0.251823 0.325517
O O1 0.500000 0.500000 0.169313
O O2 0.733206 0.542173 0.252588
O O3 0.731903 0.500000 0.000000
O O4 0.730482 0.957875 0.746339
O O5 0.500000 0.000000 0.831933
O O6 0.733386 0.000000 0.000000
O O7 0.733060 0.412763 0.500000
O O8 0.500000 0.416022 0.667388
O O9 0.728571 0.373626 0.759402
O O10 0.737414 0.874164 0.243075
O O11 0.781768 0.791910 0.246580
O O12 0.000000 0.845836 0.211801
O O13 0.803065 0.834059 0.000000
O O14 0.500000 0.674142 0.818220
O O15 0.262479 0.709701 0.736202
O O16 0.275210 0.673396 0.000000
O O17 0.723747 0.913711 0.500000
O O18 0.500000 0.911248 0.316983
O O19 0.804180 0.246678 0.500000
O O20 0.000000 0.261561 0.289510
#
# Coordination Sequence:
#
# PCOD8197586 Si02
#       7
#     4   4   8   8   8   8   8
#     4   9  15  23  37  59  90 127 164 201 244 297
#     4   9  17  31  52  77 106 139 172 208 250 295
#     4   9  16  26  41  63  93 128 164 203 248 296
#     4  10  21  37  56  77 102 133 169 210 255 301
#     4  10  20  33  50  74 103 133 166 207 254 300
#     4  10  20  34  54  80 108 138 172 209 250 298
#     4  10  21  37  56  76  99 131 170 209 252 304
#
# _framework density 18.697967999999999
#
# number of rings (size 3 to 8) (size 9 to 14) (size 15 to 20)
#    0.000    2.333    0.000    3.000    0.000    8.667 
#    0.000    0.417    0.000    2.500    0.000    0.583 
#    0.000    4.667    0.000    0.000    0.000    0.000 
#
# Total GULP energy -595322.282452 kJ/mol
# GULP energy per Si atom -12402.547551 kJ/mol
# Density = 1.865541 g / cm^3
# Si number density = 18.697968 Si / 1000 Ang^3
#
#
#
# Elastic Constant Matrix: (Units=GPa)
#
#
# Indices 1 2 3 4 5 6 
#
# 1 14.9441 26.2785 21.6909 0.0000 0.0000 0.0000
# 2 26.2785 165.3550 69.5787 0.0000 0.0000 0.0000
# 3 21.6909 69.5787 130.7540 0.0000 0.0000 0.0000
# 4 0.0000 0.0000 0.0000 45.9396 0.0000 0.0000
# 5 0.0000 0.0000 0.0000 0.0000 21.6540 0.0000
# 6 0.0000 0.0000 0.0000 0.0000 0.0000 11.9345
#
#
#
# Elastic Compliance Matrix: (Units=1/GPa)
#
#
# Indices 1 2 3 4 5 6 
#
# 1 0.103588 -0.011895 -0.010855 0.000000 0.000000 0.000000
# 2 -0.011895 0.009158 -0.002900 0.000000 0.000000 0.000000
# 3 -0.010855 -0.002900 0.010992 0.000000 0.000000 0.000000
# 4 0.000000 0.000000 0.000000 0.021768 0.000000 0.000000
# 5 0.000000 0.000000 0.000000 0.000000 0.046181 0.000000
# 6 0.000000 0.000000 0.000000 0.000000 0.000000 0.083790
#
#
# Mechanical properties :
#
#
# Convention : Reuss Voigt Hill
#
# Bulk Modulus (GPa) = 13.80480 60.68326 37.24403
# Shear Modulus (GPa) = 14.24816 28.80595 21.52706
#
# Velocity S-wave (km/s) = 2.76346 3.92930 3.39677
# Velocity P-wave (km/s) = 4.19301 7.28771 5.94525
#
# Compressibility (1/GPa) = 0.07243858
#
# Stress axis : x y z
#
# Youngs Moduli (GPa) = 9.65366 109.19033 90.97601
#
# Poissons Ratio (x) = 1.29881 0.98750
# Poissons Ratio (y) = 0.11483 0.26385
# Poissons Ratio (z) = 0.10479 0.31667
#
# Static dielectric constant tensor:
#      x y z
#    x 2.976340 0.000000 0.000000 
#    y 0.000000 3.676760 0.000000 
#    z 0.000000 0.000000 3.714750 
# 
# 
# High freq. dielectric constant tensor:
#      x y z
#    x 1.675200 0.000000 0.000000 
#    y 0.000000 1.744380 0.000000 
#    z 0.000000 0.000000 1.748760 
# 
# From -- ./inp_files/2599.got.cif
#   From: 2010.03.12/outbox.cif.g09.slc.cpg/sg47_2_cif.got.tgz:2599.got - 2010.04.14 03:12:58.
