data_PCOD8197827
_publ_section_title
;
Structure prediction by ZEFSAII (Michael W. Deem and Ramdas Pophale) SiO2 
 PCOD8197827
Probable space group: P M M M
;
_chemical_formula_sum "Si O2"
_cell_formula_units_Z 48
_cell_length_a 9.116732
_cell_length_b 31.161156
_cell_length_c 9.049127
_cell_angle_alpha 90.000000
_cell_angle_beta 90.000000
_cell_angle_gamma 90.000000
_cell_volume 2570.747559
_symmetry_space_group_name_H-M "P M M M"
_symmetry_group_IT_number 47
_symmetry_cell_setting 'orthorhombic'
loop_
_space_group_symop_operation_xyz
x,y,z
-x,-y,z
x,-y,-z
-x,y,-z
-x,-y,-z
x,y,-z
-x,y,z
x,-y,z
loop_
_atom_site_type_symbol
_atom_site_label
_atom_site_fract_x
_atom_site_fract_y
_atom_site_fract_z
Si Si1 0.330555 0.208417 0.674275
Si Si2 0.171051 0.713344 0.173028
Si Si3 0.835171 0.547255 0.824230
Si Si4 0.335922 0.371484 0.175825
Si Si5 0.827674 0.869250 0.828625
Si Si6 0.174015 0.952882 0.665583
O O1 0.310226 0.208033 0.500000
O O2 0.500000 0.211095 0.720928
O O3 0.246987 0.248933 0.738804
O O4 0.261631 0.165398 0.737855
O O5 0.238818 0.668545 0.228766
O O6 0.000000 0.712876 0.209984
O O7 0.199943 0.720621 0.000000
O O8 0.778467 0.500000 0.774005
O O9 0.731607 0.584465 0.758350
O O10 0.000000 0.554687 0.765338
O O11 0.835588 0.549835 0.000000
O O12 0.500000 0.366187 0.238572
O O13 0.337352 0.373645 0.000000
O O14 0.771066 0.916137 0.777102
O O15 0.000000 0.863083 0.796630
O O16 0.791785 0.863793 0.000000
O O17 0.231269 0.942773 0.500000
O O18 0.000000 0.953706 0.665122
O O19 0.232155 0.000000 0.716648
#
# Coordination Sequence:
#
# PCOD8197827 Si02
#       6
#     8   8   8   8   8   8
#     4  11  24  39  54  73  98 129 165 205 251 302
#     4  10  20  34  53  75  98 126 162 203 248 300
#     4   8  13  21  33  51  80 120 163 204 245 290
#     4   9  16  25  39  61  90 124 160 199 245 296
#     4  10  20  33  52  79 107 135 169 208 251 299
#     4   8  14  26  46  73 105 140 175 210 249 292
#
# _framework density 18.671612
#
# number of rings (size 3 to 8) (size 9 to 14) (size 15 to 20)
#    0.000    2.667    0.000    3.500    0.000    8.000 
#    0.000    3.333    0.000    0.500    0.000    3.500 
#    0.000    0.667    0.000    7.000    0.000    9.667 
#
# Total GULP energy -595047.948734 kJ/mol
# GULP energy per Si atom -12396.832265 kJ/mol
# Density = 1.862911 g / cm^3
# Si number density = 18.671612 Si / 1000 Ang^3
#
#
#
# Elastic Constant Matrix: (Units=GPa)
#
#
# Indices 1 2 3 4 5 6 
#
# 1 110.7002 83.0904 44.3065 0.0000 0.0000 0.0000
# 2 83.0904 181.1377 46.1803 0.0000 0.0000 0.0000
# 3 44.3065 46.1803 41.4353 0.0000 0.0000 0.0000
# 4 0.0000 0.0000 0.0000 -16.9248 0.0000 0.0000
# 5 0.0000 0.0000 0.0000 0.0000 17.9357 0.0000
# 6 0.0000 0.0000 0.0000 0.0000 0.0000 -7.9282
#
#
#
# Elastic Compliance Matrix: (Units=1/GPa)
#
#
# Indices 1 2 3 4 5 6 
#
# 1 0.018328 -0.004765 -0.014288 0.000000 0.000000 0.000000
# 2 -0.004765 0.008951 -0.004881 0.000000 0.000000 0.000000
# 3 -0.014288 -0.004881 0.044852 0.000000 0.000000 0.000000
# 4 0.000000 0.000000 0.000000 -0.059085 0.000000 0.000000
# 5 0.000000 0.000000 0.000000 0.000000 0.055755 0.000000
# 6 0.000000 0.000000 0.000000 0.000000 0.000000 -0.126131
#
#
# Mechanical properties :
#
#
# Convention : Reuss Voigt Hill
#
# Bulk Modulus (GPa) = 41.21374 75.60307 58.40841
# Shear Modulus (GPa) = -3633.93309 9.26292 -1812.33508
#
# Velocity S-wave (km/s) = -44.16400 2.22974 -31.18884
# Velocity P-wave (km/s) = 50.77885 6.87079 35.57586
#
# Compressibility (1/GPa) = 0.02426375
#
# Stress axis : x y z
#
# Youngs Moduli (GPa) = 54.55994 111.72354 22.29580
#
# Poissons Ratio (x) = 0.53235 0.31856
# Poissons Ratio (y) = 0.25997 0.10882
# Poissons Ratio (z) = 0.77955 0.54528
#
# Static dielectric constant tensor:
#      x y z
#    x 3.417890 0.000000 0.000000 
#    y 0.000000 3.913080 0.000000 
#    z 0.000000 0.000000 3.084310 
# 
# 
# High freq. dielectric constant tensor:
#      x y z
#    x 1.710140 0.000000 0.000000 
#    y 0.000000 1.747900 0.000000 
#    z 0.000000 0.000000 1.682810 
# 
# From -- ./inp_files/2418.got.cif
#   From: 2010.03.12/outbox.cif.g09.slc.cpg/sg47_2_cif.got.tgz:2418.got - 2010.04.14 03:12:58.
