data_PCOD8197562
_publ_section_title
;
Structure prediction by ZEFSAII (Michael W. Deem and Ramdas Pophale) SiO2 
 PCOD8197562
Probable space group: P M M M
;
_chemical_formula_sum "Si O2"
_cell_formula_units_Z 44
_cell_length_a 9.185586
_cell_length_b 29.562646
_cell_length_c 9.727590
_cell_angle_alpha 90.000000
_cell_angle_beta 90.000000
_cell_angle_gamma 90.000000
_cell_volume 2641.529275
_symmetry_space_group_name_H-M "P M M M"
_symmetry_group_IT_number 47
_symmetry_cell_setting 'orthorhombic'
loop_
_space_group_symop_operation_xyz
x,y,z
-x,-y,z
x,-y,-z
-x,y,-z
-x,-y,-z
x,y,-z
-x,y,z
x,-y,z
loop_
_atom_site_type_symbol
_atom_site_label
_atom_site_fract_x
_atom_site_fract_y
_atom_site_fract_z
Si Si1 0.664295 0.289170 0.163391
Si Si2 0.170348 0.200822 0.840597
Si Si3 0.837369 0.878816 0.650987
Si Si4 0.328536 0.948125 0.500000
Si Si5 0.829875 0.377791 0.159859
Si Si6 0.333566 0.552702 0.342350
O O1 0.500000 0.289984 0.220724
O O2 0.744764 0.244318 0.217665
O O3 0.748526 0.333337 0.217144
O O4 0.666985 0.288912 0.000000
O O5 0.228071 0.156750 0.759571
O O6 0.000000 0.208872 0.813653
O O7 0.204260 0.192568 0.000000
O O8 0.842817 0.855201 0.500000
O O9 0.736606 0.923807 0.637534
O O10 0.000000 0.893577 0.697021
O O11 0.500000 0.942705 0.500000
O O12 0.279222 0.000000 0.500000
O O13 0.775155 0.420862 0.243587
O O14 0.000000 0.370781 0.184689
O O15 0.794582 0.386082 0.000000
O O16 0.300882 0.565626 0.500000
O O17 0.500000 0.564943 0.305196
O O18 0.304832 0.500000 0.317991
#
# Coordination Sequence:
#
# PCOD8197562 Si02
#       6
#     8   8   8   4   8   8
#     4   9  17  29  46  68  94 126 161 193 229 277
#     4   9  16  28  47  69  94 123 154 189 231 278
#     4   8  16  29  45  67  92 119 152 189 229 274
#     4   9  17  29  47  69  91 119 157 197 234 273
#     4  10  20  33  50  73  99 126 159 198 237 279
#     4   9  19  36  55  73  95 124 157 194 239 291
#
# _framework density 16.657017
#
# number of rings (size 3 to 8) (size 9 to 14) (size 15 to 20)
#    0.545    2.455    0.000    1.636    0.000    5.818 
#    0.000    3.636    0.000    3.818    0.000    3.818 
#    0.000    0.000    0.000    0.000    0.000    0.000 
#
# Total GULP energy -545386.813635 kJ/mol
# GULP energy per Si atom -12395.154855 kJ/mol
# Density = 1.661910 g / cm^3
# Si number density = 16.657017 Si / 1000 Ang^3
#
#
#
# Elastic Constant Matrix: (Units=GPa)
#
#
# Indices 1 2 3 4 5 6 
#
# 1 92.9865 68.3719 36.3137 0.0000 0.0000 0.0000
# 2 68.3719 129.1187 49.7957 0.0000 0.0000 0.0000
# 3 36.3137 49.7957 48.6699 0.0000 0.0000 0.0000
# 4 0.0000 0.0000 0.0000 25.6685 0.0000 0.0000
# 5 0.0000 0.0000 0.0000 0.0000 20.4837 0.0000
# 6 0.0000 0.0000 0.0000 0.0000 0.0000 34.7966
#
#
#
# Elastic Compliance Matrix: (Units=1/GPa)
#
#
# Indices 1 2 3 4 5 6 
#
# 1 0.018718 -0.007475 -0.006318 0.000000 0.000000 0.000000
# 2 -0.007475 0.015778 -0.010565 0.000000 0.000000 0.000000
# 3 -0.006318 -0.010565 0.036070 0.000000 0.000000 0.000000
# 4 0.000000 0.000000 0.000000 0.038958 0.000000 0.000000
# 5 0.000000 0.000000 0.000000 0.000000 0.048819 0.000000
# 6 0.000000 0.000000 0.000000 0.000000 0.000000 0.028738
#
#
# Mechanical properties :
#
#
# Convention : Reuss Voigt Hill
#
# Bulk Modulus (GPa) = 45.76815 64.41530 55.09173
# Shear Modulus (GPa) = 20.56926 23.94269 22.25597
#
# Velocity S-wave (km/s) = 3.51789 3.79541 3.65928
# Velocity P-wave (km/s) = 6.63605 7.61330 7.14141
#
# Compressibility (1/GPa) = 0.02184926
#
# Stress axis : x y z
#
# Youngs Moduli (GPa) = 53.42484 63.38065 27.72379
#
# Poissons Ratio (x) = 0.47378 0.17515
# Poissons Ratio (y) = 0.39936 0.29291
# Poissons Ratio (z) = 0.33753 0.66964
#
# Static dielectric constant tensor:
#      x y z
#    x 3.143180 0.000000 0.000000 
#    y 0.000000 3.111300 0.000000 
#    z 0.000000 0.000000 2.862870 
# 
# 
# High freq. dielectric constant tensor:
#      x y z
#    x 1.646160 0.000000 0.000000 
#    y 0.000000 1.638310 0.000000 
#    z 0.000000 0.000000 1.609510 
# 
# From -- ./inp_files/15405.got.cif
#   From: 2010.03.12/outbox.cif.g09.slc.cpg/sg47_8_cif.got.tgz:15405.got - 2010.04.14 03:12:58.
