data_PCOD8197623
_publ_section_title
;
Structure prediction by ZEFSAII (Michael W. Deem and Ramdas Pophale) SiO2 
 PCOD8197623
Probable space group: P M M M
;
_chemical_formula_sum "Si O2"
_cell_formula_units_Z 64
_cell_length_a 23.288840
_cell_length_b 9.146754
_cell_length_c 14.608822
_cell_angle_alpha 90.000000
_cell_angle_beta 90.000000
_cell_angle_gamma 90.000000
_cell_volume 3111.931679
_symmetry_space_group_name_H-M "P M M M"
_symmetry_group_IT_number 47
_symmetry_cell_setting 'orthorhombic'
loop_
_space_group_symop_operation_xyz
x,y,z
-x,-y,z
x,-y,-z
-x,y,-z
-x,-y,-z
x,y,-z
-x,y,z
x,-y,z
loop_
_atom_site_type_symbol
_atom_site_label
_atom_site_fract_x
_atom_site_fract_y
_atom_site_fract_z
Si Si1 0.680241 0.167271 0.602912
Si Si2 0.562704 0.838398 0.833007
Si Si3 0.252923 0.331887 0.754806
Si Si4 0.154848 0.326520 0.105213
Si Si5 0.067765 0.831340 0.221709
Si Si6 0.653969 0.660069 0.096283
Si Si7 0.931815 0.335361 0.399107
Si Si8 0.435283 0.327896 0.351024
O O1 0.704301 0.174610 0.500000
O O2 0.730838 0.240257 0.664447
O O3 0.617591 0.245253 0.600783
O O4 0.671821 0.000000 0.635223
O O5 0.500000 0.841934 0.877404
O O6 0.606005 0.785185 0.910583
O O7 0.566303 0.718753 0.753754
O O8 0.579412 0.000000 0.796287
O O9 0.241832 0.500000 0.726791
O O10 0.201009 0.272032 0.818504
O O11 0.308018 0.312264 0.816778
O O12 0.148785 0.500000 0.109583
O O13 0.095215 0.252114 0.135344
O O14 0.169666 0.279358 0.000000
O O15 0.092006 0.767598 0.318321
O O16 0.000000 0.807627 0.214267
O O17 0.085056 0.000000 0.217996
O O18 0.625337 0.500000 0.104064
O O19 0.689315 0.669292 0.000000
O O20 0.910349 0.282094 0.500000
O O21 0.909572 0.500000 0.380754
O O22 0.000000 0.332839 0.398277
O O23 0.500000 0.290108 0.390569
O O24 0.423844 0.500000 0.360287
#
# Coordination Sequence:
#
# PCOD8197623 Si02
#       8
#     8   8   8   8   8   8   8   8
#     4  11  24  40  60  88 121 156 193 237 293 354
#     4  10  20  33  50  75 110 149 188 233 285 341
#     4  10  21  40  64  87 112 145 188 241 291 341
#     4  10  22  41  65  91 118 152 197 247 297 351
#     4  10  21  36  56  87 127 166 202 244 296 354
#     4  10  20  34  55  82 109 141 183 231 286 345
#     4   8  14  27  50  80 114 154 199 242 282 329
#     4  10  20  35  57  84 114 151 196 244 295 351
#
# _framework density 20.566004
#
# number of rings (size 3 to 8) (size 9 to 14) (size 15 to 20)
#    0.000    2.125    1.250    2.250    0.000    6.750 
#    0.000    5.625    0.000    3.000    0.000    0.000 
#    0.000    0.000    0.000    0.000    0.000    0.000 
#
# Total GULP energy -792873.306161 kJ/mol
# GULP energy per Si atom -12388.645409 kJ/mol
# Density = 2.051919 g / cm^3
# Si number density = 20.566004 Si / 1000 Ang^3
#
#
#
# Elastic Constant Matrix: (Units=GPa)
#
#
# Indices 1 2 3 4 5 6 
#
# 1 59.2843 40.0985 42.8093 0.0000 0.0000 0.0000
# 2 40.0985 92.1837 49.3335 0.0000 0.0000 0.0000
# 3 42.8093 49.3335 121.2059 0.0000 0.0000 0.0000
# 4 0.0000 0.0000 0.0000 19.1696 0.0000 0.0000
# 5 0.0000 0.0000 0.0000 0.0000 20.3474 0.0000
# 6 0.0000 0.0000 0.0000 0.0000 0.0000 22.7189
#
#
#
# Elastic Compliance Matrix: (Units=1/GPa)
#
#
# Indices 1 2 3 4 5 6 
#
# 1 0.027002 -0.008491 -0.006081 0.000000 0.000000 0.000000
# 2 -0.008491 0.016539 -0.003733 0.000000 0.000000 0.000000
# 3 -0.006081 -0.003733 0.011917 0.000000 0.000000 0.000000
# 4 0.000000 0.000000 0.000000 0.052166 0.000000 0.000000
# 5 0.000000 0.000000 0.000000 0.000000 0.049146 0.000000
# 6 0.000000 0.000000 0.000000 0.000000 0.000000 0.044016
#
#
# Mechanical properties :
#
#
# Convention : Reuss Voigt Hill
#
# Bulk Modulus (GPa) = 53.05318 59.68404 56.36861
# Shear Modulus (GPa) = 20.51869 21.80933 21.16401
#
# Velocity S-wave (km/s) = 3.16206 3.26000 3.21140
# Velocity P-wave (km/s) = 6.25972 6.57676 6.42020
#
# Compressibility (1/GPa) = 0.01884901
#
# Stress axis : x y z
#
# Youngs Moduli (GPa) = 37.03402 60.46276 83.91045
#
# Poissons Ratio (x) = 0.51341 0.51025
# Poissons Ratio (y) = 0.31447 0.31321
# Poissons Ratio (z) = 0.22520 0.22569
#
# Static dielectric constant tensor:
#      x y z
#    x 3.629060 0.000000 0.000000 
#    y 0.000000 3.728500 0.000000 
#    z 0.000000 0.000000 3.759600 
# 
# 
# High freq. dielectric constant tensor:
#      x y z
#    x 1.782590 0.000000 0.000000 
#    y 0.000000 1.799490 0.000000 
#    z 0.000000 0.000000 1.807850 
# 
# From -- ./inp_files/25526.got.cif
#   From: 2010.03.12/outbox.cif.g09.slc.cpg/sg47_13_cif.got.tgz:25526.got - 2010.04.14 03:12:58.
