data_PCOD8197558
_publ_section_title
;
Structure prediction by ZEFSAII (Michael W. Deem and Ramdas Pophale) SiO2 
 PCOD8197558
Probable space group: P M M M
;
_chemical_formula_sum "Si O2"
_cell_formula_units_Z 52
_cell_length_a 33.681675
_cell_length_b 9.328437
_cell_length_c 9.751376
_cell_angle_alpha 90.000000
_cell_angle_beta 90.000000
_cell_angle_gamma 90.000000
_cell_volume 3063.856823
_symmetry_space_group_name_H-M "P M M M"
_symmetry_group_IT_number 47
_symmetry_cell_setting 'orthorhombic'
loop_
_space_group_symop_operation_xyz
x,y,z
-x,-y,z
x,-y,-z
-x,y,-z
-x,-y,-z
x,y,-z
-x,y,z
x,-y,z
loop_
_atom_site_type_symbol
_atom_site_label
_atom_site_fract_x
_atom_site_fract_y
_atom_site_fract_z
Si Si1 0.577552 0.331938 0.161020
Si Si2 0.500000 0.837668 0.837591
Si Si3 0.270569 0.842787 0.661899
Si Si4 0.956090 0.329495 0.846319
Si Si5 0.800947 0.341541 0.336486
Si Si6 0.112302 0.671517 0.653028
Si Si7 0.359638 0.831745 0.340770
O O1 0.572564 0.500000 0.193136
O O2 0.538463 0.248830 0.213371
O O3 0.613947 0.267511 0.244809
O O4 0.584980 0.306036 0.000000
O O5 0.500000 0.000000 0.777018
O O6 0.500000 0.844255 0.000000
O O7 0.264809 0.851816 0.500000
O O8 0.235594 0.747433 0.727518
O O9 0.314551 0.783434 0.693369
O O10 0.266196 0.000000 0.726970
O O11 0.953614 0.500000 0.843654
O O12 0.922085 0.263230 0.749330
O O13 0.000000 0.281008 0.795772
O O14 0.948648 0.272987 0.000000
O O15 0.798420 0.347364 0.500000
O O16 0.796649 0.500000 0.274514
O O17 0.844095 0.275914 0.295598
O O18 0.103808 0.728318 0.500000
O O19 0.112253 0.500000 0.653772
O O20 0.369668 0.802421 0.500000
O O21 0.365925 0.000000 0.307559
#
# Coordination Sequence:
#
# PCOD8197558 Si02
#       7
#     8   4   8   8   8   8   8
#     4  10  20  33  50  73  99 124 152 189 230 271
#     4   9  17  31  52  73  92 121 160 194 226 269
#     4   8  14  25  41  61  85 112 142 176 211 249
#     4   8  13  20  29  42  63  93 126 156 189 234
#     4   8  13  21  34  53  76 102 133 167 202 243
#     4   8  13  20  30  46  68  93 122 156 193 234
#     4   9  18  32  49  70  95 122 154 190 226 267
#
# _framework density 16.972071
#
# number of rings (size 3 to 8) (size 9 to 14) (size 15 to 20)
#    0.000    3.462    0.000    3.000    0.000    3.077 
#    0.000    3.462    0.000    3.231    0.000    2.154 
#    0.000    0.615    0.000    7.692    0.000    8.923 
#
# Total GULP energy -644324.783302 kJ/mol
# GULP energy per Si atom -12390.861217 kJ/mol
# Density = 1.693344 g / cm^3
# Si number density = 16.972071 Si / 1000 Ang^3
#
#
#
# Elastic Constant Matrix: (Units=GPa)
#
#
# Indices 1 2 3 4 5 6 
#
# 1 175.3977 64.5967 58.1136 0.0000 0.0000 0.0000
# 2 64.5967 69.6231 29.9395 0.0000 0.0000 0.0000
# 3 58.1136 29.9395 46.5097 0.0000 0.0000 0.0000
# 4 0.0000 0.0000 0.0000 14.3498 0.0000 0.0000
# 5 0.0000 0.0000 0.0000 0.0000 7.3442 0.0000
# 6 0.0000 0.0000 0.0000 0.0000 0.0000 9.2007
#
#
#
# Elastic Compliance Matrix: (Units=1/GPa)
#
#
# Indices 1 2 3 4 5 6 
#
# 1 0.011350 -0.006129 -0.010237 0.000000 0.000000 0.000000
# 2 -0.006129 0.023170 -0.007257 0.000000 0.000000 0.000000
# 3 -0.010237 -0.007257 0.038963 0.000000 0.000000 0.000000
# 4 0.000000 0.000000 0.000000 0.069687 0.000000 0.000000
# 5 0.000000 0.000000 0.000000 0.000000 0.136162 0.000000
# 6 0.000000 0.000000 0.000000 0.000000 0.000000 0.108687
#
#
# Mechanical properties :
#
#
# Convention : Reuss Voigt Hill
#
# Bulk Modulus (GPa) = 38.11273 66.31446 52.21359
# Shear Modulus (GPa) = 11.26095 15.43765 13.34930
#
# Velocity S-wave (km/s) = 2.57864 3.01922 2.80758
# Velocity P-wave (km/s) = 5.60096 7.16322 6.42972
#
# Compressibility (1/GPa) = 0.02623795
#
# Stress axis : x y z
#
# Youngs Moduli (GPa) = 88.10468 43.15891 25.66514
#
# Poissons Ratio (x) = 0.26451 0.26273
# Poissons Ratio (y) = 0.53997 0.18626
# Poissons Ratio (z) = 0.90190 0.31322
#
# Static dielectric constant tensor:
#      x y z
#    x 3.546180 0.000000 0.000000 
#    y 0.000000 3.064820 0.000000 
#    z 0.000000 0.000000 2.870210 
# 
# 
# High freq. dielectric constant tensor:
#      x y z
#    x 1.673740 0.000000 0.000000 
#    y 0.000000 1.620610 0.000000 
#    z 0.000000 0.000000 1.608320 
# 
# From -- ./inp_files/20027.got.cif
#   From: 2010.03.12/outbox.cif.g09.slc.cpg/sg47_11_cif.got.tgz:20027.got - 2010.04.14 03:12:58.
