data_PCOD8197801
_publ_section_title
;
Structure prediction by ZEFSAII (Michael W. Deem and Ramdas Pophale) SiO2 
 PCOD8197801
Probable space group: P M M M
;
_chemical_formula_sum "Si O2"
_cell_formula_units_Z 44
_cell_length_a 31.942753
_cell_length_b 7.853280
_cell_length_c 9.300248
_cell_angle_alpha 90.000000
_cell_angle_beta 90.000000
_cell_angle_gamma 90.000000
_cell_volume 2333.017277
_symmetry_space_group_name_H-M "P M M M"
_symmetry_group_IT_number 47
_symmetry_cell_setting 'orthorhombic'
loop_
_space_group_symop_operation_xyz
x,y,z
-x,-y,z
x,-y,-z
-x,y,-z
-x,-y,-z
x,y,-z
-x,y,z
x,-y,z
loop_
_atom_site_type_symbol
_atom_site_label
_atom_site_fract_x
_atom_site_fract_y
_atom_site_fract_z
Si Si1 0.000000 0.808052 0.329732
Si Si2 0.754870 0.802858 0.331127
Si Si3 0.834509 0.195247 0.842318
Si Si4 0.398223 0.500000 0.327899
Si Si5 0.911040 0.304732 0.337804
Si Si6 0.304403 0.500000 0.670069
Si Si7 0.547029 0.189036 0.670913
O O1 0.957855 0.717257 0.273159
O O2 0.000000 0.795625 0.500000
O O3 0.000000 0.000000 0.273073
O O4 0.763259 0.785974 0.500000
O O5 0.796728 0.732381 0.253928
O O6 0.718299 0.674608 0.279333
O O7 0.743407 0.000000 0.292223
O O8 0.878824 0.209201 0.763754
O O9 0.824640 0.000000 0.865751
O O10 0.835994 0.285175 0.000000
O O11 0.398320 0.500000 0.500000
O O12 0.351178 0.500000 0.265433
O O13 0.421578 0.331747 0.267464
O O14 0.908566 0.228691 0.500000
O O15 0.898395 0.500000 0.339158
O O16 0.306788 0.500000 0.500000
O O17 0.547288 0.195831 0.500000
O O18 0.500000 0.227343 0.726398
O O19 0.561296 0.000000 0.722362
#
# Coordination Sequence:
#
# PCOD8197801 Si02
#       7
#     4   8   8   4   8   4   8
#     4   9  17  31  52  75 100 131 164 194 226 273
#     4   9  18  33  51  69  93 124 157 199 248 296
#     4  10  21  36  53  74  98 124 159 201 243 289
#     4   9  15  22  33  51  75 105 143 195 242 277
#     4  10  20  33  52  78 105 131 159 194 235 281
#     4   9  18  29  43  64  87 114 157 202 246 297
#     4   8  13  20  30  46  71 106 147 188 231 279
#
# _framework density 18.859697000000001
#
# number of rings (size 3 to 8) (size 9 to 14) (size 15 to 20)
#    0.000    2.818    0.000    2.182    1.273    5.091 
#    0.000    4.091    0.000    2.727    0.000    0.000 
#    0.000    0.000    0.000    0.000    0.000    7.273 
#
# Total GULP energy -545305.405498 kJ/mol
# GULP energy per Si atom -12393.304670 kJ/mol
# Density = 1.881677 g / cm^3
# Si number density = 18.859697 Si / 1000 Ang^3
#
#
#
# Elastic Constant Matrix: (Units=GPa)
#
#
# Indices 1 2 3 4 5 6 
#
# 1 166.4901 68.7783 39.4194 0.0000 0.0000 0.0000
# 2 68.7783 102.0155 22.4482 0.0000 0.0000 0.0000
# 3 39.4194 22.4482 45.6448 0.0000 0.0000 0.0000
# 4 0.0000 0.0000 0.0000 6.9128 0.0000 0.0000
# 5 0.0000 0.0000 0.0000 0.0000 1.0338 0.0000
# 6 0.0000 0.0000 0.0000 0.0000 0.0000 31.9460
#
#
#
# Elastic Compliance Matrix: (Units=1/GPa)
#
#
# Indices 1 2 3 4 5 6 
#
# 1 0.009467 -0.005140 -0.005648 0.000000 0.000000 0.000000
# 2 -0.005140 0.013782 -0.002340 0.000000 0.000000 0.000000
# 3 -0.005648 -0.002340 0.027937 0.000000 0.000000 0.000000
# 4 0.000000 0.000000 0.000000 0.144659 0.000000 0.000000
# 5 0.000000 0.000000 0.000000 0.000000 0.967315 0.000000
# 6 0.000000 0.000000 0.000000 0.000000 0.000000 0.031303
#
#
# Mechanical properties :
#
#
# Convention : Reuss Voigt Hill
#
# Bulk Modulus (GPa) = 40.11000 63.93803 52.02401
# Shear Modulus (GPa) = 4.06826 20.21214 12.14020
#
# Velocity S-wave (km/s) = 1.47031 3.27725 2.53990
# Velocity P-wave (km/s) = 4.91896 6.94954 6.02047
#
# Compressibility (1/GPa) = 0.02493144
#
# Stress axis : x y z
#
# Youngs Moduli (GPa) = 105.63159 72.55642 35.79538
#
# Poissons Ratio (x) = 0.37292 0.20217
# Poissons Ratio (y) = 0.54291 0.08374
# Poissons Ratio (z) = 0.59661 0.16975
#
# Static dielectric constant tensor:
#      x y z
#    x 3.643400 0.000000 0.000000 
#    y 0.000000 3.607550 0.000000 
#    z 0.000000 0.000000 3.089920 
# 
# 
# High freq. dielectric constant tensor:
#      x y z
#    x 1.734580 0.000000 0.000000 
#    y 0.000000 1.739550 0.000000 
#    z 0.000000 0.000000 1.669020 
# 
# From -- ./inp_files/13767.got.cif
#   From: 2010.03.12/outbox.cif.g09.slc.cpg/sg47_7_cif.got.tgz:13767.got - 2010.04.14 03:12:58.
