data_PCOD8197020
_publ_section_title
;
Structure prediction by ZEFSAII (Michael W. Deem and Ramdas Pophale) SiO2 
 PCOD8197020
Probable space group: P M M M
;
_chemical_formula_sum "Si O2"
_cell_formula_units_Z 44
_cell_length_a 9.120428
_cell_length_b 28.586580
_cell_length_c 9.392177
_cell_angle_alpha 90.000000
_cell_angle_beta 90.000000
_cell_angle_gamma 90.000000
_cell_volume 2448.745713
_symmetry_space_group_name_H-M "P M M M"
_symmetry_group_IT_number 47
_symmetry_cell_setting 'orthorhombic'
loop_
_space_group_symop_operation_xyz
x,y,z
-x,-y,z
x,-y,-z
-x,y,-z
-x,-y,-z
x,y,-z
-x,y,z
x,-y,z
loop_
_atom_site_type_symbol
_atom_site_label
_atom_site_fract_x
_atom_site_fract_y
_atom_site_fract_z
Si Si1 0.662870 0.811278 0.169041
Si Si2 0.324864 0.000000 0.339961
Si Si3 0.674609 0.913565 0.158933
Si Si4 0.674186 0.551688 0.159608
Si Si5 0.170555 0.720359 0.833341
Si Si6 0.326086 0.638928 0.663412
O O1 0.500000 0.800895 0.230918
O O2 0.720984 0.862342 0.219865
O O3 0.773279 0.770951 0.220217
O O4 0.653680 0.812959 0.000000
O O5 0.262901 0.046149 0.261521
O O6 0.500000 0.000000 0.337945
O O7 0.263953 0.000000 0.500000
O O8 0.500000 0.915605 0.152628
O O9 0.738006 0.921807 0.000000
O O10 0.500000 0.551832 0.161080
O O11 0.730758 0.500000 0.205885
O O12 0.734157 0.590599 0.268385
O O13 0.730245 0.563340 0.000000
O O14 0.255551 0.681600 0.746001
O O15 0.000000 0.716799 0.799297
O O16 0.204174 0.713147 0.000000
O O17 0.276168 0.639962 0.500000
O O18 0.500000 0.642790 0.679060
#
# Coordination Sequence:
#
# PCOD8197020 Si02
#       6
#     8   4   8   8   8   8
#     4   8  14  26  45  67  89 115 150 191 231 272
#     4   9  15  21  31  53  86 115 136 168 218 267
#     4   8  13  22  37  56  79 110 145 177 214 265
#     4   8  14  26  46  72  99 125 154 190 232 276
#     4  10  20  33  50  71  94 123 159 198 241 286
#     4  10  20  32  48  72 100 130 162 194 231 276
#
# _framework density 17.968381999999998
#
# number of rings (size 3 to 8) (size 9 to 14) (size 15 to 20)
#    0.000    3.182    0.000    3.000    0.000    3.636 
#    0.000    2.727    0.000    3.818    0.000    4.455 
#    0.000    5.091    0.000    0.000    0.000    0.000 
#
# Total GULP energy -545330.299820 kJ/mol
# GULP energy per Si atom -12393.870450 kJ/mol
# Density = 1.792748 g / cm^3
# Si number density = 17.968382 Si / 1000 Ang^3
#
#
#
# Elastic Constant Matrix: (Units=GPa)
#
#
# Indices 1 2 3 4 5 6 
#
# 1 19.4938 24.8175 20.3627 0.0000 0.0000 0.0000
# 2 24.8175 175.1134 75.3073 0.0000 0.0000 0.0000
# 3 20.3627 75.3073 89.7677 0.0000 0.0000 0.0000
# 4 0.0000 0.0000 0.0000 4.8761 0.0000 0.0000
# 5 0.0000 0.0000 0.0000 0.0000 12.1970 0.0000
# 6 0.0000 0.0000 0.0000 0.0000 0.0000 -1.5074
#
#
#
# Elastic Compliance Matrix: (Units=1/GPa)
#
#
# Indices 1 2 3 4 5 6 
#
# 1 0.069734 -0.004819 -0.011776 0.000000 0.000000 0.000000
# 2 -0.004819 0.009267 -0.006681 0.000000 0.000000 0.000000
# 3 -0.011776 -0.006681 0.019416 0.000000 0.000000 0.000000
# 4 0.000000 0.000000 0.000000 0.205082 0.000000 0.000000
# 5 0.000000 0.000000 0.000000 0.000000 0.081987 0.000000
# 6 0.000000 0.000000 0.000000 0.000000 0.000000 -0.663411
#
#
# Mechanical properties :
#
#
# Convention : Reuss Voigt Hill
#
# Bulk Modulus (GPa) = 19.28072 58.37222 38.82647
# Shear Modulus (GPa) = -23.35492 14.03898 -4.65797
#
# Velocity S-wave (km/s) = -3.60916 2.79824 -1.61181
# Velocity P-wave (km/s) = 2.57184 6.55719 4.26511
#
# Compressibility (1/GPa) = 0.05186529
#
# Stress axis : x y z
#
# Youngs Moduli (GPa) = 14.34031 107.91498 51.50479
#
# Poissons Ratio (x) = 0.52000 0.60651
# Poissons Ratio (y) = 0.06910 0.34409
# Poissons Ratio (z) = 0.16887 0.72096
#
# Static dielectric constant tensor:
#      x y z
#    x 2.830810 0.000000 0.000000 
#    y 0.000000 3.850740 0.000000 
#    z 0.000000 0.000000 3.258160 
# 
# 
# High freq. dielectric constant tensor:
#      x y z
#    x 1.637230 0.000000 0.000000 
#    y 0.000000 1.717960 0.000000 
#    z 0.000000 0.000000 1.672380 
# 
# From -- ./inp_files/2196.got.cif
#   From: 2010.03.12/outbox.cif.g09.slc.cpg/sg47_2_cif.got.tgz:2196.got - 2010.04.14 03:12:58.
