data_PCOD8197661
_publ_section_title
;
Structure prediction by ZEFSAII (Michael W. Deem and Ramdas Pophale) SiO2 
 PCOD8197661
Probable space group: P M M M
;
_chemical_formula_sum "Si O2"
_cell_formula_units_Z 56
_cell_length_a 23.659697
_cell_length_b 13.614757
_cell_length_c 9.219428
_cell_angle_alpha 90.000000
_cell_angle_beta 90.000000
_cell_angle_gamma 90.000000
_cell_volume 2969.771600
_symmetry_space_group_name_H-M "P M M M"
_symmetry_group_IT_number 47
_symmetry_cell_setting 'orthorhombic'
loop_
_space_group_symop_operation_xyz
x,y,z
-x,-y,z
x,-y,-z
-x,y,-z
-x,-y,-z
x,y,-z
-x,y,z
x,-y,z
loop_
_atom_site_type_symbol
_atom_site_label
_atom_site_fract_x
_atom_site_fract_y
_atom_site_fract_z
Si Si1 0.220826 0.385403 0.832170
Si Si2 0.830819 0.888641 0.329896
Si Si3 0.891231 0.616924 0.664584
Si Si4 0.937889 0.884038 0.166019
Si Si5 0.720806 0.229748 0.329482
Si Si6 0.500000 0.116814 0.163764
Si Si7 0.609427 0.886691 0.668945
Si Si8 0.000000 0.382524 0.835164
O O1 0.231765 0.500000 0.811941
O O2 0.165773 0.349269 0.744154
O O3 0.274775 0.330514 0.761879
O O4 0.212914 0.357782 0.000000
O O5 0.838230 0.883628 0.500000
O O6 0.887023 0.837675 0.261720
O O7 0.773701 0.836129 0.280052
O O8 0.825625 0.000000 0.273947
O O9 0.891001 0.658222 0.500000
O O10 0.895158 0.500000 0.662405
O O11 0.944636 0.659148 0.753659
O O12 0.000000 0.838737 0.206231
O O13 0.940895 0.000000 0.194846
O O14 0.923622 0.861474 0.000000
O O15 0.721582 0.252691 0.500000
O O16 0.663829 0.174956 0.283362
O O17 0.555919 0.156072 0.244027
O O18 0.500000 0.000000 0.170236
O O19 0.500000 0.156558 0.000000
O O20 0.596078 0.874601 0.500000
O O21 0.621482 0.000000 0.707611
O O22 0.000000 0.500000 0.834136
O O23 0.000000 0.343079 0.000000
#
# Coordination Sequence:
#
# PCOD8197661 Si02
#       8
#     8   8   8   8   8   4   8   4
#     4  10  21  36  52  70  94 126 165 211 262 312
#     4   9  17  29  46  70  99 127 156 195 243 293
#     4   9  16  27  45  67  89 115 150 194 246 304
#     4   8  14  25  41  61  86 119 159 199 239 286
#     4  10  20  33  51  75 102 132 168 208 250 298
#     4   9  17  29  47  75 112 149 182 213 241 276
#     4   9  17  31  52  78 110 147 180 207 241 289
#     4   9  15  23  39  65  93 117 144 183 238 307
#
# _framework density 18.856670000000001
#
# number of rings (size 3 to 8) (size 9 to 14) (size 15 to 20)
#    0.000    2.857    0.000    2.143    0.000    7.429 
#    0.000    1.429    1.571    4.286    0.000    0.500 
#    0.000    4.000    0.000    0.000    0.000    0.000 
#
# Total GULP energy -694413.390759 kJ/mol
# GULP energy per Si atom -12400.239121 kJ/mol
# Density = 1.881375 g / cm^3
# Si number density = 18.856670 Si / 1000 Ang^3
#
#
#
# Elastic Constant Matrix: (Units=GPa)
#
#
# Indices 1 2 3 4 5 6 
#
# 1 169.2818 47.7247 80.1484 0.0000 0.0000 0.0000
# 2 47.7247 34.5027 33.3027 0.0000 0.0000 0.0000
# 3 80.1484 33.3027 105.6108 0.0000 0.0000 0.0000
# 4 0.0000 0.0000 0.0000 19.1121 0.0000 0.0000
# 5 0.0000 0.0000 0.0000 0.0000 25.4148 0.0000
# 6 0.0000 0.0000 0.0000 0.0000 0.0000 23.6726
#
#
#
# Elastic Compliance Matrix: (Units=1/GPa)
#
#
# Indices 1 2 3 4 5 6 
#
# 1 0.011434 -0.010696 -0.005305 0.000000 0.000000 0.000000
# 2 -0.010696 0.051670 -0.008176 0.000000 0.000000 0.000000
# 3 -0.005305 -0.008176 0.016073 0.000000 0.000000 0.000000
# 4 0.000000 0.000000 0.000000 0.052323 0.000000 0.000000
# 5 0.000000 0.000000 0.000000 0.000000 0.039347 0.000000
# 6 0.000000 0.000000 0.000000 0.000000 0.000000 0.042243
#
#
# Mechanical properties :
#
#
# Convention : Reuss Voigt Hill
#
# Bulk Modulus (GPa) = 32.44299 70.19409 51.31854
# Shear Modulus (GPa) = 18.40146 23.52121 20.96133
#
# Velocity S-wave (km/s) = 3.12726 3.53564 3.33770
# Velocity P-wave (km/s) = 5.50292 7.34667 6.49060
#
# Compressibility (1/GPa) = 0.03082330
#
# Stress axis : x y z
#
# Youngs Moduli (GPa) = 87.45561 19.35370 62.21725
#
# Poissons Ratio (x) = 0.20701 0.33005
# Poissons Ratio (y) = 0.93542 0.50869
# Poissons Ratio (z) = 0.46393 0.15824
#
# Static dielectric constant tensor:
#      x y z
#    x 3.576400 0.000000 0.000000 
#    y 0.000000 3.343100 0.000000 
#    z 0.000000 0.000000 3.453390 
# 
# 
# High freq. dielectric constant tensor:
#      x y z
#    x 1.719250 0.000000 0.000000 
#    y 0.000000 1.718840 0.000000 
#    z 0.000000 0.000000 1.731650 
# 
# From -- ./inp_files/11298.got.cif
#   From: 2010.03.12/outbox.cif.g09.slc.cpg/sg47_6_cif.got.tgz:11298.got - 2010.04.14 03:12:58.
