data_PCOD8197590
_publ_section_title
;
Structure prediction by ZEFSAII (Michael W. Deem and Ramdas Pophale) SiO2 
 PCOD8197590
Probable space group: P M M M
;
_chemical_formula_sum "Si O2"
_cell_formula_units_Z 48
_cell_length_a 9.138801
_cell_length_b 8.862321
_cell_length_c 31.097889
_cell_angle_alpha 90.000000
_cell_angle_beta 90.000000
_cell_angle_gamma 90.000000
_cell_volume 2518.648755
_symmetry_space_group_name_H-M "P M M M"
_symmetry_group_IT_number 47
_symmetry_cell_setting 'orthorhombic'
loop_
_space_group_symop_operation_xyz
x,y,z
-x,-y,z
x,-y,-z
-x,y,-z
-x,-y,-z
x,y,-z
-x,y,z
x,-y,z
loop_
_atom_site_type_symbol
_atom_site_label
_atom_site_fract_x
_atom_site_fract_y
_atom_site_fract_z
Si Si1 0.168158 0.677237 0.578597
Si Si2 0.167831 0.176470 0.667593
Si Si3 0.670712 0.325088 0.745562
Si Si4 0.327437 0.172697 0.500000
Si Si5 0.828823 0.824253 0.175779
Si Si6 0.673832 0.834689 0.000000
Si Si7 0.663780 0.179909 0.091933
O O1 0.192250 0.500000 0.578330
O O2 0.219306 0.740024 0.624501
O O3 0.267291 0.748808 0.542294
O O4 0.000000 0.720778 0.569560
O O5 0.269747 0.228960 0.706055
O O6 0.000000 0.216959 0.678857
O O7 0.188372 0.000000 0.660214
O O8 0.500000 0.292074 0.750678
O O9 0.703548 0.500000 0.736941
O O10 0.749568 0.274896 0.788806
O O11 0.500000 0.189792 0.500000
O O12 0.276778 0.000000 0.500000
O O13 0.773288 0.767427 0.129280
O O14 0.000000 0.794399 0.178796
O O15 0.790778 0.000000 0.183166
O O16 0.717661 0.752751 0.045263
O O17 0.500000 0.851793 0.000000
O O18 0.747644 0.000000 0.000000
O O19 0.500000 0.237720 0.103060
O O20 0.662469 0.000000 0.087895
#
# Coordination Sequence:
#
# PCOD8197590 Si02
#       7
#     8   8   8   4   8   4   8
#     4  10  21  38  61  87 114 147 186 225 268 319
#     4  10  21  38  61  87 112 140 175 215 262 317
#     4  11  24  39  55  77 104 136 175 217 262 313
#     4  11  24  39  56  82 116 153 192 233 276 318
#     4  10  20  33  50  74 103 135 172 213 259 312
#     4   7  10  18  35  61  92 127 166 205 248 300
#     4   8  13  23  41  65  95 131 169 209 253 302
#
# _framework density 19.057838
#
# number of rings (size 3 to 8) (size 9 to 14) (size 15 to 20)
#    0.000    2.333    0.000    4.000    0.000    8.667 
#    0.000    0.417    0.000    2.500    0.000    0.583 
#    0.000    4.667    0.000    0.000    0.000    0.000 
#
# Total GULP energy -595104.945229 kJ/mol
# GULP energy per Si atom -12398.019692 kJ/mol
# Density = 1.901446 g / cm^3
# Si number density = 19.057838 Si / 1000 Ang^3
#
#
#
# Elastic Constant Matrix: (Units=GPa)
#
#
# Indices 1 2 3 4 5 6 
#
# 1 73.2613 30.5850 51.9224 0.0000 0.0000 0.0000
# 2 30.5850 52.3515 36.3257 0.0000 0.0000 0.0000
# 3 51.9224 36.3257 148.3153 0.0000 0.0000 0.0000
# 4 0.0000 0.0000 0.0000 132.7463 0.0000 0.0000
# 5 0.0000 0.0000 0.0000 0.0000 65.9925 0.0000
# 6 0.0000 0.0000 0.0000 0.0000 0.0000 24.4969
#
#
#
# Elastic Compliance Matrix: (Units=1/GPa)
#
#
# Indices 1 2 3 4 5 6 
#
# 1 0.020948 -0.008614 -0.005224 0.000000 0.000000 0.000000
# 2 -0.008614 0.026554 -0.003488 0.000000 0.000000 0.000000
# 3 -0.005224 -0.003488 0.009426 0.000000 0.000000 0.000000
# 4 0.000000 0.000000 0.000000 0.007533 0.000000 0.000000
# 5 0.000000 0.000000 0.000000 0.000000 0.015153 0.000000
# 6 0.000000 0.000000 0.000000 0.000000 0.000000 0.040821
#
#
# Mechanical properties :
#
#
# Convention : Reuss Voigt Hill
#
# Bulk Modulus (GPa) = 44.89048 56.84384 50.86716
# Shear Modulus (GPa) = 30.76676 54.98681 42.87678
#
# Velocity S-wave (km/s) = 4.02230 5.37729 4.74838
# Velocity P-wave (km/s) = 6.72145 8.27317 7.53735
#
# Compressibility (1/GPa) = 0.02227644
#
# Stress axis : x y z
#
# Youngs Moduli (GPa) = 47.73705 37.65847 106.09485
#
# Poissons Ratio (x) = 0.32438 0.55422
# Poissons Ratio (y) = 0.41119 0.37009
# Poissons Ratio (z) = 0.24937 0.13136
#
# Static dielectric constant tensor:
#      x y z
#    x 3.425770 0.000000 0.000000 
#    y 0.000000 3.305110 0.000000 
#    z 0.000000 0.000000 3.876260 
# 
# 
# High freq. dielectric constant tensor:
#      x y z
#    x 1.729580 0.000000 0.000000 
#    y 0.000000 1.716460 0.000000 
#    z 0.000000 0.000000 1.764780 
# 
# From -- ./inp_files/34063.got.cif
#   From: 2010.03.12/outbox.cif.g09.slc.cpg/sg47_18_cif.got.tgz:34063.got - 2010.04.14 03:12:58.
