data_PCOD8197026
_publ_section_title
;
Structure prediction by ZEFSAII (Michael W. Deem and Ramdas Pophale) SiO2 
 PCOD8197026
Probable space group: P M M M
;
_chemical_formula_sum "Si O2"
_cell_formula_units_Z 52
_cell_length_a 9.355181
_cell_length_b 18.953411
_cell_length_c 15.620407
_cell_angle_alpha 90.000000
_cell_angle_beta 90.000000
_cell_angle_gamma 90.000000
_cell_volume 2769.694829
_symmetry_space_group_name_H-M "P M M M"
_symmetry_group_IT_number 47
_symmetry_cell_setting 'orthorhombic'
loop_
_space_group_symop_operation_xyz
x,y,z
-x,-y,z
x,-y,-z
-x,y,-z
-x,-y,-z
x,y,-z
-x,y,z
x,-y,z
loop_
_atom_site_type_symbol
_atom_site_label
_atom_site_fract_x
_atom_site_fract_y
_atom_site_fract_z
Si Si1 0.830347 0.921137 0.751194
Si Si2 0.342886 0.313544 0.598399
Si Si3 0.170950 0.578056 0.000000
Si Si4 0.167463 0.581014 0.684257
Si Si5 0.169416 0.330196 0.153481
Si Si6 0.167416 0.820661 0.599100
Si Si7 0.170410 0.178105 0.902287
O O1 0.783416 0.883382 0.662590
O O2 0.773259 0.882139 0.837235
O O3 0.000000 0.923558 0.755207
O O4 0.765800 0.000000 0.750479
O O5 0.365555 0.298628 0.500000
O O6 0.500000 0.315736 0.642902
O O7 0.260074 0.388696 0.606008
O O8 0.247872 0.248813 0.633767
O O9 0.231664 0.618324 0.081769
O O10 0.235391 0.500000 0.000000
O O11 0.000000 0.575745 0.000000
O O12 0.207632 0.500000 0.705276
O O13 0.218475 0.634901 0.758119
O O14 0.000000 0.586750 0.664042
O O15 0.229418 0.251795 0.136652
O O16 0.000000 0.328781 0.148529
O O17 0.203236 0.840640 0.500000
O O18 0.000000 0.804623 0.609477
O O19 0.000000 0.179682 0.904214
O O20 0.226910 0.165911 0.000000
#
# Coordination Sequence:
#
# PCOD8197026 Si02
#       7
#     8   8   4   8   8   8   8
#     4   9  17  27  41  66  99 132 164 198 239 292
#     4  10  21  36  53  72  95 126 165 207 248 293
#     4   9  14  20  34  58  90 124 154 191 241 289
#     4  10  20  32  48  72 101 132 165 203 249 297
#     4   9  15  25  40  62  93 127 162 200 240 285
#     4   9  17  31  52  75  98 126 160 200 247 297
#     4   9  15  23  36  56  88 132 171 198 235 288
#
# _framework density 18.774630999999999
#
# number of rings (size 3 to 8) (size 9 to 14) (size 15 to 20)
#    0.000    2.692    0.769    1.846    0.000    6.462 
#    0.000    4.615    0.000    0.462    0.000    2.692 
#    0.000    1.846    0.000    4.000    0.000    4.615 
#
# Total GULP energy -644366.673086 kJ/mol
# GULP energy per Si atom -12391.666790 kJ/mol
# Density = 1.873190 g / cm^3
# Si number density = 18.774631 Si / 1000 Ang^3
#
#
#
# Elastic Constant Matrix: (Units=GPa)
#
#
# Indices 1 2 3 4 5 6 
#
# 1 37.0111 37.4840 22.3460 0.0000 0.0000 0.0000
# 2 37.4840 171.4323 69.1316 0.0000 0.0000 0.0000
# 3 22.3460 69.1316 87.0562 0.0000 0.0000 0.0000
# 4 0.0000 0.0000 0.0000 31.5790 0.0000 0.0000
# 5 0.0000 0.0000 0.0000 0.0000 5.8337 0.0000
# 6 0.0000 0.0000 0.0000 0.0000 0.0000 6.0758
#
#
#
# Elastic Compliance Matrix: (Units=1/GPa)
#
#
# Indices 1 2 3 4 5 6 
#
# 1 0.035802 -0.006064 -0.004374 0.000000 0.000000 0.000000
# 2 -0.006064 0.009608 -0.006073 0.000000 0.000000 0.000000
# 3 -0.004374 -0.006073 0.017433 0.000000 0.000000 0.000000
# 4 0.000000 0.000000 0.000000 0.031667 0.000000 0.000000
# 5 0.000000 0.000000 0.000000 0.000000 0.171418 0.000000
# 6 0.000000 0.000000 0.000000 0.000000 0.000000 0.164586
#
#
# Mechanical properties :
#
#
# Convention : Reuss Voigt Hill
#
# Bulk Modulus (GPa) = 33.53568 61.49141 47.51355
# Shear Modulus (GPa) = 10.56018 19.80023 15.18021
#
# Velocity S-wave (km/s) = 2.37422 3.25103 2.84658
# Velocity P-wave (km/s) = 5.04152 6.84951 6.01384
#
# Compressibility (1/GPa) = 0.02981898
#
# Stress axis : x y z
#
# Youngs Moduli (GPa) = 27.93173 104.07662 57.36410
#
# Poissons Ratio (x) = 0.63114 0.25092
# Poissons Ratio (y) = 0.16938 0.34840
# Poissons Ratio (z) = 0.12218 0.63210
#
# Static dielectric constant tensor:
#      x y z
#    x 2.993300 0.000000 0.000000 
#    y 0.000000 3.651070 0.000000 
#    z 0.000000 0.000000 3.634400 
# 
# 
# High freq. dielectric constant tensor:
#      x y z
#    x 1.656500 0.000000 0.000000 
#    y 0.000000 1.735070 0.000000 
#    z 0.000000 0.000000 1.737240 
# 
# From -- ./inp_files/10975.got.cif
#   From: 2010.03.12/outbox.cif.g09.slc.cpg/sg47_6_cif.got.tgz:10975.got - 2010.04.14 03:12:58.
