data_PCOD8197418
_publ_section_title
;
Structure prediction by ZEFSAII (Michael W. Deem and Ramdas Pophale) SiO2 
 PCOD8197418
Probable space group: P M M M
;
_chemical_formula_sum "Si O2"
_cell_formula_units_Z 48
_cell_length_a 9.013562
_cell_length_b 31.183628
_cell_length_c 8.971001
_cell_angle_alpha 90.000000
_cell_angle_beta 90.000000
_cell_angle_gamma 90.000000
_cell_volume 2521.529169
_symmetry_space_group_name_H-M "P M M M"
_symmetry_group_IT_number 47
_symmetry_cell_setting 'orthorhombic'
loop_
_space_group_symop_operation_xyz
x,y,z
-x,-y,z
x,-y,-z
-x,y,-z
-x,-y,-z
x,y,-z
-x,y,z
x,-y,z
loop_
_atom_site_type_symbol
_atom_site_label
_atom_site_fract_x
_atom_site_fract_y
_atom_site_fract_z
Si Si1 0.323012 0.000000 0.831543
Si Si2 0.823710 0.665630 0.832024
Si Si3 0.676694 0.084630 0.331743
Si Si4 0.323913 0.830154 0.830460
Si Si5 0.173772 0.420267 0.674019
Si Si6 0.675090 0.500000 0.171579
Si Si7 0.172777 0.751207 0.325909
O O1 0.261386 0.041966 0.747576
O O2 0.500000 0.000000 0.831098
O O3 0.262388 0.000000 0.000000
O O4 0.766631 0.624169 0.742928
O O5 0.764224 0.708431 0.752400
O O6 0.000000 0.666073 0.830792
O O7 0.761196 0.664049 0.000000
O O8 0.738522 0.086563 0.500000
O O9 0.500000 0.083838 0.332456
O O10 0.735365 0.125757 0.241392
O O11 0.500000 0.828238 0.823583
O O12 0.260901 0.791296 0.736152
O O13 0.266552 0.827548 0.000000
O O14 0.209111 0.419940 0.500000
O O15 0.261436 0.458259 0.750315
O O16 0.000000 0.426733 0.705203
O O17 0.500000 0.500000 0.189500
O O18 0.724697 0.500000 0.000000
O O19 0.203269 0.746631 0.500000
O O20 0.000000 0.757725 0.290611
#
# Coordination Sequence:
#
# PCOD8197418 Si02
#       7
#     4   8   8   8   8   4   8
#     4   9  15  23  37  59  88 121 158 201 248 297
#     4   9  17  31  53  79 105 133 166 207 253 297
#     4   9  16  26  41  62  90 124 161 202 249 299
#     4  10  20  33  49  71 100 133 168 207 252 301
#     4  10  20  35  57  83 107 133 169 211 253 299
#     4  11  24  39  54  76 108 143 176 211 252 298
#     4  10  20  34  53  77 104 134 169 209 252 299
#
# _framework density 19.036066999999999
#
# number of rings (size 3 to 8) (size 9 to 14) (size 15 to 20)
#    0.000    2.333    0.000    3.250    0.000    9.667 
#    0.000    0.833    0.000    5.000    0.000    0.583 
#    0.000    4.667    0.000    0.000    0.000    0.000 
#
# Total GULP energy -595287.660872 kJ/mol
# GULP energy per Si atom -12401.826268 kJ/mol
# Density = 1.899274 g / cm^3
# Si number density = 19.036067 Si / 1000 Ang^3
#
#
#
# Elastic Constant Matrix: (Units=GPa)
#
#
# Indices 1 2 3 4 5 6 
#
# 1 17.6614 26.7248 26.3405 0.0000 0.0000 0.0000
# 2 26.7248 180.3363 68.8598 0.0000 0.0000 0.0000
# 3 26.3405 68.8598 132.7676 0.0000 0.0000 0.0000
# 4 0.0000 0.0000 0.0000 48.2704 0.0000 0.0000
# 5 0.0000 0.0000 0.0000 0.0000 20.8321 0.0000
# 6 0.0000 0.0000 0.0000 0.0000 0.0000 29.8599
#
#
#
# Elastic Compliance Matrix: (Units=1/GPa)
#
#
# Indices 1 2 3 4 5 6 
#
# 1 0.088845 -0.008025 -0.013464 0.000000 0.000000 0.000000
# 2 -0.008025 0.007639 -0.002370 0.000000 0.000000 0.000000
# 3 -0.013464 -0.002370 0.011432 0.000000 0.000000 0.000000
# 4 0.000000 0.000000 0.000000 0.020717 0.000000 0.000000
# 5 0.000000 0.000000 0.000000 0.000000 0.048003 0.000000
# 6 0.000000 0.000000 0.000000 0.000000 0.000000 0.033490
#
#
# Mechanical properties :
#
#
# Convention : Reuss Voigt Hill
#
# Bulk Modulus (GPa) = 16.61187 63.84619 40.22903
# Shear Modulus (GPa) = 17.99140 33.71517 25.85328
#
# Velocity S-wave (km/s) = 3.07762 4.21303 3.68927
# Velocity P-wave (km/s) = 4.62325 7.56826 6.27109
#
# Compressibility (1/GPa) = 0.06019791
#
# Stress axis : x y z
#
# Youngs Moduli (GPa) = 11.25559 130.89947 87.47053
#
# Poissons Ratio (x) = 1.05048 1.17772
# Poissons Ratio (y) = 0.09033 0.20731
# Poissons Ratio (z) = 0.15155 0.31024
#
# Static dielectric constant tensor:
#      x y z
#    x 2.958850 0.000000 0.000000 
#    y 0.000000 3.774030 0.000000 
#    z 0.000000 0.000000 3.771250 
# 
# 
# High freq. dielectric constant tensor:
#      x y z
#    x 1.681430 0.000000 0.000000 
#    y 0.000000 1.761410 0.000000 
#    z 0.000000 0.000000 1.762330 
# 
# From -- ./inp_files/2597.got.cif
#   From: 2010.03.12/outbox.cif.g09.slc.cpg/sg47_2_cif.got.tgz:2597.got - 2010.04.14 03:12:58.
