data_PCOD8197434
_publ_section_title
;
Structure prediction by ZEFSAII (Michael W. Deem and Ramdas Pophale) SiO2 
 PCOD8197434
Probable space group: P M M M
;
_chemical_formula_sum "Si O2"
_cell_formula_units_Z 40
_cell_length_a 9.406370
_cell_length_b 27.572574
_cell_length_c 7.748202
_cell_angle_alpha 90.000000
_cell_angle_beta 90.000000
_cell_angle_gamma 90.000000
_cell_volume 2009.556880
_symmetry_space_group_name_H-M "P M M M"
_symmetry_group_IT_number 47
_symmetry_cell_setting 'orthorhombic'
loop_
_space_group_symop_operation_xyz
x,y,z
-x,-y,z
x,-y,-z
-x,y,-z
-x,-y,-z
x,y,-z
-x,y,z
x,-y,z
loop_
_atom_site_type_symbol
_atom_site_label
_atom_site_fract_x
_atom_site_fract_y
_atom_site_fract_z
Si Si1 0.668798 0.945869 0.500000
Si Si2 0.842901 0.785249 0.204442
Si Si3 0.839565 0.500000 0.706471
Si Si4 0.837848 0.322313 0.203423
Si Si5 0.332571 0.876574 0.802624
Si Si6 0.657203 0.588551 0.697703
O O1 0.500000 0.948311 0.500000
O O2 0.720743 0.918961 0.325451
O O3 0.733958 0.000000 0.500000
O O4 0.796403 0.731808 0.269361
O O5 0.734189 0.826398 0.266599
O O6 0.000000 0.797831 0.276167
O O7 0.847898 0.783624 0.000000
O O8 0.845199 0.500000 0.500000
O O9 0.757559 0.547248 0.781339
O O10 0.000000 0.500000 0.780694
O O11 0.730202 0.359206 0.290974
O O12 0.000000 0.334142 0.258349
O O13 0.820697 0.326581 0.000000
O O14 0.500000 0.869814 0.791407
O O15 0.285742 0.888940 0.000000
O O16 0.636963 0.574803 0.500000
O O17 0.500000 0.589372 0.785682
#
# Coordination Sequence:
#
# PCOD8197434 Si02
#       6
#     4   8   4   8   8   8
#     4   9  18  32  49  73 105 135 167 214 261 298
#     4   8  15  30  51  72  96 128 163 199 243 295
#     4   9  17  31  52  71  90 125 168 208 250 297
#     4   9  18  33  52  73  98 129 164 202 247 300
#     4   9  17  30  50  74  98 130 171 210 253 306
#     4  10  20  33  49  72 100 128 161 203 251 301
#
# _framework density 19.904886000000001
#
# number of rings (size 3 to 8) (size 9 to 14) (size 15 to 20)
#    0.000    3.000    0.000    2.100    0.000    4.000 
#    1.800    5.000    0.000    4.200    0.000    2.800 
#    0.000    0.000    0.000    0.000    0.000    0.000 
#
# Total GULP energy -495755.800054 kJ/mol
# GULP energy per Si atom -12393.895001 kJ/mol
# Density = 1.985958 g / cm^3
# Si number density = 19.904886 Si / 1000 Ang^3
#
#
#
# Elastic Constant Matrix: (Units=GPa)
#
#
# Indices 1 2 3 4 5 6 
#
# 1 106.5725 78.5606 24.7765 0.0000 0.0000 0.0000
# 2 78.5606 179.2934 38.4877 0.0000 0.0000 0.0000
# 3 24.7765 38.4877 49.1725 0.0000 0.0000 0.0000
# 4 0.0000 0.0000 0.0000 34.3922 0.0000 0.0000
# 5 0.0000 0.0000 0.0000 0.0000 13.2164 0.0000
# 6 0.0000 0.0000 0.0000 0.0000 0.0000 27.9498
#
#
#
# Elastic Compliance Matrix: (Units=1/GPa)
#
#
# Indices 1 2 3 4 5 6 
#
# 1 0.014160 -0.005617 -0.002739 0.000000 0.000000 0.000000
# 2 -0.005617 0.008932 -0.004161 0.000000 0.000000 0.000000
# 3 -0.002739 -0.004161 0.024973 0.000000 0.000000 0.000000
# 4 0.000000 0.000000 0.000000 0.029076 0.000000 0.000000
# 5 0.000000 0.000000 0.000000 0.000000 0.075664 0.000000
# 6 0.000000 0.000000 0.000000 0.000000 0.000000 0.035778
#
#
# Mechanical properties :
#
#
# Convention : Reuss Voigt Hill
#
# Bulk Modulus (GPa) = 43.41638 68.74312 56.07975
# Shear Modulus (GPa) = 22.59437 27.99258 25.29348
#
# Velocity S-wave (km/s) = 3.37280 3.75416 3.56858
# Velocity P-wave (km/s) = 6.08498 7.30769 6.72419
#
# Compressibility (1/GPa) = 0.02303278
#
# Stress axis : x y z
#
# Youngs Moduli (GPa) = 70.61954 111.96089 40.04289
#
# Poissons Ratio (x) = 0.62885 0.10967
# Poissons Ratio (y) = 0.39665 0.16661
# Poissons Ratio (z) = 0.19341 0.46585
#
# Static dielectric constant tensor:
#      x y z
#    x 3.697620 0.000000 0.000000 
#    y 0.000000 3.946660 0.000000 
#    z 0.000000 0.000000 3.360180 
# 
# 
# High freq. dielectric constant tensor:
#      x y z
#    x 1.762040 0.000000 0.000000 
#    y 0.000000 1.778510 0.000000 
#    z 0.000000 0.000000 1.752240 
# 
# From -- ./inp_files/1775.got.cif
#   From: 2010.03.12/outbox.cif.g09.slc.cpg/sg47_1_cif.got.tgz:1775.got - 2010.04.14 03:12:58.
