data_PCOD8197974
_publ_section_title
;
Structure prediction by ZEFSAII (Michael W. Deem and Ramdas Pophale) SiO2 
 PCOD8197974
Probable space group: P M M M
;
_chemical_formula_sum "Si O2"
_cell_formula_units_Z 56
_cell_length_a 14.208944
_cell_length_b 8.906593
_cell_length_c 25.646366
_cell_angle_alpha 90.000000
_cell_angle_beta 90.000000
_cell_angle_gamma 90.000000
_cell_volume 3245.631767
_symmetry_space_group_name_H-M "P M M M"
_symmetry_group_IT_number 47
_symmetry_cell_setting 'orthorhombic'
loop_
_space_group_symop_operation_xyz
x,y,z
-x,-y,z
x,-y,-z
-x,y,-z
-x,-y,-z
x,y,-z
-x,y,z
x,-y,z
loop_
_atom_site_type_symbol
_atom_site_label
_atom_site_fract_x
_atom_site_fract_y
_atom_site_fract_z
Si Si1 0.605350 0.678332 0.557466
Si Si2 0.723216 0.824899 0.852890
Si Si3 0.106642 0.325853 0.807485
Si Si4 0.106490 0.175618 0.302444
Si Si5 0.390790 0.824938 0.249953
Si Si6 0.718411 0.678057 0.655880
Si Si7 0.608378 0.672040 0.940037
O O1 0.640482 0.731009 0.500000
O O2 0.500000 0.740015 0.567531
O O3 0.603459 0.500000 0.559873
O O4 0.673453 0.741354 0.602339
O O5 0.821781 0.735012 0.850895
O O6 0.657236 0.779440 0.804427
O O7 0.671953 0.781692 0.906073
O O8 0.745870 0.000000 0.853335
O O9 0.124990 0.500000 0.795948
O O10 0.127559 0.234685 0.755126
O O11 0.000000 0.298475 0.827051
O O12 0.176285 0.256279 0.342525
O O13 0.000000 0.212878 0.319667
O O14 0.127038 0.000000 0.302343
O O15 0.500000 0.781515 0.246064
O O16 0.343930 0.730570 0.295743
O O17 0.376496 0.000000 0.262035
O O18 0.723490 0.500000 0.656449
O O19 0.500000 0.715727 0.931276
O O20 0.625735 0.500000 0.923430
O O21 0.636646 0.696016 0.000000
#
# Coordination Sequence:
#
# PCOD8197974 Si02
#       7
#     8   8   8   8   8   8   8
#     4   8  15  29  48  71 100 132 167 208 252 299
#     4  11  21  33  52  77 106 140 173 206 253 308
#     4  10  20  34  53  77 103 132 170 213 254 300
#     4  10  20  34  51  71  99 135 170 204 250 307
#     4  10  21  34  46  67 104 143 170 198 245 303
#     4  11  20  30  50  77 101 129 168 211 257 305
#     4   9  19  36  56  77 103 138 179 220 259 298
#
# _framework density 17.253959999999999
#
# number of rings (size 3 to 8) (size 9 to 14) (size 15 to 20)
#    0.000    2.143    1.429    3.429    0.000    4.286 
#    0.000    0.714    0.000    2.571    0.000   11.000 
#    0.000    0.000    0.000    0.000    0.000    0.000 
#
# Total GULP energy -694469.621369 kJ/mol
# GULP energy per Si atom -12401.243239 kJ/mol
# Density = 1.721469 g / cm^3
# Si number density = 17.253960 Si / 1000 Ang^3
#
#
#
# Elastic Constant Matrix: (Units=GPa)
#
#
# Indices 1 2 3 4 5 6 
#
# 1 120.7982 43.6417 59.6273 0.0000 0.0000 0.0000
# 2 43.6417 60.2972 36.4165 0.0000 0.0000 0.0000
# 3 59.6273 36.4165 99.9257 0.0000 0.0000 0.0000
# 4 0.0000 0.0000 0.0000 4.9552 0.0000 0.0000
# 5 0.0000 0.0000 0.0000 0.0000 25.3021 0.0000
# 6 0.0000 0.0000 0.0000 0.0000 0.0000 29.8207
#
#
#
# Elastic Compliance Matrix: (Units=1/GPa)
#
#
# Indices 1 2 3 4 5 6 
#
# 1 0.013332 -0.006212 -0.005692 0.000000 0.000000 0.000000
# 2 -0.006212 0.024159 -0.005098 0.000000 0.000000 0.000000
# 3 -0.005692 -0.005098 0.015261 0.000000 0.000000 0.000000
# 4 0.000000 0.000000 0.000000 0.201806 0.000000 0.000000
# 5 0.000000 0.000000 0.000000 0.000000 0.039522 0.000000
# 6 0.000000 0.000000 0.000000 0.000000 0.000000 0.033534
#
#
# Mechanical properties :
#
#
# Convention : Reuss Voigt Hill
#
# Bulk Modulus (GPa) = 53.33247 62.26578 57.79913
# Shear Modulus (GPa) = 13.59183 21.43796 17.51490
#
# Velocity S-wave (km/s) = 2.80974 3.52873 3.18956
# Velocity P-wave (km/s) = 6.44232 7.26421 6.86558
#
# Compressibility (1/GPa) = 0.01875030
#
# Stress axis : x y z
#
# Youngs Moduli (GPa) = 75.00807 41.39176 65.52439
#
# Poissons Ratio (x) = 0.25712 0.37293
# Poissons Ratio (y) = 0.46594 0.33403
# Poissons Ratio (z) = 0.42691 0.21101
#
# Static dielectric constant tensor:
#      x y z
#    x 3.400720 0.000000 0.000000 
#    y 0.000000 3.119380 0.000000 
#    z 0.000000 0.000000 3.175750 
# 
# 
# High freq. dielectric constant tensor:
#      x y z
#    x 1.671520 0.000000 0.000000 
#    y 0.000000 1.663010 0.000000 
#    z 0.000000 0.000000 1.647730 
# 
# From -- ./inp_files/30969.got.cif
#   From: 2010.03.12/outbox.cif.g09.slc.cpg/sg47_16_cif.got.tgz:30969.got - 2010.04.14 03:12:58.
