data_PCOD8197182
_publ_section_title
;
Structure prediction by ZEFSAII (Michael W. Deem and Ramdas Pophale) SiO2 
 PCOD8197182
Probable space group: P M M M
;
_chemical_formula_sum "Si O2"
_cell_formula_units_Z 44
_cell_length_a 9.574878
_cell_length_b 28.109206
_cell_length_c 9.456670
_cell_angle_alpha 90.000000
_cell_angle_beta 90.000000
_cell_angle_gamma 90.000000
_cell_volume 2545.189140
_symmetry_space_group_name_H-M "P M M M"
_symmetry_group_IT_number 47
_symmetry_cell_setting 'orthorhombic'
loop_
_space_group_symop_operation_xyz
x,y,z
-x,-y,z
x,-y,-z
-x,y,-z
-x,-y,-z
x,y,-z
-x,y,z
x,-y,z
loop_
_atom_site_type_symbol
_atom_site_label
_atom_site_fract_x
_atom_site_fract_y
_atom_site_fract_z
Si Si1 0.664732 0.127981 0.336628
Si Si2 0.165219 0.500000 0.654436
Si Si3 0.840255 0.397324 0.331566
Si Si4 0.334181 0.216059 0.156537
Si Si5 0.662417 0.677826 0.163967
Si Si6 0.160004 0.944604 0.161710
O O1 0.705686 0.129762 0.500000
O O2 0.500000 0.121988 0.313883
O O3 0.720966 0.176831 0.266573
O O4 0.738994 0.083345 0.265840
O O5 0.235952 0.500000 0.500000
O O6 0.206547 0.449864 0.729088
O O7 0.000000 0.500000 0.634720
O O8 0.821497 0.396068 0.500000
O O9 0.744773 0.358121 0.261530
O O10 0.000000 0.386759 0.289815
O O11 0.500000 0.216267 0.151742
O O12 0.284584 0.268818 0.201504
O O13 0.276352 0.203478 0.000000
O O14 0.500000 0.672290 0.199338
O O15 0.691554 0.666761 0.000000
O O16 0.000000 0.930450 0.192161
O O17 0.183240 0.000000 0.191650
O O18 0.198952 0.932440 0.000000
#
# Coordination Sequence:
#
# PCOD8197182 Si02
#       6
#     8   4   8   8   8   8
#     4  10  20  32  49  76 104 126 154 196 241 282
#     4   7  12  26  46  65  88 120 156 193 232 275
#     4   9  17  30  49  71  93 120 157 198 237 279
#     4   8  15  30  50  68  90 125 164 196 229 275
#     4   9  18  32  49  70  96 125 157 193 235 283
#     4   9  19  36  55  73  95 127 166 201 233 276
#
# _framework density 17.287514999999999
#
# number of rings (size 3 to 8) (size 9 to 14) (size 15 to 20)
#    0.000    3.182    0.000    3.273    0.000    3.636 
#    0.000    6.364    0.000    5.455    0.000    0.000 
#    0.000    0.000    0.000    0.000    0.000    0.000 
#
# Total GULP energy -545270.194598 kJ/mol
# GULP energy per Si atom -12392.504423 kJ/mol
# Density = 1.724817 g / cm^3
# Si number density = 17.287515 Si / 1000 Ang^3
#
#
#
# Elastic Constant Matrix: (Units=GPa)
#
#
# Indices 1 2 3 4 5 6 
#
# 1 44.3726 47.5447 42.9019 0.0000 0.0000 0.0000
# 2 47.5447 133.1158 75.7594 0.0000 0.0000 0.0000
# 3 42.9019 75.7594 94.7960 0.0000 0.0000 0.0000
# 4 0.0000 0.0000 0.0000 30.1032 0.0000 0.0000
# 5 0.0000 0.0000 0.0000 0.0000 26.7802 0.0000
# 6 0.0000 0.0000 0.0000 0.0000 0.0000 47.5452
#
#
#
# Elastic Compliance Matrix: (Units=1/GPa)
#
#
# Indices 1 2 3 4 5 6 
#
# 1 0.044377 -0.008107 -0.013604 0.000000 0.000000 0.000000
# 2 -0.008107 0.015261 -0.008527 0.000000 0.000000 0.000000
# 3 -0.013604 -0.008527 0.023521 0.000000 0.000000 0.000000
# 4 0.000000 0.000000 0.000000 0.033219 0.000000 0.000000
# 5 0.000000 0.000000 0.000000 0.000000 0.037341 0.000000
# 6 0.000000 0.000000 0.000000 0.000000 0.000000 0.021033
#
#
# Mechanical properties :
#
#
# Convention : Reuss Voigt Hill
#
# Bulk Modulus (GPa) = 44.09037 67.18849 55.63943
# Shear Modulus (GPa) = 20.59396 27.95759 24.27578
#
# Velocity S-wave (km/s) = 3.45521 4.02582 3.75138
# Velocity P-wave (km/s) = 6.44030 7.78199 7.14272
#
# Compressibility (1/GPa) = 0.02268069
#
# Stress axis : x y z
#
# Youngs Moduli (GPa) = 22.53420 65.52654 42.51578
#
# Poissons Ratio (x) = 0.53125 0.57840
# Poissons Ratio (y) = 0.18270 0.36254
# Poissons Ratio (z) = 0.30656 0.55875
#
# Static dielectric constant tensor:
#      x y z
#    x 2.899380 0.000000 0.000000 
#    y 0.000000 3.504780 0.000000 
#    z 0.000000 0.000000 3.119930 
# 
# 
# High freq. dielectric constant tensor:
#      x y z
#    x 1.635450 0.000000 0.000000 
#    y 0.000000 1.684440 0.000000 
#    z 0.000000 0.000000 1.654860 
# 
# From -- ./inp_files/2033.got.cif
#   From: 2010.03.12/outbox.cif.g09.slc.cpg/sg47_2_cif.got.tgz:2033.got - 2010.04.14 03:12:58.
