data_PCOD8197079
_publ_section_title
;
Structure prediction by ZEFSAII (Michael W. Deem and Ramdas Pophale) SiO2 
 PCOD8197079
Probable space group: P M M M
;
_chemical_formula_sum "Si O2"
_cell_formula_units_Z 48
_cell_length_a 31.146754
_cell_length_b 9.469242
_cell_length_c 9.002533
_cell_angle_alpha 90.000000
_cell_angle_beta 90.000000
_cell_angle_gamma 90.000000
_cell_volume 2655.172434
_symmetry_space_group_name_H-M "P M M M"
_symmetry_group_IT_number 47
_symmetry_cell_setting 'orthorhombic'
loop_
_space_group_symop_operation_xyz
x,y,z
-x,-y,z
x,-y,-z
-x,y,-z
-x,-y,-z
x,y,-z
-x,y,z
x,-y,z
loop_
_atom_site_type_symbol
_atom_site_label
_atom_site_fract_x
_atom_site_fract_y
_atom_site_fract_z
Si Si1 0.047450 0.658071 0.323673
Si Si2 0.452777 0.841169 0.823429
Si Si3 0.711433 0.667744 0.667208
Si Si4 0.202431 0.336880 0.824818
Si Si5 0.373397 0.664089 0.826322
Si Si6 0.127275 0.836094 0.324690
O O1 0.046894 0.659208 0.500000
O O2 0.058994 0.500000 0.267276
O O3 0.082728 0.768608 0.265402
O O4 0.000000 0.701764 0.264576
O O5 0.500000 0.790764 0.767380
O O6 0.415519 0.740668 0.760019
O O7 0.443982 0.000000 0.767754
O O8 0.452112 0.835694 0.000000
O O9 0.714323 0.726810 0.500000
O O10 0.709767 0.500000 0.669242
O O11 0.752829 0.719493 0.758049
O O12 0.668401 0.726733 0.744248
O O13 0.194115 0.500000 0.780313
O O14 0.165481 0.240750 0.758597
O O15 0.204342 0.317954 0.000000
O O16 0.379575 0.500000 0.792715
O O17 0.367208 0.693754 0.000000
O O18 0.132958 0.812902 0.500000
O O19 0.127048 0.000000 0.281909
#
# Coordination Sequence:
#
# PCOD8197079 Si02
#       6
#     8   8   8   8   8   8
#     4   8  14  26  46  72 100 130 165 203 240 280
#     4   8  14  25  41  62  89 120 152 185 223 269
#     4   9  17  30  49  71  94 121 153 191 237 287
#     4  10  20  34  53  74  95 124 164 205 244 289
#     4   9  16  26  43  68  94 117 147 190 233 272
#     4  10  20  32  48  73 104 135 165 199 242 290
#
# _framework density 18.077921
#
# number of rings (size 3 to 8) (size 9 to 14) (size 15 to 20)
#    0.000    3.000    0.000    2.500    0.000    4.667 
#    0.000    4.167    0.000    4.500    0.000    7.000 
#    0.000    0.000    0.000    0.000    0.000    0.000 
#
# Total GULP energy -595010.907453 kJ/mol
# GULP energy per Si atom -12396.060572 kJ/mol
# Density = 1.803678 g / cm^3
# Si number density = 18.077921 Si / 1000 Ang^3
#
#
#
# Elastic Constant Matrix: (Units=GPa)
#
#
# Indices 1 2 3 4 5 6 
#
# 1 202.3545 88.0498 55.0466 0.0000 0.0000 0.0000
# 2 88.0498 85.9106 38.7454 0.0000 0.0000 0.0000
# 3 55.0466 38.7454 50.3545 0.0000 0.0000 0.0000
# 4 0.0000 0.0000 0.0000 14.8727 0.0000 0.0000
# 5 0.0000 0.0000 0.0000 0.0000 -0.4677 0.0000
# 6 0.0000 0.0000 0.0000 0.0000 0.0000 6.4319
#
#
#
# Elastic Compliance Matrix: (Units=1/GPa)
#
#
# Indices 1 2 3 4 5 6 
#
# 1 0.009528 -0.007761 -0.004444 0.000000 0.000000 0.000000
# 2 -0.007761 0.024147 -0.010097 0.000000 0.000000 0.000000
# 3 -0.004444 -0.010097 0.032486 0.000000 0.000000 0.000000
# 4 0.000000 0.000000 0.000000 0.067237 0.000000 0.000000
# 5 0.000000 0.000000 0.000000 0.000000 -2.138219 0.000000
# 6 0.000000 0.000000 0.000000 0.000000 0.000000 0.155476
#
#
# Mechanical properties :
#
#
# Convention : Reuss Voigt Hill
#
# Bulk Modulus (GPa) = 46.38469 78.03371 62.20920
# Shear Modulus (GPa) = -2.78155 14.61923 5.91884
#
# Velocity S-wave (km/s) = -1.24177 2.84681 1.81140
# Velocity P-wave (km/s) = 4.86394 7.35287 6.23388
#
# Compressibility (1/GPa) = 0.02155884
#
# Stress axis : x y z
#
# Youngs Moduli (GPa) = 104.95879 41.41244 30.78249
#
# Poissons Ratio (x) = 0.32139 0.13680
# Poissons Ratio (y) = 0.81454 0.31080
# Poissons Ratio (z) = 0.46643 0.41812
#
# Static dielectric constant tensor:
#      x y z
#    x 3.810060 0.000000 0.000000 
#    y 0.000000 3.235050 0.000000 
#    z 0.000000 0.000000 3.032760 
# 
# 
# High freq. dielectric constant tensor:
#      x y z
#    x 1.720300 0.000000 0.000000 
#    y 0.000000 1.675910 0.000000 
#    z 0.000000 0.000000 1.663230 
# 
# From -- ./inp_files/2494.got.cif
#   From: 2010.03.12/outbox.cif.g09.slc.cpg/sg47_2_cif.got.tgz:2494.got - 2010.04.14 03:12:58.
