data_PCOD8197198
_publ_section_title
;
Structure prediction by ZEFSAII (Michael W. Deem and Ramdas Pophale) SiO2 
 PCOD8197198
Probable space group: P M M M
;
_chemical_formula_sum "Si O2"
_cell_formula_units_Z 36
_cell_length_a 23.166381
_cell_length_b 9.140077
_cell_length_c 9.009200
_cell_angle_alpha 90.000000
_cell_angle_beta 90.000000
_cell_angle_gamma 90.000000
_cell_volume 1907.630586
_symmetry_space_group_name_H-M "P M M M"
_symmetry_group_IT_number 47
_symmetry_cell_setting 'orthorhombic'
loop_
_space_group_symop_operation_xyz
x,y,z
-x,-y,z
x,-y,-z
-x,y,-z
-x,-y,-z
x,y,-z
-x,y,z
x,-y,z
loop_
_atom_site_type_symbol
_atom_site_label
_atom_site_fract_x
_atom_site_fract_y
_atom_site_fract_z
Si Si1 0.722686 0.331064 0.827720
Si Si2 0.936507 0.826145 0.833367
Si Si3 0.824926 0.173872 0.332393
Si Si4 0.500000 0.827267 0.829130
Si Si5 0.395417 0.330251 0.673610
O O1 0.737128 0.500000 0.797546
O O2 0.775743 0.235429 0.773091
O O3 0.666147 0.282367 0.738152
O O4 0.711487 0.299639 0.000000
O O5 0.886894 0.766181 0.724399
O O6 0.000000 0.771667 0.779702
O O7 0.935580 0.000000 0.833517
O O8 0.924398 0.768514 0.000000
O O9 0.815887 0.229967 0.500000
O O10 0.822599 0.000000 0.323887
O O11 0.556470 0.765460 0.751580
O O12 0.500000 0.000000 0.811127
O O13 0.500000 0.778562 0.000000
O O14 0.395943 0.296477 0.500000
O O15 0.408044 0.500000 0.706871
#
# Coordination Sequence:
#
# PCOD8197198 Si02
#       5
#     8   8   8   4   8
#     4  10  21  37  57  79 103 136 177 217 259 308
#     4   8  14  26  45  69  98 133 172 213 257 306
#     4  10  20  32  49  76 107 138 172 212 261 313
#     4  11  24  39  56  82 114 145 176 211 254 302
#     4  10  21  38  60  83 106 136 175 216 259 308
#
# _framework density 18.871579000000001
#
# number of rings (size 3 to 8) (size 9 to 14) (size 15 to 20)
#    0.000    2.333    0.000    3.333    0.000    7.556 
#    0.000    2.222    0.000    0.667    0.000    4.667 
#    0.000    0.000    0.000    0.000    0.000    0.000 
#
# Total GULP energy -446425.753711 kJ/mol
# GULP energy per Si atom -12400.715381 kJ/mol
# Density = 1.882863 g / cm^3
# Si number density = 18.871579 Si / 1000 Ang^3
#
#
#
# Elastic Constant Matrix: (Units=GPa)
#
#
# Indices 1 2 3 4 5 6 
#
# 1 150.1952 42.2783 69.5212 0.0000 0.0000 0.0000
# 2 42.2783 33.2170 37.5467 0.0000 0.0000 0.0000
# 3 69.5212 37.5467 116.6372 0.0000 0.0000 0.0000
# 4 0.0000 0.0000 0.0000 25.3219 0.0000 0.0000
# 5 0.0000 0.0000 0.0000 0.0000 92.8784 0.0000
# 6 0.0000 0.0000 0.0000 0.0000 0.0000 26.9455
#
#
#
# Elastic Compliance Matrix: (Units=1/GPa)
#
#
# Indices 1 2 3 4 5 6 
#
# 1 0.011109 -0.010461 -0.003254 0.000000 0.000000 0.000000
# 2 -0.010461 0.057177 -0.012170 0.000000 0.000000 0.000000
# 3 -0.003254 -0.012170 0.014431 0.000000 0.000000 0.000000
# 4 0.000000 0.000000 0.000000 0.039492 0.000000 0.000000
# 5 0.000000 0.000000 0.000000 0.000000 0.010767 0.000000
# 6 0.000000 0.000000 0.000000 0.000000 0.000000 0.037112
#
#
# Mechanical properties :
#
#
# Convention : Reuss Voigt Hill
#
# Bulk Modulus (GPa) = 32.31491 66.52688 49.42090
# Shear Modulus (GPa) = 21.53570 39.07603 30.30586
#
# Velocity S-wave (km/s) = 3.38179 4.55535 4.01172
# Velocity P-wave (km/s) = 5.69293 7.93708 6.90676
#
# Compressibility (1/GPa) = 0.03094546
#
# Stress axis : x y z
#
# Youngs Moduli (GPa) = 90.01851 17.48963 69.29640
#
# Poissons Ratio (x) = 0.18296 0.22548
# Poissons Ratio (y) = 0.94171 0.84336
# Poissons Ratio (z) = 0.29290 0.21286
#
# Static dielectric constant tensor:
#      x y z
#    x 2.900060 0.000000 0.000000 
#    y 0.000000 3.132350 0.000000 
#    z 0.000000 0.000000 3.680100 
# 
# 
# High freq. dielectric constant tensor:
#      x y z
#    x 1.750980 0.000000 0.000000 
#    y 0.000000 1.697730 0.000000 
#    z 0.000000 0.000000 1.745910 
# 
# From -- ./inp_files/1364.got.cif
#   From: 2010.03.12/outbox.cif.g09.slc.cpg/sg47_1_cif.got.tgz:1364.got - 2010.04.14 03:12:58.
