data_PCOD8197476
_publ_section_title
;
Structure prediction by ZEFSAII (Michael W. Deem and Ramdas Pophale) SiO2 
 PCOD8197476
Probable space group: P M M M
;
_chemical_formula_sum "Si O2"
_cell_formula_units_Z 52
_cell_length_a 8.618450
_cell_length_b 16.398883
_cell_length_c 20.592014
_cell_angle_alpha 90.000000
_cell_angle_beta 90.000000
_cell_angle_gamma 90.000000
_cell_volume 2910.330151
_symmetry_space_group_name_H-M "P M M M"
_symmetry_group_IT_number 47
_symmetry_cell_setting 'orthorhombic'
loop_
_space_group_symop_operation_xyz
x,y,z
-x,-y,z
x,-y,-z
-x,y,-z
-x,-y,-z
x,y,-z
-x,y,z
x,-y,z
loop_
_atom_site_type_symbol
_atom_site_label
_atom_site_fract_x
_atom_site_fract_y
_atom_site_fract_z
Si Si1 0.820106 0.000000 0.787736
Si Si2 0.184475 0.903822 0.000000
Si Si3 0.320824 0.000000 0.350498
Si Si4 0.682809 0.145176 0.133800
Si Si5 0.182635 0.257919 0.232944
Si Si6 0.180996 0.831576 0.363524
Si Si7 0.682478 0.407598 0.699615
Si Si8 0.320280 0.317147 0.427929
O O1 0.785397 0.078560 0.829901
O O2 0.711928 0.000000 0.725650
O O3 0.000000 0.000000 0.766397
O O4 0.261362 0.856548 0.059936
O O5 0.000000 0.892498 0.000000
O O6 0.228417 0.000000 0.000000
O O7 0.252925 0.918383 0.382480
O O8 0.500000 0.000000 0.364576
O O9 0.500000 0.126991 0.138295
O O10 0.724697 0.231110 0.168107
O O11 0.236999 0.199741 0.292527
O O12 0.227631 0.350881 0.249324
O O13 0.000000 0.252168 0.220519
O O14 0.227263 0.766459 0.417905
O O15 0.000000 0.843127 0.362593
O O16 0.500000 0.397118 0.710677
O O17 0.736438 0.500000 0.711681
O O18 0.728592 0.384090 0.625552
O O19 0.282709 0.351475 0.500000
O O20 0.500000 0.295360 0.420525
#
# Coordination Sequence:
#
# PCOD8197476 Si02
#       8
#     4   4   4   8   8   8   8   8
#     4  12  22  33  49  73 105 140 178 218 265 313
#     4  11  23  37  53  73 109 152 187 226 266 308
#     4  12  22  32  50  74  98 130 173 223 268 310
#     4  12  23  35  53  77 106 143 186 225 263 309
#     4  10  20  34  53  75 104 138 173 216 266 319
#     4  10  20  33  50  71  99 132 171 218 264 312
#     4   9  18  33  54  81 110 136 168 212 262 318
#     4   9  18  33  52  74 103 137 172 210 257 316
#
# _framework density 17.867388999999999
#
# number of rings (size 3 to 8) (size 9 to 14) (size 15 to 20)
#    0.000    1.615    2.308    3.923    0.000    2.462 
#    0.000    1.923    0.000    2.308    0.000    4.846 
#    0.000    4.308    0.000    0.000    0.000    0.000 
#
# Total GULP energy -644873.646172 kJ/mol
# GULP energy per Si atom -12401.416273 kJ/mol
# Density = 1.782672 g / cm^3
# Si number density = 17.867389 Si / 1000 Ang^3
#
#
#
# Elastic Constant Matrix: (Units=GPa)
#
#
# Indices 1 2 3 4 5 6 
#
# 1 67.3221 33.9192 22.2395 0.0000 0.0000 0.0000
# 2 33.9192 113.6941 32.8118 0.0000 0.0000 0.0000
# 3 22.2395 32.8118 82.5584 0.0000 0.0000 0.0000
# 4 0.0000 0.0000 0.0000 28.1197 0.0000 0.0000
# 5 0.0000 0.0000 0.0000 0.0000 24.0317 0.0000
# 6 0.0000 0.0000 0.0000 0.0000 0.0000 23.6666
#
#
#
# Elastic Compliance Matrix: (Units=1/GPa)
#
#
# Indices 1 2 3 4 5 6 
#
# 1 0.018155 -0.004524 -0.003093 0.000000 0.000000 0.000000
# 2 -0.004524 0.011062 -0.003178 0.000000 0.000000 0.000000
# 3 -0.003093 -0.003178 0.014209 0.000000 0.000000 0.000000
# 4 0.000000 0.000000 0.000000 0.035562 0.000000 0.000000
# 5 0.000000 0.000000 0.000000 0.000000 0.041612 0.000000
# 6 0.000000 0.000000 0.000000 0.000000 0.000000 0.042254
#
#
# Mechanical properties :
#
#
# Convention : Reuss Voigt Hill
#
# Bulk Modulus (GPa) = 45.79340 49.05729 47.42534
# Shear Modulus (GPa) = 26.07954 26.80387 26.44171
#
# Velocity S-wave (km/s) = 3.82464 3.87739 3.85110
# Velocity P-wave (km/s) = 6.72228 6.89648 6.80994
#
# Compressibility (1/GPa) = 0.02183721
#
# Stress axis : x y z
#
# Youngs Moduli (GPa) = 55.08177 90.39728 70.37907
#
# Poissons Ratio (x) = 0.40893 0.21766
# Poissons Ratio (y) = 0.24918 0.22366
# Poissons Ratio (z) = 0.17035 0.28728
#
# Static dielectric constant tensor:
#      x y z
#    x 3.292360 0.000000 0.000000 
#    y 0.000000 3.255350 0.000000 
#    z 0.000000 0.000000 3.285980 
# 
# 
# High freq. dielectric constant tensor:
#      x y z
#    x 1.700050 0.000000 0.000000 
#    y 0.000000 1.676690 0.000000 
#    z 0.000000 0.000000 1.672680 
# 
# From -- ./inp_files/29638.got.cif
#   From: 2010.03.12/outbox.cif.g09.slc.cpg/sg47_15_cif.got.tgz:29638.got - 2010.04.14 03:12:58.
