data_PCOD8197005
_publ_section_title
;
Structure prediction by ZEFSAII (Michael W. Deem and Ramdas Pophale) SiO2 
 PCOD8197005
Probable space group: P M M M
;
_chemical_formula_sum "Si O2"
_cell_formula_units_Z 36
_cell_length_a 11.692160
_cell_length_b 19.441803
_cell_length_c 9.161637
_cell_angle_alpha 90.000000
_cell_angle_beta 90.000000
_cell_angle_gamma 90.000000
_cell_volume 2082.592827
_symmetry_space_group_name_H-M "P M M M"
_symmetry_group_IT_number 47
_symmetry_cell_setting 'orthorhombic'
loop_
_space_group_symop_operation_xyz
x,y,z
-x,-y,z
x,-y,-z
-x,y,-z
-x,-y,-z
x,y,-z
-x,y,z
x,-y,z
loop_
_atom_site_type_symbol
_atom_site_label
_atom_site_fract_x
_atom_site_fract_y
_atom_site_fract_z
Si Si1 0.711435 0.578465 0.831835
Si Si2 0.865742 0.919522 0.000000
Si Si3 0.278798 0.180010 0.837962
Si Si4 0.126087 0.301510 0.828771
Si Si5 0.500000 0.198102 0.672062
Si Si6 0.500000 0.357362 0.328082
O O1 0.741730 0.500000 0.794133
O O2 0.823861 0.623052 0.796893
O O3 0.609862 0.604232 0.731818
O O4 0.673928 0.586846 0.000000
O O5 0.806255 0.885889 0.144179
O O6 0.000000 0.902056 0.000000
O O7 0.842016 0.000000 0.000000
O O8 0.208814 0.242714 0.762360
O O9 0.387174 0.161542 0.737518
O O10 0.323133 0.202314 0.000000
O O11 0.000000 0.297515 0.757024
O O12 0.116084 0.286644 0.000000
O O13 0.500000 0.187534 0.500000
O O14 0.500000 0.277834 0.720172
O O15 0.500000 0.364038 0.500000
#
# Coordination Sequence:
#
# PCOD8197005 Si02
#       6
#     8   4   8   8   4   4
#     4  10  20  32  48  71  97 126 167 217 265 316
#     4   9  18  33  59  93 118 134 166 214 254 298
#     4   9  18  31  55  81 105 138 173 209 255 308
#     4   9  16  28  48  73  99 128 166 208 256 312
#     4  11  21  34  52  78 108 139 180 224 261 304
#     4  11  22  34  49  68  95 132 172 218 265 311
#
# _framework density 17.286142999999999
#
# number of rings (size 3 to 8) (size 9 to 14) (size 15 to 20)
#    0.667    1.667    2.222    1.667    0.000    3.111 
#    0.000    3.333    0.000    6.000    0.000    3.111 
#    0.000    0.000    0.000    0.000    0.000    0.000 
#
# Total GULP energy -446249.539543 kJ/mol
# GULP energy per Si atom -12395.820543 kJ/mol
# Density = 1.724680 g / cm^3
# Si number density = 17.286143 Si / 1000 Ang^3
#
#
#
# Elastic Constant Matrix: (Units=GPa)
#
#
# Indices 1 2 3 4 5 6 
#
# 1 147.9329 56.0715 40.8778 0.0000 0.0000 0.0000
# 2 56.0715 107.2042 26.4401 0.0000 0.0000 0.0000
# 3 40.8778 26.4401 45.5737 0.0000 0.0000 0.0000
# 4 0.0000 0.0000 0.0000 12.3147 0.0000 0.0000
# 5 0.0000 0.0000 0.0000 0.0000 -10.6698 0.0000
# 6 0.0000 0.0000 0.0000 0.0000 0.0000 29.1342
#
#
#
# Elastic Compliance Matrix: (Units=1/GPa)
#
#
# Indices 1 2 3 4 5 6 
#
# 1 0.010013 -0.003527 -0.006935 0.000000 0.000000 0.000000
# 2 -0.003527 0.012128 -0.003873 0.000000 0.000000 0.000000
# 3 -0.006935 -0.003873 0.030410 0.000000 0.000000 0.000000
# 4 0.000000 0.000000 0.000000 0.081204 0.000000 0.000000
# 5 0.000000 0.000000 0.000000 0.000000 -0.093723 0.000000
# 6 0.000000 0.000000 0.000000 0.000000 0.000000 0.034324
#
#
# Mechanical properties :
#
#
# Convention : Reuss Voigt Hill
#
# Bulk Modulus (GPa) = 41.87370 60.83218 51.35294
# Shear Modulus (GPa) = 45.05109 17.97726 31.51417
#
# Velocity S-wave (km/s) = 5.11063 3.22837 4.27440
# Velocity P-wave (km/s) = 7.68773 7.01172 7.35749
#
# Compressibility (1/GPa) = 0.02388134
#
# Stress axis : x y z
#
# Youngs Moduli (GPa) = 99.87114 82.45578 32.88410
#
# Poissons Ratio (x) = 0.29079 0.22806
# Poissons Ratio (y) = 0.35221 0.12735
# Poissons Ratio (z) = 0.69262 0.31933
#
# Static dielectric constant tensor:
#      x y z
#    x 3.455820 0.000000 0.000000 
#    y 0.000000 3.130430 0.000000 
#    z 0.000000 0.000000 2.812050 
# 
# 
# High freq. dielectric constant tensor:
#      x y z
#    x 1.678260 0.000000 0.000000 
#    y 0.000000 1.657520 0.000000 
#    z 0.000000 0.000000 1.620310 
# 
# From -- ./inp_files/3949.got.cif
#   From: 2010.03.12/outbox.cif.g09.slc.cpg/sg47_2_cif.got.tgz:3949.got - 2010.04.14 03:12:58.
