data_PCOD8197931
_publ_section_title
;
Structure prediction by ZEFSAII (Michael W. Deem and Ramdas Pophale) SiO2 
 PCOD8197931
Probable space group: P M M M
;
_chemical_formula_sum "Si O2"
_cell_formula_units_Z 40
_cell_length_a 15.601807
_cell_length_b 9.212601
_cell_length_c 14.503836
_cell_angle_alpha 90.000000
_cell_angle_beta 90.000000
_cell_angle_gamma 90.000000
_cell_volume 2084.683091
_symmetry_space_group_name_H-M "P M M M"
_symmetry_group_IT_number 47
_symmetry_cell_setting 'orthorhombic'
loop_
_space_group_symop_operation_xyz
x,y,z
-x,-y,z
x,-y,-z
-x,y,-z
-x,-y,-z
x,y,-z
-x,y,z
x,-y,z
loop_
_atom_site_type_symbol
_atom_site_label
_atom_site_fract_x
_atom_site_fract_y
_atom_site_fract_z
Si Si1 0.000000 0.327168 0.103412
Si Si2 0.901305 0.169770 0.603682
Si Si3 0.652270 0.669286 0.793591
Si Si4 0.500000 0.167206 0.108596
Si Si5 0.157959 0.669058 0.223691
Si Si6 0.403482 0.671923 0.401106
O O1 0.915525 0.269332 0.156062
O O2 0.000000 0.500000 0.099561
O O3 0.000000 0.262887 0.000000
O O4 0.872873 0.213543 0.500000
O O5 0.843819 0.254305 0.677151
O O6 0.000000 0.213373 0.618993
O O7 0.888335 0.000000 0.619223
O O8 0.626848 0.500000 0.801453
O O9 0.586394 0.758913 0.854773
O O10 0.750164 0.696409 0.825693
O O11 0.649926 0.724690 0.687221
O O12 0.500000 0.000000 0.139101
O O13 0.500000 0.185361 0.000000
O O14 0.143824 0.500000 0.242865
O O15 0.366817 0.730881 0.500000
O O16 0.500000 0.729604 0.387975
O O17 0.403405 0.500000 0.404385
#
# Coordination Sequence:
#
# PCOD8197931 Si02
#       6
#     4   8   8   4   8   8
#     4   9  18  34  52  73 108 144 173 219 284 341
#     4   9  18  33  53  77 110 155 197 229 269 323
#     4  10  20  35  58  86 110 139 184 230 274 329
#     4  11  25  43  60  79 108 146 183 227 286 339
#     4  10  20  33  55  85 111 141 184 232 282 331
#     4   8  13  24  46  74 103 134 166 205 256 312
#
# _framework density 19.187567999999999
#
# number of rings (size 3 to 8) (size 9 to 14) (size 15 to 20)
#    0.000    2.600    2.000    1.500    0.000    3.600 
#    0.000    5.000    0.000    2.400    0.000    0.000 
#    0.000    0.000    0.000    0.000    0.000    0.000 
#
# Total GULP energy -495759.890639 kJ/mol
# GULP energy per Si atom -12393.997266 kJ/mol
# Density = 1.914390 g / cm^3
# Si number density = 19.187568 Si / 1000 Ang^3
#
#
#
# Elastic Constant Matrix: (Units=GPa)
#
#
# Indices 1 2 3 4 5 6 
#
# 1 125.4339 42.2896 63.0076 0.0000 0.0000 0.0000
# 2 42.2896 53.6029 42.4371 0.0000 0.0000 0.0000
# 3 63.0076 42.4371 119.5791 0.0000 0.0000 0.0000
# 4 0.0000 0.0000 0.0000 24.6850 0.0000 0.0000
# 5 0.0000 0.0000 0.0000 0.0000 13.2924 0.0000
# 6 0.0000 0.0000 0.0000 0.0000 0.0000 16.8248
#
#
#
# Elastic Compliance Matrix: (Units=1/GPa)
#
#
# Indices 1 2 3 4 5 6 
#
# 1 0.012206 -0.006311 -0.004192 0.000000 0.000000 0.000000
# 2 -0.006311 0.029209 -0.007040 0.000000 0.000000 0.000000
# 3 -0.004192 -0.007040 0.013070 0.000000 0.000000 0.000000
# 4 0.000000 0.000000 0.000000 0.040510 0.000000 0.000000
# 5 0.000000 0.000000 0.000000 0.000000 0.075231 0.000000
# 6 0.000000 0.000000 0.000000 0.000000 0.000000 0.059436
#
#
# Mechanical properties :
#
#
# Convention : Reuss Voigt Hill
#
# Bulk Modulus (GPa) = 51.55182 66.00940 58.78061
# Shear Modulus (GPa) = 18.43568 21.01923 19.72745
#
# Velocity S-wave (km/s) = 3.10306 3.31337 3.20994
# Velocity P-wave (km/s) = 6.30589 7.00819 6.66630
#
# Compressibility (1/GPa) = 0.01939796
#
# Stress axis : x y z
#
# Youngs Moduli (GPa) = 81.92994 34.23650 76.51242
#
# Poissons Ratio (x) = 0.21607 0.32070
# Poissons Ratio (y) = 0.51706 0.53868
# Poissons Ratio (z) = 0.34341 0.24104
#
# Static dielectric constant tensor:
#      x y z
#    x 3.511310 0.000000 0.000000 
#    y 0.000000 3.084740 0.000000 
#    z 0.000000 0.000000 3.820580 
# 
# 
# High freq. dielectric constant tensor:
#      x y z
#    x 1.747020 0.000000 0.000000 
#    y 0.000000 1.701310 0.000000 
#    z 0.000000 0.000000 1.750540 
# 
# From -- ./inp_files/23341.got.cif
#   From: 2010.03.12/outbox.cif.g09.slc.cpg/sg47_12_cif.got.tgz:23341.got - 2010.04.14 03:12:58.
