data_PCOD8197900
_publ_section_title
;
Structure prediction by ZEFSAII (Michael W. Deem and Ramdas Pophale) SiO2 
 PCOD8197900
Probable space group: P M M M
;
_chemical_formula_sum "Si O2"
_cell_formula_units_Z 48
_cell_length_a 17.008036
_cell_length_b 9.261732
_cell_length_c 16.857463
_cell_angle_alpha 90.000000
_cell_angle_beta 90.000000
_cell_angle_gamma 90.000000
_cell_volume 2655.452832
_symmetry_space_group_name_H-M "P M M M"
_symmetry_group_IT_number 47
_symmetry_cell_setting 'orthorhombic'
loop_
_space_group_symop_operation_xyz
x,y,z
-x,-y,z
x,-y,-z
-x,y,-z
-x,-y,-z
x,y,-z
-x,y,z
x,-y,z
loop_
_atom_site_type_symbol
_atom_site_label
_atom_site_fract_x
_atom_site_fract_y
_atom_site_fract_z
Si Si1 0.000000 0.171136 0.628825
Si Si2 0.409738 0.831450 0.643116
Si Si3 0.142402 0.667491 0.090926
Si Si4 0.000000 0.668466 0.204188
Si Si5 0.124253 0.171083 0.500000
Si Si6 0.408162 0.663982 0.800825
Si Si7 0.296622 0.162762 0.093202
Si Si8 0.698262 0.828678 0.500000
O O1 0.077267 0.220511 0.579050
O O2 0.000000 0.245633 0.713932
O O3 0.000000 0.000000 0.641537
O O4 0.500000 0.801260 0.617257
O O5 0.385378 0.741365 0.719500
O O6 0.350431 0.775098 0.575957
O O7 0.397948 0.000000 0.661482
O O8 0.164889 0.500000 0.099136
O O9 0.215662 0.762593 0.118303
O O10 0.074129 0.711954 0.150943
O O11 0.117057 0.701397 0.000000
O O12 0.000000 0.500000 0.224645
O O13 0.212941 0.236188 0.500000
O O14 0.128364 0.000000 0.500000
O O15 0.500000 0.671059 0.816982
O O16 0.377735 0.500000 0.797261
O O17 0.368672 0.747693 0.872650
O O18 0.296893 0.000000 0.126731
O O19 0.307468 0.164133 0.000000
O O20 0.701644 0.000000 0.500000
#
# Coordination Sequence:
#
# PCOD8197900 Si02
#       8
#     4   8   8   4   4   8   8   4
#     4   9  18  33  51  70  96 130 165 206 253 296
#     4   9  17  30  49  74 103 131 163 209 259 302
#     4   9  18  34  54  75 104 140 172 204 248 304
#     4  10  20  33  53  81 106 132 170 211 250 298
#     4   8  16  32  50  68  94 128 166 205 246 296
#     4  10  21  36  53  74 103 140 178 214 256 307
#     4  10  21  36  54  77 104 134 171 217 265 307
#     4   9  16  28  51  78  98 126 169 209 250 305
#
# _framework density 18.076013
#
# number of rings (size 3 to 8) (size 9 to 14) (size 15 to 20)
#    0.000    2.667    0.000    2.000    0.000    6.333 
#    0.000    4.583    0.000    5.500    0.000    0.000 
#    0.000    0.000    0.000    0.000    0.000    0.000 
#
# Total GULP energy -595162.870026 kJ/mol
# GULP energy per Si atom -12399.226459 kJ/mol
# Density = 1.803487 g / cm^3
# Si number density = 18.076013 Si / 1000 Ang^3
#
#
#
# Elastic Constant Matrix: (Units=GPa)
#
#
# Indices 1 2 3 4 5 6 
#
# 1 102.7306 45.2952 60.3313 0.0000 0.0000 0.0000
# 2 45.2952 82.7934 46.6159 0.0000 0.0000 0.0000
# 3 60.3313 46.6159 90.3614 0.0000 0.0000 0.0000
# 4 0.0000 0.0000 0.0000 25.5791 0.0000 0.0000
# 5 0.0000 0.0000 0.0000 0.0000 6.0778 0.0000
# 6 0.0000 0.0000 0.0000 0.0000 0.0000 22.7728
#
#
#
# Elastic Compliance Matrix: (Units=1/GPa)
#
#
# Indices 1 2 3 4 5 6 
#
# 1 0.016940 -0.004087 -0.009202 0.000000 0.000000 0.000000
# 2 -0.004087 0.018009 -0.006562 0.000000 0.000000 0.000000
# 3 -0.009202 -0.006562 0.020596 0.000000 0.000000 0.000000
# 4 0.000000 0.000000 0.000000 0.039094 0.000000 0.000000
# 5 0.000000 0.000000 0.000000 0.000000 0.164534 0.000000
# 6 0.000000 0.000000 0.000000 0.000000 0.000000 0.043912
#
#
# Mechanical properties :
#
#
# Convention : Reuss Voigt Hill
#
# Bulk Modulus (GPa) = 63.11802 64.48557 63.80180
# Shear Modulus (GPa) = 14.36502 19.12880 16.74691
#
# Velocity S-wave (km/s) = 2.82210 3.25659 3.04710
# Velocity P-wave (km/s) = 6.75373 7.06347 6.91034
#
# Compressibility (1/GPa) = 0.01584334
#
# Stress axis : x y z
#
# Youngs Moduli (GPa) = 59.03079 55.52918 48.55345
#
# Poissons Ratio (x) = 0.22692 0.44680
# Poissons Ratio (y) = 0.24123 0.31860
# Poissons Ratio (z) = 0.54322 0.36437
#
# Static dielectric constant tensor:
#      x y z
#    x 3.512690 0.000000 0.000000 
#    y 0.000000 3.277420 0.000000 
#    z 0.000000 0.000000 3.307290 
# 
# 
# High freq. dielectric constant tensor:
#      x y z
#    x 1.704360 0.000000 0.000000 
#    y 0.000000 1.684420 0.000000 
#    z 0.000000 0.000000 1.700930 
# 
# From -- ./inp_files/24522.got.cif
#   From: 2010.03.12/outbox.cif.g09.slc.cpg/sg47_13_cif.got.tgz:24522.got - 2010.04.14 03:12:58.
