data_PCOD8197477
_publ_section_title
;
Structure prediction by ZEFSAII (Michael W. Deem and Ramdas Pophale) SiO2 
 PCOD8197477
Probable space group: P M M M
;
_chemical_formula_sum "Si O2"
_cell_formula_units_Z 56
_cell_length_a 23.523637
_cell_length_b 13.801126
_cell_length_c 9.189363
_cell_angle_alpha 90.000000
_cell_angle_beta 90.000000
_cell_angle_gamma 90.000000
_cell_volume 2983.351309
_symmetry_space_group_name_H-M "P M M M"
_symmetry_group_IT_number 47
_symmetry_cell_setting 'orthorhombic'
loop_
_space_group_symop_operation_xyz
x,y,z
-x,-y,z
x,-y,-z
-x,y,-z
-x,-y,-z
x,y,-z
-x,y,z
x,-y,z
loop_
_atom_site_type_symbol
_atom_site_label
_atom_site_fract_x
_atom_site_fract_y
_atom_site_fract_z
Si Si1 0.500000 0.385052 0.335762
Si Si2 0.715018 0.293552 0.668097
Si Si3 0.388072 0.612768 0.170657
Si Si4 0.779215 0.891782 0.666806
Si Si5 0.889794 0.115306 0.834702
Si Si6 0.061674 0.384855 0.835434
Si Si7 0.168627 0.614746 0.664696
Si Si8 0.000000 0.883967 0.666325
O O1 0.500000 0.500000 0.338150
O O2 0.500000 0.343202 0.500000
O O3 0.555575 0.348350 0.250744
O O4 0.701900 0.321391 0.500000
O O5 0.663855 0.324697 0.770255
O O6 0.724801 0.178138 0.686298
O O7 0.771581 0.347262 0.726104
O O8 0.376944 0.500000 0.205380
O O9 0.395571 0.630584 0.000000
O O10 0.799647 0.892205 0.500000
O O11 0.831627 0.849322 0.759377
O O12 0.761449 0.000000 0.717190
O O13 0.944441 0.157675 0.749444
O O14 0.891627 0.000000 0.828343
O O15 0.891551 0.153178 0.000000
O O16 0.065707 0.500000 0.828005
O O17 0.114835 0.338719 0.749363
O O18 0.000000 0.352561 0.770149
O O19 0.066562 0.348445 0.000000
O O20 0.162315 0.650372 0.500000
O O21 0.168405 0.500000 0.678826
O O22 0.000000 0.847262 0.500000
O O23 0.000000 0.000000 0.671413
#
# Coordination Sequence:
#
# PCOD8197477 Si02
#       8
#     4   8   8   8   8   8   8   4
#     4   9  17  31  53  79 110 149 184 209 237 278
#     4  10  20  33  50  72 100 133 170 208 251 302
#     4  10  20  33  51  79 114 147 177 208 242 284
#     4   9  18  33  51  69  91 123 166 214 260 306
#     4   9  16  26  42  64  88 113 145 191 248 308
#     4   8  14  25  41  60  82 111 148 188 232 285
#     4   9  17  28  43  65  92 120 151 190 236 288
#     4   9  15  23  39  63  87 111 142 183 238 307
#
# _framework density 18.770837
#
# number of rings (size 3 to 8) (size 9 to 14) (size 15 to 20)
#    0.000    2.857    0.000    2.143    0.000    6.286 
#    0.000    2.857    1.571    0.000    0.000    0.500 
#    0.000    4.000    0.000    0.000    0.000    0.000 
#
# Total GULP energy -694308.514700 kJ/mol
# GULP energy per Si atom -12398.366334 kJ/mol
# Density = 1.872811 g / cm^3
# Si number density = 18.770837 Si / 1000 Ang^3
#
#
#
# Elastic Constant Matrix: (Units=GPa)
#
#
# Indices 1 2 3 4 5 6 
#
# 1 159.5089 37.4932 78.2851 0.0000 0.0000 0.0000
# 2 37.4932 29.0939 20.1357 0.0000 0.0000 0.0000
# 3 78.2851 20.1357 113.6074 0.0000 0.0000 0.0000
# 4 0.0000 0.0000 0.0000 10.1427 0.0000 0.0000
# 5 0.0000 0.0000 0.0000 0.0000 35.1704 0.0000
# 6 0.0000 0.0000 0.0000 0.0000 0.0000 20.0622
#
#
#
# Elastic Compliance Matrix: (Units=1/GPa)
#
#
# Indices 1 2 3 4 5 6 
#
# 1 0.011946 -0.011053 -0.006273 0.000000 0.000000 0.000000
# 2 -0.011053 0.049405 -0.001140 0.000000 0.000000 0.000000
# 3 -0.006273 -0.001140 0.013327 0.000000 0.000000 0.000000
# 4 0.000000 0.000000 0.000000 0.098593 0.000000 0.000000
# 5 0.000000 0.000000 0.000000 0.000000 0.028433 0.000000
# 6 0.000000 0.000000 0.000000 0.000000 0.000000 0.049845
#
#
# Mechanical properties :
#
#
# Convention : Reuss Voigt Hill
#
# Bulk Modulus (GPa) = 26.49302 63.78203 45.13752
# Shear Modulus (GPa) = 16.60789 24.16149 20.38469
#
# Velocity S-wave (km/s) = 2.97774 3.59162 3.29899
# Velocity P-wave (km/s) = 5.09579 7.15910 6.21369
#
# Compressibility (1/GPa) = 0.03774579
#
# Stress axis : x y z
#
# Youngs Moduli (GPa) = 83.71032 20.24093 75.03764
#
# Poissons Ratio (x) = 0.22373 0.47069
# Poissons Ratio (y) = 0.92529 0.08552
# Poissons Ratio (z) = 0.52509 0.02307
#
# Static dielectric constant tensor:
#      x y z
#    x 3.435460 0.000000 0.000000 
#    y 0.000000 3.239500 0.000000 
#    z 0.000000 0.000000 3.524480 
# 
# 
# High freq. dielectric constant tensor:
#      x y z
#    x 1.714350 0.000000 0.000000 
#    y 0.000000 1.712790 0.000000 
#    z 0.000000 0.000000 1.727800 
# 
# From -- ./inp_files/11288.got.cif
#   From: 2010.03.12/outbox.cif.g09.slc.cpg/sg47_6_cif.got.tgz:11288.got - 2010.04.14 03:12:58.
