data_PCOD8197847
_publ_section_title
;
Structure prediction by ZEFSAII (Michael W. Deem and Ramdas Pophale) SiO2 
 PCOD8197847
Probable space group: P M M M
;
_chemical_formula_sum "Si O2"
_cell_formula_units_Z 64
_cell_length_a 23.884140
_cell_length_b 15.612701
_cell_length_c 9.022348
_cell_angle_alpha 90.000000
_cell_angle_beta 90.000000
_cell_angle_gamma 90.000000
_cell_volume 3364.396907
_symmetry_space_group_name_H-M "P M M M"
_symmetry_group_IT_number 47
_symmetry_cell_setting 'orthorhombic'
loop_
_space_group_symop_operation_xyz
x,y,z
-x,-y,z
x,-y,-z
-x,y,-z
-x,-y,-z
x,y,-z
-x,y,z
x,-y,z
loop_
_atom_site_type_symbol
_atom_site_label
_atom_site_fract_x
_atom_site_fract_y
_atom_site_fract_z
Si Si1 0.830969 0.094615 0.669338
Si Si2 0.366289 0.745355 0.823587
Si Si3 0.061780 0.327413 0.330139
Si Si4 0.174837 0.407517 0.674507
Si Si5 0.564853 0.401500 0.671795
Si Si6 0.937703 0.849872 0.173824
Si Si7 0.246395 0.248559 0.323312
Si Si8 0.562767 0.905359 0.824074
O O1 0.844203 0.117523 0.500000
O O2 0.890083 0.092434 0.753269
O O3 0.787272 0.164428 0.731514
O O4 0.803966 0.000000 0.685994
O O5 0.397552 0.659576 0.772419
O O6 0.305379 0.749633 0.755343
O O7 0.398172 0.829754 0.762004
O O8 0.362716 0.744671 0.000000
O O9 0.069996 0.296849 0.500000
O O10 0.109299 0.395304 0.286101
O O11 0.070087 0.246966 0.225181
O O12 0.000000 0.368625 0.307973
O O13 0.183083 0.408729 0.500000
O O14 0.193227 0.500000 0.741056
O O15 0.212765 0.331175 0.737864
O O16 0.577561 0.382695 0.500000
O O17 0.500000 0.383785 0.707861
O O18 0.579879 0.500000 0.709256
O O19 0.000000 0.883267 0.218071
O O20 0.929297 0.854047 0.000000
O O21 0.254321 0.249103 0.500000
O O22 0.500000 0.890422 0.763001
O O23 0.584256 0.000000 0.772735
O O24 0.561934 0.901512 0.000000
#
# Coordination Sequence:
#
# PCOD8197847 Si02
#       8
#     8   8   8   8   8   8   8   8
#     4  10  21  38  59  79 101 136 183 230 273 319
#     4  11  22  34  54  84 113 144 184 229 272 316
#     4   9  16  29  52  79 105 132 166 212 266 323
#     4   9  17  31  53  78 101 130 171 218 268 318
#     4   9  19  37  60  85 114 149 186 223 270 328
#     4  10  20  33  52  79 110 140 170 211 269 333
#     4  10  21  38  54  73 105 144 184 224 266 316
#     4   8  15  30  52  78 109 142 173 208 257 318
#
# _framework density 19.022725000000001
#
# number of rings (size 3 to 8) (size 9 to 14) (size 15 to 20)
#    0.000    2.500    1.250    1.875    0.000    4.000 
#    0.000    4.375    0.000    2.250    0.000    6.125 
#    0.000    0.000    0.000    0.000    0.000    0.000 
#
# Total GULP energy -793316.182624 kJ/mol
# GULP energy per Si atom -12395.565354 kJ/mol
# Density = 1.897943 g / cm^3
# Si number density = 19.022725 Si / 1000 Ang^3
#
#
#
# Elastic Constant Matrix: (Units=GPa)
#
#
# Indices 1 2 3 4 5 6 
#
# 1 141.9271 87.0969 37.6083 0.0000 0.0000 0.0000
# 2 87.0969 152.9540 31.4472 0.0000 0.0000 0.0000
# 3 37.6083 31.4472 39.8971 0.0000 0.0000 0.0000
# 4 0.0000 0.0000 0.0000 12.0286 0.0000 0.0000
# 5 0.0000 0.0000 0.0000 0.0000 19.3925 0.0000
# 6 0.0000 0.0000 0.0000 0.0000 0.0000 15.2790
#
#
#
# Elastic Compliance Matrix: (Units=1/GPa)
#
#
# Indices 1 2 3 4 5 6 
#
# 1 0.012388 -0.005553 -0.007300 0.000000 0.000000 0.000000
# 2 -0.005553 0.010292 -0.002877 0.000000 0.000000 0.000000
# 3 -0.007300 -0.002877 0.034214 0.000000 0.000000 0.000000
# 4 0.000000 0.000000 0.000000 0.083135 0.000000 0.000000
# 5 0.000000 0.000000 0.000000 0.000000 0.051566 0.000000
# 6 0.000000 0.000000 0.000000 0.000000 0.000000 0.065449
#
#
# Mechanical properties :
#
#
# Convention : Reuss Voigt Hill
#
# Bulk Modulus (GPa) = 39.32063 71.89809 55.60936
# Shear Modulus (GPa) = 16.83593 21.24842 19.04218
#
# Velocity S-wave (km/s) = 2.97819 3.34578 3.16733
# Velocity P-wave (km/s) = 5.70451 7.26661 6.53242
#
# Compressibility (1/GPa) = 0.02543194
#
# Stress axis : x y z
#
# Youngs Moduli (GPa) = 80.72142 97.16557 29.22785
#
# Poissons Ratio (x) = 0.53959 0.21338
# Poissons Ratio (y) = 0.44827 0.08410
# Poissons Ratio (z) = 0.58930 0.27957
#
# Static dielectric constant tensor:
#      x y z
#    x 3.565630 0.000000 0.000000 
#    y 0.000000 3.739380 0.000000 
#    z 0.000000 0.000000 3.169140 
# 
# 
# High freq. dielectric constant tensor:
#      x y z
#    x 1.740540 0.000000 0.000000 
#    y 0.000000 1.746500 0.000000 
#    z 0.000000 0.000000 1.705330 
# 
# From -- ./inp_files/7895.got.cif
#   From: 2010.03.12/outbox.cif.g09.slc.cpg/sg47_4_cif.got.tgz:7895.got - 2010.04.14 03:12:58.
