data_PCOD8197539
_publ_section_title
;
Structure prediction by ZEFSAII (Michael W. Deem and Ramdas Pophale) SiO2 
 PCOD8197539
Probable space group: P M M M
;
_chemical_formula_sum "Si O2"
_cell_formula_units_Z 52
_cell_length_a 13.099147
_cell_length_b 9.067842
_cell_length_c 25.052809
_cell_angle_alpha 90.000000
_cell_angle_beta 90.000000
_cell_angle_gamma 90.000000
_cell_volume 2975.797589
_symmetry_space_group_name_H-M "P M M M"
_symmetry_group_IT_number 47
_symmetry_cell_setting 'orthorhombic'
loop_
_space_group_symop_operation_xyz
x,y,z
-x,-y,z
x,-y,-z
-x,y,-z
-x,-y,-z
x,y,-z
-x,y,z
x,-y,z
loop_
_atom_site_type_symbol
_atom_site_label
_atom_site_fract_x
_atom_site_fract_y
_atom_site_fract_z
Si Si1 0.881545 0.825749 0.625872
Si Si2 0.805714 0.827225 0.058772
Si Si3 0.500000 0.168483 0.563494
Si Si4 0.120700 0.663342 0.266836
Si Si5 0.295111 0.669355 0.563299
Si Si6 0.610435 0.337510 0.937056
Si Si7 0.883454 0.162812 0.167708
O O1 0.849251 0.767885 0.684117
O O2 0.807459 0.749159 0.583386
O O3 0.000000 0.785355 0.612898
O O4 0.864958 0.000000 0.624054
O O5 0.693001 0.784053 0.078997
O O6 0.877840 0.771986 0.107093
O O7 0.814026 0.000000 0.051846
O O8 0.832699 0.756377 0.000000
O O9 0.500000 0.172275 0.500000
O O10 0.602103 0.250484 0.584905
O O11 0.500000 0.000000 0.584475
O O12 0.167802 0.500000 0.275034
O O13 0.167924 0.731820 0.212125
O O14 0.000000 0.650052 0.261925
O O15 0.291974 0.678053 0.500000
O O16 0.296568 0.500000 0.582958
O O17 0.500000 0.292856 0.912732
O O18 0.642800 0.500000 0.915881
O O19 0.600904 0.343624 0.000000
O O20 0.000000 0.146205 0.184011
O O21 0.831437 0.000000 0.169267
#
# Coordination Sequence:
#
# PCOD8197539 Si02
#       7
#     8   8   4   8   8   8   8
#     4  10  20  33  50  73 101 132 166 205 250 300
#     4   9  17  27  40  62  89 115 145 180 219 265
#     4   9  17  31  51  73  99 133 175 217 250 285
#     4   9  17  30  48  68  89 115 153 198 238 279
#     4  10  20  33  50  74 105 139 173 209 249 292
#     4   8  14  25  40  57  78 105 136 170 210 257
#     4   9  17  29  44  62  87 119 152 185 223 269
#
# _framework density 17.474305999999999
#
# number of rings (size 3 to 8) (size 9 to 14) (size 15 to 20)
#    0.000    2.846    0.000    2.077    0.000    6.154 
#    0.000    4.615    0.000    0.000    2.000    4.308 
#    0.000    0.000    0.000    0.000    0.000    0.000 
#
# Total GULP energy -644218.862647 kJ/mol
# GULP energy per Si atom -12388.824282 kJ/mol
# Density = 1.743453 g / cm^3
# Si number density = 17.474306 Si / 1000 Ang^3
#
#
#
# Elastic Constant Matrix: (Units=GPa)
#
#
# Indices 1 2 3 4 5 6 
#
# 1 67.3974 40.7670 26.7384 0.0000 0.0000 0.0000
# 2 40.7670 93.7108 36.2397 0.0000 0.0000 0.0000
# 3 26.7384 36.2397 55.6357 0.0000 0.0000 0.0000
# 4 0.0000 0.0000 0.0000 20.8099 0.0000 0.0000
# 5 0.0000 0.0000 0.0000 0.0000 4.3630 0.0000
# 6 0.0000 0.0000 0.0000 0.0000 0.0000 24.2231
#
#
#
# Elastic Compliance Matrix: (Units=1/GPa)
#
#
# Indices 1 2 3 4 5 6 
#
# 1 0.021381 -0.007122 -0.005637 0.000000 0.000000 0.000000
# 2 -0.007122 0.016636 -0.007414 0.000000 0.000000 0.000000
# 3 -0.005637 -0.007414 0.025512 0.000000 0.000000 0.000000
# 4 0.000000 0.000000 0.000000 0.048054 0.000000 0.000000
# 5 0.000000 0.000000 0.000000 0.000000 0.229198 0.000000
# 6 0.000000 0.000000 0.000000 0.000000 0.000000 0.041283
#
#
# Mechanical properties :
#
#
# Convention : Reuss Voigt Hill
#
# Bulk Modulus (GPa) = 43.13100 47.13710 45.13405
# Shear Modulus (GPa) = 11.62418 17.41248 14.51833
#
# Velocity S-wave (km/s) = 2.58198 3.16010 2.88555
# Velocity P-wave (km/s) = 5.79870 6.35206 6.08168
#
# Compressibility (1/GPa) = 0.02318518
#
# Stress axis : x y z
#
# Youngs Moduli (GPa) = 46.76965 60.10949 39.19664
#
# Poissons Ratio (x) = 0.42808 0.22095
# Poissons Ratio (y) = 0.33307 0.29060
# Poissons Ratio (z) = 0.26364 0.44564
#
# Static dielectric constant tensor:
#      x y z
#    x 3.340200 0.000000 0.000000 
#    y 0.000000 3.477930 0.000000 
#    z 0.000000 0.000000 3.197330 
# 
# 
# High freq. dielectric constant tensor:
#      x y z
#    x 1.647200 0.000000 0.000000 
#    y 0.000000 1.681370 0.000000 
#    z 0.000000 0.000000 1.651480 
# 
# From -- ./inp_files/33562.got.cif
#   From: 2010.03.12/outbox.cif.g09.slc.cpg/sg47_17_cif.got.tgz:33562.got - 2010.04.14 03:12:58.
