data_PCOD8197579
_publ_section_title
;
Structure prediction by ZEFSAII (Michael W. Deem and Ramdas Pophale) SiO2 
 PCOD8197579
Probable space group: P M M M
;
_chemical_formula_sum "Si O2"
_cell_formula_units_Z 36
_cell_length_a 19.704572
_cell_length_b 10.522773
_cell_length_c 9.326601
_cell_angle_alpha 90.000000
_cell_angle_beta 90.000000
_cell_angle_gamma 90.000000
_cell_volume 1933.840296
_symmetry_space_group_name_H-M "P M M M"
_symmetry_group_IT_number 47
_symmetry_cell_setting 'orthorhombic'
loop_
_space_group_symop_operation_xyz
x,y,z
-x,-y,z
x,-y,-z
-x,y,-z
-x,-y,-z
x,y,-z
-x,y,z
x,-y,z
loop_
_atom_site_type_symbol
_atom_site_label
_atom_site_fract_x
_atom_site_fract_y
_atom_site_fract_z
Si Si1 0.312161 0.144877 0.844980
Si Si2 0.419714 0.500000 0.840618
Si Si3 0.836739 0.146115 0.169338
Si Si4 0.079908 0.643137 0.335172
Si Si5 0.577927 0.743415 0.332303
O O1 0.239423 0.198157 0.792540
O O2 0.371525 0.149790 0.725609
O O3 0.296452 0.000000 0.874515
O O4 0.334682 0.205493 0.000000
O O5 0.500000 0.500000 0.849290
O O6 0.395146 0.620569 0.751561
O O7 0.387899 0.500000 0.000000
O O8 0.886798 0.245139 0.243322
O O9 0.849098 0.000000 0.223475
O O10 0.848722 0.152007 0.000000
O O11 0.100941 0.662824 0.500000
O O12 0.102156 0.500000 0.285911
O O13 0.000000 0.657009 0.315637
O O14 0.586673 0.720931 0.500000
O O15 0.500000 0.778762 0.295624
#
# Coordination Sequence:
#
# PCOD8197579 Si02
#       5
#     8   4   8   8   8
#     4   9  19  36  54  72  99 136 176 216 259 311
#     4   9  17  31  51  71  93 125 164 205 252 307
#     4   9  19  36  56  79 108 141 180 225 268 314
#     4   9  19  36  56  80 112 146 179 217 261 313
#     4  10  20  33  50  74 103 132 167 215 267 316
#
# _framework density 18.615808000000001
#
# number of rings (size 3 to 8) (size 9 to 14) (size 15 to 20)
#    0.000    2.778    0.000    3.000    0.000    6.222 
#    2.000    7.778    0.000    0.000    0.000    0.000 
#    0.000    0.000    0.000    0.000    0.000    0.000 
#
# Total GULP energy -446031.438262 kJ/mol
# GULP energy per Si atom -12389.762174 kJ/mol
# Density = 1.857344 g / cm^3
# Si number density = 18.615808 Si / 1000 Ang^3
#
#
#
# Elastic Constant Matrix: (Units=GPa)
#
#
# Indices 1 2 3 4 5 6 
#
# 1 76.8774 45.8482 49.6045 0.0000 0.0000 0.0000
# 2 45.8482 88.4530 44.4199 0.0000 0.0000 0.0000
# 3 49.6045 44.4199 90.5988 0.0000 0.0000 0.0000
# 4 0.0000 0.0000 0.0000 31.0350 0.0000 0.0000
# 5 0.0000 0.0000 0.0000 0.0000 30.7019 0.0000
# 6 0.0000 0.0000 0.0000 0.0000 0.0000 16.2713
#
#
#
# Elastic Compliance Matrix: (Units=1/GPa)
#
#
# Indices 1 2 3 4 5 6 
#
# 1 0.023382 -0.007550 -0.009101 0.000000 0.000000 0.000000
# 2 -0.007550 0.017436 -0.004415 0.000000 0.000000 0.000000
# 3 -0.009101 -0.004415 0.018185 0.000000 0.000000 0.000000
# 4 0.000000 0.000000 0.000000 0.032222 0.000000 0.000000
# 5 0.000000 0.000000 0.000000 0.000000 0.032571 0.000000
# 6 0.000000 0.000000 0.000000 0.000000 0.000000 0.061458
#
#
# Mechanical properties :
#
#
# Convention : Reuss Voigt Hill
#
# Bulk Modulus (GPa) = 59.26816 59.51937 59.39376
# Shear Modulus (GPa) = 21.45838 23.33875 22.39857
#
# Velocity S-wave (km/s) = 3.39882 3.54461 3.47248
# Velocity P-wave (km/s) = 6.87818 6.98529 6.93194
#
# Compressibility (1/GPa) = 0.01687247
#
# Stress axis : x y z
#
# Youngs Moduli (GPa) = 42.76736 57.35310 54.98976
#
# Poissons Ratio (x) = 0.43299 0.50045
# Poissons Ratio (y) = 0.32288 0.24279
# Poissons Ratio (z) = 0.38922 0.25322
#
# Static dielectric constant tensor:
#      x y z
#    x 3.289470 0.000000 0.000000 
#    y 0.000000 3.433600 0.000000 
#    z 0.000000 0.000000 3.383030 
# 
# 
# High freq. dielectric constant tensor:
#      x y z
#    x 1.712620 0.000000 0.000000 
#    y 0.000000 1.717430 0.000000 
#    z 0.000000 0.000000 1.721960 
# 
# From -- ./inp_files/3711.got.cif
#   From: 2010.03.12/outbox.cif.g09.slc.cpg/sg47_2_cif.got.tgz:3711.got - 2010.04.14 03:12:58.
