data_PCOD8197275
_publ_section_title
;
Structure prediction by ZEFSAII (Michael W. Deem and Ramdas Pophale) SiO2 
 PCOD8197275
Probable space group: P M M M
;
_chemical_formula_sum "Si O2"
_cell_formula_units_Z 48
_cell_length_a 9.657060
_cell_length_b 19.663721
_cell_length_c 18.862022
_cell_angle_alpha 90.000000
_cell_angle_beta 90.000000
_cell_angle_gamma 90.000000
_cell_volume 3581.779779
_symmetry_space_group_name_H-M "P M M M"
_symmetry_group_IT_number 47
_symmetry_cell_setting 'orthorhombic'
loop_
_space_group_symop_operation_xyz
x,y,z
-x,-y,z
x,-y,-z
-x,y,-z
-x,-y,-z
x,y,-z
-x,y,z
x,-y,z
loop_
_atom_site_type_symbol
_atom_site_label
_atom_site_fract_x
_atom_site_fract_y
_atom_site_fract_z
Si Si1 0.500000 0.081174 0.581128
Si Si2 0.344797 0.575901 0.915685
Si Si3 0.157663 0.302887 0.915616
Si Si4 0.339610 0.175281 0.915975
Si Si5 0.160493 0.919238 0.824594
Si Si6 0.000000 0.081190 0.421927
Si Si7 0.245761 0.080912 0.670711
O O1 0.500000 0.109956 0.500000
O O2 0.377195 0.109426 0.629435
O O3 0.500000 0.000000 0.576018
O O4 0.500000 0.595498 0.889392
O O5 0.305812 0.500000 0.889252
O O6 0.230681 0.628588 0.885930
O O7 0.343814 0.578257 0.000000
O O8 0.253519 0.240778 0.889283
O O9 0.000000 0.297230 0.885842
O O10 0.152927 0.303808 0.000000
O O11 0.500000 0.178714 0.889786
O O12 0.259139 0.109980 0.885666
O O13 0.336268 0.169193 0.000000
O O14 0.223916 0.891735 0.750322
O O15 0.000000 0.895754 0.832914
O O16 0.168582 0.000000 0.829194
O O17 0.872335 0.109867 0.379093
O O18 0.000000 0.112913 0.500000
O O19 0.000000 0.000000 0.425927
O O20 0.245598 0.000000 0.673925
#
# Coordination Sequence:
#
# PCOD8197275 Si02
#       7
#     4   8   8   8   8   4   8
#     4   9  16  24  36  56  79  99 117 137 165 206
#     4   8  13  21  34  53  77 102 122 140 169 211
#     4   9  16  26  40  56  74  94 117 149 186 224
#     4  10  21  34  46  58  70  89 121 160 203 247
#     4  10  20  33  46  58  73  93 118 154 201 246
#     4   9  14  22  38  56  75  97 117 135 161 206
#     4   9  16  26  38  55  76  96 116 140 174 218
#
# _framework density 13.401158000000001
#
# number of rings (size 3 to 8) (size 9 to 14) (size 15 to 20)
#    0.000    2.833    0.833    2.000    1.167    6.000 
#    0.000    3.333    0.000    0.000    0.000    0.000 
#    0.000    0.000    0.000    0.000    0.000    0.000 
#
# Total GULP energy -594669.287970 kJ/mol
# GULP energy per Si atom -12388.943499 kJ/mol
# Density = 1.337066 g / cm^3
# Si number density = 13.401158 Si / 1000 Ang^3
#
#
#
# Elastic Constant Matrix: (Units=GPa)
#
#
# Indices 1 2 3 4 5 6 
#
# 1 133.9322 38.4119 31.5369 0.0000 0.0000 0.0000
# 2 38.4119 41.4477 17.5405 0.0000 0.0000 0.0000
# 3 31.5369 17.5405 32.9810 0.0000 0.0000 0.0000
# 4 0.0000 0.0000 0.0000 0.4952 0.0000 0.0000
# 5 0.0000 0.0000 0.0000 0.0000 19.7417 0.0000
# 6 0.0000 0.0000 0.0000 0.0000 0.0000 20.6377
#
#
#
# Elastic Compliance Matrix: (Units=1/GPa)
#
#
# Indices 1 2 3 4 5 6 
#
# 1 0.011211 -0.007553 -0.006703 0.000000 0.000000 0.000000
# 2 -0.007553 0.036223 -0.012042 0.000000 0.000000 0.000000
# 3 -0.006703 -0.012042 0.043135 0.000000 0.000000 0.000000
# 4 0.000000 0.000000 0.000000 2.019233 0.000000 0.000000
# 5 0.000000 0.000000 0.000000 0.000000 0.050654 0.000000
# 6 0.000000 0.000000 0.000000 0.000000 0.000000 0.048455
#
#
# Mechanical properties :
#
#
# Convention : Reuss Voigt Hill
#
# Bulk Modulus (GPa) = 26.33552 42.59328 34.46440
# Shear Modulus (GPa) = 2.19861 16.23304 9.21582
#
# Velocity S-wave (km/s) = 1.28225 3.48417 2.62523
# Velocity P-wave (km/s) = 4.67831 6.93096 5.91290
#
# Compressibility (1/GPa) = 0.03797153
#
# Stress axis : x y z
#
# Youngs Moduli (GPa) = 89.19711 27.60676 23.18326
#
# Poissons Ratio (x) = 0.20852 0.15540
# Poissons Ratio (y) = 0.67373 0.27918
# Poissons Ratio (z) = 0.59790 0.33245
#
# Static dielectric constant tensor:
#      x y z
#    x 2.979610 0.000000 0.000000 
#    y 0.000000 2.450280 0.000000 
#    z 0.000000 0.000000 2.481000 
# 
# 
# High freq. dielectric constant tensor:
#      x y z
#    x 1.533430 0.000000 0.000000 
#    y 0.000000 1.465250 0.000000 
#    z 0.000000 0.000000 1.471950 
# 
# From -- ./inp_files/11406.got.cif
#   From: 2010.03.12/outbox.cif.g09.slc.cpg/sg47_6_cif.got.tgz:11406.got - 2010.04.14 03:12:58.
