data_PCOD8197410
_publ_section_title
;
Structure prediction by ZEFSAII (Michael W. Deem and Ramdas Pophale) SiO2 
 PCOD8197410
Probable space group: P M M M
;
_chemical_formula_sum "Si O2"
_cell_formula_units_Z 28
_cell_length_a 9.490557
_cell_length_b 19.216001
_cell_length_c 9.386671
_cell_angle_alpha 90.000000
_cell_angle_beta 90.000000
_cell_angle_gamma 90.000000
_cell_volume 1711.852379
_symmetry_space_group_name_H-M "P M M M"
_symmetry_group_IT_number 47
_symmetry_cell_setting 'orthorhombic'
loop_
_space_group_symop_operation_xyz
x,y,z
-x,-y,z
x,-y,-z
-x,y,-z
-x,-y,-z
x,y,-z
-x,y,z
x,-y,z
loop_
_atom_site_type_symbol
_atom_site_label
_atom_site_fract_x
_atom_site_fract_y
_atom_site_fract_z
Si Si1 0.662128 0.189775 0.831925
Si Si2 0.154800 0.683305 0.840848
Si Si3 0.839414 0.080622 0.335890
Si Si4 0.000000 0.419050 0.666925
O O1 0.500000 0.192733 0.786695
O O2 0.734519 0.261300 0.778277
O O3 0.732608 0.123688 0.759620
O O4 0.682572 0.182002 0.000000
O O5 0.140797 0.615751 0.737276
O O6 0.000000 0.719751 0.847081
O O7 0.200234 0.658938 0.000000
O O8 0.815848 0.100683 0.500000
O O9 0.000000 0.096993 0.291340
O O10 0.805246 0.000000 0.310450
O O11 0.000000 0.500000 0.702915
O O12 0.000000 0.404080 0.500000
#
# Coordination Sequence:
#
# PCOD8197410 Si02
#       4
#     8   8   8   4
#     4  10  20  33  49  71 100 130 162 201 243 288
#     4   8  16  30  48  70  95 125 158 193 234 282
#     4   9  19  35  52  70  94 126 165 207 248 290
#     4   9  17  29  49  77 100 119 152 197 237 276
#
# _framework density 16.356549999999999
#
# number of rings (size 3 to 8) (size 9 to 14) (size 15 to 20)
#    0.857    2.143    0.000    1.714    0.000    5.714 
#    0.000    4.286    0.000    0.857    0.000    6.000 
#    0.000    0.000    0.000    0.000    0.000    0.000 
#
# Total GULP energy -346985.876406 kJ/mol
# GULP energy per Si atom -12392.352729 kJ/mol
# Density = 1.631932 g / cm^3
# Si number density = 16.356550 Si / 1000 Ang^3
#
#
#
# Elastic Constant Matrix: (Units=GPa)
#
#
# Indices 1 2 3 4 5 6 
#
# 1 99.4191 64.5959 40.9045 0.0000 0.0000 0.0000
# 2 64.5959 112.8248 57.5875 0.0000 0.0000 0.0000
# 3 40.9045 57.5875 60.5733 0.0000 0.0000 0.0000
# 4 0.0000 0.0000 0.0000 31.9204 0.0000 0.0000
# 5 0.0000 0.0000 0.0000 0.0000 20.8923 0.0000
# 6 0.0000 0.0000 0.0000 0.0000 0.0000 7.0451
#
#
#
# Elastic Compliance Matrix: (Units=1/GPa)
#
#
# Indices 1 2 3 4 5 6 
#
# 1 0.016552 -0.007327 -0.004212 0.000000 0.000000 0.000000
# 2 -0.007327 0.020462 -0.014506 0.000000 0.000000 0.000000
# 3 -0.004212 -0.014506 0.033144 0.000000 0.000000 0.000000
# 4 0.000000 0.000000 0.000000 0.031328 0.000000 0.000000
# 5 0.000000 0.000000 0.000000 0.000000 0.047865 0.000000
# 6 0.000000 0.000000 0.000000 0.000000 0.000000 0.141943
#
#
# Mechanical properties :
#
#
# Convention : Reuss Voigt Hill
#
# Bulk Modulus (GPa) = 55.34265 66.55479 60.94872
# Shear Modulus (GPa) = 14.31006 19.28683 16.79844
#
# Velocity S-wave (km/s) = 2.96105 3.43760 3.20819
# Velocity P-wave (km/s) = 6.75271 7.51894 7.14610
#
# Compressibility (1/GPa) = 0.01806925
#
# Stress axis : x y z
#
# Youngs Moduli (GPa) = 60.41707 48.87094 30.17160
#
# Poissons Ratio (x) = 0.35806 0.12707
# Poissons Ratio (y) = 0.44266 0.43766
# Poissons Ratio (z) = 0.25445 0.70891
#
# Static dielectric constant tensor:
#      x y z
#    x 2.983030 0.000000 0.000000 
#    y 0.000000 2.919400 0.000000 
#    z 0.000000 0.000000 3.010850 
# 
# 
# High freq. dielectric constant tensor:
#      x y z
#    x 1.611230 0.000000 0.000000 
#    y 0.000000 1.619460 0.000000 
#    z 0.000000 0.000000 1.628240 
# 
# From -- ./inp_files/849.got.cif
#   From: 2010.03.12/outbox.cif.g09.slc.cpg/sg47_1_cif.got.tgz:849.got - 2010.04.14 03:12:58.
