data_PCOD8197120
_publ_section_title
;
Structure prediction by ZEFSAII (Michael W. Deem and Ramdas Pophale) SiO2 
 PCOD8197120
Probable space group: P M M M
;
_chemical_formula_sum "Si O2"
_cell_formula_units_Z 52
_cell_length_a 9.150510
_cell_length_b 23.704183
_cell_length_c 13.959998
_cell_angle_alpha 90.000000
_cell_angle_beta 90.000000
_cell_angle_gamma 90.000000
_cell_volume 3027.998442
_symmetry_space_group_name_H-M "P M M M"
_symmetry_group_IT_number 47
_symmetry_cell_setting 'orthorhombic'
loop_
_space_group_symop_operation_xyz
x,y,z
-x,-y,z
x,-y,-z
-x,y,-z
-x,-y,-z
x,y,-z
-x,y,z
x,-y,z
loop_
_atom_site_type_symbol
_atom_site_label
_atom_site_fract_x
_atom_site_fract_y
_atom_site_fract_z
Si Si1 0.835372 0.658111 0.746417
Si Si2 0.173830 0.563791 0.392809
Si Si3 0.327948 0.734541 0.889382
Si Si4 0.329809 0.833055 0.746188
Si Si5 0.162179 0.238365 0.391426
Si Si6 0.827847 0.935562 0.811675
Si Si7 0.338701 0.066167 0.000000
O O1 0.765056 0.603000 0.694114
O O2 0.743919 0.680145 0.837900
O O3 0.835156 0.703181 0.662609
O O4 0.000000 0.646315 0.783199
O O5 0.230718 0.580900 0.500000
O O6 0.223274 0.500000 0.370060
O O7 0.000000 0.569282 0.393104
O O8 0.500000 0.725811 0.882289
O O9 0.282989 0.792891 0.835787
O O10 0.275756 0.738182 0.000000
O O11 0.500000 0.847634 0.749259
O O12 0.287981 0.802219 0.648363
O O13 0.238793 0.891387 0.737391
O O14 0.201899 0.251317 0.500000
O O15 0.000000 0.210813 0.380963
O O16 0.000000 0.929048 0.821858
O O17 0.786376 0.000000 0.784204
O O18 0.752903 0.914915 0.909205
O O19 0.500000 0.095335 0.000000
O O20 0.359808 0.000000 0.000000
#
# Coordination Sequence:
#
# PCOD8197120 Si02
#       7
#     8   8   8   8   8   8   4
#     4   9  16  27  46  72  96 120 157 196 230 274
#     4   8  13  22  40  69 102 130 154 186 232 281
#     4   9  19  34  48  64  90 124 158 193 235 280
#     4  10  20  32  49  71  93 120 155 194 235 280
#     4   9  17  30  48  69  95 124 152 188 235 284
#     4  10  20  33  48  68  95 124 154 189 231 281
#     4   9  17  29  45  65  89 119 153 185 220 265
#
# _framework density 17.173061000000001
#
# number of rings (size 3 to 8) (size 9 to 14) (size 15 to 20)
#    0.000    2.846    0.000    2.077    1.077    4.923 
#    0.000    0.000    0.000    2.769    0.000    7.538 
#    0.000    0.000    0.000    0.000    0.000    0.000 
#
# Total GULP energy -644382.036148 kJ/mol
# GULP energy per Si atom -12391.962234 kJ/mol
# Density = 1.713397 g / cm^3
# Si number density = 17.173061 Si / 1000 Ang^3
#
#
#
# Elastic Constant Matrix: (Units=GPa)
#
#
# Indices 1 2 3 4 5 6 
#
# 1 55.3050 33.3998 25.8245 0.0000 0.0000 0.0000
# 2 33.3998 82.8095 30.3724 0.0000 0.0000 0.0000
# 3 25.8245 30.3724 86.8020 0.0000 0.0000 0.0000
# 4 0.0000 0.0000 0.0000 20.7355 0.0000 0.0000
# 5 0.0000 0.0000 0.0000 0.0000 22.5805 0.0000
# 6 0.0000 0.0000 0.0000 0.0000 0.0000 17.5304
#
#
#
# Elastic Compliance Matrix: (Units=1/GPa)
#
#
# Indices 1 2 3 4 5 6 
#
# 1 0.025382 -0.008567 -0.004554 0.000000 0.000000 0.000000
# 2 -0.008567 0.016746 -0.003311 0.000000 0.000000 0.000000
# 3 -0.004554 -0.003311 0.014034 0.000000 0.000000 0.000000
# 4 0.000000 0.000000 0.000000 0.048226 0.000000 0.000000
# 5 0.000000 0.000000 0.000000 0.000000 0.044286 0.000000
# 6 0.000000 0.000000 0.000000 0.000000 0.000000 0.057044
#
#
# Mechanical properties :
#
#
# Convention : Reuss Voigt Hill
#
# Bulk Modulus (GPa) = 42.92169 44.90110 43.91140
# Shear Modulus (GPa) = 20.29671 21.19063 20.74367
#
# Velocity S-wave (km/s) = 3.44160 3.51657 3.47928
# Velocity P-wave (km/s) = 6.39067 6.53386 6.46266
#
# Compressibility (1/GPa) = 0.02329824
#
# Stress axis : x y z
#
# Youngs Moduli (GPa) = 39.39847 59.71749 71.25759
#
# Poissons Ratio (x) = 0.51161 0.32448
# Poissons Ratio (y) = 0.33753 0.23590
# Poissons Ratio (z) = 0.17941 0.19770
#
# Static dielectric constant tensor:
#      x y z
#    x 3.114560 0.000000 0.000000 
#    y 0.000000 3.263830 0.000000 
#    z 0.000000 0.000000 3.179400 
# 
# 
# High freq. dielectric constant tensor:
#      x y z
#    x 1.648110 0.000000 0.000000 
#    y 0.000000 1.655110 0.000000 
#    z 0.000000 0.000000 1.644880 
# 
# From -- ./inp_files/7628.got.cif
#   From: 2010.03.12/outbox.cif.g09.slc.cpg/sg47_4_cif.got.tgz:7628.got - 2010.04.14 03:12:58.
