data_PCOD8197571
_publ_section_title
;
Structure prediction by ZEFSAII (Michael W. Deem and Ramdas Pophale) SiO2 
 PCOD8197571
Probable space group: P M M M
;
_chemical_formula_sum "Si O2"
_cell_formula_units_Z 52
_cell_length_a 10.350270
_cell_length_b 9.202988
_cell_length_c 30.544776
_cell_angle_alpha 90.000000
_cell_angle_beta 90.000000
_cell_angle_gamma 90.000000
_cell_volume 2909.494090
_symmetry_space_group_name_H-M "P M M M"
_symmetry_group_IT_number 47
_symmetry_cell_setting 'orthorhombic'
loop_
_space_group_symop_operation_xyz
x,y,z
-x,-y,z
x,-y,-z
-x,y,-z
-x,-y,-z
x,y,-z
-x,y,z
x,-y,z
loop_
_atom_site_type_symbol
_atom_site_label
_atom_site_fract_x
_atom_site_fract_y
_atom_site_fract_z
Si Si1 0.349710 0.328618 0.219217
Si Si2 0.152595 0.661827 0.370014
Si Si3 0.000000 0.339184 0.948198
Si Si4 0.750267 0.829812 0.049790
Si Si5 0.353957 0.343923 0.876845
Si Si6 0.153658 0.163124 0.451632
Si Si7 0.149685 0.827824 0.717453
O O1 0.500000 0.280864 0.227153
O O2 0.334783 0.500000 0.228514
O O3 0.298131 0.291300 0.169800
O O4 0.250724 0.238427 0.248492
O O5 0.210932 0.500000 0.363643
O O6 0.211994 0.731642 0.414335
O O7 0.189739 0.762921 0.329339
O O8 0.000000 0.651688 0.374648
O O9 0.122850 0.249869 0.932288
O O10 0.000000 0.500000 0.927517
O O11 0.000000 0.347390 0.000000
O O12 0.645162 0.775504 0.084298
O O13 0.771678 0.000000 0.052611
O O14 0.712922 0.785012 0.000000
O O15 0.500000 0.376051 0.865115
O O16 0.291701 0.500000 0.891980
O O17 0.196401 0.218292 0.500000
O O18 0.000000 0.161345 0.448465
O O19 0.205865 0.000000 0.443746
O O20 0.000000 0.787537 0.729243
O O21 0.167103 0.000000 0.715842
#
# Coordination Sequence:
#
# PCOD8197571 Si02
#       7
#     8   8   4   8   8   8   8
#     4   9  19  37  58  77  99 129 166 208 253 301
#     4   9  16  25  39  60  88 124 163 205 252 296
#     4   9  17  31  51  71  93 125 163 197 231 275
#     4  10  20  33  50  74 103 131 159 195 239 284
#     4   9  19  36  55  74  97 127 163 199 237 286
#     4   8  13  21  33  51  80 120 162 201 244 297
#     4  10  20  33  50  74 103 133 167 207 252 304
#
# _framework density 17.872523999999999
#
# number of rings (size 3 to 8) (size 9 to 14) (size 15 to 20)
#    0.000    2.846    0.000    3.000    0.000    6.462 
#    1.385    4.615    0.000    0.000    0.000    0.000 
#    0.000    0.615    0.000    6.462    0.000    8.923 
#
# Total GULP energy -644240.124463 kJ/mol
# GULP energy per Si atom -12389.233163 kJ/mol
# Density = 1.783185 g / cm^3
# Si number density = 17.872524 Si / 1000 Ang^3
#
#
#
# Elastic Constant Matrix: (Units=GPa)
#
#
# Indices 1 2 3 4 5 6 
#
# 1 45.3434 33.2109 39.8285 0.0000 0.0000 0.0000
# 2 33.2109 112.3903 76.6439 0.0000 0.0000 0.0000
# 3 39.8285 76.6439 139.5399 0.0000 0.0000 0.0000
# 4 0.0000 0.0000 0.0000 35.8466 0.0000 0.0000
# 5 0.0000 0.0000 0.0000 0.0000 5.1207 0.0000
# 6 0.0000 0.0000 0.0000 0.0000 0.0000 20.1370
#
#
#
# Elastic Compliance Matrix: (Units=1/GPa)
#
#
# Indices 1 2 3 4 5 6 
#
# 1 0.031107 -0.005016 -0.006124 0.000000 0.000000 0.000000
# 2 -0.005016 0.015035 -0.006826 0.000000 0.000000 0.000000
# 3 -0.006124 -0.006826 0.012664 0.000000 0.000000 0.000000
# 4 0.000000 0.000000 0.000000 0.027897 0.000000 0.000000
# 5 0.000000 0.000000 0.000000 0.000000 0.195286 0.000000
# 6 0.000000 0.000000 0.000000 0.000000 0.000000 0.049660
#
#
# Mechanical properties :
#
#
# Convention : Reuss Voigt Hill
#
# Bulk Modulus (GPa) = 43.71897 66.29335 55.00616
# Shear Modulus (GPa) = 13.32608 22.06020 17.69314
#
# Velocity S-wave (km/s) = 2.73356 3.51708 3.14978
# Velocity P-wave (km/s) = 5.87178 7.32571 6.63867
#
# Compressibility (1/GPa) = 0.02287337
#
# Stress axis : x y z
#
# Youngs Moduli (GPa) = 32.14751 66.51136 78.96533
#
# Poissons Ratio (x) = 0.33361 0.48356
# Poissons Ratio (y) = 0.16125 0.53906
# Poissons Ratio (z) = 0.19686 0.45404
#
# Static dielectric constant tensor:
#      x y z
#    x 2.961060 0.000000 0.000000 
#    y 0.000000 3.417610 0.000000 
#    z 0.000000 0.000000 3.415580 
# 
# 
# High freq. dielectric constant tensor:
#      x y z
#    x 1.641690 0.000000 0.000000 
#    y 0.000000 1.698510 0.000000 
#    z 0.000000 0.000000 1.696150 
# 
# From -- ./inp_files/13239.got.cif
#   From: 2010.03.12/outbox.cif.g09.slc.cpg/sg47_7_cif.got.tgz:13239.got - 2010.04.14 03:12:58.
