data_PCOD8197627
_publ_section_title
;
Structure prediction by ZEFSAII (Michael W. Deem and Ramdas Pophale) SiO2 
 PCOD8197627
Probable space group: P M M M
;
_chemical_formula_sum "Si O2"
_cell_formula_units_Z 40
_cell_length_a 14.741474
_cell_length_b 15.075218
_cell_length_c 9.062056
_cell_angle_alpha 90.000000
_cell_angle_beta 90.000000
_cell_angle_gamma 90.000000
_cell_volume 2013.869171
_symmetry_space_group_name_H-M "P M M M"
_symmetry_group_IT_number 47
_symmetry_cell_setting 'orthorhombic'
loop_
_space_group_symop_operation_xyz
x,y,z
-x,-y,z
x,-y,-z
-x,y,-z
-x,-y,-z
x,y,-z
-x,y,z
x,-y,z
loop_
_atom_site_type_symbol
_atom_site_label
_atom_site_fract_x
_atom_site_fract_y
_atom_site_fract_z
Si Si1 0.723151 0.902036 0.671420
Si Si2 0.100756 0.155830 0.828178
Si Si3 0.149648 0.326789 0.664850
Si Si4 0.356510 0.276676 0.664156
Si Si5 0.893989 0.500000 0.162527
Si Si6 0.500000 0.396240 0.824922
O O1 0.744930 0.883023 0.500000
O O2 0.819865 0.901726 0.754345
O O3 0.651501 0.825952 0.724890
O O4 0.679884 0.000000 0.694786
O O5 0.097565 0.252781 0.757191
O O6 0.000000 0.112948 0.805610
O O7 0.123614 0.164671 0.000000
O O8 0.108565 0.330549 0.500000
O O9 0.255690 0.311106 0.657794
O O10 0.138143 0.417599 0.746103
O O11 0.400448 0.277759 0.500000
O O12 0.412748 0.341781 0.769233
O O13 0.000000 0.500000 0.143823
O O14 0.848312 0.500000 0.000000
O O15 0.500000 0.500000 0.769836
O O16 0.500000 0.395025 0.000000
#
# Coordination Sequence:
#
# PCOD8197627 Si02
#       6
#     8   8   8   8   4   4
#     4   9  19  37  60  85 113 148 192 238 284 337
#     4  10  20  33  50  76 112 152 193 237 286 336
#     4  10  21  36  55  78 105 143 192 238 283 336
#     4   9  20  39  61  85 112 145 183 228 282 337
#     4  11  23  35  49  74 109 148 189 233 284 339
#     4  11  25  41  60  89 118 146 183 225 276 341
#
# _framework density 19.862264
#
# number of rings (size 3 to 8) (size 9 to 14) (size 15 to 20)
#    0.000    2.200    0.000    3.600    1.400   10.400 
#    0.000    2.500    0.000    3.000    0.000    0.000 
#    0.000    0.000    0.000    0.000    0.000    0.000 
#
# Total GULP energy -495713.205920 kJ/mol
# GULP energy per Si atom -12392.830148 kJ/mol
# Density = 1.981706 g / cm^3
# Si number density = 19.862264 Si / 1000 Ang^3
#
#
#
# Elastic Constant Matrix: (Units=GPa)
#
#
# Indices 1 2 3 4 5 6 
#
# 1 62.4311 35.7156 27.7848 0.0000 0.0000 0.0000
# 2 35.7156 162.8008 49.2296 0.0000 0.0000 0.0000
# 3 27.7848 49.2296 102.0820 0.0000 0.0000 0.0000
# 4 0.0000 0.0000 0.0000 42.3041 0.0000 0.0000
# 5 0.0000 0.0000 0.0000 0.0000 29.2759 0.0000
# 6 0.0000 0.0000 0.0000 0.0000 0.0000 -1.4237
#
#
#
# Elastic Compliance Matrix: (Units=1/GPa)
#
#
# Indices 1 2 3 4 5 6 
#
# 1 0.019498 -0.003129 -0.003798 0.000000 0.000000 0.000000
# 2 -0.003129 0.007693 -0.002858 0.000000 0.000000 0.000000
# 3 -0.003798 -0.002858 0.012208 0.000000 0.000000 0.000000
# 4 0.000000 0.000000 0.000000 0.023638 0.000000 0.000000
# 5 0.000000 0.000000 0.000000 0.000000 0.034158 0.000000
# 6 0.000000 0.000000 0.000000 0.000000 0.000000 -0.702396
#
#
# Mechanical properties :
#
#
# Convention : Reuss Voigt Hill
#
# Bulk Modulus (GPa) = 50.43219 61.41930 55.92575
# Shear Modulus (GPa) = -8.63528 28.33687 9.85079
#
# Velocity S-wave (km/s) = -2.08735 3.78122 2.22942
# Velocity P-wave (km/s) = 4.43133 7.07483 5.90297
#
# Compressibility (1/GPa) = 0.01982860
#
# Stress axis : x y z
#
# Youngs Moduli (GPa) = 51.28734 129.98310 81.91140
#
# Poissons Ratio (x) = 0.40672 0.31110
# Poissons Ratio (y) = 0.16048 0.23414
# Poissons Ratio (z) = 0.19479 0.37155
#
# Static dielectric constant tensor:
#      x y z
#    x 3.426860 0.000000 0.000000 
#    y 0.000000 3.722530 0.000000 
#    z 0.000000 0.000000 4.130890 
# 
# 
# High freq. dielectric constant tensor:
#      x y z
#    x 1.757810 0.000000 0.000000 
#    y 0.000000 1.785370 0.000000 
#    z 0.000000 0.000000 1.778120 
# 
# From -- ./inp_files/5727.got.cif
#   From: 2010.03.12/outbox.cif.g09.slc.cpg/sg47_3_cif.got.tgz:5727.got - 2010.04.14 03:12:58.
