data_PCOD8197007
_publ_section_title
;
Structure prediction by ZEFSAII (Michael W. Deem and Ramdas Pophale) SiO2 
 PCOD8197007
Probable space group: P M M M
;
_chemical_formula_sum "Si O2"
_cell_formula_units_Z 52
_cell_length_a 18.095746
_cell_length_b 16.912657
_cell_length_c 9.554980
_cell_angle_alpha 90.000000
_cell_angle_beta 90.000000
_cell_angle_gamma 90.000000
_cell_volume 2924.274352
_symmetry_space_group_name_H-M "P M M M"
_symmetry_group_IT_number 47
_symmetry_cell_setting 'orthorhombic'
loop_
_space_group_symop_operation_xyz
x,y,z
-x,-y,z
x,-y,-z
-x,y,-z
-x,-y,-z
x,y,-z
-x,y,z
x,-y,z
loop_
_atom_site_type_symbol
_atom_site_label
_atom_site_fract_x
_atom_site_fract_y
_atom_site_fract_z
Si Si1 0.673555 0.589791 0.341627
Si Si2 0.414750 0.000000 0.335185
Si Si3 0.787981 0.274196 0.657196
Si Si4 0.085068 0.770446 0.836036
Si Si5 0.651851 0.832276 0.335907
Si Si6 0.912951 0.085828 0.653363
Si Si7 0.414636 0.698362 0.154954
O O1 0.642600 0.596972 0.500000
O O2 0.695714 0.500000 0.306078
O O3 0.744613 0.644670 0.323597
O O4 0.612668 0.619561 0.232998
O O5 0.366995 0.077486 0.288779
O O6 0.500000 0.000000 0.274234
O O7 0.421909 0.000000 0.500000
O O8 0.818213 0.265688 0.500000
O O9 0.857838 0.287589 0.760091
O O10 0.736466 0.197009 0.693350
O O11 0.109792 0.855592 0.776372
O O12 0.000000 0.749400 0.798505
O O13 0.098115 0.769496 0.000000
O O14 0.634021 0.820005 0.500000
O O15 0.599044 0.776412 0.246215
O O16 0.884268 0.115032 0.500000
O O17 0.000000 0.078112 0.647345
O O18 0.878064 0.000000 0.686945
O O19 0.500000 0.687066 0.134546
O O20 0.377573 0.706118 0.000000
#
# Coordination Sequence:
#
# PCOD8197007 Si02
#       7
#     8   4   8   8   8   8   8
#     4   9  19  36  57  79 101 128 165 206 249 301
#     4   9  16  28  51  79 102 129 172 222 261 293
#     4   9  18  33  52  74 100 129 163 205 253 305
#     4  10  20  32  48  71  98 129 165 205 249 300
#     4   9  18  33  52  74 100 134 177 219 259 301
#     4   8  14  26  44  65  89 118 154 196 241 287
#     4  10  20  32  48  74 108 141 171 206 249 298
#
# _framework density 17.782188999999999
#
# number of rings (size 3 to 8) (size 9 to 14) (size 15 to 20)
#    0.000    2.846    0.000    2.769    0.000    6.154 
#    1.385    3.462    0.000    1.846    0.000    3.231 
#    0.000    0.000    0.000    0.000    0.000    0.000 
#
# Total GULP energy -644243.433678 kJ/mol
# GULP energy per Si atom -12389.296802 kJ/mol
# Density = 1.774172 g / cm^3
# Si number density = 17.782189 Si / 1000 Ang^3
#
#
#
# Elastic Constant Matrix: (Units=GPa)
#
#
# Indices 1 2 3 4 5 6 
#
# 1 80.9228 40.3975 55.1383 0.0000 0.0000 0.0000
# 2 40.3975 121.5760 44.3799 0.0000 0.0000 0.0000
# 3 55.1383 44.3799 100.7613 0.0000 0.0000 0.0000
# 4 0.0000 0.0000 0.0000 -4.2684 0.0000 0.0000
# 5 0.0000 0.0000 0.0000 0.0000 26.4458 0.0000
# 6 0.0000 0.0000 0.0000 0.0000 0.0000 14.1215
#
#
#
# Elastic Compliance Matrix: (Units=1/GPa)
#
#
# Indices 1 2 3 4 5 6 
#
# 1 0.020744 -0.003276 -0.009909 0.000000 0.000000 0.000000
# 2 -0.003276 0.010318 -0.002752 0.000000 0.000000 0.000000
# 3 -0.009909 -0.002752 0.016559 0.000000 0.000000 0.000000
# 4 0.000000 0.000000 0.000000 -0.234279 0.000000 0.000000
# 5 0.000000 0.000000 0.000000 0.000000 0.037813 0.000000
# 6 0.000000 0.000000 0.000000 0.000000 0.000000 0.070814
#
#
# Mechanical properties :
#
#
# Convention : Reuss Voigt Hill
#
# Bulk Modulus (GPa) = 63.49977 64.78792 64.14385
# Shear Modulus (GPa) = -122.22726 18.14942 -52.03892
#
# Velocity S-wave (km/s) = -8.29970 3.19823 -5.41555
# Velocity P-wave (km/s) = 7.48728 7.08177 1.71870
#
# Compressibility (1/GPa) = 0.01574809
#
# Stress axis : x y z
#
# Youngs Moduli (GPa) = 48.20588 96.91390 60.39059
#
# Poissons Ratio (x) = 0.31748 0.59840
# Poissons Ratio (y) = 0.15792 0.16620
# Poissons Ratio (z) = 0.47766 0.26672
#
# Static dielectric constant tensor:
#      x y z
#    x 3.198970 0.000000 0.000000 
#    y 0.000000 3.446730 0.000000 
#    z 0.000000 0.000000 3.403100 
# 
# 
# High freq. dielectric constant tensor:
#      x y z
#    x 1.674090 0.000000 0.000000 
#    y 0.000000 1.675830 0.000000 
#    z 0.000000 0.000000 1.682110 
# 
# From -- ./inp_files/9521.got.cif
#   From: 2010.03.12/outbox.cif.g09.slc.cpg/sg47_5_cif.got.tgz:9521.got - 2010.04.14 03:12:58.
