data_PCOD8197412
_publ_section_title
;
Structure prediction by ZEFSAII (Michael W. Deem and Ramdas Pophale) SiO2 
 PCOD8197412
Probable space group: P M M M
;
_chemical_formula_sum "Si O2"
_cell_formula_units_Z 44
_cell_length_a 9.142690
_cell_length_b 15.358860
_cell_length_c 17.319680
_cell_angle_alpha 90.000000
_cell_angle_beta 90.000000
_cell_angle_gamma 90.000000
_cell_volume 2432.051907
_symmetry_space_group_name_H-M "P M M M"
_symmetry_group_IT_number 47
_symmetry_cell_setting 'orthorhombic'
loop_
_space_group_symop_operation_xyz
x,y,z
-x,-y,z
x,-y,-z
-x,y,-z
-x,-y,-z
x,y,-z
-x,y,z
x,-y,z
loop_
_atom_site_type_symbol
_atom_site_label
_atom_site_fract_x
_atom_site_fract_y
_atom_site_fract_z
Si Si1 0.830317 0.903221 0.269990
Si Si2 0.834959 0.669668 0.367332
Si Si3 0.669804 0.836531 0.586330
Si Si4 0.327596 0.402821 0.911766
Si Si5 0.163006 0.269082 0.194551
Si Si6 0.664097 0.500000 0.409024
O O1 0.741415 0.899516 0.350137
O O2 0.777676 0.830602 0.207505
O O3 0.000000 0.883713 0.290084
O O4 0.809579 0.000000 0.234662
O O5 0.749058 0.743789 0.413129
O O6 0.836890 0.685827 0.276817
O O7 0.750263 0.581640 0.378502
O O8 0.000000 0.663343 0.399919
O O9 0.687433 0.876521 0.500000
O O10 0.500000 0.823505 0.606967
O O11 0.500000 0.397463 0.903229
O O12 0.274838 0.500000 0.884963
O O13 0.262608 0.324286 0.862400
O O14 0.279540 0.388340 0.000000
O O15 0.000000 0.266798 0.159210
O O16 0.500000 0.500000 0.374694
O O17 0.658704 0.500000 0.500000
#
# Coordination Sequence:
#
# PCOD8197412 Si02
#       6
#     8   8   8   8   8   4
#     4   9  19  36  55  75 101 135 175 217 263 315
#     4  10  21  35  50  70  97 132 174 217 259 309
#     4  10  20  33  49  71 100 131 168 218 270 316
#     4   9  19  35  54  79 110 141 171 202 243 301
#     4   9  19  34  53  78 104 131 168 213 255 300
#     4  11  23  35  47  67  96 131 174 221 265 308
#
# _framework density 18.091719999999999
#
# number of rings (size 3 to 8) (size 9 to 14) (size 15 to 20)
#    0.000    2.455    0.000    3.545    1.273    9.455 
#    0.000    2.727    0.000    0.545    0.000    3.818 
#    0.000    0.000    0.000    0.000    0.000    0.000 
#
# Total GULP energy -545404.849163 kJ/mol
# GULP energy per Si atom -12395.564754 kJ/mol
# Density = 1.805054 g / cm^3
# Si number density = 18.091720 Si / 1000 Ang^3
#
#
#
# Elastic Constant Matrix: (Units=GPa)
#
#
# Indices 1 2 3 4 5 6 
#
# 1 92.8411 50.1490 32.1448 0.0000 0.0000 0.0000
# 2 50.1490 148.3941 49.3278 0.0000 0.0000 0.0000
# 3 32.1448 49.3278 68.2105 0.0000 0.0000 0.0000
# 4 0.0000 0.0000 0.0000 11.5507 0.0000 0.0000
# 5 0.0000 0.0000 0.0000 0.0000 -21.1969 0.0000
# 6 0.0000 0.0000 0.0000 0.0000 0.0000 -0.4462
#
#
#
# Elastic Compliance Matrix: (Units=1/GPa)
#
#
# Indices 1 2 3 4 5 6 
#
# 1 0.014031 -0.003349 -0.004190 0.000000 0.000000 0.000000
# 2 -0.003349 0.009671 -0.005415 0.000000 0.000000 0.000000
# 3 -0.004190 -0.005415 0.020552 0.000000 0.000000 0.000000
# 4 0.000000 0.000000 0.000000 0.086575 0.000000 0.000000
# 5 0.000000 0.000000 0.000000 0.000000 -0.047177 0.000000
# 6 0.000000 0.000000 0.000000 0.000000 0.000000 -2.241082
#
#
# Mechanical properties :
#
#
# Convention : Reuss Voigt Hill
#
# Bulk Modulus (GPa) = 54.51417 63.63209 59.07313
# Shear Modulus (GPa) = -2.35249 9.83646 3.74199
#
# Velocity S-wave (km/s) = -1.14155 2.33427 1.43973
# Velocity P-wave (km/s) = 5.33479 6.52023 5.95707
#
# Compressibility (1/GPa) = 0.01834385
#
# Stress axis : x y z
#
# Youngs Moduli (GPa) = 71.27182 103.40605 48.65812
#
# Poissons Ratio (x) = 0.34627 0.20390
# Poissons Ratio (y) = 0.23867 0.26350
# Poissons Ratio (z) = 0.29866 0.55999
#
# Static dielectric constant tensor:
#      x y z
#    x 3.500690 0.000000 0.000000 
#    y 0.000000 3.229350 0.000000 
#    z 0.000000 0.000000 3.125920 
# 
# 
# High freq. dielectric constant tensor:
#      x y z
#    x 1.706320 0.000000 0.000000 
#    y 0.000000 1.707170 0.000000 
#    z 0.000000 0.000000 1.674400 
# 
# From -- ./inp_files/6184.got.cif
#   From: 2010.03.12/outbox.cif.g09.slc.cpg/sg47_4_cif.got.tgz:6184.got - 2010.04.14 03:12:58.
