data_PCOD8197532
_publ_section_title
;
Structure prediction by ZEFSAII (Michael W. Deem and Ramdas Pophale) SiO2 
 PCOD8197532
Probable space group: P M M M
;
_chemical_formula_sum "Si O2"
_cell_formula_units_Z 36
_cell_length_a 8.951329
_cell_length_b 23.232291
_cell_length_c 9.259542
_cell_angle_alpha 90.000000
_cell_angle_beta 90.000000
_cell_angle_gamma 90.000000
_cell_volume 1925.613245
_symmetry_space_group_name_H-M "P M M M"
_symmetry_group_IT_number 47
_symmetry_cell_setting 'orthorhombic'
loop_
_space_group_symop_operation_xyz
x,y,z
-x,-y,z
x,-y,-z
-x,y,-z
-x,-y,-z
x,y,-z
-x,y,z
x,-y,z
loop_
_atom_site_type_symbol
_atom_site_label
_atom_site_fract_x
_atom_site_fract_y
_atom_site_fract_z
Si Si1 0.663635 0.000000 0.171493
Si Si2 0.327947 0.433437 0.334119
Si Si3 0.174510 0.664357 0.832770
Si Si4 0.677461 0.767599 0.663762
Si Si5 0.678777 0.876659 0.162287
O O1 0.744010 0.939411 0.214982
O O2 0.500000 0.000000 0.244186
O O3 0.646113 0.000000 0.000000
O O4 0.294689 0.417178 0.500000
O O5 0.500000 0.419835 0.297834
O O6 0.291949 0.500000 0.305815
O O7 0.221733 0.397132 0.230580
O O8 0.261802 0.714096 0.751479
O O9 0.000000 0.673318 0.808731
O O10 0.218712 0.666314 0.000000
O O11 0.735332 0.764232 0.500000
O O12 0.500000 0.765680 0.671288
O O13 0.739001 0.826903 0.732660
O O14 0.500000 0.880050 0.164589
O O15 0.734130 0.862483 0.000000
#
# Coordination Sequence:
#
# PCOD8197532 Si02
#       5
#     4   8   8   8   8
#     4   7  10  18  35  61  92 125 160 197 240 292
#     4   9  19  37  60  84 108 134 165 200 240 291
#     4  11  24  38  52  74 103 134 170 211 252 294
#     4  10  20  33  50  73 100 131 169 210 252 301
#     4   8  13  23  41  65  94 128 164 202 245 293
#
# _framework density 18.695343000000001
#
# number of rings (size 3 to 8) (size 9 to 14) (size 15 to 20)
#    0.000    2.778    0.000    4.000    0.000    7.111 
#    0.000    3.889    0.000    3.333    0.000    0.778 
#    0.000    6.222    0.000    0.000    0.000    0.000 
#
# Total GULP energy -446193.938471 kJ/mol
# GULP energy per Si atom -12394.276069 kJ/mol
# Density = 1.865279 g / cm^3
# Si number density = 18.695343 Si / 1000 Ang^3
#
#
#
# Elastic Constant Matrix: (Units=GPa)
#
#
# Indices 1 2 3 4 5 6 
#
# 1 14.3114 16.8130 22.4643 0.0000 0.0000 0.0000
# 2 16.8130 130.8548 64.2009 0.0000 0.0000 0.0000
# 3 22.4643 64.2009 109.8322 0.0000 0.0000 0.0000
# 4 0.0000 0.0000 0.0000 18.0826 0.0000 0.0000
# 5 0.0000 0.0000 0.0000 0.0000 20.4862 0.0000
# 6 0.0000 0.0000 0.0000 0.0000 0.0000 -2.1962
#
#
#
# Elastic Compliance Matrix: (Units=1/GPa)
#
#
# Indices 1 2 3 4 5 6 
#
# 1 0.104477 -0.004122 -0.018960 0.000000 0.000000 0.000000
# 2 -0.004122 0.010878 -0.005515 0.000000 0.000000 0.000000
# 3 -0.018960 -0.005515 0.016207 0.000000 0.000000 0.000000
# 4 0.000000 0.000000 0.000000 0.055302 0.000000 0.000000
# 5 0.000000 0.000000 0.000000 0.000000 0.048813 0.000000
# 6 0.000000 0.000000 0.000000 0.000000 0.000000 -0.455339
#
#
# Mechanical properties :
#
#
# Convention : Reuss Voigt Hill
#
# Bulk Modulus (GPa) = 13.44671 51.32831 32.38751
# Shear Modulus (GPa) = -36.31610 17.37587 -9.47011
#
# Velocity S-wave (km/s) = -4.41219 3.05195 -2.25311
# Velocity P-wave (km/s) = 4.32994 6.31933 3.25466
#
# Compressibility (1/GPa) = 0.07436761
#
# Stress axis : x y z
#
# Youngs Moduli (GPa) = 9.57150 91.93200 61.70331
#
# Poissons Ratio (x) = 0.37892 1.16987
# Poissons Ratio (y) = 0.03945 0.34031
# Poissons Ratio (z) = 0.18147 0.50704
#
# Static dielectric constant tensor:
#      x y z
#    x 2.980910 0.000000 0.000000 
#    y 0.000000 3.842870 0.000000 
#    z 0.000000 0.000000 3.460580 
# 
# 
# High freq. dielectric constant tensor:
#      x y z
#    x 1.675980 0.000000 0.000000 
#    y 0.000000 1.751010 0.000000 
#    z 0.000000 0.000000 1.715830 
# 
# From -- ./inp_files/1408.got.cif
#   From: 2010.03.12/outbox.cif.g09.slc.cpg/sg47_1_cif.got.tgz:1408.got - 2010.04.14 03:12:58.
