data_PCOD8197643
_publ_section_title
;
Structure prediction by ZEFSAII (Michael W. Deem and Ramdas Pophale) SiO2 
 PCOD8197643
Probable space group: P M M M
;
_chemical_formula_sum "Si O2"
_cell_formula_units_Z 52
_cell_length_a 14.253519
_cell_length_b 9.032835
_cell_length_c 23.133344
_cell_angle_alpha 90.000000
_cell_angle_beta 90.000000
_cell_angle_gamma 90.000000
_cell_volume 2978.410760
_symmetry_space_group_name_H-M "P M M M"
_symmetry_group_IT_number 47
_symmetry_cell_setting 'orthorhombic'
loop_
_space_group_symop_operation_xyz
x,y,z
-x,-y,z
x,-y,-z
-x,y,-z
-x,-y,-z
x,y,-z
-x,y,z
x,-y,z
loop_
_atom_site_type_symbol
_atom_site_label
_atom_site_fract_x
_atom_site_fract_y
_atom_site_fract_z
Si Si1 0.898575 0.175629 0.617019
Si Si2 0.714583 0.675017 0.781518
Si Si3 0.388777 0.830241 0.114507
Si Si4 0.607558 0.328479 0.333213
Si Si5 0.291856 0.824532 0.564875
Si Si6 0.105790 0.172302 0.748782
Si Si7 0.388394 0.332626 0.000000
O O1 0.812824 0.237459 0.578837
O O2 0.884935 0.227080 0.682872
O O3 0.000000 0.234971 0.593955
O O4 0.900173 0.000000 0.614860
O O5 0.711071 0.500000 0.789095
O O6 0.653472 0.747090 0.831180
O O7 0.670845 0.725908 0.720238
O O8 0.821392 0.732417 0.786427
O O9 0.500000 0.817603 0.118657
O O10 0.355674 0.000000 0.113894
O O11 0.350761 0.752558 0.056403
O O12 0.500000 0.295611 0.317334
O O13 0.624870 0.500000 0.345802
O O14 0.632855 0.240949 0.391219
O O15 0.318513 0.775272 0.500000
O O16 0.293615 0.000000 0.571311
O O17 0.000000 0.201391 0.771436
O O18 0.131628 0.000000 0.754408
O O19 0.349101 0.500000 0.000000
O O20 0.500000 0.333049 0.000000
#
# Coordination Sequence:
#
# PCOD8197643 Si02
#       7
#     8   8   8   8   8   8   4
#     4   8  14  27  48  72  97 123 151 190 244 304
#     4  11  21  33  52  77 104 133 169 215 260 305
#     4  10  20  33  51  77 109 145 182 217 255 301
#     4  10  22  38  52  67  92 129 168 206 252 305
#     4  10  20  33  51  74  96 120 158 207 253 302
#     4   9  17  31  52  75 100 131 165 203 251 309
#     4   9  17  31  51  75 108 147 182 217 255 295
#
# _framework density 17.458976
#
# number of rings (size 3 to 8) (size 9 to 14) (size 15 to 20)
#    0.000    2.385    1.538    2.538    0.000    4.615 
#    0.000    3.077    0.000    0.462    0.000    1.615 
#    0.000    4.308    0.000    0.000    0.000    0.000 
#
# Total GULP energy -644730.848327 kJ/mol
# GULP energy per Si atom -12398.670160 kJ/mol
# Density = 1.741924 g / cm^3
# Si number density = 17.458976 Si / 1000 Ang^3
#
#
#
# Elastic Constant Matrix: (Units=GPa)
#
#
# Indices 1 2 3 4 5 6 
#
# 1 66.7234 32.6854 26.8184 0.0000 0.0000 0.0000
# 2 32.6854 76.1060 48.1674 0.0000 0.0000 0.0000
# 3 26.8184 48.1674 97.0530 0.0000 0.0000 0.0000
# 4 0.0000 0.0000 0.0000 28.0861 0.0000 0.0000
# 5 0.0000 0.0000 0.0000 0.0000 13.4960 0.0000
# 6 0.0000 0.0000 0.0000 0.0000 0.0000 23.4977
#
#
#
# Elastic Compliance Matrix: (Units=1/GPa)
#
#
# Indices 1 2 3 4 5 6 
#
# 1 0.019186 -0.007121 -0.001767 0.000000 0.000000 0.000000
# 2 -0.007121 0.021800 -0.008852 0.000000 0.000000 0.000000
# 3 -0.001767 -0.008852 0.015185 0.000000 0.000000 0.000000
# 4 0.000000 0.000000 0.000000 0.035605 0.000000 0.000000
# 5 0.000000 0.000000 0.000000 0.000000 0.074096 0.000000
# 6 0.000000 0.000000 0.000000 0.000000 0.000000 0.042557
#
#
# Mechanical properties :
#
#
# Convention : Reuss Voigt Hill
#
# Bulk Modulus (GPa) = 48.33072 50.58052 49.45562
# Shear Modulus (GPa) = 19.93567 21.83005 20.88286
#
# Velocity S-wave (km/s) = 3.38280 3.53988 3.46223
# Velocity P-wave (km/s) = 6.55747 6.76326 6.66116
#
# Compressibility (1/GPa) = 0.02069078
#
# Stress axis : x y z
#
# Youngs Moduli (GPa) = 52.12109 45.87122 65.85427
#
# Poissons Ratio (x) = 0.32667 0.11638
# Poissons Ratio (y) = 0.37117 0.58291
# Poissons Ratio (z) = 0.09211 0.40603
#
# Static dielectric constant tensor:
#      x y z
#    x 3.332260 0.000000 0.000000 
#    y 0.000000 3.121290 0.000000 
#    z 0.000000 0.000000 3.190640 
# 
# 
# High freq. dielectric constant tensor:
#      x y z
#    x 1.667700 0.000000 0.000000 
#    y 0.000000 1.662430 0.000000 
#    z 0.000000 0.000000 1.660550 
# 
# From -- ./inp_files/6973.got.cif
#   From: 2010.03.12/outbox.cif.g09.slc.cpg/sg47_4_cif.got.tgz:6973.got - 2010.04.14 03:12:58.
