data_PCOD8197515
_publ_section_title
;
Structure prediction by ZEFSAII (Michael W. Deem and Ramdas Pophale) SiO2 
 PCOD8197515
Probable space group: P M M M
;
_chemical_formula_sum "Si O2"
_cell_formula_units_Z 48
_cell_length_a 14.862745
_cell_length_b 18.885253
_cell_length_c 8.963171
_cell_angle_alpha 90.000000
_cell_angle_beta 90.000000
_cell_angle_gamma 90.000000
_cell_volume 2515.842886
_symmetry_space_group_name_H-M "P M M M"
_symmetry_group_IT_number 47
_symmetry_cell_setting 'orthorhombic'
loop_
_space_group_symop_operation_xyz
x,y,z
-x,-y,z
x,-y,-z
-x,y,-z
-x,-y,-z
x,y,-z
-x,y,z
x,-y,z
loop_
_atom_site_type_symbol
_atom_site_label
_atom_site_fract_x
_atom_site_fract_y
_atom_site_fract_z
Si Si1 0.144023 0.578753 0.669052
Si Si2 0.600419 0.730042 0.173853
Si Si3 0.097962 0.293341 0.167918
Si Si4 0.233890 0.199677 0.674845
Si Si5 0.329491 0.577972 0.828891
Si Si6 0.101069 0.079641 0.322670
O O1 0.135245 0.607180 0.500000
O O2 0.104980 0.500000 0.680218
O O3 0.086041 0.625339 0.783754
O O4 0.247705 0.580944 0.715609
O O5 0.500000 0.752441 0.223245
O O6 0.669237 0.784076 0.254027
O O7 0.609530 0.646106 0.212337
O O8 0.615317 0.742150 0.000000
O O9 0.168248 0.263963 0.286799
O O10 0.000000 0.256353 0.178088
O O11 0.136354 0.286550 0.000000
O O12 0.248465 0.192659 0.500000
O O13 0.180893 0.130360 0.740158
O O14 0.377978 0.500000 0.810001
O O15 0.295912 0.585434 0.000000
O O16 0.101312 0.084022 0.500000
O O17 0.000000 0.101436 0.266533
O O18 0.122767 0.000000 0.268556
#
# Coordination Sequence:
#
# PCOD8197515 Si02
#       6
#     8   8   8   8   8   8
#     4  10  20  33  50  72  99 132 172 222 276 322
#     4  10  21  36  54  77 107 144 184 225 272 327
#     4  11  23  36  51  73 103 141 181 217 259 318
#     4  11  21  34  56  83 110 140 174 218 270 319
#     4   9  17  31  52  74  98 132 175 224 277 329
#     4   8  15  30  54  85 117 144 172 210 259 316
#
# _framework density 19.079093
#
# number of rings (size 3 to 8) (size 9 to 14) (size 15 to 20)
#    0.000    2.167    1.667    2.500    0.000    4.000 
#    0.000    3.333    0.000    2.500    0.000   12.833 
#    0.000    0.000    0.000    0.000    0.000    0.000 
#
# Total GULP energy -594644.747449 kJ/mol
# GULP energy per Si atom -12388.432239 kJ/mol
# Density = 1.903567 g / cm^3
# Si number density = 19.079093 Si / 1000 Ang^3
#
#
#
# Elastic Constant Matrix: (Units=GPa)
#
#
# Indices 1 2 3 4 5 6 
#
# 1 130.7983 62.9182 32.5317 0.0000 0.0000 0.0000
# 2 62.9182 108.7694 28.9366 0.0000 0.0000 0.0000
# 3 32.5317 28.9366 45.2861 0.0000 0.0000 0.0000
# 4 0.0000 0.0000 0.0000 16.3327 0.0000 0.0000
# 5 0.0000 0.0000 0.0000 0.0000 12.1104 0.0000
# 6 0.0000 0.0000 0.0000 0.0000 0.0000 21.8675
#
#
#
# Elastic Compliance Matrix: (Units=1/GPa)
#
#
# Indices 1 2 3 4 5 6 
#
# 1 0.011394 -0.005317 -0.004787 0.000000 0.000000 0.000000
# 2 -0.005317 0.013558 -0.004844 0.000000 0.000000 0.000000
# 3 -0.004787 -0.004844 0.028616 0.000000 0.000000 0.000000
# 4 0.000000 0.000000 0.000000 0.061227 0.000000 0.000000
# 5 0.000000 0.000000 0.000000 0.000000 0.082574 0.000000
# 6 0.000000 0.000000 0.000000 0.000000 0.000000 0.045730
#
#
# Mechanical properties :
#
#
# Convention : Reuss Voigt Hill
#
# Bulk Modulus (GPa) = 42.24495 59.29187 50.76841
# Shear Modulus (GPa) = 17.80087 20.75993 19.28040
#
# Velocity S-wave (km/s) = 3.05782 3.30221 3.18237
# Velocity P-wave (km/s) = 5.88703 6.75898 6.33802
#
# Compressibility (1/GPa) = 0.02367147
#
# Stress axis : x y z
#
# Youngs Moduli (GPa) = 87.76722 73.75671 34.94574
#
# Poissons Ratio (x) = 0.39218 0.16730
# Poissons Ratio (y) = 0.46667 0.16926
# Poissons Ratio (z) = 0.42017 0.35725
#
# Static dielectric constant tensor:
#      x y z
#    x 3.415300 0.000000 0.000000 
#    y 0.000000 3.728130 0.000000 
#    z 0.000000 0.000000 3.274720 
# 
# 
# High freq. dielectric constant tensor:
#      x y z
#    x 1.726350 0.000000 0.000000 
#    y 0.000000 1.730760 0.000000 
#    z 0.000000 0.000000 1.725010 
# 
# From -- ./inp_files/6363.got.cif
#   From: 2010.03.12/outbox.cif.g09.slc.cpg/sg47_4_cif.got.tgz:6363.got - 2010.04.14 03:12:58.
