data_PCOD8197109
_publ_section_title
;
Structure prediction by ZEFSAII (Michael W. Deem and Ramdas Pophale) SiO2 
 PCOD8197109
Probable space group: P M M M
;
_chemical_formula_sum "Si O2"
_cell_formula_units_Z 56
_cell_length_a 13.908998
_cell_length_b 10.011949
_cell_length_c 21.764735
_cell_angle_alpha 90.000000
_cell_angle_beta 90.000000
_cell_angle_gamma 90.000000
_cell_volume 3030.873825
_symmetry_space_group_name_H-M "P M M M"
_symmetry_group_IT_number 47
_symmetry_cell_setting 'orthorhombic'
loop_
_space_group_symop_operation_xyz
x,y,z
-x,-y,z
x,-y,-z
-x,y,-z
-x,-y,-z
x,y,-z
-x,y,z
x,-y,z
loop_
_atom_site_type_symbol
_atom_site_label
_atom_site_fract_x
_atom_site_fract_y
_atom_site_fract_z
Si Si1 0.295335 0.251529 0.364486
Si Si2 0.112998 0.647986 0.168808
Si Si3 0.390148 0.500000 0.427250
Si Si4 0.109640 0.341759 0.307658
Si Si5 0.196697 0.844347 0.931608
Si Si6 0.603678 0.157013 0.113179
Si Si7 0.612008 0.849661 0.751201
Si Si8 0.387930 0.000000 0.427185
O O1 0.335320 0.373432 0.402355
O O2 0.179771 0.265113 0.355468
O O3 0.338961 0.250617 0.296249
O O4 0.327803 0.123634 0.402368
O O5 0.157284 0.500000 0.155474
O O6 0.139472 0.696417 0.237600
O O7 0.145422 0.754810 0.118562
O O8 0.000000 0.635700 0.164045
O O9 0.500000 0.500000 0.404287
O O10 0.385362 0.500000 0.500000
O O11 0.120453 0.500000 0.316438
O O12 0.000000 0.297000 0.321549
O O13 0.310622 0.808365 0.933286
O O14 0.181009 0.000000 0.914492
O O15 0.156320 0.814625 0.000000
O O16 0.500000 0.216643 0.090852
O O17 0.631643 0.210656 0.180992
O O18 0.590470 0.000000 0.120446
O O19 0.500000 0.853897 0.737197
O O20 0.654705 0.000000 0.743630
O O21 0.500000 0.000000 0.404258
O O22 0.386478 0.000000 0.500000
#
# Coordination Sequence:
#
# PCOD8197109 Si02
#       8
#     8   8   4   8   8   8   8   4
#     4  12  20  35  60  83 111 153 189 229 277 330
#     4   9  19  37  59  79 103 136 177 225 278 335
#     4  11  24  38  53  81 119 151 187 230 266 316
#     4   9  19  38  61  86 112 141 184 239 293 340
#     4  10  20  32  48  75 110 143 179 224 271 321
#     4   8  15  28  46  70 101 136 175 218 261 311
#     4   9  16  27  47  76 106 134 171 220 273 327
#     4  11  24  40  59  85 121 161 193 222 264 324
#
# _framework density 18.476520000000001
#
# number of rings (size 3 to 8) (size 9 to 14) (size 15 to 20)
#    0.000    2.286    1.429    4.286    0.000    2.286 
#    1.286    3.214    0.000    3.000    0.000    1.000 
#    0.000    0.000    0.000    0.000    0.000    0.000 
#
# Total GULP energy -693990.408515 kJ/mol
# GULP energy per Si atom -12392.685866 kJ/mol
# Density = 1.843447 g / cm^3
# Si number density = 18.476520 Si / 1000 Ang^3
#
#
#
# Elastic Constant Matrix: (Units=GPa)
#
#
# Indices 1 2 3 4 5 6 
#
# 1 80.2532 41.1495 54.6614 0.0000 0.0000 0.0000
# 2 41.1495 87.8188 44.0967 0.0000 0.0000 0.0000
# 3 54.6614 44.0967 79.3069 0.0000 0.0000 0.0000
# 4 0.0000 0.0000 0.0000 26.3378 0.0000 0.0000
# 5 0.0000 0.0000 0.0000 0.0000 26.4392 0.0000
# 6 0.0000 0.0000 0.0000 0.0000 0.0000 21.0355
#
#
#
# Elastic Compliance Matrix: (Units=1/GPa)
#
#
# Indices 1 2 3 4 5 6 
#
# 1 0.024539 -0.004170 -0.014595 0.000000 0.000000 0.000000
# 2 -0.004170 0.016506 -0.006304 0.000000 0.000000 0.000000
# 3 -0.014595 -0.006304 0.026174 0.000000 0.000000 0.000000
# 4 0.000000 0.000000 0.000000 0.037968 0.000000 0.000000
# 5 0.000000 0.000000 0.000000 0.000000 0.037823 0.000000
# 6 0.000000 0.000000 0.000000 0.000000 0.000000 0.047539
#
#
# Mechanical properties :
#
#
# Convention : Reuss Voigt Hill
#
# Bulk Modulus (GPa) = 58.54094 58.57712 58.55903
# Shear Modulus (GPa) = 20.29379 21.92726 21.11052
#
# Velocity S-wave (km/s) = 3.31774 3.44868 3.38384
# Velocity P-wave (km/s) = 6.81390 6.90147 6.85782
#
# Compressibility (1/GPa) = 0.01708206
#
# Stress axis : x y z
#
# Youngs Moduli (GPa) = 40.75068 60.58254 38.20610
#
# Poissons Ratio (x) = 0.25262 0.55762
# Poissons Ratio (y) = 0.16993 0.24085
# Poissons Ratio (z) = 0.59476 0.38191
#
# Static dielectric constant tensor:
#      x y z
#    x 3.543380 0.000000 0.000000 
#    y 0.000000 3.118090 0.000000 
#    z 0.000000 0.000000 3.446830 
# 
# 
# High freq. dielectric constant tensor:
#      x y z
#    x 1.716110 0.000000 0.000000 
#    y 0.000000 1.690570 0.000000 
#    z 0.000000 0.000000 1.715870 
# 
# From -- ./inp_files/31036.got.cif
#   From: 2010.03.12/outbox.cif.g09.slc.cpg/sg47_16_cif.got.tgz:31036.got - 2010.04.14 03:12:58.
