data_PCOD8197969
_publ_section_title
;
Structure prediction by ZEFSAII (Michael W. Deem and Ramdas Pophale) SiO2 
 PCOD8197969
Probable space group: P M M M
;
_chemical_formula_sum "Si O2"
_cell_formula_units_Z 48
_cell_length_a 7.819977
_cell_length_b 9.233449
_cell_length_c 34.899435
_cell_angle_alpha 90.000000
_cell_angle_beta 90.000000
_cell_angle_gamma 90.000000
_cell_volume 2519.926226
_symmetry_space_group_name_H-M "P M M M"
_symmetry_group_IT_number 47
_symmetry_cell_setting 'orthorhombic'
loop_
_space_group_symop_operation_xyz
x,y,z
-x,-y,z
x,-y,-z
-x,y,-z
-x,-y,-z
x,y,-z
-x,y,z
x,-y,z
loop_
_atom_site_type_symbol
_atom_site_label
_atom_site_fract_x
_atom_site_fract_y
_atom_site_fract_z
Si Si1 0.202258 0.833106 0.169080
Si Si2 0.701044 0.340360 0.321929
Si Si3 0.692082 0.333100 0.904657
Si Si4 0.000000 0.327344 0.543118
Si Si5 0.801379 0.337947 0.241815
Si Si6 0.000000 0.328219 0.042690
Si Si7 0.692052 0.673378 0.404969
O O1 0.295867 0.758359 0.133842
O O2 0.275228 0.760639 0.208023
O O3 0.000000 0.812319 0.164586
O O4 0.254702 0.000000 0.170123
O O5 0.500000 0.352768 0.320329
O O6 0.785837 0.500000 0.321130
O O7 0.766592 0.260662 0.283300
O O8 0.748574 0.265585 0.362776
O O9 0.500000 0.316476 0.921558
O O10 0.732628 0.500000 0.894632
O O11 0.829134 0.274103 0.935537
O O12 0.828853 0.269161 0.564107
O O13 0.000000 0.500000 0.543071
O O14 0.000000 0.265999 0.500000
O O15 0.718670 0.500000 0.240568
O O16 0.000000 0.350208 0.234528
O O17 0.000000 0.500000 0.039921
O O18 0.000000 0.260676 0.000000
O O19 0.500000 0.726933 0.416092
O O20 0.691942 0.500000 0.402907
#
# Coordination Sequence:
#
# PCOD8197969 Si02
#       7
#     8   8   8   4   8   4   8
#     4  10  20  34  51  71 101 140 175 208 249 295
#     4   8  14  24  37  54  76 103 137 181 232 278
#     4  10  20  34  56  83 108 138 174 209 248 295
#     4   9  16  22  30  45  64  93 132 171 215 267
#     4   9  17  27  43  67  91 118 157 204 246 285
#     4   9  18  34  57  84 113 138 162 205 257 299
#     4   8  14  23  33  46  67  95 129 172 218 264
#
# _framework density 19.048176000000002
#
# number of rings (size 3 to 8) (size 9 to 14) (size 15 to 20)
#    0.000    3.000    0.833    1.500    1.167    2.333 
#    0.000    5.000    0.000    1.000    0.000    1.167 
#    0.000    0.000    0.000    0.000    0.000    1.667 
#
# Total GULP energy -594756.954026 kJ/mol
# GULP energy per Si atom -12390.769876 kJ/mol
# Density = 1.900482 g / cm^3
# Si number density = 19.048176 Si / 1000 Ang^3
#
#
#
# Elastic Constant Matrix: (Units=GPa)
#
#
# Indices 1 2 3 4 5 6 
#
# 1 95.6310 21.6266 74.1724 0.0000 0.0000 0.0000
# 2 21.6266 40.6820 34.8045 0.0000 0.0000 0.0000
# 3 74.1724 34.8045 186.6813 0.0000 0.0000 0.0000
# 4 0.0000 0.0000 0.0000 0.1688 0.0000 0.0000
# 5 0.0000 0.0000 0.0000 0.0000 19.1650 0.0000
# 6 0.0000 0.0000 0.0000 0.0000 0.0000 9.0230
#
#
#
# Elastic Compliance Matrix: (Units=1/GPa)
#
#
# Indices 1 2 3 4 5 6 
#
# 1 0.015532 -0.003542 -0.005511 0.000000 0.000000 0.000000
# 2 -0.003542 0.030053 -0.004196 0.000000 0.000000 0.000000
# 3 -0.005511 -0.004196 0.008329 0.000000 0.000000 0.000000
# 4 0.000000 0.000000 0.000000 5.922694 0.000000 0.000000
# 5 0.000000 0.000000 0.000000 0.000000 0.052178 0.000000
# 6 0.000000 0.000000 0.000000 0.000000 0.000000 0.110828
#
#
# Mechanical properties :
#
#
# Convention : Reuss Voigt Hill
#
# Bulk Modulus (GPa) = 36.47425 64.91123 50.69274
# Shear Modulus (GPa) = 0.80968 18.49743 9.65356
#
# Velocity S-wave (km/s) = 0.65268 3.11961 2.25366
# Velocity P-wave (km/s) = 4.44500 6.86493 5.78296
#
# Compressibility (1/GPa) = 0.02741660
#
# Stress axis : x y z
#
# Youngs Moduli (GPa) = 64.38233 33.27405 120.06901
#
# Poissons Ratio (x) = 0.11786 0.66168
# Poissons Ratio (y) = 0.22806 0.50377
# Poissons Ratio (z) = 0.35480 0.13961
#
# Static dielectric constant tensor:
#      x y z
#    x 3.483920 0.000000 0.000000 
#    y 0.000000 2.960450 0.000000 
#    z 0.000000 0.000000 3.833510 
# 
# 
# High freq. dielectric constant tensor:
#      x y z
#    x 1.741530 0.000000 0.000000 
#    y 0.000000 1.662030 0.000000 
#    z 0.000000 0.000000 1.750220 
# 
# From -- ./inp_files/34113.got.cif
#   From: 2010.03.12/outbox.cif.g09.slc.cpg/sg47_18_cif.got.tgz:34113.got - 2010.04.14 03:12:58.
