data_PCOD8197519
_publ_section_title
;
Structure prediction by ZEFSAII (Michael W. Deem and Ramdas Pophale) SiO2 
 PCOD8197519
Probable space group: P M M M
;
_chemical_formula_sum "Si O2"
_cell_formula_units_Z 60
_cell_length_a 9.619596
_cell_length_b 19.597317
_cell_length_c 18.509370
_cell_angle_alpha 90.000000
_cell_angle_beta 90.000000
_cell_angle_gamma 90.000000
_cell_volume 3489.354452
_symmetry_space_group_name_H-M "P M M M"
_symmetry_group_IT_number 47
_symmetry_cell_setting 'orthorhombic'
loop_
_space_group_symop_operation_xyz
x,y,z
-x,-y,z
x,-y,-z
-x,y,-z
-x,-y,-z
x,y,-z
-x,y,z
x,-y,z
loop_
_atom_site_type_symbol
_atom_site_label
_atom_site_fract_x
_atom_site_fract_y
_atom_site_fract_z
Si Si1 0.161661 0.789928 0.784630
Si Si2 0.660185 0.320496 0.706501
Si Si3 0.836680 0.500000 0.082173
Si Si4 0.664859 0.422995 0.418065
Si Si5 0.842871 0.076151 0.295139
Si Si6 0.343660 0.242612 0.081743
Si Si7 0.349267 0.612287 0.858840
Si Si8 0.345915 0.081055 0.421315
O O1 0.242299 0.745098 0.723735
O O2 0.173726 0.870580 0.769360
O O3 0.230281 0.786399 0.863355
O O4 0.000000 0.766586 0.787047
O O5 0.500000 0.296309 0.693594
O O6 0.718469 0.364853 0.638250
O O7 0.667708 0.368754 0.775567
O O8 0.779286 0.565627 0.122086
O O9 0.000000 0.500000 0.089203
O O10 0.785729 0.500000 0.000000
O O11 0.712504 0.403976 0.500000
O O12 0.500000 0.424156 0.413438
O O13 0.719361 0.500000 0.398656
O O14 0.758726 0.108446 0.361696
O O15 0.000000 0.071236 0.322013
O O16 0.790300 0.000000 0.271784
O O17 0.500000 0.216007 0.100710
O O18 0.342109 0.323804 0.087944
O O19 0.303192 0.221662 0.000000
O O20 0.500000 0.576163 0.869424
O O21 0.302226 0.109746 0.500000
O O22 0.500000 0.107100 0.401707
O O23 0.342400 0.000000 0.423152
#
# Coordination Sequence:
#
# PCOD8197519 Si02
#       8
#     8   8   4   8   8   8   8   8
#     4  10  20  33  50  73 100 127 159 200 243 289
#     4   9  18  32  51  72  97 127 160 201 245 292
#     4  11  23  33  41  61  94 125 152 188 233 277
#     4   8  14  26  48  76  99 122 161 212 253 282
#     4   9  18  32  49  69  95 130 168 202 239 289
#     4   9  18  34  55  75  94 120 157 198 239 288
#     4   9  18  31  48  68  90 121 157 190 228 279
#     4   8  14  25  42  66  94 121 152 193 238 280
#
# _framework density 17.195157999999999
#
# number of rings (size 3 to 8) (size 9 to 14) (size 15 to 20)
#    0.000    3.000    0.000    2.600    0.933    4.800 
#    0.000    2.000    0.000    3.200    0.000    3.733 
#    0.000    0.000    0.000    0.000    0.000    0.000 
#
# Total GULP energy -743408.244606 kJ/mol
# GULP energy per Si atom -12390.137410 kJ/mol
# Density = 1.715602 g / cm^3
# Si number density = 17.195158 Si / 1000 Ang^3
#
#
#
# Elastic Constant Matrix: (Units=GPa)
#
#
# Indices 1 2 3 4 5 6 
#
# 1 78.2004 43.8537 46.9194 0.0000 0.0000 0.0000
# 2 43.8537 71.7211 46.8087 0.0000 0.0000 0.0000
# 3 46.9194 46.8087 98.6344 0.0000 0.0000 0.0000
# 4 0.0000 0.0000 0.0000 13.8710 0.0000 0.0000
# 5 0.0000 0.0000 0.0000 0.0000 26.5263 0.0000
# 6 0.0000 0.0000 0.0000 0.0000 0.0000 21.6828
#
#
#
# Elastic Compliance Matrix: (Units=1/GPa)
#
#
# Indices 1 2 3 4 5 6 
#
# 1 0.021520 -0.009384 -0.005784 0.000000 0.000000 0.000000
# 2 -0.009384 0.024291 -0.007064 0.000000 0.000000 0.000000
# 3 -0.005784 -0.007064 0.016242 0.000000 0.000000 0.000000
# 4 0.000000 0.000000 0.000000 0.072093 0.000000 0.000000
# 5 0.000000 0.000000 0.000000 0.000000 0.037698 0.000000
# 6 0.000000 0.000000 0.000000 0.000000 0.000000 0.046120
#
#
# Mechanical properties :
#
#
# Convention : Reuss Voigt Hill
#
# Bulk Modulus (GPa) = 56.84950 58.19105 57.52028
# Shear Modulus (GPa) = 18.63657 19.81428 19.22543
#
# Velocity S-wave (km/s) = 3.29572 3.39826 3.34739
# Velocity P-wave (km/s) = 6.90040 7.02229 6.96161
#
# Compressibility (1/GPa) = 0.01759030
#
# Stress axis : x y z
#
# Youngs Moduli (GPa) = 46.46829 41.16787 61.56872
#
# Poissons Ratio (x) = 0.38631 0.35609
# Poissons Ratio (y) = 0.43604 0.43492
# Poissons Ratio (z) = 0.26876 0.29081
#
# Static dielectric constant tensor:
#      x y z
#    x 3.205750 0.000000 0.000000 
#    y 0.000000 3.024940 0.000000 
#    z 0.000000 0.000000 3.338350 
# 
# 
# High freq. dielectric constant tensor:
#      x y z
#    x 1.651480 0.000000 0.000000 
#    y 0.000000 1.639960 0.000000 
#    z 0.000000 0.000000 1.662140 
# 
# From -- ./inp_files/27050.got.cif
#   From: 2010.03.12/outbox.cif.g09.slc.cpg/sg47_14_cif.got.tgz:27050.got - 2010.04.14 03:12:58.
