data_PCOD8197207
_publ_section_title
;
Structure prediction by ZEFSAII (Michael W. Deem and Ramdas Pophale) SiO2 
 PCOD8197207
Probable space group: P M M M
;
_chemical_formula_sum "Si O2"
_cell_formula_units_Z 44
_cell_length_a 9.232676
_cell_length_b 8.709644
_cell_length_c 28.150693
_cell_angle_alpha 90.000000
_cell_angle_beta 90.000000
_cell_angle_gamma 90.000000
_cell_volume 2263.690716
_symmetry_space_group_name_H-M "P M M M"
_symmetry_group_IT_number 47
_symmetry_cell_setting 'orthorhombic'
loop_
_space_group_symop_operation_xyz
x,y,z
-x,-y,z
x,-y,-z
-x,y,-z
-x,-y,-z
x,y,-z
-x,y,z
x,-y,z
loop_
_atom_site_type_symbol
_atom_site_label
_atom_site_fract_x
_atom_site_fract_y
_atom_site_fract_z
Si Si1 0.834668 0.677537 0.228634
Si Si2 0.666510 0.320066 0.587161
Si Si3 0.836411 0.818762 0.500000
Si Si4 0.162776 0.817664 0.947880
Si Si5 0.330179 0.822308 0.142989
Si Si6 0.832521 0.178609 0.327789
O O1 0.811791 0.500000 0.241428
O O2 0.732074 0.723359 0.185705
O O3 0.790717 0.777676 0.274205
O O4 0.000000 0.711762 0.213836
O O5 0.500000 0.266648 0.585221
O O6 0.680116 0.500000 0.578565
O O7 0.754608 0.234897 0.546664
O O8 0.732057 0.277536 0.637948
O O9 0.000000 0.752494 0.500000
O O10 0.840657 0.000000 0.500000
O O11 0.267059 0.755678 0.906480
O O12 0.000000 0.759685 0.937478
O O13 0.166814 0.000000 0.948365
O O14 0.213706 0.757231 0.000000
O O15 0.500000 0.799033 0.141343
O O16 0.286744 0.000000 0.150275
O O17 0.000000 0.218986 0.338068
O O18 0.801303 0.000000 0.336054
#
# Coordination Sequence:
#
# PCOD8197207 Si02
#       6
#     8   8   4   8   8   8
#     4  10  21  37  57  79 104 139 182 225 270 320
#     4  11  24  40  59  86 119 153 188 226 272 326
#     4  11  24  41  62  88 116 149 192 237 278 322
#     4   8  14  26  46  72 101 134 173 217 264 314
#     4  10  20  32  49  76 108 141 176 216 266 322
#     4  10  21  38  61  87 112 141 181 227 274 325
#
# _framework density 19.437286
#
# number of rings (size 3 to 8) (size 9 to 14) (size 15 to 20)
#    0.000    2.091    0.000    3.818    0.000    9.818 
#    0.000    1.818    0.000    0.545    0.000    3.818 
#    0.000    0.000    0.000    0.000    0.000    0.000 
#
# Total GULP energy -545699.907573 kJ/mol
# GULP energy per Si atom -12402.270627 kJ/mol
# Density = 1.939305 g / cm^3
# Si number density = 19.437286 Si / 1000 Ang^3
#
#
#
# Elastic Constant Matrix: (Units=GPa)
#
#
# Indices 1 2 3 4 5 6 
#
# 1 110.5141 32.6785 68.0224 0.0000 0.0000 0.0000
# 2 32.6785 43.4347 22.4944 0.0000 0.0000 0.0000
# 3 68.0224 22.4944 125.5092 0.0000 0.0000 0.0000
# 4 0.0000 0.0000 0.0000 -76.6256 0.0000 0.0000
# 5 0.0000 0.0000 0.0000 0.0000 -21.2754 0.0000
# 6 0.0000 0.0000 0.0000 0.0000 0.0000 26.1792
#
#
#
# Elastic Compliance Matrix: (Units=1/GPa)
#
#
# Indices 1 2 3 4 5 6 
#
# 1 0.015874 -0.008254 -0.007124 0.000000 0.000000 0.000000
# 2 -0.008254 0.029670 -0.000844 0.000000 0.000000 0.000000
# 3 -0.007124 -0.000844 0.011980 0.000000 0.000000 0.000000
# 4 0.000000 0.000000 0.000000 -0.013050 0.000000 0.000000
# 5 0.000000 0.000000 0.000000 0.000000 -0.047003 0.000000
# 6 0.000000 0.000000 0.000000 0.000000 0.000000 0.038198
#
#
# Mechanical properties :
#
#
# Convention : Reuss Voigt Hill
#
# Bulk Modulus (GPa) = 39.87248 58.42762 49.15005
# Shear Modulus (GPa) = 65.38250 -3.92685 30.72782
#
# Velocity S-wave (km/s) = 5.80609 -1.42290 3.98033
# Velocity P-wave (km/s) = 8.09355 5.23691 6.81655
#
# Compressibility (1/GPa) = 0.02507996
#
# Stress axis : x y z
#
# Youngs Moduli (GPa) = 62.99585 33.70410 83.47298
#
# Poissons Ratio (x) = 0.27818 0.59467
# Poissons Ratio (y) = 0.51994 0.07049
# Poissons Ratio (z) = 0.44879 0.02846
#
# Static dielectric constant tensor:
#      x y z
#    x 3.630360 0.000000 0.000000 
#    y 0.000000 3.389560 0.000000 
#    z 0.000000 0.000000 3.808110 
# 
# 
# High freq. dielectric constant tensor:
#      x y z
#    x 1.756780 0.000000 0.000000 
#    y 0.000000 1.740080 0.000000 
#    z 0.000000 0.000000 1.772930 
# 
# From -- ./inp_files/33937.got.cif
#   From: 2010.03.12/outbox.cif.g09.slc.cpg/sg47_17_cif.got.tgz:33937.got - 2010.04.14 03:12:58.
