data_PCOD8197585
_publ_section_title
;
Structure prediction by ZEFSAII (Michael W. Deem and Ramdas Pophale) SiO2 
 PCOD8197585
Probable space group: P M M M
;
_chemical_formula_sum "Si O2"
_cell_formula_units_Z 44
_cell_length_a 9.529443
_cell_length_b 28.057857
_cell_length_c 9.003362
_cell_angle_alpha 90.000000
_cell_angle_beta 90.000000
_cell_angle_gamma 90.000000
_cell_volume 2407.280658
_symmetry_space_group_name_H-M "P M M M"
_symmetry_group_IT_number 47
_symmetry_cell_setting 'orthorhombic'
loop_
_space_group_symop_operation_xyz
x,y,z
-x,-y,z
x,-y,-z
-x,y,-z
-x,-y,-z
x,y,-z
-x,y,z
x,-y,z
loop_
_atom_site_type_symbol
_atom_site_label
_atom_site_fract_x
_atom_site_fract_y
_atom_site_fract_z
Si Si1 0.833079 0.093396 0.667300
Si Si2 0.837112 0.811100 0.174106
Si Si3 0.662034 0.632294 0.171156
Si Si4 0.832485 0.000000 0.167703
Si Si5 0.837384 0.554844 0.669130
Si Si6 0.663906 0.728958 0.327454
O O1 0.774109 0.094298 0.500000
O O2 0.780460 0.140422 0.751795
O O3 0.000000 0.091535 0.667625
O O4 0.773235 0.046754 0.749732
O O5 0.750105 0.767604 0.237599
O O6 0.000000 0.802715 0.212167
O O7 0.811563 0.815379 0.000000
O O8 0.500000 0.620389 0.199148
O O9 0.749047 0.586312 0.218045
O O10 0.709931 0.677249 0.268934
O O11 0.692162 0.644323 0.000000
O O12 0.000000 0.000000 0.169313
O O13 0.775501 0.000000 0.000000
O O14 0.791441 0.565487 0.500000
O O15 0.808108 0.500000 0.708598
O O16 0.000000 0.567090 0.690620
O O17 0.702197 0.732523 0.500000
O O18 0.500000 0.737724 0.297793
#
# Coordination Sequence:
#
# PCOD8197585 Si02
#       6
#     8   8   8   4   8   8
#     4   9  16  26  41  63  93 128 165 205 249 297
#     4  10  20  33  50  74 103 133 166 206 253 303
#     4  10  21  36  54  77 104 133 167 208 252 298
#     4   9  15  23  37  59  90 127 164 203 250 301
#     4   9  19  36  56  78 105 137 172 208 247 294
#     4  10  21  37  56  76  99 131 171 211 252 300
#
# _framework density 18.277885999999999
#
# number of rings (size 3 to 8) (size 9 to 14) (size 15 to 20)
#    0.000    2.455    0.000    3.000    0.000    8.364 
#    0.000    2.727    0.000    0.000    0.000    0.636 
#    0.000    5.091    0.000    0.000    0.000    0.000 
#
# Total GULP energy -545707.292284 kJ/mol
# GULP energy per Si atom -12402.438461 kJ/mol
# Density = 1.823628 g / cm^3
# Si number density = 18.277886 Si / 1000 Ang^3
#
#
#
# Elastic Constant Matrix: (Units=GPa)
#
#
# Indices 1 2 3 4 5 6 
#
# 1 36.8986 44.3206 33.8536 0.0000 0.0000 0.0000
# 2 44.3206 123.8031 57.6320 0.0000 0.0000 0.0000
# 3 33.8536 57.6320 112.7889 0.0000 0.0000 0.0000
# 4 0.0000 0.0000 0.0000 40.7547 0.0000 0.0000
# 5 0.0000 0.0000 0.0000 0.0000 25.5785 0.0000
# 6 0.0000 0.0000 0.0000 0.0000 0.0000 -33.6550
#
#
#
# Elastic Compliance Matrix: (Units=1/GPa)
#
#
# Indices 1 2 3 4 5 6 
#
# 1 0.052636 -0.015074 -0.008096 0.000000 0.000000 0.000000
# 2 -0.015074 0.014915 -0.003097 0.000000 0.000000 0.000000
# 3 -0.008096 -0.003097 0.012879 0.000000 0.000000 0.000000
# 4 0.000000 0.000000 0.000000 0.024537 0.000000 0.000000
# 5 0.000000 0.000000 0.000000 0.000000 0.039095 0.000000
# 6 0.000000 0.000000 0.000000 0.000000 0.000000 -0.029713
#
#
# Mechanical properties :
#
#
# Convention : Reuss Voigt Hill
#
# Bulk Modulus (GPa) = 35.84840 60.56700 48.20770
# Shear Modulus (GPa) = 28.37983 15.71460 22.04721
#
# Velocity S-wave (km/s) = 3.94469 2.93535 3.47684
# Velocity P-wave (km/s) = 6.35634 6.68559 6.52304
#
# Compressibility (1/GPa) = 0.02789525
#
# Stress axis : x y z
#
# Youngs Moduli (GPa) = 18.99854 67.04453 77.64857
#
# Poissons Ratio (x) = 1.01065 0.62864
# Poissons Ratio (y) = 0.28639 0.24046
# Poissons Ratio (z) = 0.15381 0.20763
#
# Static dielectric constant tensor:
#      x y z
#    x 2.998950 0.000000 0.000000 
#    y 0.000000 3.473800 0.000000 
#    z 0.000000 0.000000 3.516860 
# 
# 
# High freq. dielectric constant tensor:
#      x y z
#    x 1.667400 0.000000 0.000000 
#    y 0.000000 1.721860 0.000000 
#    z 0.000000 0.000000 1.724320 
# 
# From -- ./inp_files/2192.got.cif
#   From: 2010.03.12/outbox.cif.g09.slc.cpg/sg47_2_cif.got.tgz:2192.got - 2010.04.14 03:12:58.
