data_PCOD8197251
_publ_section_title
;
Structure prediction by ZEFSAII (Michael W. Deem and Ramdas Pophale) SiO2 
 PCOD8197251
Probable space group: P M M M
;
_chemical_formula_sum "Si O2"
_cell_formula_units_Z 40
_cell_length_a 12.986944
_cell_length_b 19.629885
_cell_length_c 8.829211
_cell_angle_alpha 90.000000
_cell_angle_beta 90.000000
_cell_angle_gamma 90.000000
_cell_volume 2250.850337
_symmetry_space_group_name_H-M "P M M M"
_symmetry_group_IT_number 47
_symmetry_cell_setting 'orthorhombic'
loop_
_space_group_symop_operation_xyz
x,y,z
-x,-y,z
x,-y,-z
-x,y,-z
-x,-y,-z
x,y,-z
-x,y,z
x,-y,z
loop_
_atom_site_type_symbol
_atom_site_label
_atom_site_fract_x
_atom_site_fract_y
_atom_site_fract_z
Si Si1 0.890345 0.684952 0.178356
Si Si2 0.813360 0.830044 0.820299
Si Si3 0.616737 0.500000 0.663308
Si Si4 0.616714 0.222240 0.676983
Si Si5 0.321559 0.636580 0.178666
Si Si6 0.000000 0.923013 0.180197
O O1 0.863563 0.760048 0.237169
O O2 0.799598 0.633637 0.222919
O O3 0.000000 0.660965 0.248836
O O4 0.900742 0.689505 0.000000
O O5 0.698423 0.832325 0.747122
O O6 0.893333 0.887998 0.762391
O O7 0.798504 0.833633 0.000000
O O8 0.500000 0.500000 0.619219
O O9 0.676741 0.500000 0.500000
O O10 0.635379 0.566529 0.761728
O O11 0.639008 0.228852 0.500000
O O12 0.500000 0.195800 0.707425
O O13 0.625742 0.297508 0.748444
O O14 0.339566 0.642060 0.000000
O O15 0.000000 0.000000 0.241290
O O16 0.000000 0.919175 0.000000
#
# Coordination Sequence:
#
# PCOD8197251 Si02
#       6
#     8   8   4   8   8   4
#     4   8  13  25  46  70  95 121 152 191 236 287
#     4   9  16  28  50  76 102 133 168 204 244 295
#     4  11  23  37  50  63  90 130 163 199 252 307
#     4  10  20  33  49  71 101 133 166 209 259 303
#     4  10  20  32  51  75  95 122 163 208 250 298
#     4   9  16  28  51  83 113 136 163 204 253 299
#
# _framework density 17.771061
#
# number of rings (size 3 to 8) (size 9 to 14) (size 15 to 20)
#    0.000    2.600    1.000    3.300    0.000    4.800 
#    0.000    1.000    0.000    6.600    0.000    4.200 
#    0.000    0.000    0.000    0.000    0.000    0.000 
#
# Total GULP energy -495522.399656 kJ/mol
# GULP energy per Si atom -12388.059991 kJ/mol
# Density = 1.773061 g / cm^3
# Si number density = 17.771061 Si / 1000 Ang^3
#
#
#
# Elastic Constant Matrix: (Units=GPa)
#
#
# Indices 1 2 3 4 5 6 
#
# 1 150.1227 50.6595 45.0202 0.0000 0.0000 0.0000
# 2 50.6595 90.7721 28.4647 0.0000 0.0000 0.0000
# 3 45.0202 28.4647 69.7809 0.0000 0.0000 0.0000
# 4 0.0000 0.0000 0.0000 11.8153 0.0000 0.0000
# 5 0.0000 0.0000 0.0000 0.0000 7.8691 0.0000
# 6 0.0000 0.0000 0.0000 0.0000 0.0000 24.4699
#
#
#
# Elastic Compliance Matrix: (Units=1/GPa)
#
#
# Indices 1 2 3 4 5 6 
#
# 1 0.009268 -0.003781 -0.004437 0.000000 0.000000 0.000000
# 2 -0.003781 0.014175 -0.003343 0.000000 0.000000 0.000000
# 3 -0.004437 -0.003343 0.018557 0.000000 0.000000 0.000000
# 4 0.000000 0.000000 0.000000 0.084636 0.000000 0.000000
# 5 0.000000 0.000000 0.000000 0.000000 0.127080 0.000000
# 6 0.000000 0.000000 0.000000 0.000000 0.000000 0.040866
#
#
# Mechanical properties :
#
#
# Convention : Reuss Voigt Hill
#
# Bulk Modulus (GPa) = 52.97169 62.10717 57.53943
# Shear Modulus (GPa) = 15.43232 21.26629 18.34931
#
# Velocity S-wave (km/s) = 2.95005 3.46306 3.21680
# Velocity P-wave (km/s) = 6.44021 7.14246 6.80041
#
# Compressibility (1/GPa) = 0.01887801
#
# Stress axis : x y z
#
# Youngs Moduli (GPa) = 107.90190 70.54681 53.88883
#
# Poissons Ratio (x) = 0.26673 0.23910
# Poissons Ratio (y) = 0.40797 0.18014
# Poissons Ratio (z) = 0.47875 0.23583
#
# Static dielectric constant tensor:
#      x y z
#    x 3.846580 0.000000 0.000000 
#    y 0.000000 3.058260 0.000000 
#    z 0.000000 0.000000 3.077540 
# 
# 
# High freq. dielectric constant tensor:
#      x y z
#    x 1.705940 0.000000 0.000000 
#    y 0.000000 1.649400 0.000000 
#    z 0.000000 0.000000 1.668410 
# 
# From -- ./inp_files/4028.got.cif
#   From: 2010.03.12/outbox.cif.g09.slc.cpg/sg47_3_cif.got.tgz:4028.got - 2010.04.14 03:12:58.
