data_PCOD8197333
_publ_section_title
;
Structure prediction by ZEFSAII (Michael W. Deem and Ramdas Pophale) SiO2 
 PCOD8197333
Probable space group: P M M M
;
_chemical_formula_sum "Si O2"
_cell_formula_units_Z 52
_cell_length_a 28.301310
_cell_length_b 8.985833
_cell_length_c 11.771291
_cell_angle_alpha 90.000000
_cell_angle_beta 90.000000
_cell_angle_gamma 90.000000
_cell_volume 2993.566965
_symmetry_space_group_name_H-M "P M M M"
_symmetry_group_IT_number 47
_symmetry_cell_setting 'orthorhombic'
loop_
_space_group_symop_operation_xyz
x,y,z
-x,-y,z
x,-y,-z
-x,y,-z
-x,-y,-z
x,y,-z
-x,y,z
x,-y,z
loop_
_atom_site_type_symbol
_atom_site_label
_atom_site_fract_x
_atom_site_fract_y
_atom_site_fract_z
Si Si1 0.947121 0.169750 0.781148
Si Si2 0.859089 0.172282 0.631646
Si Si3 0.806014 0.675358 0.000000
Si Si4 0.088391 0.324240 0.000000
Si Si5 0.592723 0.667517 0.635071
Si Si6 0.500000 0.168023 0.364398
Si Si7 0.225881 0.324198 0.243899
Si Si8 0.312274 0.174975 0.368523
O O1 0.910736 0.208939 0.680899
O O2 0.939255 0.272886 0.889196
O O3 0.000000 0.196941 0.733797
O O4 0.940333 0.000000 0.820949
O O5 0.859855 0.213347 0.500000
O O6 0.821619 0.277624 0.692499
O O7 0.844979 0.000000 0.650637
O O8 0.858661 0.745224 0.000000
O O9 0.777786 0.725705 0.112222
O O10 0.812116 0.500000 0.000000
O O11 0.090068 0.500000 0.000000
O O12 0.590644 0.667142 0.500000
O O13 0.594053 0.500000 0.683036
O O14 0.546349 0.749274 0.683648
O O15 0.639150 0.753966 0.676714
O O16 0.500000 0.169598 0.500000
O O17 0.500000 0.000000 0.318269
O O18 0.233038 0.500000 0.257549
O O19 0.270085 0.239761 0.295478
O O20 0.303274 0.215698 0.500000
O O21 0.315549 0.000000 0.350623
#
# Coordination Sequence:
#
# PCOD8197333 Si02
#       8
#     8   8   4   4   8   4   8   8
#     4  10  21  36  54  77 103 130 162 200 241 289
#     4  10  21  36  53  74 100 130 163 198 239 289
#     4   9  20  36  54  75  98 123 155 200 247 292
#     4  11  20  36  57  78 102 128 159 199 247 294
#     4   9  16  26  41  63  92 130 175 215 250 293
#     4   9  15  23  37  59  91 132 173 214 259 299
#     4  11  21  36  55  74  97 126 162 202 247 297
#     4  10  20  33  48  70 102 135 167 205 249 297
#
# _framework density 17.370581000000001
#
# number of rings (size 3 to 8) (size 9 to 14) (size 15 to 20)
#    0.000    2.077    1.538    2.538    0.000    7.385 
#    0.000    3.077    0.000    0.000    0.000    2.154 
#    0.000    0.615    0.000    6.615    0.000    5.077 
#
# Total GULP energy -644872.430005 kJ/mol
# GULP energy per Si atom -12401.392885 kJ/mol
# Density = 1.733104 g / cm^3
# Si number density = 17.370581 Si / 1000 Ang^3
#
#
#
# Elastic Constant Matrix: (Units=GPa)
#
#
# Indices 1 2 3 4 5 6 
#
# 1 156.0987 58.3459 46.4372 0.0000 0.0000 0.0000
# 2 58.3459 87.6621 35.3200 0.0000 0.0000 0.0000
# 3 46.4372 35.3200 84.9372 0.0000 0.0000 0.0000
# 4 0.0000 0.0000 0.0000 17.8213 0.0000 0.0000
# 5 0.0000 0.0000 0.0000 0.0000 -11.4837 0.0000
# 6 0.0000 0.0000 0.0000 0.0000 0.0000 31.8997
#
#
#
# Elastic Compliance Matrix: (Units=1/GPa)
#
#
# Indices 1 2 3 4 5 6 
#
# 1 0.009105 -0.004870 -0.002953 0.000000 0.000000 0.000000
# 2 -0.004870 0.016309 -0.004119 0.000000 0.000000 0.000000
# 3 -0.002953 -0.004119 0.015100 0.000000 0.000000 0.000000
# 4 0.000000 0.000000 0.000000 0.056112 0.000000 0.000000
# 5 0.000000 0.000000 0.000000 0.000000 -0.087080 0.000000
# 6 0.000000 0.000000 0.000000 0.000000 0.000000 0.031348
#
#
# Mechanical properties :
#
#
# Convention : Reuss Voigt Hill
#
# Bulk Modulus (GPa) = 60.13183 67.65603 63.89393
# Shear Modulus (GPa) = 71.10098 20.22046 45.66072
#
# Velocity S-wave (km/s) = 6.40474 3.41554 5.13257
# Velocity P-wave (km/s) = 9.45444 7.38835 8.48452
#
# Compressibility (1/GPa) = 0.01663013
#
# Stress axis : x y z
#
# Youngs Moduli (GPa) = 109.82951 61.31715 66.22310
#
# Poissons Ratio (x) = 0.29864 0.19553
# Poissons Ratio (y) = 0.53492 0.27277
# Poissons Ratio (z) = 0.32429 0.25256
#
# Static dielectric constant tensor:
#      x y z
#    x 3.412740 0.000000 0.000000 
#    y 0.000000 3.298180 0.000000 
#    z 0.000000 0.000000 3.085690 
# 
# 
# High freq. dielectric constant tensor:
#      x y z
#    x 1.682790 0.000000 0.000000 
#    y 0.000000 1.676780 0.000000 
#    z 0.000000 0.000000 1.631490 
# 
# From -- ./inp_files/4616.got.cif
#   From: 2010.03.12/outbox.cif.g09.slc.cpg/sg47_3_cif.got.tgz:4616.got - 2010.04.14 03:12:58.
