data_PCOD8197334
_publ_section_title
;
Structure prediction by ZEFSAII (Michael W. Deem and Ramdas Pophale) SiO2 
 PCOD8197334
Probable space group: P M M M
;
_chemical_formula_sum "Si O2"
_cell_formula_units_Z 36
_cell_length_a 8.765413
_cell_length_b 20.558955
_cell_length_c 11.707691
_cell_angle_alpha 90.000000
_cell_angle_beta 90.000000
_cell_angle_gamma 90.000000
_cell_volume 2109.816435
_symmetry_space_group_name_H-M "P M M M"
_symmetry_group_IT_number 47
_symmetry_cell_setting 'orthorhombic'
loop_
_space_group_symop_operation_xyz
x,y,z
-x,-y,z
x,-y,-z
-x,y,-z
-x,-y,-z
x,y,-z
-x,y,z
x,-y,z
loop_
_atom_site_type_symbol
_atom_site_label
_atom_site_fract_x
_atom_site_fract_y
_atom_site_fract_z
Si Si1 0.819549 0.621867 0.229591
Si Si2 0.829416 0.870291 0.364766
Si Si3 0.327937 0.000000 0.363570
Si Si4 0.319314 0.574660 0.000000
Si Si5 0.181206 0.500000 0.626657
Si Si6 0.321610 0.737087 0.367484
O O1 0.740986 0.614468 0.107804
O O2 0.758578 0.563537 0.308836
O O3 0.773225 0.688779 0.288561
O O4 0.000000 0.619268 0.213317
O O5 0.835790 0.876013 0.500000
O O6 0.725228 0.809431 0.328928
O O7 0.000000 0.861620 0.315107
O O8 0.756227 0.936151 0.314453
O O9 0.500000 0.000000 0.317334
O O10 0.326290 0.000000 0.500000
O O11 0.257621 0.500000 0.000000
O O12 0.500000 0.575062 0.000000
O O13 0.252040 0.500000 0.500000
O O14 0.000000 0.500000 0.620874
O O15 0.278493 0.724865 0.500000
O O16 0.500000 0.727353 0.346340
#
# Coordination Sequence:
#
# PCOD8197334 Si02
#       6
#     8   8   4   4   4   8
#     4  11  21  35  55  75  98 127 166 208 248 297
#     4   9  16  26  41  62  90 127 169 207 242 287
#     4   9  15  23  37  59  89 126 165 204 245 289
#     4  11  23  39  57  75  99 126 159 204 257 305
#     4   9  18  31  49  74 100 125 156 197 242 289
#     4  10  20  33  48  70 102 136 167 203 252 304
#
# _framework density 17.063095000000001
#
# number of rings (size 3 to 8) (size 9 to 14) (size 15 to 20)
#    0.000    2.111    1.111    3.333    0.000    6.667 
#    0.000    0.000    0.000    2.667    0.000    0.000 
#    0.000    0.889    0.000    8.889    0.000    8.000 
#
# Total GULP energy -446448.699458 kJ/mol
# GULP energy per Si atom -12401.352763 kJ/mol
# Density = 1.702426 g / cm^3
# Si number density = 17.063095 Si / 1000 Ang^3
#
#
#
# Elastic Constant Matrix: (Units=GPa)
#
#
# Indices 1 2 3 4 5 6 
#
# 1 76.9262 28.2758 24.7672 0.0000 0.0000 0.0000
# 2 28.2758 124.1182 42.5517 0.0000 0.0000 0.0000
# 3 24.7672 42.5517 81.6233 0.0000 0.0000 0.0000
# 4 0.0000 0.0000 0.0000 1.1988 0.0000 0.0000
# 5 0.0000 0.0000 0.0000 0.0000 18.1894 0.0000
# 6 0.0000 0.0000 0.0000 0.0000 0.0000 31.8371
#
#
#
# Elastic Compliance Matrix: (Units=1/GPa)
#
#
# Indices 1 2 3 4 5 6 
#
# 1 0.014904 -0.002246 -0.003351 0.000000 0.000000 0.000000
# 2 -0.002246 0.010149 -0.004609 0.000000 0.000000 0.000000
# 3 -0.003351 -0.004609 0.015671 0.000000 0.000000 0.000000
# 4 0.000000 0.000000 0.000000 0.834144 0.000000 0.000000
# 5 0.000000 0.000000 0.000000 0.000000 0.054977 0.000000
# 6 0.000000 0.000000 0.000000 0.000000 0.000000 0.031410
#
#
# Mechanical properties :
#
#
# Convention : Reuss Voigt Hill
#
# Bulk Modulus (GPa) = 49.23593 52.65079 50.94336
# Shear Modulus (GPa) = 5.05848 22.71660 13.88754
#
# Velocity S-wave (km/s) = 1.72366 3.65270 2.85598
# Velocity P-wave (km/s) = 5.73404 6.97948 6.38719
#
# Compressibility (1/GPa) = 0.02031037
#
# Stress axis : x y z
#
# Youngs Moduli (GPa) = 67.09520 98.53434 63.81167
#
# Poissons Ratio (x) = 0.22135 0.21385
# Poissons Ratio (y) = 0.15072 0.29411
# Poissons Ratio (z) = 0.22486 0.45415
#
# Static dielectric constant tensor:
#      x y z
#    x 3.235800 0.000000 0.000000 
#    y 0.000000 3.340500 0.000000 
#    z 0.000000 0.000000 2.851720 
# 
# 
# High freq. dielectric constant tensor:
#      x y z
#    x 1.667790 0.000000 0.000000 
#    y 0.000000 1.669280 0.000000 
#    z 0.000000 0.000000 1.605530 
# 
# From -- ./inp_files/15023.got.cif
#   From: 2010.03.12/outbox.cif.g09.slc.cpg/sg47_8_cif.got.tgz:15023.got - 2010.04.14 03:12:58.
