data_PCOD8197979
_publ_section_title
;
Structure prediction by ZEFSAII (Michael W. Deem and Ramdas Pophale) SiO2 
 PCOD8197979
Probable space group: P M M M
;
_chemical_formula_sum "Si O2"
_cell_formula_units_Z 52
_cell_length_a 8.340037
_cell_length_b 19.381633
_cell_length_c 16.151877
_cell_angle_alpha 90.000000
_cell_angle_beta 90.000000
_cell_angle_gamma 90.000000
_cell_volume 2610.846517
_symmetry_space_group_name_H-M "P M M M"
_symmetry_group_IT_number 47
_symmetry_cell_setting 'orthorhombic'
loop_
_space_group_symop_operation_xyz
x,y,z
-x,-y,z
x,-y,-z
-x,y,-z
-x,-y,-z
x,y,-z
-x,y,z
x,-y,z
loop_
_atom_site_type_symbol
_atom_site_label
_atom_site_fract_x
_atom_site_fract_y
_atom_site_fract_z
Si Si1 0.190740 0.846206 0.336606
Si Si2 0.182281 0.705460 0.592775
Si Si3 0.680709 0.424185 0.336569
Si Si4 0.189465 0.921806 0.826512
Si Si5 0.315143 0.080815 0.000000
Si Si6 0.190904 0.921725 0.500000
Si Si7 0.175007 0.579284 0.164653
Si Si8 0.500000 0.422340 0.096600
O O1 0.241605 0.765690 0.344801
O O2 0.259707 0.877045 0.250295
O O3 0.260115 0.886969 0.416182
O O4 0.000000 0.852499 0.337189
O O5 0.197325 0.735245 0.500000
O O6 0.289386 0.636687 0.598319
O O7 0.000000 0.685043 0.612637
O O8 0.500000 0.418300 0.301125
O O9 0.704662 0.500000 0.378209
O O10 0.807132 0.414769 0.262988
O O11 0.240687 0.888405 0.914973
O O12 0.000000 0.922384 0.822058
O O13 0.256835 0.000000 0.818302
O O14 0.500000 0.099225 0.000000
O O15 0.277641 0.000000 0.000000
O O16 0.000000 0.916248 0.500000
O O17 0.250419 0.000000 0.500000
O O18 0.171400 0.500000 0.135348
O O19 0.332837 0.615483 0.123849
O O20 0.000000 0.612661 0.140586
O O21 0.500000 0.500000 0.135484
O O22 0.500000 0.425282 0.000000
#
# Coordination Sequence:
#
# PCOD8197979 Si02
#       8
#     8   8   8   8   4   4   8   4
#     4   9  16  28  45  71 107 142 174 214 262 312
#     4  10  20  34  51  73 104 138 171 211 263 325
#     4  10  20  35  54  74  97 127 170 225 278 329
#     4   9  16  27  47  76 106 137 178 223 264 309
#     4   9  17  29  45  69 103 139 174 219 272 317
#     4   9  14  22  42  72 106 143 178 212 253 301
#     4   9  16  28  47  71 100 133 169 209 258 317
#     4   9  16  26  42  70 107 139 167 205 256 315
#
# _framework density 19.916913000000001
#
# number of rings (size 3 to 8) (size 9 to 14) (size 15 to 20)
#    0.000    2.692    1.538    1.154    0.000    4.615 
#    0.000    3.846    0.000    0.000    2.000    0.000 
#    0.000    3.692    0.000    0.000    0.000    0.000 
#
# Total GULP energy -644269.747019 kJ/mol
# GULP energy per Si atom -12389.802827 kJ/mol
# Density = 1.987158 g / cm^3
# Si number density = 19.916913 Si / 1000 Ang^3
#
#
#
# Elastic Constant Matrix: (Units=GPa)
#
#
# Indices 1 2 3 4 5 6 
#
# 1 90.4956 23.2398 30.0946 0.0000 0.0000 0.0000
# 2 23.2398 97.3876 56.4012 0.0000 0.0000 0.0000
# 3 30.0946 56.4012 132.0309 0.0000 0.0000 0.0000
# 4 0.0000 0.0000 0.0000 19.6153 0.0000 0.0000
# 5 0.0000 0.0000 0.0000 0.0000 15.3503 0.0000
# 6 0.0000 0.0000 0.0000 0.0000 0.0000 9.1244
#
#
#
# Elastic Compliance Matrix: (Units=1/GPa)
#
#
# Indices 1 2 3 4 5 6 
#
# 1 0.012171 -0.001724 -0.002038 0.000000 0.000000 0.000000
# 2 -0.001724 0.013888 -0.005540 0.000000 0.000000 0.000000
# 3 -0.002038 -0.005540 0.010405 0.000000 0.000000 0.000000
# 4 0.000000 0.000000 0.000000 0.050980 0.000000 0.000000
# 5 0.000000 0.000000 0.000000 0.000000 0.065145 0.000000
# 6 0.000000 0.000000 0.000000 0.000000 0.000000 0.109597
#
#
# Mechanical properties :
#
#
# Convention : Reuss Voigt Hill
#
# Bulk Modulus (GPa) = 55.98945 59.93168 57.96057
# Shear Modulus (GPa) = 17.43727 22.82991 20.13359
#
# Velocity S-wave (km/s) = 2.96210 3.38932 3.18288
# Velocity P-wave (km/s) = 6.31437 6.74335 6.53238
#
# Compressibility (1/GPa) = 0.01786051
#
# Stress axis : x y z
#
# Youngs Moduli (GPa) = 82.16477 72.00476 96.10889
#
# Poissons Ratio (x) = 0.12416 0.19583
# Poissons Ratio (y) = 0.14168 0.53241
# Poissons Ratio (z) = 0.16741 0.39888
#
# Static dielectric constant tensor:
#      x y z
#    x 3.509070 0.000000 0.000000 
#    y 0.000000 3.345990 0.000000 
#    z 0.000000 0.000000 3.674910 
# 
# 
# High freq. dielectric constant tensor:
#      x y z
#    x 1.758350 0.000000 0.000000 
#    y 0.000000 1.730120 0.000000 
#    z 0.000000 0.000000 1.773520 
# 
# From -- ./inp_files/21554.got.cif
#   From: 2010.03.12/outbox.cif.g09.slc.cpg/sg47_11_cif.got.tgz:21554.got - 2010.04.14 03:12:58.
