data_PCOD8197833
_publ_section_title
;
Structure prediction by ZEFSAII (Michael W. Deem and Ramdas Pophale) SiO2 
 PCOD8197833
Probable space group: P M M M
;
_chemical_formula_sum "Si O2"
_cell_formula_units_Z 32
_cell_length_a 7.801788
_cell_length_b 9.600793
_cell_length_c 22.147586
_cell_angle_alpha 90.000000
_cell_angle_beta 90.000000
_cell_angle_gamma 90.000000
_cell_volume 1658.928422
_symmetry_space_group_name_H-M "P M M M"
_symmetry_group_IT_number 47
_symmetry_cell_setting 'orthorhombic'
loop_
_space_group_symop_operation_xyz
x,y,z
-x,-y,z
x,-y,-z
-x,y,-z
-x,-y,-z
x,y,-z
-x,y,z
x,-y,z
loop_
_atom_site_type_symbol
_atom_site_label
_atom_site_fract_x
_atom_site_fract_y
_atom_site_fract_z
Si Si1 0.801611 0.161963 0.257244
Si Si2 0.795279 0.343166 0.500000
Si Si3 0.000000 0.334583 0.067342
Si Si4 0.309195 0.659876 0.850544
Si Si5 0.203946 0.845217 0.607910
O O1 0.693519 0.253373 0.211037
O O2 0.735999 0.197538 0.324865
O O3 0.000000 0.201712 0.250054
O O4 0.771433 0.000000 0.243173
O O5 0.723174 0.500000 0.500000
O O6 0.723820 0.264616 0.559364
O O7 0.000000 0.342812 0.500000
O O8 0.829620 0.281330 0.101816
O O9 0.000000 0.500000 0.063182
O O10 0.000000 0.270197 0.000000
O O11 0.500000 0.673486 0.878765
O O12 0.266344 0.500000 0.834734
O O13 0.000000 0.848403 0.606514
O O14 0.272591 0.000000 0.591832
#
# Coordination Sequence:
#
# PCOD8197833 Si02
#       5
#     8   4   4   8   8
#     4   9  17  30  49  72  98 133 176 218 263 313
#     4   9  15  21  31  55  90 125 164 210 259 307
#     4   9  18  34  55  79 109 142 173 210 255 301
#     4  10  20  33  52  79 107 137 174 214 259 309
#     4   8  14  24  38  57  85 124 167 209 254 306
#
# _framework density 19.289559000000001
#
# number of rings (size 3 to 8) (size 9 to 14) (size 15 to 20)
#    0.000    3.000    1.250    1.875    0.000    3.500 
#    0.000    5.000    0.000    1.500    0.000    2.625 
#    0.000    7.000    0.000    0.000    0.000    0.000 
#
# Total GULP energy -396684.097900 kJ/mol
# GULP energy per Si atom -12396.378059 kJ/mol
# Density = 1.924565 g / cm^3
# Si number density = 19.289559 Si / 1000 Ang^3
#
#
#
# Elastic Constant Matrix: (Units=GPa)
#
#
# Indices 1 2 3 4 5 6 
#
# 1 77.3976 27.3592 46.4892 0.0000 0.0000 0.0000
# 2 27.3592 81.9561 68.2583 0.0000 0.0000 0.0000
# 3 46.4892 68.2583 157.0353 0.0000 0.0000 0.0000
# 4 0.0000 0.0000 0.0000 21.8436 0.0000 0.0000
# 5 0.0000 0.0000 0.0000 0.0000 4.7577 0.0000
# 6 0.0000 0.0000 0.0000 0.0000 0.0000 11.3112
#
#
#
# Elastic Compliance Matrix: (Units=1/GPa)
#
#
# Indices 1 2 3 4 5 6 
#
# 1 0.015960 -0.002183 -0.003776 0.000000 0.000000 0.000000
# 2 -0.002183 0.019424 -0.007797 0.000000 0.000000 0.000000
# 3 -0.003776 -0.007797 0.010875 0.000000 0.000000 0.000000
# 4 0.000000 0.000000 0.000000 0.045780 0.000000 0.000000
# 5 0.000000 0.000000 0.000000 0.000000 0.210185 0.000000
# 6 0.000000 0.000000 0.000000 0.000000 0.000000 0.088408
#
#
# Mechanical properties :
#
#
# Convention : Reuss Voigt Hill
#
# Bulk Modulus (GPa) = 53.34068 66.73361 60.03714
# Shear Modulus (GPa) = 11.78154 19.20131 15.49143
#
# Velocity S-wave (km/s) = 2.47406 3.15846 2.83697
# Velocity P-wave (km/s) = 5.98949 6.92618 6.47479
#
# Compressibility (1/GPa) = 0.01874742
#
# Stress axis : x y z
#
# Youngs Moduli (GPa) = 62.65656 51.48265 91.95547
#
# Poissons Ratio (x) = 0.11239 0.34722
# Poissons Ratio (y) = 0.13678 0.71695
# Poissons Ratio (z) = 0.23659 0.40140
#
# Static dielectric constant tensor:
#      x y z
#    x 3.221040 0.000000 0.000000 
#    y 0.000000 3.420800 0.000000 
#    z 0.000000 0.000000 3.669610 
# 
# 
# High freq. dielectric constant tensor:
#      x y z
#    x 1.728080 0.000000 0.000000 
#    y 0.000000 1.728360 0.000000 
#    z 0.000000 0.000000 1.747450 
# 
# From -- ./inp_files/31606.got.cif
#   From: 2010.03.12/outbox.cif.g09.slc.cpg/sg47_16_cif.got.tgz:31606.got - 2010.04.14 03:12:58.
