data_PCOD8197230
_publ_section_title
;
Structure prediction by ZEFSAII (Michael W. Deem and Ramdas Pophale) SiO2 
 PCOD8197230
Probable space group: P M M M
;
_chemical_formula_sum "Si O2"
_cell_formula_units_Z 44
_cell_length_a 7.678164
_cell_length_b 28.806680
_cell_length_c 9.754883
_cell_angle_alpha 90.000000
_cell_angle_beta 90.000000
_cell_angle_gamma 90.000000
_cell_volume 2157.608564
_symmetry_space_group_name_H-M "P M M M"
_symmetry_group_IT_number 47
_symmetry_cell_setting 'orthorhombic'
loop_
_space_group_symop_operation_xyz
x,y,z
-x,-y,z
x,-y,-z
-x,y,-z
-x,-y,-z
x,y,-z
-x,y,z
x,-y,z
loop_
_atom_site_type_symbol
_atom_site_label
_atom_site_fract_x
_atom_site_fract_y
_atom_site_fract_z
Si Si1 0.000000 0.051322 0.661468
Si Si2 0.793427 0.204030 0.840815
Si Si3 0.696189 0.118698 0.342870
Si Si4 0.792292 0.551081 0.500000
Si Si5 0.207178 0.710433 0.656628
Si Si6 0.207949 0.446916 0.000000
Si Si7 0.207310 0.610901 0.253496
O O1 0.826973 0.078651 0.708256
O O2 0.000000 0.045813 0.500000
O O3 0.000000 0.000000 0.729611
O O4 0.709746 0.160818 0.762827
O O5 0.726783 0.248999 0.757411
O O6 0.000000 0.199844 0.833792
O O7 0.731233 0.206234 0.000000
O O8 0.742280 0.134349 0.500000
O O9 0.500000 0.098890 0.337442
O O10 0.710907 0.500000 0.500000
O O11 0.720350 0.578869 0.627510
O O12 0.000000 0.548582 0.500000
O O13 0.277537 0.716835 0.500000
O O14 0.279946 0.662937 0.724186
O O15 0.000000 0.709419 0.651370
O O16 0.281098 0.415856 0.122925
O O17 0.281402 0.500000 0.000000
O O18 0.000000 0.449956 0.000000
O O19 0.000000 0.613286 0.249672
#
# Coordination Sequence:
#
# PCOD8197230 Si02
#       7
#     4   8   8   4   8   4   8
#     4   9  18  34  59  91 127 161 197 245 290 329
#     4  10  20  32  50  75 103 140 186 233 288 346
#     4  10  20  35  58  86 118 157 198 239 288 341
#     4   9  14  20  30  42  62  96 145 201 255 319
#     4   9  16  26  40  59  84 118 161 219 281 339
#     4   9  16  22  28  40  64 102 147 201 263 325
#     4   9  15  22  31  45  68 100 147 204 263 326
#
# _framework density 20.392949999999999
#
# number of rings (size 3 to 8) (size 9 to 14) (size 15 to 20)
#    0.000    2.636    1.818    1.091    1.273    3.636 
#    0.000    1.818    0.000    1.091    0.000    1.273 
#    0.000    0.000    0.000    0.000    0.000    5.455 
#
# Total GULP energy -545243.165216 kJ/mol
# GULP energy per Si atom -12391.890119 kJ/mol
# Density = 2.034654 g / cm^3
# Si number density = 20.392950 Si / 1000 Ang^3
#
#
#
# Elastic Constant Matrix: (Units=GPa)
#
#
# Indices 1 2 3 4 5 6 
#
# 1 55.4818 40.2008 22.9311 0.0000 0.0000 0.0000
# 2 40.2008 193.8793 87.0001 0.0000 0.0000 0.0000
# 3 22.9311 87.0001 162.9271 0.0000 0.0000 0.0000
# 4 0.0000 0.0000 0.0000 27.1138 0.0000 0.0000
# 5 0.0000 0.0000 0.0000 0.0000 6.6482 0.0000
# 6 0.0000 0.0000 0.0000 0.0000 0.0000 -11.5009
#
#
#
# Elastic Compliance Matrix: (Units=1/GPa)
#
#
# Indices 1 2 3 4 5 6 
#
# 1 0.021298 -0.004039 -0.000841 0.000000 0.000000 0.000000
# 2 -0.004039 0.007549 -0.003463 0.000000 0.000000 0.000000
# 3 -0.000841 -0.003463 0.008105 0.000000 0.000000 0.000000
# 4 0.000000 0.000000 0.000000 0.036882 0.000000 0.000000
# 5 0.000000 0.000000 0.000000 0.000000 0.150417 0.000000
# 6 0.000000 0.000000 0.000000 0.000000 0.000000 -0.086950
#
#
# Mechanical properties :
#
#
# Convention : Reuss Voigt Hill
#
# Bulk Modulus (GPa) = 49.34042 79.17245 64.25644
# Shear Modulus (GPa) = 31.10594 21.92931 26.51763
#
# Velocity S-wave (km/s) = 3.90978 3.28279 3.60993
# Velocity P-wave (km/s) = 6.68051 7.29909 6.99664
#
# Compressibility (1/GPa) = 0.02026736
#
# Stress axis : x y z
#
# Youngs Moduli (GPa) = 46.95304 132.46639 123.37973
#
# Poissons Ratio (x) = 0.53500 0.10375
# Poissons Ratio (y) = 0.18963 0.42722
# Poissons Ratio (z) = 0.03948 0.45868
#
# Static dielectric constant tensor:
#      x y z
#    x 3.229180 0.000000 0.000000 
#    y 0.000000 3.904270 0.000000 
#    z 0.000000 0.000000 3.787140 
# 
# 
# High freq. dielectric constant tensor:
#      x y z
#    x 1.760630 0.000000 0.000000 
#    y 0.000000 1.797610 0.000000 
#    z 0.000000 0.000000 1.791810 
# 
# From -- ./inp_files/2388.got.cif
#   From: 2010.03.12/outbox.cif.g09.slc.cpg/sg47_2_cif.got.tgz:2388.got - 2010.04.14 03:12:58.
