data_PCOD8197455
_publ_section_title
;
Structure prediction by ZEFSAII (Michael W. Deem and Ramdas Pophale) SiO2 
 PCOD8197455
Probable space group: P M M M
;
_chemical_formula_sum "Si O2"
_cell_formula_units_Z 44
_cell_length_a 9.001420
_cell_length_b 21.453764
_cell_length_c 13.587741
_cell_angle_alpha 90.000000
_cell_angle_beta 90.000000
_cell_angle_gamma 90.000000
_cell_volume 2623.987640
_symmetry_space_group_name_H-M "P M M M"
_symmetry_group_IT_number 47
_symmetry_cell_setting 'orthorhombic'
loop_
_space_group_symop_operation_xyz
x,y,z
-x,-y,z
x,-y,-z
-x,y,-z
-x,-y,-z
x,y,-z
-x,y,z
x,-y,z
loop_
_atom_site_type_symbol
_atom_site_label
_atom_site_fract_x
_atom_site_fract_y
_atom_site_fract_z
Si Si1 0.825988 0.807138 0.202092
Si Si2 0.829388 0.265140 0.390086
Si Si3 0.328144 0.307363 0.110183
Si Si4 0.176546 0.067993 0.111365
Si Si5 0.325776 0.620645 0.301197
Si Si6 0.176190 0.500000 0.613471
O O1 0.787327 0.790327 0.315093
O O2 0.759029 0.756339 0.128559
O O3 0.760005 0.875922 0.179073
O O4 0.000000 0.806767 0.182153
O O5 0.804186 0.239426 0.500000
O O6 0.723568 0.324064 0.373550
O O7 0.000000 0.286569 0.373998
O O8 0.500000 0.290960 0.123261
O O9 0.283596 0.360781 0.188733
O O10 0.292497 0.331872 0.000000
O O11 0.000000 0.067761 0.114932
O O12 0.234896 0.000000 0.148476
O O13 0.231049 0.079450 0.000000
O O14 0.500000 0.608298 0.314290
O O15 0.236955 0.559431 0.329311
O O16 0.230548 0.500000 0.500000
O O17 0.000000 0.500000 0.618715
#
# Coordination Sequence:
#
# PCOD8197455 Si02
#       6
#     8   8   8   8   8   4
#     4   9  16  26  43  65  86 113 151 187 216 256
#     4   9  17  29  44  63  89 117 143 178 226 268
#     4   9  18  32  48  67  93 120 143 174 219 263
#     4   8  13  21  35  58  86 112 141 181 224 260
#     4  10  20  33  50  71  91 114 147 181 212 254
#     4  11  23  37  52  69  92 120 145 175 220 263
#
# _framework density 16.768371999999999
#
# number of rings (size 3 to 8) (size 9 to 14) (size 15 to 20)
#    0.000    2.818    0.000    2.455    0.000    5.091 
#    0.000    0.455    0.000    3.818    0.000    6.364 
#    0.000    0.000    0.000    9.091    0.000    9.818 
#
# Total GULP energy -545400.102221 kJ/mol
# GULP energy per Si atom -12395.456869 kJ/mol
# Density = 1.673021 g / cm^3
# Si number density = 16.768372 Si / 1000 Ang^3
#
#
#
# Elastic Constant Matrix: (Units=GPa)
#
#
# Indices 1 2 3 4 5 6 
#
# 1 35.0533 34.6271 28.3088 0.0000 0.0000 0.0000
# 2 34.6271 149.7916 74.4265 0.0000 0.0000 0.0000
# 3 28.3088 74.4265 124.1245 0.0000 0.0000 0.0000
# 4 0.0000 0.0000 0.0000 19.3632 0.0000 0.0000
# 5 0.0000 0.0000 0.0000 0.0000 18.9038 0.0000
# 6 0.0000 0.0000 0.0000 0.0000 0.0000 1.3048
#
#
#
# Elastic Compliance Matrix: (Units=1/GPa)
#
#
# Indices 1 2 3 4 5 6 
#
# 1 0.039011 -0.006548 -0.004971 0.000000 0.000000 0.000000
# 2 -0.006548 0.010608 -0.004867 0.000000 0.000000 0.000000
# 3 -0.004971 -0.004867 0.012109 0.000000 0.000000 0.000000
# 4 0.000000 0.000000 0.000000 0.051644 0.000000 0.000000
# 5 0.000000 0.000000 0.000000 0.000000 0.052899 0.000000
# 6 0.000000 0.000000 0.000000 0.000000 0.000000 0.766417
#
#
# Mechanical properties :
#
#
# Convention : Reuss Voigt Hill
#
# Bulk Modulus (GPa) = 34.53627 64.85492 49.69559
# Shear Modulus (GPa) = 5.12761 19.35481 12.24121
#
# Velocity S-wave (km/s) = 1.75058 3.40110 2.70482
# Velocity P-wave (km/s) = 4.97261 7.36099 6.28136
#
# Compressibility (1/GPa) = 0.02895507
#
# Stress axis : x y z
#
# Youngs Moduli (GPa) = 25.63373 94.26753 82.58618
#
# Poissons Ratio (x) = 0.61730 0.41051
# Poissons Ratio (y) = 0.16786 0.40197
# Poissons Ratio (z) = 0.12742 0.45883
#
# Static dielectric constant tensor:
#      x y z
#    x 3.013280 0.000000 0.000000 
#    y 0.000000 3.392230 0.000000 
#    z 0.000000 0.000000 3.312970 
# 
# 
# High freq. dielectric constant tensor:
#      x y z
#    x 1.629890 0.000000 0.000000 
#    y 0.000000 1.637290 0.000000 
#    z 0.000000 0.000000 1.645020 
# 
# From -- ./inp_files/21302.got.cif
#   From: 2010.03.12/outbox.cif.g09.slc.cpg/sg47_11_cif.got.tgz:21302.got - 2010.04.14 03:12:58.
