data_PCOD8197531
_publ_section_title
;
Structure prediction by ZEFSAII (Michael W. Deem and Ramdas Pophale) SiO2 
 PCOD8197531
Probable space group: P M M M
;
_chemical_formula_sum "Si O2"
_cell_formula_units_Z 40
_cell_length_a 9.121607
_cell_length_b 9.090304
_cell_length_c 25.851060
_cell_angle_alpha 90.000000
_cell_angle_beta 90.000000
_cell_angle_gamma 90.000000
_cell_volume 2143.522862
_symmetry_space_group_name_H-M "P M M M"
_symmetry_group_IT_number 47
_symmetry_cell_setting 'orthorhombic'
loop_
_space_group_symop_operation_xyz
x,y,z
-x,-y,z
x,-y,-z
-x,y,-z
-x,-y,-z
x,y,-z
-x,y,z
x,-y,z
loop_
_atom_site_type_symbol
_atom_site_label
_atom_site_fract_x
_atom_site_fract_y
_atom_site_fract_z
Si Si1 0.165440 0.324978 0.000000
Si Si2 0.670623 0.330471 0.899138
Si Si3 0.665525 0.675007 0.399591
Si Si4 0.171549 0.329374 0.702925
Si Si5 0.668084 0.826725 0.205254
Si Si6 0.834084 0.324407 0.500000
O O1 0.244391 0.265045 0.948565
O O2 0.174978 0.500000 0.000000
O O3 0.000000 0.266880 0.000000
O O4 0.500000 0.311306 0.910873
O O5 0.711700 0.500000 0.888830
O O6 0.720126 0.238686 0.849330
O O7 0.500000 0.736836 0.399756
O O8 0.665111 0.500000 0.401462
O O9 0.747179 0.730146 0.348162
O O10 0.750953 0.737132 0.449479
O O11 0.208077 0.500000 0.712758
O O12 0.227268 0.237009 0.751131
O O13 0.000000 0.303431 0.695074
O O14 0.500000 0.780936 0.216826
O O15 0.687068 0.000000 0.203107
O O16 0.833920 0.500000 0.500000
O O17 0.000000 0.264351 0.500000
#
# Coordination Sequence:
#
# PCOD8197531 Si02
#       6
#     4   8   8   8   8   4
#     4   9  17  29  48  75 102 126 158 201 244 287
#     4   9  17  31  52  75  99 129 164 201 243 292
#     4   9  16  26  42  65  94 128 165 204 247 296
#     4  10  20  33  50  73 100 131 168 209 253 300
#     4  10  21  36  53  74 100 131 168 209 253 300
#     4   9  15  23  37  61  96 131 160 197 248 301
#
# _framework density 18.660869000000002
#
# number of rings (size 3 to 8) (size 9 to 14) (size 15 to 20)
#    0.000    2.600    0.000    2.400    0.000    8.000 
#    0.000    2.500    0.000    3.000    0.000    0.700 
#    0.000    5.600    0.000    0.000    0.000    0.000 
#
# Total GULP energy -496068.978570 kJ/mol
# GULP energy per Si atom -12401.724464 kJ/mol
# Density = 1.861840 g / cm^3
# Si number density = 18.660869 Si / 1000 Ang^3
#
#
#
# Elastic Constant Matrix: (Units=GPa)
#
#
# Indices 1 2 3 4 5 6 
#
# 1 126.2759 30.7243 91.1326 0.0000 0.0000 0.0000
# 2 30.7243 36.9031 40.5142 0.0000 0.0000 0.0000
# 3 91.1326 40.5142 183.5009 0.0000 0.0000 0.0000
# 4 0.0000 0.0000 0.0000 -3.1984 0.0000 0.0000
# 5 0.0000 0.0000 0.0000 0.0000 29.7751 0.0000
# 6 0.0000 0.0000 0.0000 0.0000 0.0000 15.4865
#
#
#
# Elastic Compliance Matrix: (Units=1/GPa)
#
#
# Indices 1 2 3 4 5 6 
#
# 1 0.012988 -0.004926 -0.005363 0.000000 0.000000 0.000000
# 2 -0.004926 0.037636 -0.005863 0.000000 0.000000 0.000000
# 3 -0.005363 -0.005863 0.009407 0.000000 0.000000 0.000000
# 4 0.000000 0.000000 0.000000 -0.312657 0.000000 0.000000
# 5 0.000000 0.000000 0.000000 0.000000 0.033585 0.000000
# 6 0.000000 0.000000 0.000000 0.000000 0.000000 0.064572
#
#
# Mechanical properties :
#
#
# Convention : Reuss Voigt Hill
#
# Bulk Modulus (GPa) = 36.06474 74.60246 55.33360
# Shear Modulus (GPa) = -44.27831 20.69990 -11.78921
#
# Velocity S-wave (km/s) = -4.87641 3.33418 -2.51621
# Velocity P-wave (km/s) = 3.51248 7.40859 4.61246
#
# Compressibility (1/GPa) = 0.02772791
#
# Stress axis : x y z
#
# Youngs Moduli (GPa) = 76.99473 26.57033 106.30024
#
# Poissons Ratio (x) = 0.13088 0.57005
# Poissons Ratio (y) = 0.37927 0.62325
# Poissons Ratio (z) = 0.41290 0.15578
#
# Static dielectric constant tensor:
#      x y z
#    x 3.525540 0.000000 0.000000 
#    y 0.000000 2.921950 0.000000 
#    z 0.000000 0.000000 3.627440 
# 
# 
# High freq. dielectric constant tensor:
#      x y z
#    x 1.731240 0.000000 0.000000 
#    y 0.000000 1.669410 0.000000 
#    z 0.000000 0.000000 1.742110 
# 
# From -- ./inp_files/1698.got.cif
#   From: 2010.03.12/outbox.cif.g09.slc.cpg/sg47_1_cif.got.tgz:1698.got - 2010.04.14 03:12:58.
