data_PCOD8197826
_publ_section_title
;
Structure prediction by ZEFSAII (Michael W. Deem and Ramdas Pophale) SiO2 
 PCOD8197826
Probable space group: P M M M
;
_chemical_formula_sum "Si O2"
_cell_formula_units_Z 48
_cell_length_a 30.793317
_cell_length_b 9.091828
_cell_length_c 9.348701
_cell_angle_alpha 90.000000
_cell_angle_beta 90.000000
_cell_angle_gamma 90.000000
_cell_volume 2617.332837
_symmetry_space_group_name_H-M "P M M M"
_symmetry_group_IT_number 47
_symmetry_cell_setting 'orthorhombic'
loop_
_space_group_symop_operation_xyz
x,y,z
-x,-y,z
x,-y,-z
-x,y,-z
-x,-y,-z
x,y,-z
-x,y,z
x,-y,z
loop_
_atom_site_type_symbol
_atom_site_label
_atom_site_fract_x
_atom_site_fract_y
_atom_site_fract_z
Si Si1 0.753266 0.827458 0.666108
Si Si2 0.500000 0.326590 0.664266
Si Si3 0.574805 0.829595 0.167126
Si Si4 0.671715 0.174483 0.842018
Si Si5 0.917117 0.829178 0.165508
Si Si6 0.829036 0.327233 0.835394
Si Si7 0.000000 0.825037 0.338366
O O1 0.752717 0.789876 0.500000
O O2 0.707836 0.768790 0.731231
O O3 0.792265 0.741719 0.738033
O O4 0.759432 0.000000 0.695543
O O5 0.500000 0.500000 0.679756
O O6 0.500000 0.275955 0.500000
O O7 0.542868 0.266309 0.738954
O O8 0.623591 0.774971 0.205191
O O9 0.568269 0.000000 0.206858
O O10 0.565093 0.804661 0.000000
O O11 0.671525 0.000000 0.849148
O O12 0.682796 0.237293 0.000000
O O13 0.874935 0.739171 0.213042
O O14 0.957195 0.767052 0.257744
O O15 0.908093 0.000000 0.197351
O O16 0.928591 0.803308 0.000000
O O17 0.830463 0.500000 0.810424
O O18 0.819399 0.286424 0.000000
O O19 0.000000 0.764577 0.500000
O O20 0.000000 0.000000 0.334337
#
# Coordination Sequence:
#
# PCOD8197826 Si02
#       7
#     8   4   8   8   8   8   4
#     4  10  20  33  52  79 107 135 168 206 251 304
#     4  11  24  37  48  70 106 143 176 209 248 298
#     4   9  18  34  57  82 103 127 166 213 257 303
#     4   8  15  30  53  79 104 129 162 208 256 300
#     4   9  17  31  52  75  98 127 164 206 252 299
#     4  10  21  36  53  74 101 135 175 215 254 298
#     4   9  17  29  48  75 102 126 158 203 250 297
#
# _framework density 18.339279999999999
#
# number of rings (size 3 to 8) (size 9 to 14) (size 15 to 20)
#    0.000    2.667    0.000    2.750    0.000    6.333 
#    0.000    4.583    0.000    3.500    0.000    0.000 
#    0.000    0.000    0.000    0.000    0.000    0.000 
#
# Total GULP energy -595200.528421 kJ/mol
# GULP energy per Si atom -12400.011009 kJ/mol
# Density = 1.829754 g / cm^3
# Si number density = 18.339280 Si / 1000 Ang^3
#
#
#
# Elastic Constant Matrix: (Units=GPa)
#
#
# Indices 1 2 3 4 5 6 
#
# 1 185.4302 55.9276 103.4634 0.0000 0.0000 0.0000
# 2 55.9276 50.2436 49.6028 0.0000 0.0000 0.0000
# 3 103.4634 49.6028 114.5628 0.0000 0.0000 0.0000
# 4 0.0000 0.0000 0.0000 21.9686 0.0000 0.0000
# 5 0.0000 0.0000 0.0000 0.0000 -0.5254 0.0000
# 6 0.0000 0.0000 0.0000 0.0000 0.0000 -8.5609
#
#
#
# Elastic Compliance Matrix: (Units=1/GPa)
#
#
# Indices 1 2 3 4 5 6 
#
# 1 0.011405 -0.004413 -0.008389 0.000000 0.000000 0.000000
# 2 -0.004413 0.036470 -0.011805 0.000000 0.000000 0.000000
# 3 -0.008389 -0.011805 0.021417 0.000000 0.000000 0.000000
# 4 0.000000 0.000000 0.000000 0.045519 0.000000 0.000000
# 5 0.000000 0.000000 0.000000 0.000000 -1.903385 0.000000
# 6 0.000000 0.000000 0.000000 0.000000 0.000000 -0.116810
#
#
# Mechanical properties :
#
#
# Convention : Reuss Voigt Hill
#
# Bulk Modulus (GPa) = 49.80899 85.35825 67.58362
# Shear Modulus (GPa) = -2.70347 11.99264 4.64459
#
# Velocity S-wave (km/s) = -1.21546 2.55998 1.59314
# Velocity P-wave (km/s) = 5.02483 7.44198 6.34948
#
# Compressibility (1/GPa) = 0.02007670
#
# Stress axis : x y z
#
# Youngs Moduli (GPa) = 87.68403 27.42007 46.69297
#
# Poissons Ratio (x) = 0.12100 0.39171
# Poissons Ratio (y) = 0.38692 0.55122
# Poissons Ratio (z) = 0.73559 0.32370
#
# Static dielectric constant tensor:
#      x y z
#    x 3.652980 0.000000 0.000000 
#    y 0.000000 3.060030 0.000000 
#    z 0.000000 0.000000 3.454950 
# 
# 
# High freq. dielectric constant tensor:
#      x y z
#    x 1.727910 0.000000 0.000000 
#    y 0.000000 1.678010 0.000000 
#    z 0.000000 0.000000 1.709520 
# 
# From -- ./inp_files/13899.got.cif
#   From: 2010.03.12/outbox.cif.g09.slc.cpg/sg47_7_cif.got.tgz:13899.got - 2010.04.14 03:12:58.
