data_PCOD8197933
_publ_section_title
;
Structure prediction by ZEFSAII (Michael W. Deem and Ramdas Pophale) SiO2 
 PCOD8197933
Probable space group: P M M M
;
_chemical_formula_sum "Si O2"
_cell_formula_units_Z 40
_cell_length_a 20.986160
_cell_length_b 11.667780
_cell_length_c 9.596122
_cell_angle_alpha 90.000000
_cell_angle_beta 90.000000
_cell_angle_gamma 90.000000
_cell_volume 2349.724646
_symmetry_space_group_name_H-M "P M M M"
_symmetry_group_IT_number 47
_symmetry_cell_setting 'orthorhombic'
loop_
_space_group_symop_operation_xyz
x,y,z
-x,-y,z
x,-y,-z
-x,y,-z
-x,-y,-z
x,y,-z
-x,y,z
x,-y,z
loop_
_atom_site_type_symbol
_atom_site_label
_atom_site_fract_x
_atom_site_fract_y
_atom_site_fract_z
Si Si1 0.425953 0.374341 0.500000
Si Si2 0.118758 0.864463 0.840829
Si Si3 0.574478 0.363709 0.000000
Si Si4 0.628022 0.766926 0.253636
Si Si5 0.574746 0.000000 0.844641
Si Si6 0.758869 0.866691 0.662784
Si Si7 0.000000 0.863286 0.660410
O O1 0.392324 0.500000 0.500000
O O2 0.500000 0.395874 0.500000
O O3 0.407575 0.300153 0.370820
O O4 0.182701 0.828825 0.760119
O O5 0.060777 0.816576 0.746865
O O6 0.113064 0.000000 0.849805
O O7 0.117737 0.814733 0.000000
O O8 0.615919 0.313676 0.876285
O O9 0.576353 0.500000 0.000000
O O10 0.500000 0.321788 0.000000
O O11 0.596483 0.890309 0.239984
O O12 0.702062 0.784033 0.289051
O O13 0.500000 0.000000 0.858296
O O14 0.605513 0.000000 0.000000
O O15 0.775510 0.846716 0.500000
O O16 0.741051 0.000000 0.688103
O O17 0.000000 0.816670 0.500000
O O18 0.000000 0.000000 0.654888
#
# Coordination Sequence:
#
# PCOD8197933 Si02
#       7
#     4   8   4   8   4   8   4
#     4  11  24  41  59  79 103 135 179 230 282 333
#     4   9  17  27  44  66  96 135 181 219 250 299
#     4  11  24  41  59  77  99 135 181 226 276 333
#     4  12  22  37  57  79 106 138 174 223 275 332
#     4  11  22  35  53  79 107 134 169 218 275 331
#     4  10  20  34  47  70 104 140 172 209 265 328
#     4   9  15  25  41  65  95 137 180 219 254 291
#
# _framework density 17.023271999999999
#
# number of rings (size 3 to 8) (size 9 to 14) (size 15 to 20)
#    0.000    1.600    3.000    3.300    1.400    5.600 
#    0.000    1.000    0.000    0.000    0.000    0.000 
#    0.000    0.000    0.000    5.400    0.000    0.700 
#
# Total GULP energy -495789.868553 kJ/mol
# GULP energy per Si atom -12394.746714 kJ/mol
# Density = 1.698453 g / cm^3
# Si number density = 17.023272 Si / 1000 Ang^3
#
#
#
# Elastic Constant Matrix: (Units=GPa)
#
#
# Indices 1 2 3 4 5 6 
#
# 1 104.3299 27.5660 61.4118 0.0000 0.0000 0.0000
# 2 27.5660 79.6106 43.6402 0.0000 0.0000 0.0000
# 3 61.4118 43.6402 164.2873 0.0000 0.0000 0.0000
# 4 0.0000 0.0000 0.0000 38.2637 0.0000 0.0000
# 5 0.0000 0.0000 0.0000 0.0000 35.5848 0.0000
# 6 0.0000 0.0000 0.0000 0.0000 0.0000 18.0625
#
#
#
# Elastic Compliance Matrix: (Units=1/GPa)
#
#
# Indices 1 2 3 4 5 6 
#
# 1 0.012577 -0.002081 -0.004149 0.000000 0.000000 0.000000
# 2 -0.002081 0.015046 -0.003219 0.000000 0.000000 0.000000
# 3 -0.004149 -0.003219 0.008493 0.000000 0.000000 0.000000
# 4 0.000000 0.000000 0.000000 0.026134 0.000000 0.000000
# 5 0.000000 0.000000 0.000000 0.000000 0.028102 0.000000
# 6 0.000000 0.000000 0.000000 0.000000 0.000000 0.055363
#
#
# Mechanical properties :
#
#
# Convention : Reuss Voigt Hill
#
# Bulk Modulus (GPa) = 58.07498 68.16263 63.11880
# Shear Modulus (GPa) = 29.35106 32.75617 31.05362
#
# Velocity S-wave (km/s) = 4.15682 4.39133 4.27568
# Velocity P-wave (km/s) = 7.56492 8.11415 7.84434
#
# Compressibility (1/GPa) = 0.01721912
#
# Stress axis : x y z
#
# Youngs Moduli (GPa) = 79.51200 66.46215 117.74772
#
# Poissons Ratio (x) = 0.13829 0.48848
# Poissons Ratio (y) = 0.16544 0.37903
# Poissons Ratio (z) = 0.32986 0.21394
#
# Static dielectric constant tensor:
#      x y z
#    x 3.274730 0.000000 0.000000 
#    y 0.000000 2.846060 0.000000 
#    z 0.000000 0.000000 3.454180 
# 
# 
# High freq. dielectric constant tensor:
#      x y z
#    x 1.657990 0.000000 0.000000 
#    y 0.000000 1.607860 0.000000 
#    z 0.000000 0.000000 1.682040 
# 
# From -- ./inp_files/10759.got.cif
#   From: 2010.03.12/outbox.cif.g09.slc.cpg/sg47_6_cif.got.tgz:10759.got - 2010.04.14 03:12:58.
