data_PCOD8197501
_publ_section_title
;
Structure prediction by ZEFSAII (Michael W. Deem and Ramdas Pophale) SiO2 
 PCOD8197501
Probable space group: P M M M
;
_chemical_formula_sum "Si O2"
_cell_formula_units_Z 52
_cell_length_a 16.036958
_cell_length_b 20.281191
_cell_length_c 8.967349
_cell_angle_alpha 90.000000
_cell_angle_beta 90.000000
_cell_angle_gamma 90.000000
_cell_volume 2916.617782
_symmetry_space_group_name_H-M "P M M M"
_symmetry_group_IT_number 47
_symmetry_cell_setting 'orthorhombic'
loop_
_space_group_symop_operation_xyz
x,y,z
-x,-y,z
x,-y,-z
-x,y,-z
-x,-y,-z
x,y,-z
-x,y,z
x,-y,z
loop_
_atom_site_type_symbol
_atom_site_label
_atom_site_fract_x
_atom_site_fract_y
_atom_site_fract_z
Si Si1 0.796402 0.824548 0.673473
Si Si2 0.901696 0.073332 0.167648
Si Si3 0.227966 0.325178 0.326105
Si Si4 0.500000 0.076857 0.665340
Si Si5 0.371412 0.158843 0.175686
Si Si6 0.408632 0.293571 0.674595
Si Si7 0.906860 0.574316 0.677569
O O1 0.775311 0.833567 0.500000
O O2 0.874681 0.869304 0.718069
O O3 0.809089 0.747128 0.710048
O O4 0.722927 0.851475 0.775667
O O5 0.000000 0.073037 0.171176
O O6 0.869359 0.000000 0.215563
O O7 0.870124 0.089185 0.000000
O O8 0.227664 0.339255 0.500000
O O9 0.325232 0.333233 0.269584
O O10 0.164670 0.378127 0.251416
O O11 0.500000 0.109518 0.500000
O O12 0.580974 0.096831 0.757880
O O13 0.500000 0.000000 0.648003
O O14 0.411929 0.224920 0.240519
O O15 0.380008 0.160570 0.000000
O O16 0.396567 0.278787 0.500000
O O17 0.500000 0.328892 0.702523
O O18 0.905486 0.578266 0.500000
O O19 0.887101 0.500000 0.730701
O O20 0.000000 0.595150 0.732879
#
# Coordination Sequence:
#
# PCOD8197501 Si02
#       7
#     8   8   8   4   8   8   8
#     4  10  20  33  50  72  98 127 160 202 251 297
#     4   9  19  36  54  70  92 124 160 200 249 302
#     4   8  15  26  40  64  93 123 162 202 243 292
#     4  11  23  37  51  67  91 123 158 197 242 293
#     4  11  21  33  50  70  93 121 155 197 242 290
#     4   9  16  28  47  65  89 124 157 194 242 293
#     4   8  13  22  38  61  93 133 168 198 239 291
#
# _framework density 17.828869999999998
#
# number of rings (size 3 to 8) (size 9 to 14) (size 15 to 20)
#    0.000    2.692    0.769    3.923    0.000    2.462 
#    0.000    2.308    0.000    0.462    0.000    3.231 
#    0.000   15.385    0.000   49.538    0.000   45.846 
#
# Total GULP energy -644229.094576 kJ/mol
# GULP energy per Si atom -12389.021050 kJ/mol
# Density = 1.778829 g / cm^3
# Si number density = 17.828870 Si / 1000 Ang^3
#
#
#
# Elastic Constant Matrix: (Units=GPa)
#
#
# Indices 1 2 3 4 5 6 
#
# 1 122.7293 70.8111 26.9673 0.0000 0.0000 0.0000
# 2 70.8111 90.7305 25.3663 0.0000 0.0000 0.0000
# 3 26.9673 25.3663 61.8009 0.0000 0.0000 0.0000
# 4 0.0000 0.0000 0.0000 5.9807 0.0000 0.0000
# 5 0.0000 0.0000 0.0000 0.0000 17.4453 0.0000
# 6 0.0000 0.0000 0.0000 0.0000 0.0000 43.2391
#
#
#
# Elastic Compliance Matrix: (Units=1/GPa)
#
#
# Indices 1 2 3 4 5 6 
#
# 1 0.015032 -0.011181 -0.001970 0.000000 0.000000 0.000000
# 2 -0.011181 0.020767 -0.003645 0.000000 0.000000 0.000000
# 3 -0.001970 -0.003645 0.018537 0.000000 0.000000 0.000000
# 4 0.000000 0.000000 0.000000 0.167204 0.000000 0.000000
# 5 0.000000 0.000000 0.000000 0.000000 0.057322 0.000000
# 6 0.000000 0.000000 0.000000 0.000000 0.000000 0.023127
#
#
# Mechanical properties :
#
#
# Convention : Reuss Voigt Hill
#
# Bulk Modulus (GPa) = 48.20744 57.95003 53.07873
# Shear Modulus (GPa) = 14.59874 23.47408 19.03641
#
# Velocity S-wave (km/s) = 2.86462 3.63248 3.27116
# Velocity P-wave (km/s) = 6.16758 7.08288 6.64102
#
# Compressibility (1/GPa) = 0.02074369
#
# Stress axis : x y z
#
# Youngs Moduli (GPa) = 66.52461 48.15326 53.94696
#
# Poissons Ratio (x) = 0.53840 0.10628
# Poissons Ratio (y) = 0.74382 0.19663
# Poissons Ratio (z) = 0.13106 0.17552
#
# Static dielectric constant tensor:
#      x y z
#    x 3.605120 0.000000 0.000000 
#    y 0.000000 3.273460 0.000000 
#    z 0.000000 0.000000 3.058740 
# 
# 
# High freq. dielectric constant tensor:
#      x y z
#    x 1.702860 0.000000 0.000000 
#    y 0.000000 1.662680 0.000000 
#    z 0.000000 0.000000 1.660040 
# 
# From -- ./inp_files/7061.got.cif
#   From: 2010.03.12/outbox.cif.g09.slc.cpg/sg47_4_cif.got.tgz:7061.got - 2010.04.14 03:12:58.
