data_PCOD8197776
_publ_section_title
;
Structure prediction by ZEFSAII (Michael W. Deem and Ramdas Pophale) SiO2 
 PCOD8197776
Probable space group: P M M M
;
_chemical_formula_sum "Si O2"
_cell_formula_units_Z 56
_cell_length_a 8.755718
_cell_length_b 22.964985
_cell_length_c 14.118009
_cell_angle_alpha 90.000000
_cell_angle_beta 90.000000
_cell_angle_gamma 90.000000
_cell_volume 2838.777707
_symmetry_space_group_name_H-M "P M M M"
_symmetry_group_IT_number 47
_symmetry_cell_setting 'orthorhombic'
loop_
_space_group_symop_operation_xyz
x,y,z
-x,-y,z
x,-y,-z
-x,y,-z
-x,-y,-z
x,y,-z
-x,y,z
x,-y,z
loop_
_atom_site_type_symbol
_atom_site_label
_atom_site_fract_x
_atom_site_fract_y
_atom_site_fract_z
Si Si1 0.323124 0.326286 0.226196
Si Si2 0.819558 0.892839 0.211660
Si Si3 0.818392 0.565053 0.294619
Si Si4 0.676341 0.861386 0.604845
Si Si5 0.834174 0.431369 0.500000
Si Si6 0.679835 0.216364 0.109179
Si Si7 0.174427 0.737044 0.393617
Si Si8 0.327914 0.000000 0.888264
O O1 0.500000 0.339258 0.218501
O O2 0.239162 0.388752 0.216115
O O3 0.272686 0.280919 0.144430
O O4 0.284323 0.300113 0.328159
O O5 0.743673 0.904018 0.314885
O O6 0.771334 0.830272 0.170808
O O7 0.000000 0.896249 0.220713
O O8 0.761339 0.942756 0.142736
O O9 0.762044 0.500000 0.266741
O O10 0.751804 0.583915 0.399510
O O11 0.000000 0.566366 0.299495
O O12 0.692964 0.889953 0.500000
O O13 0.500000 0.846775 0.626514
O O14 0.775590 0.803543 0.609771
O O15 0.859549 0.500000 0.500000
O O16 0.000000 0.400079 0.500000
O O17 0.500000 0.205554 0.124206
O O18 0.727010 0.210318 0.000000
O O19 0.190577 0.712081 0.500000
O O20 0.000000 0.732860 0.357765
O O21 0.500000 0.000000 0.846787
O O22 0.333552 0.000000 0.000000
#
# Coordination Sequence:
#
# PCOD8197776 Si02
#       8
#     8   8   8   8   4   8   8   4
#     4  11  22  34  53  81 112 145 186 238 289 343
#     4  12  24  39  63  94 126 157 193 241 294 347
#     4   9  18  33  52  73 103 145 188 230 279 339
#     4  10  20  36  59  86 120 161 201 239 281 336
#     4   7  12  26  47  69  95 135 183 222 263 324
#     4  10  22  41  62  83 112 152 194 237 292 352
#     4  10  20  33  51  78 113 152 191 232 280 337
#     4  11  25  45  68  91 120 161 203 246 298 353
#
# _framework density 19.726799
#
# number of rings (size 3 to 8) (size 9 to 14) (size 15 to 20)
#    0.000    1.857    1.429    4.071    1.000    5.143 
#    0.000    0.357    0.000    3.857    0.000    3.000 
#    0.000    0.000    0.000    0.000    0.000    0.000 
#
# Total GULP energy -694189.643095 kJ/mol
# GULP energy per Si atom -12396.243627 kJ/mol
# Density = 1.968190 g / cm^3
# Si number density = 19.726799 Si / 1000 Ang^3
#
#
#
# Elastic Constant Matrix: (Units=GPa)
#
#
# Indices 1 2 3 4 5 6 
#
# 1 61.4915 28.9058 37.7754 0.0000 0.0000 0.0000
# 2 28.9058 83.1307 32.9172 0.0000 0.0000 0.0000
# 3 37.7754 32.9172 95.8819 0.0000 0.0000 0.0000
# 4 0.0000 0.0000 0.0000 7.8051 0.0000 0.0000
# 5 0.0000 0.0000 0.0000 0.0000 21.2522 0.0000
# 6 0.0000 0.0000 0.0000 0.0000 0.0000 29.8442
#
#
#
# Elastic Compliance Matrix: (Units=1/GPa)
#
#
# Indices 1 2 3 4 5 6 
#
# 1 0.023217 -0.005151 -0.007378 0.000000 0.000000 0.000000
# 2 -0.005151 0.015065 -0.003142 0.000000 0.000000 0.000000
# 3 -0.007378 -0.003142 0.014415 0.000000 0.000000 0.000000
# 4 0.000000 0.000000 0.000000 0.128121 0.000000 0.000000
# 5 0.000000 0.000000 0.000000 0.000000 0.047054 0.000000
# 6 0.000000 0.000000 0.000000 0.000000 0.000000 0.033507
#
#
# Mechanical properties :
#
#
# Convention : Reuss Voigt Hill
#
# Bulk Modulus (GPa) = 46.83273 48.85566 47.84420
# Shear Modulus (GPa) = 16.67556 21.17402 18.92479
#
# Velocity S-wave (km/s) = 2.91060 3.27978 3.10069
# Velocity P-wave (km/s) = 5.92348 6.25799 6.09304
#
# Compressibility (1/GPa) = 0.02135259
#
# Stress axis : x y z
#
# Youngs Moduli (GPa) = 43.07280 66.38050 69.37107
#
# Poissons Ratio (x) = 0.34193 0.51185
# Poissons Ratio (y) = 0.22187 0.21799
# Poissons Ratio (z) = 0.31781 0.20859
#
# Static dielectric constant tensor:
#      x y z
#    x 3.541770 0.000000 0.000000 
#    y 0.000000 3.647400 0.000000 
#    z 0.000000 0.000000 3.787170 
# 
# 
# High freq. dielectric constant tensor:
#      x y z
#    x 1.760690 0.000000 0.000000 
#    y 0.000000 1.763370 0.000000 
#    z 0.000000 0.000000 1.757480 
# 
# From -- ./inp_files/21645.got.cif
#   From: 2010.03.12/outbox.cif.g09.slc.cpg/sg47_11_cif.got.tgz:21645.got - 2010.04.14 03:12:58.
