data_PCOD8197872
_publ_section_title
;
Structure prediction by ZEFSAII (Michael W. Deem and Ramdas Pophale) SiO2 
 PCOD8197872
Probable space group: P M M M
;
_chemical_formula_sum "Si O2"
_cell_formula_units_Z 64
_cell_length_a 8.883399
_cell_length_b 20.626033
_cell_length_c 19.453936
_cell_angle_alpha 90.000000
_cell_angle_beta 90.000000
_cell_angle_gamma 90.000000
_cell_volume 3564.530704
_symmetry_space_group_name_H-M "P M M M"
_symmetry_group_IT_number 47
_symmetry_cell_setting 'orthorhombic'
loop_
_space_group_symop_operation_xyz
x,y,z
-x,-y,z
x,-y,-z
-x,y,-z
-x,-y,-z
x,y,-z
-x,y,z
x,-y,z
loop_
_atom_site_type_symbol
_atom_site_label
_atom_site_fract_x
_atom_site_fract_y
_atom_site_fract_z
Si Si1 0.171323 0.249592 0.423946
Si Si2 0.827531 0.427128 0.292482
Si Si3 0.677516 0.313884 0.790360
Si Si4 0.174223 0.808498 0.282955
Si Si5 0.674827 0.383647 0.577779
Si Si6 0.675001 0.072872 0.213191
Si Si7 0.671464 0.858852 0.076344
Si Si8 0.824167 0.275279 0.077510
O O1 0.199727 0.219181 0.500000
O O2 0.201363 0.196307 0.365186
O O3 0.283738 0.308710 0.410838
O O4 0.000000 0.275752 0.418346
O O5 0.810185 0.500000 0.263268
O O6 0.727138 0.378354 0.248761
O O7 0.772231 0.427677 0.371339
O O8 0.000000 0.403977 0.289208
O O9 0.500000 0.309211 0.788995
O O10 0.741471 0.249078 0.756023
O O11 0.734909 0.320116 0.868807
O O12 0.233644 0.878460 0.261125
O O13 0.000000 0.802565 0.263635
O O14 0.711164 0.405509 0.500000
O O15 0.500000 0.392529 0.595042
O O16 0.500000 0.081231 0.230375
O O17 0.705795 0.086251 0.132469
O O18 0.729887 0.000000 0.228873
O O19 0.500000 0.833280 0.083656
O O20 0.782332 0.799390 0.090460
O O21 0.698517 0.888063 0.000000
O O22 0.000000 0.284056 0.090501
O O23 0.779445 0.296155 0.000000
#
# Coordination Sequence:
#
# PCOD8197872 Si02
#       8
#     8   8   8   8   8   8   8   8
#     4   9  18  33  54  79 107 139 178 227 277 325
#     4  11  24  40  57  79 110 149 190 230 275 327
#     4  12  23  36  58  84 112 145 182 227 276 327
#     4  11  21  34  56  82 108 141 183 228 276 330
#     4  10  20  33  52  80 113 148 185 225 270 323
#     4  10  21  35  51  75 109 148 187 228 276 328
#     4   9  17  30  49  74 106 144 183 221 265 318
#     4  10  20  34  55  83 113 143 179 225 272 320
#
# _framework density 17.954678000000001
#
# number of rings (size 3 to 8) (size 9 to 14) (size 15 to 20)
#    0.000    1.750    2.500    2.625    0.000    3.750 
#    0.000    2.500    0.000    0.750    0.000    7.875 
#    0.000    0.000    0.000    0.000    0.000    0.000 
#
# Total GULP energy -793611.996428 kJ/mol
# GULP energy per Si atom -12400.187444 kJ/mol
# Density = 1.791381 g / cm^3
# Si number density = 17.954678 Si / 1000 Ang^3
#
#
#
# Elastic Constant Matrix: (Units=GPa)
#
#
# Indices 1 2 3 4 5 6 
#
# 1 99.1944 44.1509 51.2491 0.0000 0.0000 0.0000
# 2 44.1509 89.1030 53.9066 0.0000 0.0000 0.0000
# 3 51.2491 53.9066 114.8899 0.0000 0.0000 0.0000
# 4 0.0000 0.0000 0.0000 23.2303 0.0000 0.0000
# 5 0.0000 0.0000 0.0000 0.0000 29.4770 0.0000
# 6 0.0000 0.0000 0.0000 0.0000 0.0000 26.1482
#
#
#
# Elastic Compliance Matrix: (Units=1/GPa)
#
#
# Indices 1 2 3 4 5 6 
#
# 1 0.014286 -0.004501 -0.004261 0.000000 0.000000 0.000000
# 2 -0.004501 0.017090 -0.006011 0.000000 0.000000 0.000000
# 3 -0.004261 -0.006011 0.013425 0.000000 0.000000 0.000000
# 4 0.000000 0.000000 0.000000 0.043047 0.000000 0.000000
# 5 0.000000 0.000000 0.000000 0.000000 0.033925 0.000000
# 6 0.000000 0.000000 0.000000 0.000000 0.000000 0.038244
#
#
# Mechanical properties :
#
#
# Convention : Reuss Voigt Hill
#
# Bulk Modulus (GPa) = 65.55000 66.86672 66.20836
# Shear Modulus (GPa) = 25.68768 26.02981 25.85874
#
# Velocity S-wave (km/s) = 3.78656 3.81169 3.79914
# Velocity P-wave (km/s) = 7.46359 7.52959 7.49667
#
# Compressibility (1/GPa) = 0.01525553
#
# Stress axis : x y z
#
# Youngs Moduli (GPa) = 69.99913 58.51472 74.48915
#
# Poissons Ratio (x) = 0.26338 0.31737
# Poissons Ratio (y) = 0.31507 0.44773
# Poissons Ratio (z) = 0.29824 0.35172
#
# Static dielectric constant tensor:
#      x y z
#    x 3.398770 0.000000 0.000000 
#    y 0.000000 3.025500 0.000000 
#    z 0.000000 0.000000 3.672690 
# 
# 
# High freq. dielectric constant tensor:
#      x y z
#    x 1.704390 0.000000 0.000000 
#    y 0.000000 1.659450 0.000000 
#    z 0.000000 0.000000 1.704730 
# 
# From -- ./inp_files/30021.got.cif
#   From: 2010.03.12/outbox.cif.g09.slc.cpg/sg47_16_cif.got.tgz:30021.got - 2010.04.14 03:12:58.
