data_PCOD8197646
_publ_section_title
;
Structure prediction by ZEFSAII (Michael W. Deem and Ramdas Pophale) SiO2 
 PCOD8197646
Probable space group: P M M M
;
_chemical_formula_sum "Si O2"
_cell_formula_units_Z 64
_cell_length_a 25.466644
_cell_length_b 14.700062
_cell_length_c 9.971961
_cell_angle_alpha 90.000000
_cell_angle_beta 90.000000
_cell_angle_gamma 90.000000
_cell_volume 3733.115742
_symmetry_space_group_name_H-M "P M M M"
_symmetry_group_IT_number 47
_symmetry_cell_setting 'orthorhombic'
loop_
_space_group_symop_operation_xyz
x,y,z
-x,-y,z
x,-y,-z
-x,y,-z
-x,-y,-z
x,y,-z
-x,y,z
x,-y,z
loop_
_atom_site_type_symbol
_atom_site_label
_atom_site_fract_x
_atom_site_fract_y
_atom_site_fract_z
Si Si1 0.145564 0.758827 0.160609
Si Si2 0.941546 0.101227 0.159102
Si Si3 0.643442 0.898155 0.840130
Si Si4 0.560501 0.751371 0.844984
Si Si5 0.605179 0.603590 0.350056
Si Si6 0.719626 0.600350 0.746836
Si Si7 0.833906 0.602752 0.649429
Si Si8 0.260344 0.788199 0.850365
O O1 0.100910 0.827270 0.213073
O O2 0.137442 0.663772 0.237851
O O3 0.201773 0.799621 0.209625
O O4 0.144108 0.741710 0.000000
O O5 0.000000 0.130090 0.207040
O O6 0.928205 0.000000 0.213342
O O7 0.939356 0.099965 0.000000
O O8 0.593426 0.838764 0.795164
O O9 0.696148 0.851379 0.777378
O O10 0.637954 0.000000 0.781575
O O11 0.646368 0.900461 0.000000
O O12 0.500000 0.776500 0.824166
O O13 0.575334 0.663877 0.758479
O O14 0.573058 0.728231 0.000000
O O15 0.588237 0.633024 0.500000
O O16 0.588134 0.500000 0.321720
O O17 0.668015 0.613343 0.342526
O O18 0.718944 0.500000 0.817571
O O19 0.770691 0.609210 0.653468
O O20 0.721716 0.682272 0.853894
O O21 0.851195 0.633355 0.500000
O O22 0.852417 0.500000 0.678167
O O23 0.257372 0.824427 0.000000
#
# Coordination Sequence:
#
# PCOD8197646 Si02
#       8
#     8   8   8   8   8   8   8   8
#     4   9  17  27  44  72  99 123 156 197 235 273
#     4   8  14  26  45  69  97 128 161 197 237 281
#     4   9  17  30  48  69  93 120 150 188 234 279
#     4  10  21  36  52  70  92 120 157 196 231 273
#     4  10  20  33  51  74  97 122 152 186 228 279
#     4   9  16  27  45  68  92 121 157 189 220 272
#     4   9  17  29  45  66  95 130 162 190 227 278
#     4   9  16  26  41  68 101 124 147 185 236 282
#
# _framework density 17.143854999999999
#
# number of rings (size 3 to 8) (size 9 to 14) (size 15 to 20)
#    0.000    2.875    1.250    0.750    0.000    3.500 
#    0.000    8.750    0.000    1.500    0.000    4.375 
#    0.000    0.000    0.000    0.000    0.000    0.000 
#
# Total GULP energy -793031.437311 kJ/mol
# GULP energy per Si atom -12391.116208 kJ/mol
# Density = 1.710484 g / cm^3
# Si number density = 17.143855 Si / 1000 Ang^3
#
#
#
# Elastic Constant Matrix: (Units=GPa)
#
#
# Indices 1 2 3 4 5 6 
#
# 1 106.7928 74.8915 30.3523 0.0000 0.0000 0.0000
# 2 74.8915 128.4944 40.2670 0.0000 0.0000 0.0000
# 3 30.3523 40.2670 47.4212 0.0000 0.0000 0.0000
# 4 0.0000 0.0000 0.0000 8.0216 0.0000 0.0000
# 5 0.0000 0.0000 0.0000 0.0000 11.5542 0.0000
# 6 0.0000 0.0000 0.0000 0.0000 0.0000 27.6484
#
#
#
# Elastic Compliance Matrix: (Units=1/GPa)
#
#
# Indices 1 2 3 4 5 6 
#
# 1 0.016186 -0.008431 -0.003201 0.000000 0.000000 0.000000
# 2 -0.008431 0.014995 -0.007337 0.000000 0.000000 0.000000
# 3 -0.003201 -0.007337 0.029367 0.000000 0.000000 0.000000
# 4 0.000000 0.000000 0.000000 0.124664 0.000000 0.000000
# 5 0.000000 0.000000 0.000000 0.000000 0.086549 0.000000
# 6 0.000000 0.000000 0.000000 0.000000 0.000000 0.036168
#
#
# Mechanical properties :
#
#
# Convention : Reuss Voigt Hill
#
# Bulk Modulus (GPa) = 44.22759 63.74776 53.98767
# Shear Modulus (GPa) = 14.14813 18.59134 16.36974
#
# Velocity S-wave (km/s) = 2.87585 3.29664 3.09341
# Velocity P-wave (km/s) = 6.07300 7.19411 6.65720
#
# Compressibility (1/GPa) = 0.02261032
#
# Stress axis : x y z
#
# Youngs Moduli (GPa) = 61.78180 66.68725 34.05221
#
# Poissons Ratio (x) = 0.56222 0.10901
# Poissons Ratio (y) = 0.52086 0.24984
# Poissons Ratio (z) = 0.19778 0.48928
#
# Static dielectric constant tensor:
#      x y z
#    x 3.286540 0.000000 0.000000 
#    y 0.000000 3.402170 0.000000 
#    z 0.000000 0.000000 2.795090 
# 
# 
# High freq. dielectric constant tensor:
#      x y z
#    x 1.655160 0.000000 0.000000 
#    y 0.000000 1.661300 0.000000 
#    z 0.000000 0.000000 1.615680 
# 
# From -- ./inp_files/19964.got.cif
#   From: 2010.03.12/outbox.cif.g09.slc.cpg/sg47_10_cif.got.tgz:19964.got - 2010.04.14 03:12:58.
