data_PCOD8197320
_publ_section_title
;
Structure prediction by ZEFSAII (Michael W. Deem and Ramdas Pophale) SiO2 
 PCOD8197320
Probable space group: P M M M
;
_chemical_formula_sum "Si O2"
_cell_formula_units_Z 48
_cell_length_a 20.853506
_cell_length_b 8.860070
_cell_length_c 14.512091
_cell_angle_alpha 90.000000
_cell_angle_beta 90.000000
_cell_angle_gamma 90.000000
_cell_volume 2681.305058
_symmetry_space_group_name_H-M "P M M M"
_symmetry_group_IT_number 47
_symmetry_cell_setting 'orthorhombic'
loop_
_space_group_symop_operation_xyz
x,y,z
-x,-y,z
x,-y,-z
-x,y,-z
-x,-y,-z
x,y,-z
-x,y,z
x,-y,z
loop_
_atom_site_type_symbol
_atom_site_label
_atom_site_fract_x
_atom_site_fract_y
_atom_site_fract_z
Si Si1 0.929316 0.320678 0.603264
Si Si2 0.190167 0.321460 0.282322
Si Si3 0.305691 0.178991 0.605259
Si Si4 0.570505 0.820395 0.712238
Si Si5 0.374184 0.820762 0.900214
Si Si6 0.227808 0.824300 0.103536
O O1 0.915395 0.261210 0.500000
O O2 0.927915 0.500000 0.603485
O O3 0.874407 0.257095 0.670325
O O4 0.000000 0.264591 0.635721
O O5 0.194479 0.500000 0.289948
O O6 0.251442 0.252158 0.332535
O O7 0.186403 0.271410 0.175929
O O8 0.297843 0.232377 0.500000
O O9 0.375343 0.235735 0.641010
O O10 0.300147 0.000000 0.614646
O O11 0.500000 0.762030 0.681154
O O12 0.584443 0.756197 0.815297
O O13 0.571191 0.000000 0.715507
O O14 0.300962 0.769636 0.887002
O O15 0.376771 0.000000 0.900795
O O16 0.399818 0.760978 0.000000
O O17 0.221642 0.000000 0.128003
O O18 0.202462 0.792486 0.000000
#
# Coordination Sequence:
#
# PCOD8197320 Si02
#       6
#     8   8   8   8   8   8
#     4   8  15  29  48  71 100 131 161 195 239 288
#     4  11  20  30  51  79 102 124 157 203 246 289
#     4  10  20  33  48  67  95 130 166 204 246 292
#     4   9  16  26  42  65  92 121 158 205 249 287
#     4   8  13  23  41  64  89 116 148 191 241 287
#     4   9  17  31  51  72  98 132 164 195 237 290
#
# _framework density 17.901729
#
# number of rings (size 3 to 8) (size 9 to 14) (size 15 to 20)
#    0.000    2.833    1.667    2.500    0.000    2.000 
#    0.000    3.333    0.000    3.000    0.000   10.500 
#    0.000    2.667    0.000    0.000    0.000    0.000 
#
# Total GULP energy -594862.111878 kJ/mol
# GULP energy per Si atom -12392.960664 kJ/mol
# Density = 1.786098 g / cm^3
# Si number density = 17.901729 Si / 1000 Ang^3
#
#
#
# Elastic Constant Matrix: (Units=GPa)
#
#
# Indices 1 2 3 4 5 6 
#
# 1 124.3950 18.9908 64.0413 0.0000 0.0000 0.0000
# 2 18.9908 18.1247 21.4818 0.0000 0.0000 0.0000
# 3 64.0413 21.4818 124.3549 0.0000 0.0000 0.0000
# 4 0.0000 0.0000 0.0000 20.3007 0.0000 0.0000
# 5 0.0000 0.0000 0.0000 0.0000 31.5108 0.0000
# 6 0.0000 0.0000 0.0000 0.0000 0.0000 17.4151
#
#
#
# Elastic Compliance Matrix: (Units=1/GPa)
#
#
# Indices 1 2 3 4 5 6 
#
# 1 0.011487 -0.006318 -0.004824 0.000000 0.000000 0.000000
# 2 -0.006318 0.072853 -0.009331 0.000000 0.000000 0.000000
# 3 -0.004824 -0.009331 0.012138 0.000000 0.000000 0.000000
# 4 0.000000 0.000000 0.000000 0.049259 0.000000 0.000000
# 5 0.000000 0.000000 0.000000 0.000000 0.031735 0.000000
# 6 0.000000 0.000000 0.000000 0.000000 0.000000 0.057421
#
#
# Mechanical properties :
#
#
# Convention : Reuss Voigt Hill
#
# Bulk Modulus (GPa) = 18.00812 52.87806 35.44309
# Shear Modulus (GPa) = 16.98649 24.66937 20.82793
#
# Velocity S-wave (km/s) = 3.08372 3.71623 3.41465
# Velocity P-wave (km/s) = 4.77079 6.92935 5.94879
#
# Compressibility (1/GPa) = 0.05553051
#
# Stress axis : x y z
#
# Youngs Moduli (GPa) = 87.05382 13.72627 82.38656
#
# Poissons Ratio (x) = 0.08673 0.39746
# Poissons Ratio (y) = 0.55002 0.76877
# Poissons Ratio (z) = 0.41997 0.12808
#
# Static dielectric constant tensor:
#      x y z
#    x 3.498790 0.000000 0.000000 
#    y 0.000000 2.792280 0.000000 
#    z 0.000000 0.000000 3.678750 
# 
# 
# High freq. dielectric constant tensor:
#      x y z
#    x 1.681920 0.000000 0.000000 
#    y 0.000000 1.636820 0.000000 
#    z 0.000000 0.000000 1.703900 
# 
# From -- ./inp_files/6767.got.cif
#   From: 2010.03.12/outbox.cif.g09.slc.cpg/sg47_4_cif.got.tgz:6767.got - 2010.04.14 03:12:58.
