data_PCOD8197121
_publ_section_title
;
Structure prediction by ZEFSAII (Michael W. Deem and Ramdas Pophale) SiO2 
 PCOD8197121
Probable space group: P M M M
;
_chemical_formula_sum "Si O2"
_cell_formula_units_Z 60
_cell_length_a 14.309462
_cell_length_b 14.531313
_cell_length_c 15.934285
_cell_angle_alpha 90.000000
_cell_angle_beta 90.000000
_cell_angle_gamma 90.000000
_cell_volume 3313.299873
_symmetry_space_group_name_H-M "P M M M"
_symmetry_group_IT_number 47
_symmetry_cell_setting 'orthorhombic'
loop_
_space_group_symop_operation_xyz
x,y,z
-x,-y,z
x,-y,-z
-x,y,-z
-x,-y,-z
x,y,-z
-x,y,z
x,-y,z
loop_
_atom_site_type_symbol
_atom_site_label
_atom_site_fract_x
_atom_site_fract_y
_atom_site_fract_z
Si Si1 0.611041 0.400504 0.094999
Si Si2 0.606211 0.218662 0.821360
Si Si3 0.389600 0.101537 0.500000
Si Si4 0.757434 0.103048 0.097004
Si Si5 0.763251 0.606867 0.594938
Si Si6 0.109504 0.732433 0.904664
Si Si7 0.393940 0.749971 0.628167
Si Si8 0.108097 0.606915 0.250168
O O1 0.500000 0.398873 0.100738
O O2 0.646414 0.500000 0.130459
O O3 0.652327 0.314839 0.146491
O O4 0.645156 0.389049 0.000000
O O5 0.500000 0.207599 0.853778
O O6 0.664606 0.132707 0.853880
O O7 0.611665 0.220552 0.723014
O O8 0.500000 0.088968 0.500000
O O9 0.356466 0.159772 0.419666
O O10 0.342281 0.000000 0.500000
O O11 0.843190 0.170324 0.117426
O O12 0.785681 0.000000 0.125098
O O13 0.730966 0.106242 0.000000
O O14 0.802749 0.623999 0.500000
O O15 0.739522 0.500000 0.607531
O O16 0.667191 0.661399 0.606803
O O17 0.837020 0.639705 0.665981
O O18 0.142347 0.658638 0.834613
O O19 0.000000 0.749474 0.898401
O O20 0.135930 0.699316 0.000000
O O21 0.500000 0.725219 0.601504
O O22 0.125157 0.500000 0.232474
O O23 0.000000 0.628278 0.268282
#
# Coordination Sequence:
#
# PCOD8197121 Si02
#       8
#     8   8   4   8   8   8   8   8
#     4   8  14  26  44  65  91 126 167 205 239 281
#     4  10  20  32  49  72 100 135 172 213 257 303
#     4   9  18  34  53  69  88 117 157 209 265 312
#     4  10  21  35  50  71 101 135 172 215 258 303
#     4  10  20  33  51  75 105 140 173 207 248 299
#     4   9  18  34  56  79 103 133 169 210 257 306
#     4  10  20  34  51  72  99 130 168 215 260 303
#     4   9  18  33  54  81 111 139 168 205 249 301
#
# _framework density 18.108834000000002
#
# number of rings (size 3 to 8) (size 9 to 14) (size 15 to 20)
#    0.000    2.600    0.667    1.600    0.000    3.200 
#    0.000    8.667    0.000    0.800    0.000    0.000 
#    0.000    0.533    0.000    0.000    0.000    0.000 
#
# Total GULP energy -743732.120552 kJ/mol
# GULP energy per Si atom -12395.535343 kJ/mol
# Density = 1.806762 g / cm^3
# Si number density = 18.108834 Si / 1000 Ang^3
#
#
#
# Elastic Constant Matrix: (Units=GPa)
#
#
# Indices 1 2 3 4 5 6 
#
# 1 59.0692 44.5184 45.4052 0.0000 0.0000 0.0000
# 2 44.5184 114.1811 63.6351 0.0000 0.0000 0.0000
# 3 45.4052 63.6351 110.9287 0.0000 0.0000 0.0000
# 4 0.0000 0.0000 0.0000 24.9232 0.0000 0.0000
# 5 0.0000 0.0000 0.0000 0.0000 76.7770 0.0000
# 6 0.0000 0.0000 0.0000 0.0000 0.0000 26.3616
#
#
#
# Elastic Compliance Matrix: (Units=1/GPa)
#
#
# Indices 1 2 3 4 5 6 
#
# 1 0.027707 -0.006589 -0.007561 0.000000 0.000000 0.000000
# 2 -0.006589 0.014441 -0.005587 0.000000 0.000000 0.000000
# 3 -0.007561 -0.005587 0.015315 0.000000 0.000000 0.000000
# 4 0.000000 0.000000 0.000000 0.040123 0.000000 0.000000
# 5 0.000000 0.000000 0.000000 0.000000 0.013025 0.000000
# 6 0.000000 0.000000 0.000000 0.000000 0.000000 0.037934
#
#
# Mechanical properties :
#
#
# Convention : Reuss Voigt Hill
#
# Bulk Modulus (GPa) = 55.59161 65.69959 60.64560
# Shear Modulus (GPa) = 25.77111 34.32039 30.04575
#
# Velocity S-wave (km/s) = 3.77652 4.35815 4.07772
# Velocity P-wave (km/s) = 7.05560 7.85390 7.46543
#
# Compressibility (1/GPa) = 0.01798833
#
# Stress axis : x y z
#
# Youngs Moduli (GPa) = 36.09158 69.24850 65.29583
#
# Poissons Ratio (x) = 0.45626 0.49373
# Poissons Ratio (y) = 0.23780 0.36482
# Poissons Ratio (z) = 0.27290 0.38690
#
# Static dielectric constant tensor:
#      x y z
#    x 3.211360 0.000000 0.000000 
#    y 0.000000 3.551030 0.000000 
#    z 0.000000 0.000000 3.506540 
# 
# 
# High freq. dielectric constant tensor:
#      x y z
#    x 1.682860 0.000000 0.000000 
#    y 0.000000 1.696420 0.000000 
#    z 0.000000 0.000000 1.706500 
# 
# From -- ./inp_files/23899.got.cif
#   From: 2010.03.12/outbox.cif.g09.slc.cpg/sg47_12_cif.got.tgz:23899.got - 2010.04.14 03:12:58.
