data_PCOD8197254
_publ_section_title
;
Structure prediction by ZEFSAII (Michael W. Deem and Ramdas Pophale) SiO2 
 PCOD8197254
Probable space group: P M M M
;
_chemical_formula_sum "Si O2"
_cell_formula_units_Z 56
_cell_length_a 20.229144
_cell_length_b 15.213105
_cell_length_c 9.234711
_cell_angle_alpha 90.000000
_cell_angle_beta 90.000000
_cell_angle_gamma 90.000000
_cell_volume 2841.964688
_symmetry_space_group_name_H-M "P M M M"
_symmetry_group_IT_number 47
_symmetry_cell_setting 'orthorhombic'
loop_
_space_group_symop_operation_xyz
x,y,z
-x,-y,z
x,-y,-z
-x,y,-z
-x,-y,-z
x,y,-z
-x,y,z
x,-y,z
loop_
_atom_site_type_symbol
_atom_site_label
_atom_site_fract_x
_atom_site_fract_y
_atom_site_fract_z
Si Si1 0.426475 0.761244 0.333799
Si Si2 0.925268 0.000000 0.171338
Si Si3 0.000000 0.401965 0.171110
Si Si4 0.181242 0.138370 0.832632
Si Si5 0.683203 0.099626 0.330491
Si Si6 0.622215 0.397570 0.170825
Si Si7 0.138319 0.335451 0.166909
Si Si8 0.252729 0.400530 0.657405
O O1 0.410307 0.736985 0.500000
O O2 0.500000 0.802652 0.320713
O O3 0.373559 0.833008 0.274811
O O4 0.428977 0.670270 0.242023
O O5 0.882467 0.916101 0.223018
O O6 0.000000 0.000000 0.239387
O O7 0.933444 0.000000 0.000000
O O8 0.063616 0.347272 0.222427
O O9 0.000000 0.500000 0.238945
O O10 0.000000 0.409739 0.000000
O O11 0.247224 0.117033 0.746052
O O12 0.162326 0.237920 0.806347
O O13 0.195232 0.116521 0.000000
O O14 0.694856 0.112570 0.500000
O O15 0.659889 0.000000 0.296097
O O16 0.605631 0.500000 0.208307
O O17 0.691976 0.362521 0.234928
O O18 0.623741 0.384555 0.000000
O O19 0.182186 0.397928 0.266004
O O20 0.145583 0.364348 0.000000
O O21 0.252649 0.351558 0.500000
O O22 0.271556 0.500000 0.628455
#
# Coordination Sequence:
#
# PCOD8197254 Si02
#       8
#     8   4   4   8   8   8   8   8
#     4  10  22  39  59  85 116 151 191 234 281 335
#     4   9  18  32  53  79 110 143 174 218 275 329
#     4   9  18  32  49  72 106 145 184 231 283 333
#     4  10  20  34  55  83 110 141 181 226 275 332
#     4  10  21  38  60  84 113 150 190 235 285 339
#     4  10  21  37  58  84 114 148 186 229 280 338
#     4  10  20  32  51  77 105 139 182 229 277 330
#     4  10  20  34  53  77 105 139 180 226 275 326
#
# _framework density 19.704677
#
# number of rings (size 3 to 8) (size 9 to 14) (size 15 to 20)
#    0.000    2.143    0.714    2.143    1.000    6.571 
#    0.000    3.214    0.000    2.143    0.000    2.000 
#    0.000    0.000    0.000    0.000    0.000    0.000 
#
# Total GULP energy -694105.734374 kJ/mol
# GULP energy per Si atom -12394.745257 kJ/mol
# Density = 1.965983 g / cm^3
# Si number density = 19.704677 Si / 1000 Ang^3
#
#
#
# Elastic Constant Matrix: (Units=GPa)
#
#
# Indices 1 2 3 4 5 6 
#
# 1 142.5824 51.8967 41.1031 0.0000 0.0000 0.0000
# 2 51.8967 97.1436 40.7345 0.0000 0.0000 0.0000
# 3 41.1031 40.7345 67.7561 0.0000 0.0000 0.0000
# 4 0.0000 0.0000 0.0000 11.0568 0.0000 0.0000
# 5 0.0000 0.0000 0.0000 0.0000 21.8822 0.0000
# 6 0.0000 0.0000 0.0000 0.0000 0.0000 31.3014
#
#
#
# Elastic Compliance Matrix: (Units=1/GPa)
#
#
# Indices 1 2 3 4 5 6 
#
# 1 0.009304 -0.003482 -0.003551 0.000000 0.000000 0.000000
# 2 -0.003482 0.015067 -0.006946 0.000000 0.000000 0.000000
# 3 -0.003551 -0.006946 0.021089 0.000000 0.000000 0.000000
# 4 0.000000 0.000000 0.000000 0.090442 0.000000 0.000000
# 5 0.000000 0.000000 0.000000 0.000000 0.045699 0.000000
# 6 0.000000 0.000000 0.000000 0.000000 0.000000 0.031947
#
#
# Mechanical properties :
#
#
# Convention : Reuss Voigt Hill
#
# Bulk Modulus (GPa) = 57.13467 63.88340 60.50903
# Shear Modulus (GPa) = 20.21505 24.43126 22.32316
#
# Velocity S-wave (km/s) = 3.20644 3.52500 3.36949
# Velocity P-wave (km/s) = 6.53963 7.00416 6.77588
#
# Compressibility (1/GPa) = 0.01750251
#
# Stress axis : x y z
#
# Youngs Moduli (GPa) = 107.47553 66.37234 47.41815
#
# Poissons Ratio (x) = 0.23108 0.16840
# Poissons Ratio (y) = 0.37418 0.32936
# Poissons Ratio (z) = 0.38168 0.46101
#
# Static dielectric constant tensor:
#      x y z
#    x 3.801760 0.000000 0.000000 
#    y 0.000000 3.656270 0.000000 
#    z 0.000000 0.000000 3.461430 
# 
# 
# High freq. dielectric constant tensor:
#      x y z
#    x 1.774360 0.000000 0.000000 
#    y 0.000000 1.769660 0.000000 
#    z 0.000000 0.000000 1.745150 
# 
# From -- ./inp_files/11305.got.cif
#   From: 2010.03.12/outbox.cif.g09.slc.cpg/sg47_6_cif.got.tgz:11305.got - 2010.04.14 03:12:58.
