data_PCOD8197302
_publ_section_title
;
Structure prediction by ZEFSAII (Michael W. Deem and Ramdas Pophale) SiO2 
 PCOD8197302
Probable space group: P M M M
;
_chemical_formula_sum "Si O2"
_cell_formula_units_Z 52
_cell_length_a 9.081095
_cell_length_b 27.304521
_cell_length_c 15.423991
_cell_angle_alpha 90.000000
_cell_angle_beta 90.000000
_cell_angle_gamma 90.000000
_cell_volume 3824.454904
_symmetry_space_group_name_H-M "P M M M"
_symmetry_group_IT_number 47
_symmetry_cell_setting 'orthorhombic'
loop_
_space_group_symop_operation_xyz
x,y,z
-x,-y,z
x,-y,-z
-x,y,-z
-x,-y,-z
x,y,-z
-x,y,z
x,-y,z
loop_
_atom_site_type_symbol
_atom_site_label
_atom_site_fract_x
_atom_site_fract_y
_atom_site_fract_z
Si Si1 0.324699 0.111781 0.669419
Si Si2 0.172387 0.942498 0.826808
Si Si3 0.333724 0.941964 0.000000
Si Si4 0.836931 0.687817 0.603044
Si Si5 0.834508 0.500000 0.396638
Si Si6 0.674615 0.945342 0.500000
Si Si7 0.335239 0.594843 0.396536
Si Si8 0.826494 0.203071 0.399908
O O1 0.500000 0.111177 0.679397
O O2 0.251730 0.086774 0.751410
O O3 0.268866 0.082390 0.585115
O O4 0.267234 0.167183 0.660867
O O5 0.000000 0.930155 0.828872
O O6 0.200085 0.000000 0.812281
O O7 0.245094 0.923797 0.915920
O O8 0.500000 0.920413 0.000000
O O9 0.340108 0.000000 0.000000
O O10 0.843043 0.685290 0.500000
O O11 0.731269 0.645568 0.640403
O O12 0.782310 0.741963 0.630050
O O13 0.000000 0.678188 0.640398
O O14 0.831419 0.500000 0.500000
O O15 0.755046 0.451495 0.360528
O O16 0.000000 0.500000 0.361085
O O17 0.500000 0.947295 0.500000
O O18 0.741368 0.000000 0.500000
O O19 0.331963 0.595144 0.500000
O O20 0.500000 0.590205 0.361021
O O21 0.782172 0.194633 0.500000
O O22 0.000000 0.194243 0.387110
#
# Coordination Sequence:
#
# PCOD8197302 Si02
#       8
#     8   8   4   8   4   4   8   8
#     4  11  20  30  44  61  81 105 132 162 194 230
#     4  10  20  33  48  66  86 106 127 153 187 229
#     4   9  17  31  51  71  87 103 123 149 183 224
#     4   8  14  24  36  47  60  83 113 143 179 222
#     4   9  15  21  29  39  55  79 103 129 167 220
#     4   9  18  30  41  55  77 103 129 158 191 226
#     4   9  15  21  29  43  60  77 100 136 177 216
#     4   9  17  29  42  54  72  97 125 159 194 229
#
# _framework density 13.596709000000001
#
# number of rings (size 3 to 8) (size 9 to 14) (size 15 to 20)
#    0.000    2.692    0.769    3.231    0.000    5.846 
#    0.000    1.538    0.000    1.846    0.000    0.000 
#    0.000    0.000    0.000    0.000    0.000    0.000 
#
# Total GULP energy -644654.512945 kJ/mol
# GULP energy per Si atom -12397.202172 kJ/mol
# Density = 1.356576 g / cm^3
# Si number density = 13.596709 Si / 1000 Ang^3
#
#
#
# Elastic Constant Matrix: (Units=GPa)
#
#
# Indices 1 2 3 4 5 6 
#
# 1 101.9051 60.5274 37.6970 0.0000 0.0000 0.0000
# 2 60.5274 108.6133 35.4186 0.0000 0.0000 0.0000
# 3 37.6970 35.4186 65.1019 0.0000 0.0000 0.0000
# 4 0.0000 0.0000 0.0000 2.1105 0.0000 0.0000
# 5 0.0000 0.0000 0.0000 0.0000 16.2542 0.0000
# 6 0.0000 0.0000 0.0000 0.0000 0.0000 23.3038
#
#
#
# Elastic Compliance Matrix: (Units=1/GPa)
#
#
# Indices 1 2 3 4 5 6 
#
# 1 0.016090 -0.007207 -0.005396 0.000000 0.000000 0.000000
# 2 -0.007207 0.014421 -0.003673 0.000000 0.000000 0.000000
# 3 -0.005396 -0.003673 0.020483 0.000000 0.000000 0.000000
# 4 0.000000 0.000000 0.000000 0.473825 0.000000 0.000000
# 5 0.000000 0.000000 0.000000 0.000000 0.061523 0.000000
# 6 0.000000 0.000000 0.000000 0.000000 0.000000 0.042912
#
#
# Mechanical properties :
#
#
# Convention : Reuss Voigt Hill
#
# Bulk Modulus (GPa) = 54.22070 60.32290 57.27180
# Shear Modulus (GPa) = 7.48558 17.79884 12.64221
#
# Velocity S-wave (km/s) = 2.34891 3.62201 3.05257
# Velocity P-wave (km/s) = 6.87902 7.87109 7.39172
#
# Compressibility (1/GPa) = 0.01844314
#
# Stress axis : x y z
#
# Youngs Moduli (GPa) = 62.15199 69.34467 48.82109
#
# Poissons Ratio (x) = 0.49975 0.26343
# Poissons Ratio (y) = 0.44791 0.17930
# Poissons Ratio (z) = 0.33536 0.25467
#
# Static dielectric constant tensor:
#      x y z
#    x 2.818110 0.000000 0.000000 
#    y 0.000000 2.807700 0.000000 
#    z 0.000000 0.000000 2.307140 
# 
# 
# High freq. dielectric constant tensor:
#      x y z
#    x 1.529430 0.000000 0.000000 
#    y 0.000000 1.517140 0.000000 
#    z 0.000000 0.000000 1.452540 
# 
# From -- ./inp_files/22042.got.cif
#   From: 2010.03.12/outbox.cif.g09.slc.cpg/sg47_12_cif.got.tgz:22042.got - 2010.04.14 03:12:58.
