data_PCOD8197324
_publ_section_title
;
Structure prediction by ZEFSAII (Michael W. Deem and Ramdas Pophale) SiO2 
 PCOD8197324
Probable space group: P M M M
;
_chemical_formula_sum "Si O2"
_cell_formula_units_Z 48
_cell_length_a 32.735746
_cell_length_b 8.343471
_cell_length_c 9.627969
_cell_angle_alpha 90.000000
_cell_angle_beta 90.000000
_cell_angle_gamma 90.000000
_cell_volume 2629.684741
_symmetry_space_group_name_H-M "P M M M"
_symmetry_group_IT_number 47
_symmetry_cell_setting 'orthorhombic'
loop_
_space_group_symop_operation_xyz
x,y,z
-x,-y,z
x,-y,-z
-x,y,-z
-x,-y,-z
x,y,-z
-x,y,z
x,-y,z
loop_
_atom_site_type_symbol
_atom_site_label
_atom_site_fract_x
_atom_site_fract_y
_atom_site_fract_z
Si Si1 0.154452 0.685979 0.841877
Si Si2 0.592568 0.820076 0.164875
Si Si3 0.453214 0.500000 0.164827
Si Si4 0.000000 0.682758 0.663390
Si Si5 0.676710 0.679130 0.834944
Si Si6 0.916182 0.186065 0.346346
Si Si7 0.760464 0.179702 0.834997
O O1 0.145258 0.500000 0.831472
O O2 0.122019 0.777001 0.749396
O O3 0.200008 0.721053 0.785334
O O4 0.150407 0.748155 0.000000
O O5 0.566467 0.667364 0.223257
O O6 0.639461 0.793009 0.211970
O O7 0.578926 0.000000 0.218678
O O8 0.588633 0.819509 0.000000
O O9 0.500000 0.500000 0.212120
O O10 0.447946 0.500000 0.000000
O O11 0.958335 0.756035 0.726160
O O12 0.000000 0.500000 0.704809
O O13 0.000000 0.717157 0.500000
O O14 0.668661 0.500000 0.778881
O O15 0.719296 0.743326 0.771415
O O16 0.679439 0.676763 0.000000
O O17 0.910475 0.265969 0.500000
O O18 0.919591 0.000000 0.365808
O O19 0.764763 0.000000 0.778185
O O20 0.757259 0.182477 0.000000
#
# Coordination Sequence:
#
# PCOD8197324 Si02
#       7
#     8   8   4   4   8   8   8
#     4  10  20  33  48  68  95 125 154 186 228 276
#     4   9  15  22  31  42  56  77 108 148 196 248
#     4   9  16  24  30  38  54  76 106 148 199 252
#     4   9  17  31  52  75  96 119 150 188 226 265
#     4   9  14  21  33  48  67  90 119 157 199 246
#     4  10  20  34  53  75  97 122 153 189 228 270
#     4   9  16  25  38  57  80 107 137 168 208 260
#
# _framework density 18.253138
#
# number of rings (size 3 to 8) (size 9 to 14) (size 15 to 20)
#    0.000    2.667    0.833    2.250    0.000    7.333 
#    0.000    2.083    0.000    2.500    0.000    0.000 
#    0.000    0.000    0.000    0.000    0.000    0.000 
#
# Total GULP energy -594802.816815 kJ/mol
# GULP energy per Si atom -12391.725350 kJ/mol
# Density = 1.821159 g / cm^3
# Si number density = 18.253138 Si / 1000 Ang^3
#
#
#
# Elastic Constant Matrix: (Units=GPa)
#
#
# Indices 1 2 3 4 5 6 
#
# 1 143.7430 55.1473 20.6642 0.0000 0.0000 0.0000
# 2 55.1473 118.3672 12.8149 0.0000 0.0000 0.0000
# 3 20.6642 12.8149 16.2089 0.0000 0.0000 0.0000
# 4 0.0000 0.0000 0.0000 10.3898 0.0000 0.0000
# 5 0.0000 0.0000 0.0000 0.0000 -3.4173 0.0000
# 6 0.0000 0.0000 0.0000 0.0000 0.0000 34.2907
#
#
#
# Elastic Compliance Matrix: (Units=1/GPa)
#
#
# Indices 1 2 3 4 5 6 
#
# 1 0.009663 -0.003465 -0.009580 0.000000 0.000000 0.000000
# 2 -0.003465 0.010482 -0.003869 0.000000 0.000000 0.000000
# 3 -0.009580 -0.003869 0.076967 0.000000 0.000000 0.000000
# 4 0.000000 0.000000 0.000000 0.096248 0.000000 0.000000
# 5 0.000000 0.000000 0.000000 0.000000 -0.292627 0.000000
# 6 0.000000 0.000000 0.000000 0.000000 0.000000 0.029162
#
#
# Mechanical properties :
#
#
# Convention : Reuss Voigt Hill
#
# Bulk Modulus (GPa) = 15.80200 50.61910 33.21055
# Shear Modulus (GPa) = -329.34704 20.89882 -154.22411
#
# Velocity S-wave (km/s) = -13.44711 3.38737 -9.20192
# Velocity P-wave (km/s) = 15.24545 6.56437 9.72967
#
# Compressibility (1/GPa) = 0.06328311
#
# Stress axis : x y z
#
# Youngs Moduli (GPa) = 103.48283 95.40566 12.99255
#
# Poissons Ratio (x) = 0.33058 0.12447
# Poissons Ratio (y) = 0.35857 0.05027
# Poissons Ratio (z) = 0.99138 0.36916
#
# Static dielectric constant tensor:
#      x y z
#    x 3.560360 0.000000 0.000000 
#    y 0.000000 3.624000 0.000000 
#    z 0.000000 0.000000 2.614000 
# 
# 
# High freq. dielectric constant tensor:
#      x y z
#    x 1.722650 0.000000 0.000000 
#    y 0.000000 1.726660 0.000000 
#    z 0.000000 0.000000 1.608060 
# 
# From -- ./inp_files/13884.got.cif
#   From: 2010.03.12/outbox.cif.g09.slc.cpg/sg47_7_cif.got.tgz:13884.got - 2010.04.14 03:12:58.
