data_PCOD8197313
_publ_section_title
;
Structure prediction by ZEFSAII (Michael W. Deem and Ramdas Pophale) SiO2 
 PCOD8197313
Probable space group: P M M M
;
_chemical_formula_sum "Si O2"
_cell_formula_units_Z 56
_cell_length_a 15.401169
_cell_length_b 9.120412
_cell_length_c 29.743591
_cell_angle_alpha 90.000000
_cell_angle_beta 90.000000
_cell_angle_gamma 90.000000
_cell_volume 4177.933705
_symmetry_space_group_name_H-M "P M M M"
_symmetry_group_IT_number 47
_symmetry_cell_setting 'orthorhombic'
loop_
_space_group_symop_operation_xyz
x,y,z
-x,-y,z
x,-y,-z
-x,y,-z
-x,-y,-z
x,y,-z
-x,y,z
x,-y,z
loop_
_atom_site_type_symbol
_atom_site_label
_atom_site_fract_x
_atom_site_fract_y
_atom_site_fract_z
Si Si1 0.163481 0.827921 0.905618
Si Si2 0.896546 0.665150 0.278474
Si Si3 0.500000 0.834218 0.946715
Si Si4 0.103671 0.835463 0.634907
Si Si5 0.327224 0.329008 0.053006
Si Si6 0.000000 0.333070 0.946812
Si Si7 0.098992 0.831795 0.191599
Si Si8 0.896776 0.335161 0.450589
O O1 0.251309 0.753190 0.921243
O O2 0.156513 0.802838 0.852256
O O3 0.084366 0.751759 0.930605
O O4 0.163190 0.000000 0.917678
O O5 0.861995 0.500000 0.280284
O O6 0.859544 0.748147 0.322145
O O7 0.861701 0.738615 0.232719
O O8 0.000000 0.672668 0.278716
O O9 0.415987 0.745418 0.930029
O O10 0.500000 0.000000 0.926977
O O11 0.500000 0.840935 0.000000
O O12 0.141584 0.766057 0.588918
O O13 0.000000 0.830776 0.634558
O O14 0.138751 0.000000 0.638056
O O15 0.328460 0.500000 0.065872
O O16 0.313618 0.307870 0.000000
O O17 0.000000 0.500000 0.928130
O O18 0.000000 0.335305 0.000000
O O19 0.000000 0.785395 0.180369
O O20 0.102094 0.000000 0.206712
O O21 0.866963 0.277582 0.500000
O O22 0.862487 0.500000 0.443064
O O23 0.000000 0.334509 0.448163
#
# Coordination Sequence:
#
# PCOD8197313 Si02
#       8
#     8   8   4   8   8   4   8   8
#     4  11  21  33  47  63  81 105 133 160 189 225
#     4   9  16  24  35  49  61  78 106 138 172 210
#     4   9  17  31  51  71  87 105 129 155 183 219
#     4   9  15  21  29  41  56  74  96 126 163 202
#     4  10  20  33  48  67  89 109 128 154 188 223
#     4  11  23  35  45  59  81 107 133 161 190 221
#     4   9  17  30  42  53  71  93 119 151 186 218
#     4   8  13  20  28  37  51  71  93 120 156 199
#
# _framework density 13.403755
#
# number of rings (size 3 to 8) (size 9 to 14) (size 15 to 20)
#    0.000    2.571    0.714    3.000    0.000    8.857 
#    0.000    1.429    0.000    0.000    0.000    0.000 
#    0.000    0.000    0.000    0.000    0.000    0.000 
#
# Total GULP energy -694257.057285 kJ/mol
# GULP energy per Si atom -12397.447452 kJ/mol
# Density = 1.337325 g / cm^3
# Si number density = 13.403755 Si / 1000 Ang^3
#
#
#
# Elastic Constant Matrix: (Units=GPa)
#
#
# Indices 1 2 3 4 5 6 
#
# 1 61.4128 40.1677 30.5357 0.0000 0.0000 0.0000
# 2 40.1677 123.3672 64.8194 0.0000 0.0000 0.0000
# 3 30.5357 64.8194 91.0366 0.0000 0.0000 0.0000
# 4 0.0000 0.0000 0.0000 27.2187 0.0000 0.0000
# 5 0.0000 0.0000 0.0000 0.0000 2.6449 0.0000
# 6 0.0000 0.0000 0.0000 0.0000 0.0000 15.7452
#
#
#
# Elastic Compliance Matrix: (Units=1/GPa)
#
#
# Indices 1 2 3 4 5 6 
#
# 1 0.021380 -0.005102 -0.003539 0.000000 0.000000 0.000000
# 2 -0.005102 0.014168 -0.008377 0.000000 0.000000 0.000000
# 3 -0.003539 -0.008377 0.018136 0.000000 0.000000 0.000000
# 4 0.000000 0.000000 0.000000 0.036739 0.000000 0.000000
# 5 0.000000 0.000000 0.000000 0.000000 0.378081 0.000000
# 6 0.000000 0.000000 0.000000 0.000000 0.000000 0.063511
#
#
# Mechanical properties :
#
#
# Convention : Reuss Voigt Hill
#
# Bulk Modulus (GPa) = 50.89214 60.76245 55.82730
# Shear Modulus (GPa) = 8.73210 18.47469 13.60340
#
# Velocity S-wave (km/s) = 2.55515 3.71660 3.18920
# Velocity P-wave (km/s) = 6.83784 7.99052 7.43655
#
# Compressibility (1/GPa) = 0.01964940
#
# Stress axis : x y z
#
# Youngs Moduli (GPa) = 46.77348 70.57999 55.13918
#
# Poissons Ratio (x) = 0.36009 0.19512
# Poissons Ratio (y) = 0.23863 0.46189
# Poissons Ratio (z) = 0.16551 0.59123
#
# Static dielectric constant tensor:
#      x y z
#    x 2.371650 0.000000 0.000000 
#    y 0.000000 2.913590 0.000000 
#    z 0.000000 0.000000 2.789230 
# 
# 
# High freq. dielectric constant tensor:
#      x y z
#    x 1.438790 0.000000 0.000000 
#    y 0.000000 1.530130 0.000000 
#    z 0.000000 0.000000 1.509910 
# 
# From -- ./inp_files/34644.got.cif
#   From: 2010.03.12/outbox.cif.g09.slc.cpg/sg47_18_cif.got.tgz:34644.got - 2010.04.14 03:12:58.
