data_PCOD8197117
_publ_section_title
;
Structure prediction by ZEFSAII (Michael W. Deem and Ramdas Pophale) SiO2 
 PCOD8197117
Probable space group: P M M M
;
_chemical_formula_sum "Si O2"
_cell_formula_units_Z 36
_cell_length_a 21.100855
_cell_length_b 7.655783
_cell_length_c 13.313721
_cell_angle_alpha 90.000000
_cell_angle_beta 90.000000
_cell_angle_gamma 90.000000
_cell_volume 2150.745980
_symmetry_space_group_name_H-M "P M M M"
_symmetry_group_IT_number 47
_symmetry_cell_setting 'orthorhombic'
loop_
_space_group_symop_operation_xyz
x,y,z
-x,-y,z
x,-y,-z
-x,y,-z
-x,-y,-z
x,y,-z
-x,y,z
x,-y,z
loop_
_atom_site_type_symbol
_atom_site_label
_atom_site_fract_x
_atom_site_fract_y
_atom_site_fract_z
Si Si1 0.000000 0.296411 0.388339
Si Si2 0.348269 0.500000 0.612895
Si Si3 0.658200 0.198491 0.113450
Si Si4 0.425525 0.500000 0.193928
Si Si5 0.263666 0.796653 0.302842
Si Si6 0.866409 0.798314 0.388461
O O1 0.065443 0.237041 0.334443
O O2 0.000000 0.500000 0.394616
O O3 0.000000 0.211060 0.500000
O O4 0.375029 0.500000 0.500000
O O5 0.407491 0.500000 0.688616
O O6 0.307533 0.324018 0.627889
O O7 0.600916 0.327048 0.140137
O O8 0.718235 0.233815 0.186169
O O9 0.633301 0.000000 0.126724
O O10 0.681598 0.232636 0.000000
O O11 0.500000 0.500000 0.181445
O O12 0.191182 0.731162 0.318766
O O13 0.273466 0.000000 0.333533
O O14 0.864409 0.708571 0.500000
O O15 0.856093 0.000000 0.403359
#
# Coordination Sequence:
#
# PCOD8197117 Si02
#       6
#     4   4   8   4   8   8
#     4   9  17  25  35  55  84 117 150 186 222 262
#     4  10  20  32  49  69  92 124 157 189 224 266
#     4   9  18  33  52  73  96 120 149 189 235 278
#     4  10  21  35  50  71  98 124 152 186 223 270
#     4   9  18  31  47  69  94 120 154 194 233 273
#     4   9  16  26  40  58  84 118 151 184 224 269
#
# _framework density 16.738377
#
# number of rings (size 3 to 8) (size 9 to 14) (size 15 to 20)
#    0.000    2.778    0.000    1.333    1.556    4.222 
#    0.000    1.111    0.000    0.000    0.000    7.000 
#    0.000    6.222    0.000    0.000    0.000    0.000 
#
# Total GULP energy -446093.871539 kJ/mol
# GULP energy per Si atom -12391.496432 kJ/mol
# Density = 1.670028 g / cm^3
# Si number density = 16.738377 Si / 1000 Ang^3
#
#
#
# Elastic Constant Matrix: (Units=GPa)
#
#
# Indices 1 2 3 4 5 6 
#
# 1 138.7419 34.6004 52.6857 0.0000 0.0000 0.0000
# 2 34.6004 66.5602 33.2613 0.0000 0.0000 0.0000
# 3 52.6857 33.2613 102.7903 0.0000 0.0000 0.0000
# 4 0.0000 0.0000 0.0000 16.0609 0.0000 0.0000
# 5 0.0000 0.0000 0.0000 0.0000 18.0467 0.0000
# 6 0.0000 0.0000 0.0000 0.0000 0.0000 21.0858
#
#
#
# Elastic Compliance Matrix: (Units=1/GPa)
#
#
# Indices 1 2 3 4 5 6 
#
# 1 0.009415 -0.002962 -0.003867 0.000000 0.000000 0.000000
# 2 -0.002962 0.018854 -0.004583 0.000000 0.000000 0.000000
# 3 -0.003867 -0.004583 0.013194 0.000000 0.000000 0.000000
# 4 0.000000 0.000000 0.000000 0.062263 0.000000 0.000000
# 5 0.000000 0.000000 0.000000 0.000000 0.055412 0.000000
# 6 0.000000 0.000000 0.000000 0.000000 0.000000 0.047425
#
#
# Mechanical properties :
#
#
# Convention : Reuss Voigt Hill
#
# Bulk Modulus (GPa) = 53.65151 61.02079 57.33615
# Shear Modulus (GPa) = 21.22258 23.54168 22.38213
#
# Velocity S-wave (km/s) = 3.56462 3.75433 3.66071
# Velocity P-wave (km/s) = 7.00461 7.43829 7.22471
#
# Compressibility (1/GPa) = 0.01863880
#
# Stress axis : x y z
#
# Youngs Moduli (GPa) = 106.21616 53.04024 75.79410
#
# Poissons Ratio (x) = 0.15708 0.29312
# Poissons Ratio (y) = 0.31457 0.34735
# Poissons Ratio (z) = 0.41077 0.24307
#
# Static dielectric constant tensor:
#      x y z
#    x 3.487350 0.000000 0.000000 
#    y 0.000000 3.258500 0.000000 
#    z 0.000000 0.000000 3.156030 
# 
# 
# High freq. dielectric constant tensor:
#      x y z
#    x 1.635430 0.000000 0.000000 
#    y 0.000000 1.659720 0.000000 
#    z 0.000000 0.000000 1.611100 
# 
# From -- ./inp_files/18880.got.cif
#   From: 2010.03.12/outbox.cif.g09.slc.cpg/sg47_10_cif.got.tgz:18880.got - 2010.04.14 03:12:58.
