data_PCOD8197809
_publ_section_title
;
Structure prediction by ZEFSAII (Michael W. Deem and Ramdas Pophale) SiO2 
 PCOD8197809
Probable space group: P M M M
;
_chemical_formula_sum "Si O2"
_cell_formula_units_Z 56
_cell_length_a 15.954620
_cell_length_b 8.200304
_cell_length_c 20.089446
_cell_angle_alpha 90.000000
_cell_angle_beta 90.000000
_cell_angle_gamma 90.000000
_cell_volume 2628.357149
_symmetry_space_group_name_H-M "P M M M"
_symmetry_group_IT_number 47
_symmetry_cell_setting 'orthorhombic'
loop_
_space_group_symop_operation_xyz
x,y,z
-x,-y,z
x,-y,-z
-x,y,-z
-x,-y,-z
x,y,-z
-x,y,z
x,-y,z
loop_
_atom_site_type_symbol
_atom_site_label
_atom_site_fract_x
_atom_site_fract_y
_atom_site_fract_z
Si Si1 0.592033 0.686053 0.896665
Si Si2 0.904841 0.693996 0.185010
Si Si3 0.593701 0.182326 0.243700
Si Si4 0.000000 0.807988 0.578562
Si Si5 0.595396 0.194766 0.500000
Si Si6 0.774319 0.307825 0.926321
Si Si7 0.853885 0.310893 0.332854
Si Si8 0.318093 0.812025 0.369666
O O1 0.500000 0.765964 0.917917
O O2 0.588404 0.500000 0.919932
O O3 0.601037 0.696181 0.817735
O O4 0.678526 0.766492 0.924611
O O5 0.905326 0.500000 0.182533
O O6 0.838518 0.763809 0.129659
O O7 0.878052 0.754048 0.258828
O O8 0.000000 0.757165 0.169984
O O9 0.500000 0.168110 0.270251
O O10 0.645611 0.267987 0.302520
O O11 0.626595 0.000000 0.224159
O O12 0.923997 0.717279 0.612974
O O13 0.000000 0.773658 0.500000
O O14 0.000000 0.000000 0.594018
O O15 0.500000 0.255322 0.500000
O O16 0.642724 0.269072 0.435677
O O17 0.601740 0.000000 0.500000
O O18 0.766613 0.500000 0.913780
O O19 0.811118 0.269501 0.000000
O O20 0.829903 0.500000 0.328274
O O21 0.780511 0.207317 0.365924
O O22 0.344753 0.000000 0.369317
#
# Coordination Sequence:
#
# PCOD8197809 Si02
#       8
#     8   8   8   4   4   8   8   8
#     4   9  17  29  46  70 101 134 169 215 275 335
#     4   9  17  31  50  73 104 139 177 220 267 321
#     4   9  17  30  49  73 101 135 179 228 271 317
#     4  11  25  43  63  85 112 141 176 226 275 319
#     4   9  18  34  55  76 103 142 183 223 268 315
#     4   9  17  28  45  72 104 138 177 221 269 322
#     4  11  22  38  59  83 113 147 180 217 272 335
#     4  10  20  33  52  78 106 137 180 227 270 317
#
# _framework density 21.306084999999999
#
# number of rings (size 3 to 8) (size 9 to 14) (size 15 to 20)
#    0.000    2.429    0.714    1.929    1.000    4.571 
#    0.000    2.857    0.000    2.143    0.000    2.000 
#    0.000    0.571    0.000    0.000    0.000    0.000 
#
# Total GULP energy -693751.196587 kJ/mol
# GULP energy per Si atom -12388.414225 kJ/mol
# Density = 2.125759 g / cm^3
# Si number density = 21.306085 Si / 1000 Ang^3
#
#
#
# Elastic Constant Matrix: (Units=GPa)
#
#
# Indices 1 2 3 4 5 6 
#
# 1 156.2941 -1.8651 74.0032 0.0000 0.0000 0.0000
# 2 -1.8651 14.0083 5.3796 0.0000 0.0000 0.0000
# 3 74.0032 5.3796 148.6746 0.0000 0.0000 0.0000
# 4 0.0000 0.0000 0.0000 9.0547 0.0000 0.0000
# 5 0.0000 0.0000 0.0000 0.0000 65.4294 0.0000
# 6 0.0000 0.0000 0.0000 0.0000 0.0000 9.3465
#
#
#
# Elastic Compliance Matrix: (Units=1/GPa)
#
#
# Indices 1 2 3 4 5 6 
#
# 1 0.008477 0.002788 -0.004320 0.000000 0.000000 0.000000
# 2 0.002788 0.073309 -0.004040 0.000000 0.000000 0.000000
# 3 -0.004320 -0.004040 0.009023 0.000000 0.000000 0.000000
# 4 0.000000 0.000000 0.000000 0.110440 0.000000 0.000000
# 5 0.000000 0.000000 0.000000 0.000000 0.015284 0.000000
# 6 0.000000 0.000000 0.000000 0.000000 0.000000 0.106992
#
#
# Mechanical properties :
#
#
# Convention : Reuss Voigt Hill
#
# Bulk Modulus (GPa) = 12.55279 52.66803 32.61041
# Shear Modulus (GPa) = 13.84181 32.86341 23.35261
#
# Velocity S-wave (km/s) = 2.55162 3.93165 3.31426
# Velocity P-wave (km/s) = 3.81909 6.73676 5.47583
#
# Compressibility (1/GPa) = 0.07966356
#
# Stress axis : x y z
#
# Youngs Moduli (GPa) = 117.96473 13.64085 110.83071
#
# Poissons Ratio (x) = -0.03803 0.47883
# Poissons Ratio (y) = -0.32887 0.44778
# Poissons Ratio (z) = 0.50965 0.05511
#
# Static dielectric constant tensor:
#      x y z
#    x 3.958850 0.000000 0.000000 
#    y 0.000000 3.273510 0.000000 
#    z 0.000000 0.000000 3.992160 
# 
# 
# High freq. dielectric constant tensor:
#      x y z
#    x 1.848780 0.000000 0.000000 
#    y 0.000000 1.775740 0.000000 
#    z 0.000000 0.000000 1.843510 
# 
# From -- ./inp_files/30999.got.cif
#   From: 2010.03.12/outbox.cif.g09.slc.cpg/sg47_16_cif.got.tgz:30999.got - 2010.04.14 03:12:58.
