data_PCOD8197821
_publ_section_title
;
Structure prediction by ZEFSAII (Michael W. Deem and Ramdas Pophale) SiO2 
 PCOD8197821
Probable space group: P M M M
;
_chemical_formula_sum "Si O2"
_cell_formula_units_Z 36
_cell_length_a 7.765625
_cell_length_b 9.949674
_cell_length_c 24.618294
_cell_angle_alpha 90.000000
_cell_angle_beta 90.000000
_cell_angle_gamma 90.000000
_cell_volume 1902.143248
_symmetry_space_group_name_H-M "P M M M"
_symmetry_group_IT_number 47
_symmetry_cell_setting 'orthorhombic'
loop_
_space_group_symop_operation_xyz
x,y,z
-x,-y,z
x,-y,-z
-x,y,-z
-x,-y,-z
x,y,-z
-x,y,z
x,-y,z
loop_
_atom_site_type_symbol
_atom_site_label
_atom_site_fract_x
_atom_site_fract_y
_atom_site_fract_z
Si Si1 0.795107 0.849737 0.560315
Si Si2 0.798356 0.345203 0.771554
Si Si3 0.795053 0.648870 0.649586
Si Si4 0.692284 0.846028 0.864087
Si Si5 0.000000 0.840844 0.939609
O O1 0.735333 0.804109 0.500000
O O2 0.714675 0.751138 0.605596
O O3 0.000000 0.847085 0.563345
O O4 0.727763 0.000000 0.572247
O O5 0.754266 0.500000 0.785505
O O6 0.737256 0.310954 0.710337
O O7 0.696777 0.245780 0.810807
O O8 0.000000 0.318409 0.778473
O O9 0.726380 0.500000 0.635521
O O10 0.000000 0.649577 0.647085
O O11 0.500000 0.837003 0.889099
O O12 0.828741 0.791543 0.908281
O O13 0.736423 0.000000 0.847851
O O14 0.000000 0.000000 0.944290
O O15 0.000000 0.776972 0.000000
#
# Coordination Sequence:
#
# PCOD8197821 Si02
#       5
#     8   8   8   8   4
#     4   8  13  20  29  45  74 112 153 197 246 298
#     4   9  17  30  48  69  96 131 169 210 258 309
#     4   8  14  23  35  54  79 111 155 201 245 296
#     4  10  20  33  52  79 106 134 172 212 251 301
#     4   9  18  34  55  79 109 141 170 207 254 295
#
# _framework density 18.926019
#
# number of rings (size 3 to 8) (size 9 to 14) (size 15 to 20)
#    0.000    3.222    1.111    2.000    0.000    2.222 
#    0.000    6.667    0.000    1.333    0.000    1.556 
#    0.000    0.889    0.000    9.778    0.000   16.000 
#
# Total GULP energy -446196.156949 kJ/mol
# GULP energy per Si atom -12394.337693 kJ/mol
# Density = 1.888294 g / cm^3
# Si number density = 18.926019 Si / 1000 Ang^3
#
#
#
# Elastic Constant Matrix: (Units=GPa)
#
#
# Indices 1 2 3 4 5 6 
#
# 1 66.2568 27.1093 40.8273 0.0000 0.0000 0.0000
# 2 27.1093 86.0028 79.8021 0.0000 0.0000 0.0000
# 3 40.8273 79.8021 156.2973 0.0000 0.0000 0.0000
# 4 0.0000 0.0000 0.0000 18.5542 0.0000 0.0000
# 5 0.0000 0.0000 0.0000 0.0000 1.5674 0.0000
# 6 0.0000 0.0000 0.0000 0.0000 0.0000 9.8725
#
#
#
# Elastic Compliance Matrix: (Units=1/GPa)
#
#
# Indices 1 2 3 4 5 6 
#
# 1 0.018273 -0.002529 -0.003482 0.000000 0.000000 0.000000
# 2 -0.002529 0.022446 -0.010800 0.000000 0.000000 0.000000
# 3 -0.003482 -0.010800 0.012822 0.000000 0.000000 0.000000
# 4 0.000000 0.000000 0.000000 0.053896 0.000000 0.000000
# 5 0.000000 0.000000 0.000000 0.000000 0.637996 0.000000
# 6 0.000000 0.000000 0.000000 0.000000 0.000000 0.101291
#
#
# Mechanical properties :
#
#
# Convention : Reuss Voigt Hill
#
# Bulk Modulus (GPa) = 50.20280 67.11490 58.65885
# Shear Modulus (GPa) = 5.63707 16.72005 11.17856
#
# Velocity S-wave (km/s) = 1.72770 2.97550 2.43296
# Velocity P-wave (km/s) = 5.52841 6.88066 6.24127
#
# Compressibility (1/GPa) = 0.01991921
#
# Stress axis : x y z
#
# Youngs Moduli (GPa) = 54.72521 44.55183 77.99279
#
# Poissons Ratio (x) = 0.11267 0.27157
# Poissons Ratio (y) = 0.13840 0.84230
# Poissons Ratio (z) = 0.19055 0.48115
#
# Static dielectric constant tensor:
#      x y z
#    x 3.116770 0.000000 0.000000 
#    y 0.000000 3.531470 0.000000 
#    z 0.000000 0.000000 3.653520 
# 
# 
# High freq. dielectric constant tensor:
#      x y z
#    x 1.710540 0.000000 0.000000 
#    y 0.000000 1.719050 0.000000 
#    z 0.000000 0.000000 1.729400 
# 
# From -- ./inp_files/31776.got.cif
#   From: 2010.03.12/outbox.cif.g09.slc.cpg/sg47_16_cif.got.tgz:31776.got - 2010.04.14 03:12:58.
