data_PCOD8197374
_publ_section_title
;
Structure prediction by ZEFSAII (Michael W. Deem and Ramdas Pophale) SiO2 
 PCOD8197374
Probable space group: P M M M
;
_chemical_formula_sum "Si O2"
_cell_formula_units_Z 64
_cell_length_a 8.885572
_cell_length_b 14.362664
_cell_length_c 29.377349
_cell_angle_alpha 90.000000
_cell_angle_beta 90.000000
_cell_angle_gamma 90.000000
_cell_volume 3749.151530
_symmetry_space_group_name_H-M "P M M M"
_symmetry_group_IT_number 47
_symmetry_cell_setting 'orthorhombic'
loop_
_space_group_symop_operation_xyz
x,y,z
-x,-y,z
x,-y,-z
-x,y,-z
-x,-y,-z
x,y,-z
-x,y,z
x,-y,z
loop_
_atom_site_type_symbol
_atom_site_label
_atom_site_fract_x
_atom_site_fract_y
_atom_site_fract_z
Si Si1 0.170251 0.889744 0.308955
Si Si2 0.323562 0.894119 0.598631
Si Si3 0.329929 0.391013 0.376817
Si Si4 0.820083 0.893658 0.146437
Si Si5 0.826401 0.735139 0.448744
Si Si6 0.678687 0.397485 0.275071
Si Si7 0.167835 0.110305 0.951886
Si Si8 0.322205 0.786961 0.227932
O O1 0.241295 0.855620 0.356259
O O2 0.272327 0.853658 0.268320
O O3 0.000000 0.851779 0.304521
O O4 0.173127 0.000000 0.306443
O O5 0.500000 0.884901 0.606458
O O6 0.268516 0.830015 0.557388
O O7 0.277263 0.000000 0.587613
O O8 0.500000 0.351824 0.381837
O O9 0.327914 0.500000 0.386463
O O10 0.224192 0.343708 0.413790
O O11 0.265912 0.370676 0.325986
O O12 0.756921 0.860663 0.096371
O O13 0.753908 0.820101 0.181577
O O14 0.000000 0.889137 0.147338
O O15 0.768559 0.000000 0.157677
O O16 0.798307 0.698945 0.500000
O O17 0.000000 0.758530 0.440268
O O18 0.500000 0.402382 0.277276
O O19 0.741433 0.500000 0.260662
O O20 0.731350 0.318904 0.239183
O O21 0.000000 0.152062 0.953274
O O22 0.157563 0.000000 0.950643
O O23 0.249850 0.141448 0.000000
O O24 0.500000 0.792984 0.222320
#
# Coordination Sequence:
#
# PCOD8197374 Si02
#       8
#     8   8   8   8   8   8   8   8
#     4  10  20  33  49  69  95 126 155 183 220 268
#     4  10  21  37  56  75  94 119 155 197 234 268
#     4   9  18  35  59  80  95 116 150 192 235 278
#     4   9  17  28  41  60  91 128 159 190 232 276
#     4  11  24  38  52  73 101 130 155 182 222 273
#     4   8  16  32  51  69  88 112 146 186 225 266
#     4   7  10  19  37  58  78 108 156 203 232 262
#     4  11  20  28  44  68  93 123 156 190 227 268
#
# _framework density 17.070527999999999
#
# number of rings (size 3 to 8) (size 9 to 14) (size 15 to 20)
#    0.000    2.625    0.000    4.500    0.000    6.000 
#    0.000    3.125    0.000    3.375    0.000    1.750 
#    0.000    0.500    0.000    6.250    0.000    0.250 
#
# Total GULP energy -793092.057556 kJ/mol
# GULP energy per Si atom -12392.063399 kJ/mol
# Density = 1.703167 g / cm^3
# Si number density = 17.070528 Si / 1000 Ang^3
#
#
#
# Elastic Constant Matrix: (Units=GPa)
#
#
# Indices 1 2 3 4 5 6 
#
# 1 37.4280 27.8668 29.7109 0.0000 0.0000 0.0000
# 2 27.8668 64.2270 62.8750 0.0000 0.0000 0.0000
# 3 29.7109 62.8750 133.0624 0.0000 0.0000 0.0000
# 4 0.0000 0.0000 0.0000 19.0562 0.0000 0.0000
# 5 0.0000 0.0000 0.0000 0.0000 3.5074 0.0000
# 6 0.0000 0.0000 0.0000 0.0000 0.0000 18.0806
#
#
#
# Elastic Compliance Matrix: (Units=1/GPa)
#
#
# Indices 1 2 3 4 5 6 
#
# 1 0.039597 -0.015863 -0.001346 0.000000 0.000000 0.000000
# 2 -0.015863 0.035326 -0.013150 0.000000 0.000000 0.000000
# 3 -0.001346 -0.013150 0.014030 0.000000 0.000000 0.000000
# 4 0.000000 0.000000 0.000000 0.052476 0.000000 0.000000
# 5 0.000000 0.000000 0.000000 0.000000 0.285110 0.000000
# 6 0.000000 0.000000 0.000000 0.000000 0.000000 0.055308
#
#
# Mechanical properties :
#
#
# Convention : Reuss Voigt Hill
#
# Bulk Modulus (GPa) = 35.41780 52.84700 44.13240
# Shear Modulus (GPa) = 9.05836 15.74648 12.40242
#
# Velocity S-wave (km/s) = 2.30607 3.04046 2.69836
# Velocity P-wave (km/s) = 5.28049 6.58416 5.96803
#
# Compressibility (1/GPa) = 0.02823439
#
# Stress axis : x y z
#
# Youngs Moduli (GPa) = 25.25449 28.30789 71.27768
#
# Poissons Ratio (x) = 0.44904 0.09593
# Poissons Ratio (y) = 0.40061 0.93733
# Poissons Ratio (z) = 0.03399 0.37226
#
# Static dielectric constant tensor:
#      x y z
#    x 3.046970 0.000000 0.000000 
#    y 0.000000 3.199200 0.000000 
#    z 0.000000 0.000000 3.516070 
# 
# 
# High freq. dielectric constant tensor:
#      x y z
#    x 1.640000 0.000000 0.000000 
#    y 0.000000 1.637930 0.000000 
#    z 0.000000 0.000000 1.657030 
# 
# From -- ./inp_files/34463.got.cif
#   From: 2010.03.12/outbox.cif.g09.slc.cpg/sg47_18_cif.got.tgz:34463.got - 2010.04.14 03:12:58.
