data_PCOD8197779
_publ_section_title
;
Structure prediction by ZEFSAII (Michael W. Deem and Ramdas Pophale) SiO2 
 PCOD8197779
Probable space group: P M M M
;
_chemical_formula_sum "Si O2"
_cell_formula_units_Z 48
_cell_length_a 10.083322
_cell_length_b 8.761420
_cell_length_c 29.182943
_cell_angle_alpha 90.000000
_cell_angle_beta 90.000000
_cell_angle_gamma 90.000000
_cell_volume 2578.144309
_symmetry_space_group_name_H-M "P M M M"
_symmetry_group_IT_number 47
_symmetry_cell_setting 'orthorhombic'
loop_
_space_group_symop_operation_xyz
x,y,z
-x,-y,z
x,-y,-z
-x,y,-z
-x,-y,-z
x,y,-z
-x,y,z
x,-y,z
loop_
_atom_site_type_symbol
_atom_site_label
_atom_site_fract_x
_atom_site_fract_y
_atom_site_fract_z
Si Si1 0.000000 0.819212 0.052122
Si Si2 0.250718 0.320005 0.899537
Si Si3 0.651331 0.678286 0.714136
Si Si4 0.154872 0.823065 0.641891
Si Si5 0.500000 0.826835 0.054217
Si Si6 0.156971 0.329276 0.550076
Si Si7 0.654375 0.176593 0.189858
O O1 0.125467 0.758617 0.078620
O O2 0.000000 0.000000 0.052845
O O3 0.000000 0.758265 0.000000
O O4 0.237550 0.500000 0.903051
O O5 0.374173 0.263400 0.928470
O O6 0.261168 0.272182 0.846520
O O7 0.500000 0.720467 0.699771
O O8 0.663956 0.500000 0.724104
O O9 0.754042 0.724294 0.675063
O O10 0.692906 0.767766 0.759720
O O11 0.202253 0.785306 0.590096
O O12 0.000000 0.779873 0.649292
O O13 0.179790 0.000000 0.651450
O O14 0.500000 0.000000 0.073947
O O15 0.500000 0.830342 0.000000
O O16 0.210961 0.274695 0.500000
O O17 0.210238 0.500000 0.560748
O O18 0.000000 0.332901 0.548052
O O19 0.500000 0.206193 0.179710
O O20 0.691767 0.000000 0.185475
#
# Coordination Sequence:
#
# PCOD8197779 Si02
#       7
#     4   8   8   8   4   8   8
#     4  11  25  45  65  85 117 159 195 229 278 341
#     4  12  24  39  62  90 120 150 188 236 283 333
#     4  10  21  37  58  82 109 143 186 232 281 334
#     4  10  20  33  51  79 113 146 184 228 277 332
#     4  11  23  39  61  89 119 153 193 233 278 331
#     4   8  14  26  46  72 103 141 183 226 275 328
#     4  10  20  37  62  87 114 147 186 230 280 336
#
# _framework density 18.618041000000002
#
# number of rings (size 3 to 8) (size 9 to 14) (size 15 to 20)
#    0.000    1.833    0.833    4.500    0.000    6.333 
#    1.500    1.667    0.000    0.500    0.000    3.500 
#    0.000    0.000    0.000    0.000    0.000    0.000 
#
# Total GULP energy -595222.358834 kJ/mol
# GULP energy per Si atom -12400.465809 kJ/mol
# Density = 1.857567 g / cm^3
# Si number density = 18.618041 Si / 1000 Ang^3
#
#
#
# Elastic Constant Matrix: (Units=GPa)
#
#
# Indices 1 2 3 4 5 6 
#
# 1 84.3548 19.3898 44.7987 0.0000 0.0000 0.0000
# 2 19.3898 62.6792 26.7549 0.0000 0.0000 0.0000
# 3 44.7987 26.7549 113.1126 0.0000 0.0000 0.0000
# 4 0.0000 0.0000 0.0000 34.4731 0.0000 0.0000
# 5 0.0000 0.0000 0.0000 0.0000 26.3779 0.0000
# 6 0.0000 0.0000 0.0000 0.0000 0.0000 23.4756
#
#
#
# Elastic Compliance Matrix: (Units=1/GPa)
#
#
# Indices 1 2 3 4 5 6 
#
# 1 0.015328 -0.002392 -0.005505 0.000000 0.000000 0.000000
# 2 -0.002392 0.018119 -0.003338 0.000000 0.000000 0.000000
# 3 -0.005505 -0.003338 0.011811 0.000000 0.000000 0.000000
# 4 0.000000 0.000000 0.000000 0.029008 0.000000 0.000000
# 5 0.000000 0.000000 0.000000 0.000000 0.037910 0.000000
# 6 0.000000 0.000000 0.000000 0.000000 0.000000 0.042597
#
#
# Mechanical properties :
#
#
# Convention : Reuss Voigt Hill
#
# Bulk Modulus (GPa) = 43.88420 49.11483 46.49952
# Shear Modulus (GPa) = 27.05035 28.14553 27.59794
#
# Velocity S-wave (km/s) = 3.81584 3.89232 3.85427
# Velocity P-wave (km/s) = 6.56020 6.82918 6.69604
#
# Compressibility (1/GPa) = 0.02278724
#
# Stress axis : x y z
#
# Youngs Moduli (GPa) = 65.23989 55.18993 84.66919
#
# Poissons Ratio (x) = 0.13201 0.46610
# Poissons Ratio (y) = 0.15605 0.28267
# Poissons Ratio (z) = 0.35914 0.18425
#
# Static dielectric constant tensor:
#      x y z
#    x 3.191630 0.000000 0.000000 
#    y 0.000000 3.554040 0.000000 
#    z 0.000000 0.000000 3.752240 
# 
# 
# High freq. dielectric constant tensor:
#      x y z
#    x 1.696290 0.000000 0.000000 
#    y 0.000000 1.734140 0.000000 
#    z 0.000000 0.000000 1.738310 
# 
# From -- ./inp_files/34057.got.cif
#   From: 2010.03.12/outbox.cif.g09.slc.cpg/sg47_18_cif.got.tgz:34057.got - 2010.04.14 03:12:58.
