data_PCOD8197387
_publ_section_title
;
Structure prediction by ZEFSAII (Michael W. Deem and Ramdas Pophale) SiO2 
 PCOD8197387
Probable space group: P M M M
;
_chemical_formula_sum "Si O2"
_cell_formula_units_Z 40
_cell_length_a 8.161476
_cell_length_b 9.807789
_cell_length_c 27.653389
_cell_angle_alpha 90.000000
_cell_angle_beta 90.000000
_cell_angle_gamma 90.000000
_cell_volume 2213.544131
_symmetry_space_group_name_H-M "P M M M"
_symmetry_group_IT_number 47
_symmetry_cell_setting 'orthorhombic'
loop_
_space_group_symop_operation_xyz
x,y,z
-x,-y,z
x,-y,-z
-x,y,-z
-x,-y,-z
x,y,-z
-x,y,z
x,-y,z
loop_
_atom_site_type_symbol
_atom_site_label
_atom_site_fract_x
_atom_site_fract_y
_atom_site_fract_z
Si Si1 0.190417 0.845897 0.601439
Si Si2 0.181492 0.662260 0.112193
Si Si3 0.682321 0.338048 0.211682
Si Si4 0.308075 0.650024 0.683784
Si Si5 0.314916 0.838358 0.500000
Si Si6 0.500000 0.662409 0.945060
O O1 0.274956 0.755395 0.641584
O O2 0.227093 0.783178 0.548366
O O3 0.000000 0.844326 0.611273
O O4 0.260487 0.000000 0.605087
O O5 0.185862 0.500000 0.109916
O O6 0.205206 0.713781 0.167505
O O7 0.332606 0.719323 0.079842
O O8 0.000000 0.713178 0.094603
O O9 0.500000 0.276404 0.204478
O O10 0.670833 0.500000 0.210533
O O11 0.759331 0.295649 0.264104
O O12 0.500000 0.633924 0.690746
O O13 0.233474 0.500000 0.671105
O O14 0.500000 0.785155 0.500000
O O15 0.302426 0.000000 0.500000
O O16 0.500000 0.500000 0.941897
O O17 0.500000 0.714319 0.000000
#
# Coordination Sequence:
#
# PCOD8197387 Si02
#       6
#     8   8   8   8   4   4
#     4  10  20  33  49  70  96 123 151 186 229 276
#     4   9  15  22  34  50  68  97 138 178 220 271
#     4   8  13  24  40  56  78 106 136 176 223 267
#     4   9  18  31  48  70  94 120 152 192 234 274
#     4   9  17  31  52  71  86 113 154 192 224 269
#     4   9  16  24  32  44  68 100 135 182 229 262
#
# _framework density 18.070568000000002
#
# number of rings (size 3 to 8) (size 9 to 14) (size 15 to 20)
#    0.000    3.000    1.000    2.100    0.000    4.000 
#    0.000    4.500    0.000    3.000    0.000    0.000 
#    0.000    0.000    0.000    0.000    0.000    2.000 
#
# Total GULP energy -495547.423678 kJ/mol
# GULP energy per Si atom -12388.685592 kJ/mol
# Density = 1.802944 g / cm^3
# Si number density = 18.070568 Si / 1000 Ang^3
#
#
#
# Elastic Constant Matrix: (Units=GPa)
#
#
# Indices 1 2 3 4 5 6 
#
# 1 89.9039 12.6844 51.3784 0.0000 0.0000 0.0000
# 2 12.6844 25.6346 30.4798 0.0000 0.0000 0.0000
# 3 51.3784 30.4798 157.8195 0.0000 0.0000 0.0000
# 4 0.0000 0.0000 0.0000 -8.0379 0.0000 0.0000
# 5 0.0000 0.0000 0.0000 0.0000 17.0796 0.0000
# 6 0.0000 0.0000 0.0000 0.0000 0.0000 11.1917
#
#
#
# Elastic Compliance Matrix: (Units=1/GPa)
#
#
# Indices 1 2 3 4 5 6 
#
# 1 0.013738 -0.001921 -0.004101 0.000000 0.000000 0.000000
# 2 -0.001921 0.050907 -0.009206 0.000000 0.000000 0.000000
# 3 -0.004101 -0.009206 0.009450 0.000000 0.000000 0.000000
# 4 0.000000 0.000000 0.000000 -0.124411 0.000000 0.000000
# 5 0.000000 0.000000 0.000000 0.000000 0.058549 0.000000
# 6 0.000000 0.000000 0.000000 0.000000 0.000000 0.089352
#
#
# Mechanical properties :
#
#
# Convention : Reuss Voigt Hill
#
# Bulk Modulus (GPa) = 22.91650 51.38257 37.14953
# Shear Modulus (GPa) = 35.06619 15.96772 25.51696
#
# Velocity S-wave (km/s) = 4.40991 2.97582 3.76183
# Velocity P-wave (km/s) = 6.21602 6.34850 6.28261
#
# Compressibility (1/GPa) = 0.04363668
#
# Stress axis : x y z
#
# Youngs Moduli (GPa) = 72.79138 19.64380 105.82515
#
# Poissons Ratio (x) = 0.03774 0.43403
# Poissons Ratio (y) = 0.13984 0.97425
# Poissons Ratio (z) = 0.29854 0.18084
#
# Static dielectric constant tensor:
#      x y z
#    x 3.451570 0.000000 0.000000 
#    y 0.000000 2.724070 0.000000 
#    z 0.000000 0.000000 3.724470 
# 
# 
# High freq. dielectric constant tensor:
#      x y z
#    x 1.702210 0.000000 0.000000 
#    y 0.000000 1.611050 0.000000 
#    z 0.000000 0.000000 1.715190 
# 
# From -- ./inp_files/33010.got.cif
#   From: 2010.03.12/outbox.cif.g09.slc.cpg/sg47_17_cif.got.tgz:33010.got - 2010.04.14 03:12:58.
