data_PCOD8197286
_publ_section_title
;
Structure prediction by ZEFSAII (Michael W. Deem and Ramdas Pophale) SiO2 
 PCOD8197286
Probable space group: P M M M
;
_chemical_formula_sum "Si O2"
_cell_formula_units_Z 52
_cell_length_a 13.244562
_cell_length_b 24.962310
_cell_length_c 9.054902
_cell_angle_alpha 90.000000
_cell_angle_beta 90.000000
_cell_angle_gamma 90.000000
_cell_volume 2993.685179
_symmetry_space_group_name_H-M "P M M M"
_symmetry_group_IT_number 47
_symmetry_cell_setting 'orthorhombic'
loop_
_space_group_symop_operation_xyz
x,y,z
-x,-y,z
x,-y,-z
-x,y,-z
-x,-y,-z
x,y,-z
-x,y,z
x,-y,z
loop_
_atom_site_type_symbol
_atom_site_label
_atom_site_fract_x
_atom_site_fract_y
_atom_site_fract_z
Si Si1 0.379520 0.500000 0.835989
Si Si2 0.380680 0.895604 0.834062
Si Si3 0.620590 0.000000 0.332668
Si Si4 0.119657 0.500000 0.665498
Si Si5 0.617129 0.213179 0.674849
Si Si6 0.288394 0.688945 0.826204
Si Si7 0.114794 0.392507 0.827620
Si Si8 0.615552 0.599577 0.338282
O O1 0.500000 0.500000 0.843995
O O2 0.333752 0.550590 0.749431
O O3 0.333894 0.500000 0.000000
O O4 0.500000 0.900720 0.843498
O O5 0.350248 0.844051 0.738839
O O6 0.336736 0.947876 0.752020
O O7 0.335595 0.891559 0.000000
O O8 0.500000 0.000000 0.334069
O O9 0.661954 0.000000 0.500000
O O10 0.163567 0.500000 0.500000
O O11 0.156092 0.445596 0.746197
O O12 0.000000 0.500000 0.666259
O O13 0.631385 0.212994 0.500000
O O14 0.500000 0.226582 0.715905
O O15 0.697004 0.254281 0.746547
O O16 0.182782 0.659415 0.785243
O O17 0.377321 0.652125 0.761902
O O18 0.301540 0.696991 0.000000
O O19 0.000000 0.378588 0.781176
O O20 0.122793 0.404683 0.000000
O O21 0.666668 0.607365 0.500000
O O22 0.500000 0.585424 0.362540
#
# Coordination Sequence:
#
# PCOD8197286 Si02
#       8
#     4   8   4   4   8   8   8   8
#     4   9  17  30  47  64  82 106 138 176 213 249
#     4   9  16  26  41  61  86 118 157 198 233 264
#     4   9  15  23  37  59  87 119 156 195 234 273
#     4   9  17  30  51  76  94 108 132 170 217 269
#     4  10  20  33  47  64  90 124 158 191 228 268
#     4  11  22  33  48  68  87 112 147 183 218 260
#     4   9  19  36  54  70  90 115 141 173 219 274
#     4  10  20  33  47  63  85 112 140 172 212 257
#
# _framework density 17.369896000000001
#
# number of rings (size 3 to 8) (size 9 to 14) (size 15 to 20)
#    0.000    2.385    0.000    3.000    0.000   10.154 
#    0.000    0.769    0.000    0.000    0.000    0.000 
#    0.000    0.000    0.000    0.692    0.000   14.385 
#
# Total GULP energy -644578.300423 kJ/mol
# GULP energy per Si atom -12395.736547 kJ/mol
# Density = 1.733036 g / cm^3
# Si number density = 17.369896 Si / 1000 Ang^3
#
#
#
# Elastic Constant Matrix: (Units=GPa)
#
#
# Indices 1 2 3 4 5 6 
#
# 1 47.5006 31.1662 34.3133 0.0000 0.0000 0.0000
# 2 31.1662 157.0108 75.8289 0.0000 0.0000 0.0000
# 3 34.3133 75.8289 133.0015 0.0000 0.0000 0.0000
# 4 0.0000 0.0000 0.0000 30.5627 0.0000 0.0000
# 5 0.0000 0.0000 0.0000 0.0000 14.5615 0.0000
# 6 0.0000 0.0000 0.0000 0.0000 0.0000 17.5371
#
#
#
# Elastic Compliance Matrix: (Units=1/GPa)
#
#
# Indices 1 2 3 4 5 6 
#
# 1 0.026692 -0.002722 -0.005334 0.000000 0.000000 0.000000
# 2 -0.002722 0.009067 -0.004467 0.000000 0.000000 0.000000
# 3 -0.005334 -0.004467 0.011442 0.000000 0.000000 0.000000
# 4 0.000000 0.000000 0.000000 0.032720 0.000000 0.000000
# 5 0.000000 0.000000 0.000000 0.000000 0.068674 0.000000
# 6 0.000000 0.000000 0.000000 0.000000 0.000000 0.057022
#
#
# Mechanical properties :
#
#
# Convention : Reuss Voigt Hill
#
# Bulk Modulus (GPa) = 45.13967 68.90331 57.02149
# Shear Modulus (GPa) = 21.00427 25.61258 23.30842
#
# Velocity S-wave (km/s) = 3.48118 3.84414 3.66715
# Velocity P-wave (km/s) = 6.49629 7.71087 7.12949
#
# Compressibility (1/GPa) = 0.02215346
#
# Stress axis : x y z
#
# Youngs Moduli (GPa) = 37.46479 110.29464 87.39965
#
# Poissons Ratio (x) = 0.30022 0.46622
# Poissons Ratio (y) = 0.10198 0.39041
# Poissons Ratio (z) = 0.19985 0.49268
#
# Static dielectric constant tensor:
#      x y z
#    x 2.878960 0.000000 0.000000 
#    y 0.000000 3.300380 0.000000 
#    z 0.000000 0.000000 3.533240 
# 
# 
# High freq. dielectric constant tensor:
#      x y z
#    x 1.620370 0.000000 0.000000 
#    y 0.000000 1.663360 0.000000 
#    z 0.000000 0.000000 1.692280 
# 
# From -- ./inp_files/7723.got.cif
#   From: 2010.03.12/outbox.cif.g09.slc.cpg/sg47_4_cif.got.tgz:7723.got - 2010.04.14 03:12:58.
