data_PCOD8197467
_publ_section_title
;
Structure prediction by ZEFSAII (Michael W. Deem and Ramdas Pophale) SiO2 
 PCOD8197467
Probable space group: P M M M
;
_chemical_formula_sum "Si O2"
_cell_formula_units_Z 64
_cell_length_a 14.195831
_cell_length_b 28.279014
_cell_length_c 9.155824
_cell_angle_alpha 90.000000
_cell_angle_beta 90.000000
_cell_angle_gamma 90.000000
_cell_volume 3675.551558
_symmetry_space_group_name_H-M "P M M M"
_symmetry_group_IT_number 47
_symmetry_cell_setting 'orthorhombic'
loop_
_space_group_symop_operation_xyz
x,y,z
-x,-y,z
x,-y,-z
-x,y,-z
-x,-y,-z
x,y,-z
-x,y,z
x,-y,z
loop_
_atom_site_type_symbol
_atom_site_label
_atom_site_fract_x
_atom_site_fract_y
_atom_site_fract_z
Si Si1 0.245071 0.947979 0.671595
Si Si2 0.743017 0.553679 0.671401
Si Si3 0.254354 0.195629 0.827527
Si Si4 0.608109 0.871657 0.671738
Si Si5 0.106619 0.369828 0.671817
Si Si6 0.606852 0.619247 0.171205
Si Si7 0.891766 0.132779 0.327758
Si Si8 0.242037 0.695685 0.169844
O O1 0.243719 0.955024 0.500000
O O2 0.339875 0.920250 0.717840
O O3 0.154322 0.917272 0.719466
O O4 0.242516 0.000000 0.746888
O O5 0.725168 0.557199 0.500000
O O6 0.760232 0.500000 0.721818
O O7 0.834973 0.583591 0.718316
O O8 0.650280 0.573619 0.749820
O O9 0.346867 0.171749 0.759224
O O10 0.159074 0.174947 0.757832
O O11 0.260210 0.250483 0.786176
O O12 0.253053 0.186956 0.000000
O O13 0.621148 0.861848 0.500000
O O14 0.500000 0.876689 0.717116
O O15 0.109885 0.361888 0.500000
O O16 0.151032 0.323428 0.745032
O O17 0.000000 0.376501 0.727525
O O18 0.500000 0.626633 0.224812
O O19 0.665041 0.666174 0.214432
O O20 0.611350 0.609558 0.000000
O O21 0.878535 0.141467 0.500000
O O22 0.000000 0.131771 0.280742
O O23 0.219655 0.690376 0.000000
#
# Coordination Sequence:
#
# PCOD8197467 Si02
#       8
#     8   8   8   8   8   8   8   8
#     4   8  14  26  46  72  98 122 153 195 238 279
#     4   9  18  32  49  70  97 126 154 187 227 271
#     4  10  20  33  50  71  95 125 161 199 237 281
#     4   9  18  32  49  71  99 127 156 193 237 284
#     4   9  18  32  50  72  96 123 156 192 230 274
#     4   9  18  33  51  69  91 120 154 192 232 274
#     4   9  18  32  49  70  97 127 158 195 239 284
#     4   9  19  34  50  69  93 122 156 195 236 276
#
# _framework density 17.412351999999998
#
# number of rings (size 3 to 8) (size 9 to 14) (size 15 to 20)
#    0.000    3.000    0.000    1.125    0.000    4.250 
#    0.000    8.750    0.000    6.000    0.000   10.500 
#    0.000    0.000    0.000    0.000    0.000    0.000 
#
# Total GULP energy -793542.469850 kJ/mol
# GULP energy per Si atom -12399.101091 kJ/mol
# Density = 1.737272 g / cm^3
# Si number density = 17.412352 Si / 1000 Ang^3
#
#
#
# Elastic Constant Matrix: (Units=GPa)
#
#
# Indices 1 2 3 4 5 6 
#
# 1 157.3513 61.5006 37.2786 0.0000 0.0000 0.0000
# 2 61.5006 128.2875 38.1163 0.0000 0.0000 0.0000
# 3 37.2786 38.1163 34.1968 0.0000 0.0000 0.0000
# 4 0.0000 0.0000 0.0000 21.6609 0.0000 0.0000
# 5 0.0000 0.0000 0.0000 0.0000 22.7622 0.0000
# 6 0.0000 0.0000 0.0000 0.0000 0.0000 19.0183
#
#
#
# Elastic Compliance Matrix: (Units=1/GPa)
#
#
# Indices 1 2 3 4 5 6 
#
# 1 0.008923 -0.002075 -0.007414 0.000000 0.000000 0.000000
# 2 -0.002075 0.012137 -0.011267 0.000000 0.000000 0.000000
# 3 -0.007414 -0.011267 0.049883 0.000000 0.000000 0.000000
# 4 0.000000 0.000000 0.000000 0.046166 0.000000 0.000000
# 5 0.000000 0.000000 0.000000 0.000000 0.043932 0.000000
# 6 0.000000 0.000000 0.000000 0.000000 0.000000 0.052581
#
#
# Mechanical properties :
#
#
# Convention : Reuss Voigt Hill
#
# Bulk Modulus (GPa) = 33.97719 65.95852 49.96785
# Shear Modulus (GPa) = 18.87195 24.88429 21.87812
#
# Velocity S-wave (km/s) = 3.29572 3.78447 3.54852
# Velocity P-wave (km/s) = 5.83421 7.55373 6.74896
#
# Compressibility (1/GPa) = 0.02943151
#
# Stress axis : x y z
#
# Youngs Moduli (GPa) = 112.07495 82.39273 20.04696
#
# Poissons Ratio (x) = 0.17093 0.14864
# Poissons Ratio (y) = 0.23250 0.22586
# Poissons Ratio (z) = 0.83097 0.92828
#
# Static dielectric constant tensor:
#      x y z
#    x 3.382120 0.000000 0.000000 
#    y 0.000000 3.409320 0.000000 
#    z 0.000000 0.000000 3.054290 
# 
# 
# High freq. dielectric constant tensor:
#      x y z
#    x 1.676260 0.000000 0.000000 
#    y 0.000000 1.675120 0.000000 
#    z 0.000000 0.000000 1.653950 
# 
# From -- ./inp_files/8306.got.cif
#   From: 2010.03.12/outbox.cif.g09.slc.cpg/sg47_5_cif.got.tgz:8306.got - 2010.04.14 03:12:58.
