data_PCOD8197325
_publ_section_title
;
Structure prediction by ZEFSAII (Michael W. Deem and Ramdas Pophale) SiO2 
 PCOD8197325
Probable space group: P M M M
;
_chemical_formula_sum "Si O2"
_cell_formula_units_Z 40
_cell_length_a 8.875586
_cell_length_b 11.678438
_cell_length_c 23.218031
_cell_angle_alpha 90.000000
_cell_angle_beta 90.000000
_cell_angle_gamma 90.000000
_cell_volume 2406.618122
_symmetry_space_group_name_H-M "P M M M"
_symmetry_group_IT_number 47
_symmetry_cell_setting 'orthorhombic'
loop_
_space_group_symop_operation_xyz
x,y,z
-x,-y,z
x,-y,-z
-x,y,-z
-x,-y,-z
x,y,-z
-x,y,z
x,-y,z
loop_
_atom_site_type_symbol
_atom_site_label
_atom_site_fract_x
_atom_site_fract_y
_atom_site_fract_z
Si Si1 0.678759 0.729151 0.391817
Si Si2 0.830589 0.863839 0.936859
Si Si3 0.821156 0.500000 0.566565
Si Si4 0.678749 0.126768 0.500000
Si Si5 0.824109 0.866768 0.709361
Si Si6 0.667225 0.864367 0.174442
O O1 0.500000 0.712685 0.392774
O O2 0.757695 0.607690 0.398913
O O3 0.737309 0.808422 0.443738
O O4 0.727663 0.788717 0.333047
O O5 0.729011 0.811762 0.885614
O O6 0.000000 0.817502 0.928969
O O7 0.831701 0.000000 0.932787
O O8 0.768053 0.826230 0.000000
O O9 0.764831 0.500000 0.500000
O O10 0.000000 0.500000 0.569325
O O11 0.500000 0.120269 0.500000
O O12 0.749508 0.000000 0.500000
O O13 0.777281 0.829290 0.773605
O O14 0.000000 0.842909 0.700803
O O15 0.784724 0.000000 0.698210
O O16 0.500000 0.814967 0.185639
O O17 0.660941 0.000000 0.169189
#
# Coordination Sequence:
#
# PCOD8197325 Si02
#       6
#     8   8   4   4   8   8
#     4  11  21  35  55  75  97 123 158 197 236 282
#     4   8  13  21  33  50  75 110 151 192 233 276
#     4  11  23  39  57  75  99 125 154 191 236 287
#     4   9  18  31  49  74 100 123 148 185 232 277
#     4  10  20  33  48  68  96 128 160 195 240 291
#     4   9  16  25  38  57  82 115 155 196 235 276
#
# _framework density 16.620833000000001
#
# number of rings (size 3 to 8) (size 9 to 14) (size 15 to 20)
#    0.000    2.400    1.000    3.300    0.000    5.200 
#    0.000    2.000    0.000    2.400    0.000    0.000 
#    0.000    0.000    0.000    0.900    0.000   17.000 
#
# Total GULP energy -495903.490592 kJ/mol
# GULP energy per Si atom -12397.587265 kJ/mol
# Density = 1.658300 g / cm^3
# Si number density = 16.620833 Si / 1000 Ang^3
#
#
#
# Elastic Constant Matrix: (Units=GPa)
#
#
# Indices 1 2 3 4 5 6 
#
# 1 72.5138 24.7372 35.9905 0.0000 0.0000 0.0000
# 2 24.7372 69.5698 37.3628 0.0000 0.0000 0.0000
# 3 35.9905 37.3628 124.0298 0.0000 0.0000 0.0000
# 4 0.0000 0.0000 0.0000 -0.1921 0.0000 0.0000
# 5 0.0000 0.0000 0.0000 0.0000 32.3501 0.0000
# 6 0.0000 0.0000 0.0000 0.0000 0.0000 16.3990
#
#
#
# Elastic Compliance Matrix: (Units=1/GPa)
#
#
# Indices 1 2 3 4 5 6 
#
# 1 0.017019 -0.004055 -0.003717 0.000000 0.000000 0.000000
# 2 -0.004055 0.018115 -0.004280 0.000000 0.000000 0.000000
# 3 -0.003717 -0.004280 0.010430 0.000000 0.000000 0.000000
# 4 0.000000 0.000000 0.000000 -5.204518 0.000000 0.000000
# 5 0.000000 0.000000 0.000000 0.000000 0.030912 0.000000
# 6 0.000000 0.000000 0.000000 0.000000 0.000000 0.060979
#
#
# Mechanical properties :
#
#
# Convention : Reuss Voigt Hill
#
# Bulk Modulus (GPa) = 46.59968 51.36606 48.98287
# Shear Modulus (GPa) = -0.99289 20.91292 9.96002
#
# Velocity S-wave (km/s) = -0.77374 3.55101 2.45061
# Velocity P-wave (km/s) = 5.22490 6.91264 6.12716
#
# Compressibility (1/GPa) = 0.02145937
#
# Stress axis : x y z
#
# Youngs Moduli (GPa) = 58.75912 55.20390 95.87306
#
# Poissons Ratio (x) = 0.22387 0.35634
# Poissons Ratio (y) = 0.23828 0.41035
# Poissons Ratio (z) = 0.21840 0.23628
#
# Static dielectric constant tensor:
#      x y z
#    x 3.186260 0.000000 0.000000 
#    y 0.000000 2.722030 0.000000 
#    z 0.000000 0.000000 3.368850 
# 
# 
# High freq. dielectric constant tensor:
#      x y z
#    x 1.644880 0.000000 0.000000 
#    y 0.000000 1.577680 0.000000 
#    z 0.000000 0.000000 1.653850 
# 
# From -- ./inp_files/4083.got.cif
#   From: 2010.03.12/outbox.cif.g09.slc.cpg/sg47_3_cif.got.tgz:4083.got - 2010.04.14 03:12:58.
