data_PCOD8197707
_publ_section_title
;
Structure prediction by ZEFSAII (Michael W. Deem and Ramdas Pophale) SiO2 
 PCOD8197707
Probable space group: P M M M
;
_chemical_formula_sum "Si O2"
_cell_formula_units_Z 52
_cell_length_a 23.296183
_cell_length_b 14.131418
_cell_length_c 8.688765
_cell_angle_alpha 90.000000
_cell_angle_beta 90.000000
_cell_angle_gamma 90.000000
_cell_volume 2860.411815
_symmetry_space_group_name_H-M "P M M M"
_symmetry_group_IT_number 47
_symmetry_cell_setting 'orthorhombic'
loop_
_space_group_symop_operation_xyz
x,y,z
-x,-y,z
x,-y,-z
-x,y,-z
-x,-y,-z
x,y,-z
-x,y,z
x,-y,z
loop_
_atom_site_type_symbol
_atom_site_label
_atom_site_fract_x
_atom_site_fract_y
_atom_site_fract_z
Si Si1 0.716422 0.392930 0.178595
Si Si2 0.326207 0.786222 0.319062
Si Si3 0.108483 0.796966 0.677704
Si Si4 0.218460 0.889728 0.178545
Si Si5 0.000000 0.894178 0.180324
Si Si6 0.162849 0.394391 0.676668
Si Si7 0.436956 0.894015 0.317332
O O1 0.699650 0.500000 0.222190
O O2 0.676163 0.324978 0.279781
O O3 0.783011 0.373741 0.215344
O O4 0.706435 0.371911 0.000000
O O5 0.318089 0.803701 0.500000
O O6 0.276845 0.839536 0.226835
O O7 0.387412 0.824193 0.257423
O O8 0.095192 0.815287 0.500000
O O9 0.166596 0.850202 0.720922
O O10 0.056039 0.836629 0.773785
O O11 0.114608 0.684340 0.712460
O O12 0.225096 0.000000 0.213108
O O13 0.205829 0.869599 0.000000
O O14 0.000000 0.000000 0.254175
O O15 0.000000 0.904890 0.000000
O O16 0.183634 0.384732 0.500000
O O17 0.137812 0.500000 0.707985
O O18 0.436979 0.894687 0.500000
O O19 0.500000 0.860415 0.258002
O O20 0.424272 0.000000 0.256359
#
# Coordination Sequence:
#
# PCOD8197707 Si02
#       7
#     8   8   8   8   4   8   8
#     4  10  20  33  51  76 107 143 179 216 264 323
#     4  11  20  31  52  81 108 137 176 223 273 322
#     4  11  22  37  59  84 107 138 179 225 270 316
#     4  11  23  36  51  75 110 146 176 215 269 323
#     4  11  25  43  60  77 104 146 187 223 268 323
#     4   9  18  34  56  82 110 138 171 215 268 321
#     4   8  15  29  49  74 105 140 178 221 268 318
#
# _framework density 18.179200000000002
#
# number of rings (size 3 to 8) (size 9 to 14) (size 15 to 20)
#    0.000    1.923    1.538    3.462    0.000    5.846 
#    0.000    0.385    0.000    4.615    0.000    8.615 
#    0.000    0.000    0.000    0.000    0.000    0.000 
#
# Total GULP energy -644793.052473 kJ/mol
# GULP energy per Si atom -12399.866394 kJ/mol
# Density = 1.813782 g / cm^3
# Si number density = 18.179200 Si / 1000 Ang^3
#
#
#
# Elastic Constant Matrix: (Units=GPa)
#
#
# Indices 1 2 3 4 5 6 
#
# 1 115.2359 65.0144 13.3237 0.0000 0.0000 0.0000
# 2 65.0144 131.7113 28.8597 0.0000 0.0000 0.0000
# 3 13.3237 28.8597 37.9258 0.0000 0.0000 0.0000
# 4 0.0000 0.0000 0.0000 26.6873 0.0000 0.0000
# 5 0.0000 0.0000 0.0000 0.0000 77.4743 0.0000
# 6 0.0000 0.0000 0.0000 0.0000 0.0000 122.8890
#
#
#
# Elastic Compliance Matrix: (Units=1/GPa)
#
#
# Indices 1 2 3 4 5 6 
#
# 1 0.012031 -0.006016 0.000351 0.000000 0.000000 0.000000
# 2 -0.006016 0.012119 -0.007109 0.000000 0.000000 0.000000
# 3 0.000351 -0.007109 0.031654 0.000000 0.000000 0.000000
# 4 0.000000 0.000000 0.000000 0.037471 0.000000 0.000000
# 5 0.000000 0.000000 0.000000 0.000000 0.012908 0.000000
# 6 0.000000 0.000000 0.000000 0.000000 0.000000 0.008137
#
#
# Mechanical properties :
#
#
# Convention : Reuss Voigt Hill
#
# Bulk Modulus (GPa) = 33.05031 55.47428 44.26230
# Shear Modulus (GPa) = 33.34373 57.25513 45.29943
#
# Velocity S-wave (km/s) = 4.28737 5.61812 4.99724
# Velocity P-wave (km/s) = 6.53670 8.52442 7.59586
#
# Compressibility (1/GPa) = 0.03025690
#
# Stress axis : x y z
#
# Youngs Moduli (GPa) = 83.11707 82.51201 31.59200
#
# Poissons Ratio (x) = 0.49636 -0.01109
# Poissons Ratio (y) = 0.50000 0.22459
# Poissons Ratio (z) = -0.02917 0.58658
#
# Static dielectric constant tensor:
#      x y z
#    x 3.683670 0.000000 0.000000 
#    y 0.000000 3.716590 0.000000 
#    z 0.000000 0.000000 3.314370 
# 
# 
# High freq. dielectric constant tensor:
#      x y z
#    x 1.684200 0.000000 0.000000 
#    y 0.000000 1.717170 0.000000 
#    z 0.000000 0.000000 1.699330 
# 
# From -- ./inp_files/11038.got.cif
#   From: 2010.03.12/outbox.cif.g09.slc.cpg/sg47_6_cif.got.tgz:11038.got - 2010.04.14 03:12:58.
