data_PCOD8197614
_publ_section_title
;
Structure prediction by ZEFSAII (Michael W. Deem and Ramdas Pophale) SiO2 
 PCOD8197614
Probable space group: P M M M
;
_chemical_formula_sum "Si O2"
_cell_formula_units_Z 52
_cell_length_a 8.556057
_cell_length_b 20.690042
_cell_length_c 14.542757
_cell_angle_alpha 90.000000
_cell_angle_beta 90.000000
_cell_angle_gamma 90.000000
_cell_volume 2574.434156
_symmetry_space_group_name_H-M "P M M M"
_symmetry_group_IT_number 47
_symmetry_cell_setting 'orthorhombic'
loop_
_space_group_symop_operation_xyz
x,y,z
-x,-y,z
x,-y,-z
-x,y,-z
-x,-y,-z
x,y,-z
-x,y,z
x,-y,z
loop_
_atom_site_type_symbol
_atom_site_label
_atom_site_fract_x
_atom_site_fract_y
_atom_site_fract_z
Si Si1 0.678170 0.115640 0.600424
Si Si2 0.678930 0.301276 0.219969
Si Si3 0.329219 0.576641 0.500000
Si Si4 0.181399 0.929084 0.221721
Si Si5 0.183693 0.809939 0.897672
Si Si6 0.686564 0.428518 0.698292
Si Si7 0.820944 0.747879 0.602308
O O1 0.692934 0.081491 0.500000
O O2 0.500000 0.138686 0.616418
O O3 0.728656 0.067605 0.681349
O O4 0.795209 0.175721 0.602924
O O5 0.500000 0.292846 0.190214
O O6 0.780642 0.258005 0.151632
O O7 0.731546 0.377217 0.220943
O O8 0.700130 0.281346 0.325698
O O9 0.349269 0.500000 0.500000
O O10 0.500000 0.609831 0.500000
O O11 0.242409 0.593861 0.597588
O O12 0.252195 0.871791 0.157780
O O13 0.000000 0.915350 0.240230
O O14 0.204607 0.000000 0.175011
O O15 0.000000 0.817687 0.904877
O O16 0.257408 0.809481 0.000000
O O17 0.500000 0.430225 0.686938
O O18 0.748875 0.500000 0.726318
O O19 0.786374 0.719317 0.500000
O O20 0.000000 0.734535 0.631672
#
# Coordination Sequence:
#
# PCOD8197614 Si02
#       7
#     8   8   4   8   8   8   8
#     4  10  20  34  53  79 112 149 187 225 265 309
#     4  11  21  32  55  86 112 141 180 228 278 327
#     4   7  10  20  38  62  99 145 182 211 246 294
#     4  10  21  37  58  83 110 143 182 222 269 327
#     4  10  22  41  62  81 105 139 179 226 281 339
#     4   8  15  27  44  72 111 149 183 220 262 310
#     4  10  20  33  50  74 109 151 189 225 266 317
#
# _framework density 20.198612000000001
#
# number of rings (size 3 to 8) (size 9 to 14) (size 15 to 20)
#    0.000    2.385    1.538    2.308    1.077    3.077 
#    0.000    3.077    0.000    2.308    0.000    6.462 
#    0.000    0.000    0.000    0.000    0.000    0.000 
#
# Total GULP energy -644245.682937 kJ/mol
# GULP energy per Si atom -12389.340056 kJ/mol
# Density = 2.015264 g / cm^3
# Si number density = 20.198612 Si / 1000 Ang^3
#
#
#
# Elastic Constant Matrix: (Units=GPa)
#
#
# Indices 1 2 3 4 5 6 
#
# 1 27.4795 5.8488 16.8302 0.0000 0.0000 0.0000
# 2 5.8488 112.2524 64.5566 0.0000 0.0000 0.0000
# 3 16.8302 64.5566 117.3853 0.0000 0.0000 0.0000
# 4 0.0000 0.0000 0.0000 16.0230 0.0000 0.0000
# 5 0.0000 0.0000 0.0000 0.0000 19.0520 0.0000
# 6 0.0000 0.0000 0.0000 0.0000 0.0000 16.2386
#
#
#
# Elastic Compliance Matrix: (Units=1/GPa)
#
#
# Indices 1 2 3 4 5 6 
#
# 1 0.040136 0.001782 -0.006734 0.000000 0.000000 0.000000
# 2 0.001782 0.013109 -0.007465 0.000000 0.000000 0.000000
# 3 -0.006734 -0.007465 0.013590 0.000000 0.000000 0.000000
# 4 0.000000 0.000000 0.000000 0.062410 0.000000 0.000000
# 5 0.000000 0.000000 0.000000 0.000000 0.052488 0.000000
# 6 0.000000 0.000000 0.000000 0.000000 0.000000 0.061582
#
#
# Mechanical properties :
#
#
# Convention : Reuss Voigt Hill
#
# Bulk Modulus (GPa) = 23.80965 47.95429 35.88197
# Shear Modulus (GPa) = 17.72115 21.58816 19.65465
#
# Velocity S-wave (km/s) = 2.96521 3.27279 3.12279
# Velocity P-wave (km/s) = 4.85146 6.17045 5.55028
#
# Compressibility (1/GPa) = 0.04199978
#
# Stress axis : x y z
#
# Youngs Moduli (GPa) = 24.91524 76.28616 73.58531
#
# Poissons Ratio (x) = -0.13592 0.49555
# Poissons Ratio (y) = -0.04439 0.54928
# Poissons Ratio (z) = 0.16779 0.56944
#
# Static dielectric constant tensor:
#      x y z
#    x 3.254530 0.000000 0.000000 
#    y 0.000000 3.806120 0.000000 
#    z 0.000000 0.000000 3.690620 
# 
# 
# High freq. dielectric constant tensor:
#      x y z
#    x 1.756390 0.000000 0.000000 
#    y 0.000000 1.792220 0.000000 
#    z 0.000000 0.000000 1.762300 
# 
# From -- ./inp_files/6922.got.cif
#   From: 2010.03.12/outbox.cif.g09.slc.cpg/sg47_4_cif.got.tgz:6922.got - 2010.04.14 03:12:58.
