data_PCOD8197400
_publ_section_title
;
Structure prediction by ZEFSAII (Michael W. Deem and Ramdas Pophale) SiO2 
 PCOD8197400
Probable space group: P M M M
;
_chemical_formula_sum "Si O2"
_cell_formula_units_Z 48
_cell_length_a 9.186780
_cell_length_b 10.514239
_cell_length_c 28.071014
_cell_angle_alpha 90.000000
_cell_angle_beta 90.000000
_cell_angle_gamma 90.000000
_cell_volume 2711.435400
_symmetry_space_group_name_H-M "P M M M"
_symmetry_group_IT_number 47
_symmetry_cell_setting 'orthorhombic'
loop_
_space_group_symop_operation_xyz
x,y,z
-x,-y,z
x,-y,-z
-x,y,-z
-x,-y,-z
x,y,-z
-x,y,z
x,-y,z
loop_
_atom_site_type_symbol
_atom_site_label
_atom_site_fract_x
_atom_site_fract_y
_atom_site_fract_z
Si Si1 0.164943 0.651927 0.500000
Si Si2 0.670758 0.253321 0.054286
Si Si3 0.336523 0.349765 0.591427
Si Si4 0.157757 0.855211 0.134307
Si Si5 0.161449 0.500000 0.943616
Si Si6 0.172913 0.143974 0.237671
Si Si7 0.828065 0.646421 0.312788
O O1 0.163162 0.500000 0.500000
O O2 0.248509 0.705689 0.453642
O O3 0.000000 0.704333 0.500000
O O4 0.500000 0.272527 0.057890
O O5 0.727154 0.148340 0.090885
O O6 0.749373 0.378887 0.073785
O O7 0.715298 0.218137 0.000000
O O8 0.500000 0.292438 0.592478
O O9 0.345267 0.500000 0.586476
O O10 0.251375 0.312029 0.639024
O O11 0.220469 0.804343 0.184850
O O12 0.000000 0.791759 0.120656
O O13 0.126274 0.000000 0.145287
O O14 0.000000 0.500000 0.921234
O O15 0.153326 0.500000 0.000000
O O16 0.230422 0.252037 0.273886
O O17 0.000000 0.139308 0.239613
O O18 0.233603 0.000000 0.248969
O O19 0.788924 0.500000 0.298170
O O20 0.000000 0.658712 0.320875
#
# Coordination Sequence:
#
# PCOD8197400 Si02
#       7
#     4   8   8   8   4   8   8
#     4   9  15  23  37  59  88 123 162 197 230 274
#     4  10  20  33  49  70  98 127 153 187 235 288
#     4   9  16  25  38  59  91 127 157 189 234 283
#     4   9  18  33  51  70  93 122 158 199 239 281
#     4   9  17  31  51  71  91 119 155 189 221 266
#     4   8  15  30  50  69  92 123 158 197 241 286
#     4   9  16  27  45  69  94 119 153 197 238 277
#
# _framework density 17.702801000000001
#
# number of rings (size 3 to 8) (size 9 to 14) (size 15 to 20)
#    0.000    3.000    0.000    2.500    0.000    5.667 
#    1.500    2.500    0.000    1.500    0.000    0.583 
#    0.000    4.667    0.000    0.000    0.000    0.000 
#
# Total GULP energy -594707.180844 kJ/mol
# GULP energy per Si atom -12389.732934 kJ/mol
# Density = 1.766251 g / cm^3
# Si number density = 17.702801 Si / 1000 Ang^3
#
#
#
# Elastic Constant Matrix: (Units=GPa)
#
#
# Indices 1 2 3 4 5 6 
#
# 1 85.1086 21.9333 59.7840 0.0000 0.0000 0.0000
# 2 21.9333 51.6627 47.6379 0.0000 0.0000 0.0000
# 3 59.7840 47.6379 147.5640 0.0000 0.0000 0.0000
# 4 0.0000 0.0000 0.0000 16.1407 0.0000 0.0000
# 5 0.0000 0.0000 0.0000 0.0000 17.0234 0.0000
# 6 0.0000 0.0000 0.0000 0.0000 0.0000 11.4458
#
#
#
# Elastic Compliance Matrix: (Units=1/GPa)
#
#
# Indices 1 2 3 4 5 6 
#
# 1 0.016475 -0.001196 -0.006289 0.000000 0.000000 0.000000
# 2 -0.001196 0.027647 -0.008441 0.000000 0.000000 0.000000
# 3 -0.006289 -0.008441 0.012050 0.000000 0.000000 0.000000
# 4 0.000000 0.000000 0.000000 0.061955 0.000000 0.000000
# 5 0.000000 0.000000 0.000000 0.000000 0.058743 0.000000
# 6 0.000000 0.000000 0.000000 0.000000 0.000000 0.087368
#
#
# Mechanical properties :
#
#
# Convention : Reuss Voigt Hill
#
# Bulk Modulus (GPa) = 41.11613 60.33842 50.72728
# Shear Modulus (GPa) = 16.43674 19.25398 17.84536
#
# Velocity S-wave (km/s) = 3.05041 3.30149 3.17843
# Velocity P-wave (km/s) = 5.97351 6.97791 6.49515
#
# Compressibility (1/GPa) = 0.02432135
#
# Stress axis : x y z
#
# Youngs Moduli (GPa) = 60.69660 36.16990 82.99064
#
# Poissons Ratio (x) = 0.04325 0.52191
# Poissons Ratio (y) = 0.07257 0.70052
# Poissons Ratio (z) = 0.38171 0.30531
#
# Static dielectric constant tensor:
#      x y z
#    x 3.205330 0.000000 0.000000 
#    y 0.000000 3.096720 0.000000 
#    z 0.000000 0.000000 3.401860 
# 
# 
# High freq. dielectric constant tensor:
#      x y z
#    x 1.673410 0.000000 0.000000 
#    y 0.000000 1.644460 0.000000 
#    z 0.000000 0.000000 1.686870 
# 
# From -- ./inp_files/34148.got.cif
#   From: 2010.03.12/outbox.cif.g09.slc.cpg/sg47_18_cif.got.tgz:34148.got - 2010.04.14 03:12:58.
