data_PCOD8197537
_publ_section_title
;
Structure prediction by ZEFSAII (Michael W. Deem and Ramdas Pophale) SiO2 
 PCOD8197537
Probable space group: P M M M
;
_chemical_formula_sum "Si O2"
_cell_formula_units_Z 52
_cell_length_a 8.672506
_cell_length_b 20.920035
_cell_length_c 14.628639
_cell_angle_alpha 90.000000
_cell_angle_beta 90.000000
_cell_angle_gamma 90.000000
_cell_volume 2654.061233
_symmetry_space_group_name_H-M "P M M M"
_symmetry_group_IT_number 47
_symmetry_cell_setting 'orthorhombic'
loop_
_space_group_symop_operation_xyz
x,y,z
-x,-y,z
x,-y,-z
-x,y,-z
-x,-y,-z
x,y,-z
-x,y,z
x,-y,z
loop_
_atom_site_type_symbol
_atom_site_label
_atom_site_fract_x
_atom_site_fract_y
_atom_site_fract_z
Si Si1 0.180851 0.569832 0.777397
Si Si2 0.676075 0.773676 0.393954
Si Si3 0.178554 0.683955 0.104425
Si Si4 0.179072 0.883871 0.286857
Si Si5 0.680999 0.000000 0.603825
Si Si6 0.816461 0.825848 0.101426
Si Si7 0.823284 0.641299 0.601873
O O1 0.253360 0.500000 0.800660
O O2 0.257840 0.627443 0.836104
O O3 0.211743 0.583465 0.670516
O O4 0.000000 0.567086 0.798853
O O5 0.703188 0.789199 0.500000
O O6 0.500000 0.787753 0.365721
O O7 0.792077 0.817159 0.336769
O O8 0.715098 0.700586 0.372150
O O9 0.250681 0.754542 0.123037
O O10 0.000000 0.687328 0.131276
O O11 0.202835 0.664495 0.000000
O O12 0.234949 0.875666 0.180651
O O13 0.000000 0.901775 0.290437
O O14 0.271730 0.938391 0.338646
O O15 0.500000 0.000000 0.593941
O O16 0.751980 0.000000 0.500000
O O17 0.000000 0.820536 0.100117
O O18 0.759304 0.848446 0.000000
O O19 0.787066 0.616308 0.500000
O O20 0.000000 0.664537 0.610444
#
# Coordination Sequence:
#
# PCOD8197537 Si02
#       7
#     8   8   8   8   4   8   8
#     4   9  16  24  36  59  91 124 159 202 252 301
#     4  10  20  33  50  73 101 132 165 206 260 314
#     4   8  13  22  37  59  91 128 159 191 239 298
#     4  11  21  34  57  84 107 135 172 212 250 290
#     4  11  25  43  58  75 108 150 181 205 242 293
#     4   8  15  29  50  77 106 133 164 206 256 304
#     4   9  17  29  45  65  89 120 162 209 253 301
#
# _framework density 19.592614000000001
#
# number of rings (size 3 to 8) (size 9 to 14) (size 15 to 20)
#    0.000    2.692    0.000    3.462    0.000    6.462 
#    0.000    3.462    0.000    4.615    0.000    2.154 
#    0.000    0.000    0.000    5.538    0.000    4.923 
#
# Total GULP energy -644423.600825 kJ/mol
# GULP energy per Si atom -12392.761554 kJ/mol
# Density = 1.954802 g / cm^3
# Si number density = 19.592614 Si / 1000 Ang^3
#
#
#
# Elastic Constant Matrix: (Units=GPa)
#
#
# Indices 1 2 3 4 5 6 
#
# 1 26.1923 13.8751 18.7446 0.0000 0.0000 0.0000
# 2 13.8751 88.4236 72.4951 0.0000 0.0000 0.0000
# 3 18.7446 72.4951 119.7728 0.0000 0.0000 0.0000
# 4 0.0000 0.0000 0.0000 28.4235 0.0000 0.0000
# 5 0.0000 0.0000 0.0000 0.0000 8.0901 0.0000
# 6 0.0000 0.0000 0.0000 0.0000 0.0000 7.2351
#
#
#
# Elastic Compliance Matrix: (Units=1/GPa)
#
#
# Indices 1 2 3 4 5 6 
#
# 1 0.043262 -0.002457 -0.005284 0.000000 0.000000 0.000000
# 2 -0.002457 0.022589 -0.013288 0.000000 0.000000 0.000000
# 3 -0.005284 -0.013288 0.017219 0.000000 0.000000 0.000000
# 4 0.000000 0.000000 0.000000 0.035182 0.000000 0.000000
# 5 0.000000 0.000000 0.000000 0.000000 0.123608 0.000000
# 6 0.000000 0.000000 0.000000 0.000000 0.000000 0.138216
#
#
# Mechanical properties :
#
#
# Convention : Reuss Voigt Hill
#
# Bulk Modulus (GPa) = 24.38242 49.40203 36.89223
# Shear Modulus (GPa) = 11.47306 17.36798 14.42052
#
# Velocity S-wave (km/s) = 2.42250 2.98057 2.71591
# Velocity P-wave (km/s) = 4.50515 6.09216 5.35774
#
# Compressibility (1/GPa) = 0.04101315
#
# Stress axis : x y z
#
# Youngs Moduli (GPa) = 23.11510 44.26927 58.07569
#
# Poissons Ratio (x) = 0.10875 0.30685
# Poissons Ratio (y) = 0.05679 0.77171
# Poissons Ratio (z) = 0.12213 0.58825
#
# Static dielectric constant tensor:
#      x y z
#    x 3.094670 0.000000 0.000000 
#    y 0.000000 3.694800 0.000000 
#    z 0.000000 0.000000 3.929750 
# 
# 
# High freq. dielectric constant tensor:
#      x y z
#    x 1.706440 0.000000 0.000000 
#    y 0.000000 1.753610 0.000000 
#    z 0.000000 0.000000 1.777270 
# 
# From -- ./inp_files/21490.got.cif
#   From: 2010.03.12/outbox.cif.g09.slc.cpg/sg47_11_cif.got.tgz:21490.got - 2010.04.14 03:12:58.
