data_PCOD8197125
_publ_section_title
;
Structure prediction by ZEFSAII (Michael W. Deem and Ramdas Pophale) SiO2 
 PCOD8197125
Probable space group: P M M M
;
_chemical_formula_sum "Si O2"
_cell_formula_units_Z 40
_cell_length_a 15.067906
_cell_length_b 14.901252
_cell_length_c 9.354668
_cell_angle_alpha 90.000000
_cell_angle_beta 90.000000
_cell_angle_gamma 90.000000
_cell_volume 2100.409821
_symmetry_space_group_name_H-M "P M M M"
_symmetry_group_IT_number 47
_symmetry_cell_setting 'orthorhombic'
loop_
_space_group_symop_operation_xyz
x,y,z
-x,-y,z
x,-y,-z
-x,y,-z
-x,-y,-z
x,y,-z
-x,y,z
x,-y,z
loop_
_atom_site_type_symbol
_atom_site_label
_atom_site_fract_x
_atom_site_fract_y
_atom_site_fract_z
Si Si1 0.650709 0.329692 0.339094
Si Si2 0.849097 0.736412 0.339788
Si Si3 0.596606 0.167592 0.163187
Si Si4 0.000000 0.602717 0.330139
Si Si5 0.786544 0.899974 0.166622
Si Si6 0.395234 0.500000 0.162439
O O1 0.615676 0.346816 0.500000
O O2 0.752895 0.305258 0.340604
O O3 0.592654 0.252202 0.267727
O O4 0.643512 0.415928 0.243051
O O5 0.879370 0.762712 0.500000
O O6 0.914826 0.660154 0.276548
O O7 0.847891 0.827882 0.247621
O O8 0.500000 0.117944 0.180067
O O9 0.680969 0.106171 0.204117
O O10 0.607715 0.201473 0.000000
O O11 0.000000 0.500000 0.266968
O O12 0.000000 0.594438 0.500000
O O13 0.816916 0.000000 0.211457
O O14 0.801731 0.883318 0.000000
O O15 0.500000 0.500000 0.169512
O O16 0.360817 0.500000 0.000000
#
# Coordination Sequence:
#
# PCOD8197125 Si02
#       6
#     8   8   8   4   8   4
#     4  10  20  32  49  72  99 130 168 212 260 310
#     4   9  19  35  56  81 105 133 168 211 261 312
#     4   9  17  30  48  70  99 135 175 217 257 299
#     4   9  18  34  60  85 106 132 167 211 258 313
#     4   9  18  33  53  76 105 142 178 214 259 307
#     4  11  23  35  47  66  95 134 178 215 249 297
#
# _framework density 19.043901000000002
#
# number of rings (size 3 to 8) (size 9 to 14) (size 15 to 20)
#    0.000    2.600    0.000    1.500    1.400    5.200 
#    0.000    3.000    0.000    3.600    0.000    5.600 
#    0.000    0.000    0.000    0.000    0.000    0.000 
#
# Total GULP energy -495721.367145 kJ/mol
# GULP energy per Si atom -12393.034179 kJ/mol
# Density = 1.900056 g / cm^3
# Si number density = 19.043901 Si / 1000 Ang^3
#
#
#
# Elastic Constant Matrix: (Units=GPa)
#
#
# Indices 1 2 3 4 5 6 
#
# 1 69.2755 35.9173 11.5560 0.0000 0.0000 0.0000
# 2 35.9173 148.9352 58.7844 0.0000 0.0000 0.0000
# 3 11.5560 58.7844 88.9423 0.0000 0.0000 0.0000
# 4 0.0000 0.0000 0.0000 32.2061 0.0000 0.0000
# 5 0.0000 0.0000 0.0000 0.0000 19.2203 0.0000
# 6 0.0000 0.0000 0.0000 0.0000 0.0000 32.8998
#
#
#
# Elastic Compliance Matrix: (Units=1/GPa)
#
#
# Indices 1 2 3 4 5 6 
#
# 1 0.016526 -0.004246 0.000659 0.000000 0.000000 0.000000
# 2 -0.004246 0.010175 -0.006173 0.000000 0.000000 0.000000
# 3 0.000659 -0.006173 0.015238 0.000000 0.000000 0.000000
# 4 0.000000 0.000000 0.000000 0.031050 0.000000 0.000000
# 5 0.000000 0.000000 0.000000 0.000000 0.052028 0.000000
# 6 0.000000 0.000000 0.000000 0.000000 0.000000 0.030395
#
#
# Mechanical properties :
#
#
# Convention : Reuss Voigt Hill
#
# Bulk Modulus (GPa) = 44.60513 57.74094 51.17304
# Shear Modulus (GPa) = 27.41149 30.25826 28.83487
#
# Velocity S-wave (km/s) = 3.79804 3.99039 3.89540
# Velocity P-wave (km/s) = 6.53503 7.18447 6.86743
#
# Compressibility (1/GPa) = 0.02241894
#
# Stress axis : x y z
#
# Youngs Moduli (GPa) = 60.50925 98.28296 65.62696
#
# Poissons Ratio (x) = 0.41726 -0.04323
# Poissons Ratio (y) = 0.25689 0.40512
# Poissons Ratio (z) = -0.03986 0.60671
#
# Static dielectric constant tensor:
#      x y z
#    x 3.476530 0.000000 0.000000 
#    y 0.000000 3.734420 0.000000 
#    z 0.000000 0.000000 3.610100 
# 
# 
# High freq. dielectric constant tensor:
#      x y z
#    x 1.734910 0.000000 0.000000 
#    y 0.000000 1.734410 0.000000 
#    z 0.000000 0.000000 1.728820 
# 
# From -- ./inp_files/5701.got.cif
#   From: 2010.03.12/outbox.cif.g09.slc.cpg/sg47_3_cif.got.tgz:5701.got - 2010.04.14 03:12:58.
