data_PCOD8197930
_publ_section_title
;
Structure prediction by ZEFSAII (Michael W. Deem and Ramdas Pophale) SiO2 
 PCOD8197930
Probable space group: P M M M
;
_chemical_formula_sum "Si O2"
_cell_formula_units_Z 64
_cell_length_a 23.834528
_cell_length_b 15.477710
_cell_length_c 8.996028
_cell_angle_alpha 90.000000
_cell_angle_beta 90.000000
_cell_angle_gamma 90.000000
_cell_volume 3318.669925
_symmetry_space_group_name_H-M "P M M M"
_symmetry_group_IT_number 47
_symmetry_cell_setting 'orthorhombic'
loop_
_space_group_symop_operation_xyz
x,y,z
-x,-y,z
x,-y,-z
-x,y,-z
-x,-y,-z
x,y,-z
-x,y,z
x,-y,z
loop_
_atom_site_type_symbol
_atom_site_label
_atom_site_fract_x
_atom_site_fract_y
_atom_site_fract_z
Si Si1 0.830602 0.096502 0.670238
Si Si2 0.365440 0.745088 0.823444
Si Si3 0.062927 0.333804 0.328808
Si Si4 0.163120 0.404596 0.829340
Si Si5 0.564086 0.400815 0.673079
Si Si6 0.936731 0.846985 0.174064
Si Si7 0.238327 0.245508 0.175770
Si Si8 0.563042 0.904434 0.823296
O O1 0.835551 0.125941 0.500000
O O2 0.892721 0.093090 0.741029
O O3 0.790128 0.161766 0.754623
O O4 0.805338 0.000000 0.683601
O O5 0.394621 0.658740 0.766318
O O6 0.301766 0.747758 0.765647
O O7 0.396300 0.830462 0.758649
O O8 0.367971 0.743354 0.000000
O O9 0.074664 0.310364 0.500000
O O10 0.107014 0.403883 0.270453
O O11 0.072312 0.250014 0.228738
O O12 0.000000 0.370682 0.309026
O O13 0.190237 0.500000 0.811176
O O14 0.207005 0.332865 0.772797
O O15 0.146570 0.387056 0.000000
O O16 0.573062 0.382315 0.500000
O O17 0.500000 0.380538 0.718602
O O18 0.578524 0.500000 0.710640
O O19 0.000000 0.879062 0.208779
O O20 0.923854 0.850409 0.000000
O O21 0.236386 0.234236 0.000000
O O22 0.500000 0.886251 0.765596
O O23 0.582808 0.000000 0.769238
O O24 0.563815 0.901781 0.000000
#
# Coordination Sequence:
#
# PCOD8197930 Si02
#       8
#     8   8   8   8   8   8   8   8
#     4  11  24  40  59  83 112 148 189 234 282 331
#     4  10  20  33  55  85 111 140 186 238 281 323
#     4  10  20  34  55  83 112 140 174 222 278 334
#     4  10  21  37  56  77 105 144 187 229 278 336
#     4   9  19  36  56  80 114 154 191 227 274 334
#     4  10  20  35  58  86 114 144 179 223 280 343
#     4  10  22  39  57  80 111 148 189 234 282 331
#     4   8  14  26  46  75 111 144 172 211 268 327
#
# _framework density 19.284835000000001
#
# number of rings (size 3 to 8) (size 9 to 14) (size 15 to 20)
#    0.000    2.250    1.250    2.250    0.000    5.750 
#    0.000    5.625    0.000    0.375    0.000    1.750 
#    0.000    0.000    0.000    0.000    0.000    0.000 
#
# Total GULP energy -793559.197408 kJ/mol
# GULP energy per Si atom -12399.362459 kJ/mol
# Density = 1.924094 g / cm^3
# Si number density = 19.284835 Si / 1000 Ang^3
#
#
#
# Elastic Constant Matrix: (Units=GPa)
#
#
# Indices 1 2 3 4 5 6 
#
# 1 138.4422 74.1841 35.1597 0.0000 0.0000 0.0000
# 2 74.1841 124.4660 27.0615 0.0000 0.0000 0.0000
# 3 35.1597 27.0615 37.4356 0.0000 0.0000 0.0000
# 4 0.0000 0.0000 0.0000 25.1768 0.0000 0.0000
# 5 0.0000 0.0000 0.0000 0.0000 20.8288 0.0000
# 6 0.0000 0.0000 0.0000 0.0000 0.0000 14.0484
#
#
#
# Elastic Compliance Matrix: (Units=1/GPa)
#
#
# Indices 1 2 3 4 5 6 
#
# 1 0.012085 -0.005618 -0.007289 0.000000 0.000000 0.000000
# 2 -0.005618 0.012144 -0.003502 0.000000 0.000000 0.000000
# 3 -0.007289 -0.003502 0.036090 0.000000 0.000000 0.000000
# 4 0.000000 0.000000 0.000000 0.039719 0.000000 0.000000
# 5 0.000000 0.000000 0.000000 0.000000 0.048010 0.000000
# 6 0.000000 0.000000 0.000000 0.000000 0.000000 0.071182
#
#
# Mechanical properties :
#
#
# Convention : Reuss Voigt Hill
#
# Bulk Modulus (GPa) = 36.36295 63.68382 50.02338
# Shear Modulus (GPa) = 19.14121 22.94005 21.04063
#
# Velocity S-wave (km/s) = 3.15390 3.45271 3.30668
# Velocity P-wave (km/s) = 5.67093 6.99924 6.36980
#
# Compressibility (1/GPa) = 0.02750052
#
# Stress axis : x y z
#
# Youngs Moduli (GPa) = 82.74877 82.34358 27.70839
#
# Poissons Ratio (x) = 0.46260 0.20196
# Poissons Ratio (y) = 0.46488 0.09705
# Poissons Ratio (z) = 0.60315 0.28840
#
# Static dielectric constant tensor:
#      x y z
#    x 3.660850 0.000000 0.000000 
#    y 0.000000 3.544470 0.000000 
#    z 0.000000 0.000000 3.316310 
# 
# 
# High freq. dielectric constant tensor:
#      x y z
#    x 1.746860 0.000000 0.000000 
#    y 0.000000 1.754930 0.000000 
#    z 0.000000 0.000000 1.733170 
# 
# From -- ./inp_files/7871.got.cif
#   From: 2010.03.12/outbox.cif.g09.slc.cpg/sg47_4_cif.got.tgz:7871.got - 2010.04.14 03:12:58.
