data_PCOD8197500
_publ_section_title
;
Structure prediction by ZEFSAII (Michael W. Deem and Ramdas Pophale) SiO2 
 PCOD8197500
Probable space group: P M M M
;
_chemical_formula_sum "Si O2"
_cell_formula_units_Z 44
_cell_length_a 10.499075
_cell_length_b 9.088225
_cell_length_c 25.279486
_cell_angle_alpha 90.000000
_cell_angle_beta 90.000000
_cell_angle_gamma 90.000000
_cell_volume 2412.116880
_symmetry_space_group_name_H-M "P M M M"
_symmetry_group_IT_number 47
_symmetry_cell_setting 'orthorhombic'
loop_
_space_group_symop_operation_xyz
x,y,z
-x,-y,z
x,-y,-z
-x,y,-z
-x,-y,-z
x,y,-z
-x,y,z
x,-y,z
loop_
_atom_site_type_symbol
_atom_site_label
_atom_site_fract_x
_atom_site_fract_y
_atom_site_fract_z
Si Si1 0.854056 0.326076 0.859310
Si Si2 0.849119 0.835719 0.752423
Si Si3 0.247534 0.173665 0.439190
Si Si4 0.642124 0.325329 0.059313
Si Si5 0.500000 0.335612 0.562517
Si Si6 0.855239 0.338287 0.346433
O O1 0.842182 0.500000 0.851905
O O2 0.810847 0.251772 0.804893
O O3 0.755460 0.265013 0.903354
O O4 0.000000 0.283475 0.874817
O O5 0.789112 0.751846 0.701480
O O6 0.000000 0.845401 0.746877
O O7 0.791000 0.000000 0.754655
O O8 0.216650 0.214719 0.500000
O O9 0.378793 0.243726 0.418609
O O10 0.143540 0.246100 0.401134
O O11 0.252252 0.000000 0.431687
O O12 0.500000 0.274982 0.078410
O O13 0.647701 0.500000 0.058929
O O14 0.666794 0.265422 0.000000
O O15 0.500000 0.500000 0.587090
O O16 0.500000 0.346089 0.500000
O O17 0.790577 0.500000 0.353406
O O18 0.000000 0.362844 0.330119
#
# Coordination Sequence:
#
# PCOD8197500 Si02
#       6
#     8   8   8   8   4   8
#     4   9  16  26  44  70  95 119 155 204 246 280
#     4   9  17  30  48  68  91 121 156 193 238 291
#     4  10  20  33  50  72  98 128 161 198 242 293
#     4   8  14  25  42  66  97 131 162 192 233 286
#     4   9  17  31  51  71  91 119 157 197 236 281
#     4  10  20  33  50  72  98 127 160 200 244 292
#
# _framework density 18.241237999999999
#
# number of rings (size 3 to 8) (size 9 to 14) (size 15 to 20)
#    0.000    2.818    0.000    2.455    0.000    6.182 
#    0.000    3.636    2.000    1.091    0.000    3.818 
#    0.000    0.000    0.000    0.000    0.000    0.000 
#
# Total GULP energy -545302.681975 kJ/mol
# GULP energy per Si atom -12393.242772 kJ/mol
# Density = 1.819972 g / cm^3
# Si number density = 18.241238 Si / 1000 Ang^3
#
#
#
# Elastic Constant Matrix: (Units=GPa)
#
#
# Indices 1 2 3 4 5 6 
#
# 1 61.8650 27.1132 50.9395 0.0000 0.0000 0.0000
# 2 27.1132 92.4948 56.5240 0.0000 0.0000 0.0000
# 3 50.9395 56.5240 134.4543 0.0000 0.0000 0.0000
# 4 0.0000 0.0000 0.0000 17.0161 0.0000 0.0000
# 5 0.0000 0.0000 0.0000 0.0000 11.8656 0.0000
# 6 0.0000 0.0000 0.0000 0.0000 0.0000 17.5124
#
#
#
# Elastic Compliance Matrix: (Units=1/GPa)
#
#
# Indices 1 2 3 4 5 6 
#
# 1 0.023757 -0.001970 -0.008172 0.000000 0.000000 0.000000
# 2 -0.001970 0.014712 -0.005439 0.000000 0.000000 0.000000
# 3 -0.008172 -0.005439 0.012820 0.000000 0.000000 0.000000
# 4 0.000000 0.000000 0.000000 0.058768 0.000000 0.000000
# 5 0.000000 0.000000 0.000000 0.000000 0.084277 0.000000
# 6 0.000000 0.000000 0.000000 0.000000 0.000000 0.057102
#
#
# Mechanical properties :
#
#
# Convention : Reuss Voigt Hill
#
# Bulk Modulus (GPa) = 49.68345 61.99639 55.83992
# Shear Modulus (GPa) = 17.28265 19.56131 18.42198
#
# Velocity S-wave (km/s) = 3.08141 3.27826 3.18135
# Velocity P-wave (km/s) = 6.32108 6.95629 6.64628
#
# Compressibility (1/GPa) = 0.02012743
#
# Stress axis : x y z
#
# Youngs Moduli (GPa) = 42.09359 67.96953 78.00220
#
# Poissons Ratio (x) = 0.13387 0.63747
# Poissons Ratio (y) = 0.08291 0.42424
# Poissons Ratio (z) = 0.34401 0.36968
#
# Static dielectric constant tensor:
#      x y z
#    x 3.274430 0.000000 0.000000 
#    y 0.000000 3.413400 0.000000 
#    z 0.000000 0.000000 3.393540 
# 
# 
# High freq. dielectric constant tensor:
#      x y z
#    x 1.675100 0.000000 0.000000 
#    y 0.000000 1.699890 0.000000 
#    z 0.000000 0.000000 1.702200 
# 
# From -- ./inp_files/4314.got.cif
#   From: 2010.03.12/outbox.cif.g09.slc.cpg/sg47_3_cif.got.tgz:4314.got - 2010.04.14 03:12:58.
