data_PCOD8197076
_publ_section_title
;
Structure prediction by ZEFSAII (Michael W. Deem and Ramdas Pophale) SiO2 
 PCOD8197076
Probable space group: P M M M
;
_chemical_formula_sum "Si O2"
_cell_formula_units_Z 44
_cell_length_a 8.994834
_cell_length_b 28.530477
_cell_length_c 9.029537
_cell_angle_alpha 90.000000
_cell_angle_beta 90.000000
_cell_angle_gamma 90.000000
_cell_volume 2317.222130
_symmetry_space_group_name_H-M "P M M M"
_symmetry_group_IT_number 47
_symmetry_cell_setting 'orthorhombic'
loop_
_space_group_symop_operation_xyz
x,y,z
-x,-y,z
x,-y,-z
-x,y,-z
-x,-y,-z
x,y,-z
-x,y,z
x,-y,z
loop_
_atom_site_type_symbol
_atom_site_label
_atom_site_fract_x
_atom_site_fract_y
_atom_site_fract_z
Si Si1 0.325279 0.413064 0.172503
Si Si2 0.323344 0.319652 0.333050
Si Si3 0.823330 0.858082 0.667099
Si Si4 0.823316 0.948425 0.166266
Si Si5 0.672955 0.773233 0.827338
Si Si6 0.824463 0.500000 0.670717
O O1 0.500000 0.419976 0.199573
O O2 0.266612 0.364522 0.242012
O O3 0.239466 0.454461 0.251380
O O4 0.286211 0.413003 0.000000
O O5 0.260636 0.322116 0.500000
O O6 0.500000 0.319050 0.332309
O O7 0.263510 0.272578 0.255691
O O8 0.765692 0.850853 0.500000
O O9 0.761956 0.908209 0.724937
O O10 0.761268 0.818007 0.771882
O O11 0.000000 0.856564 0.674575
O O12 0.000000 0.947559 0.166185
O O13 0.768166 0.000000 0.219734
O O14 0.764774 0.938602 0.000000
O O15 0.500000 0.780719 0.792160
O O16 0.702148 0.766071 0.000000
O O17 0.774959 0.500000 0.500000
O O18 0.000000 0.500000 0.688338
#
# Coordination Sequence:
#
# PCOD8197076 Si02
#       6
#     8   8   8   8   8   4
#     4  10  20  35  57  83 107 133 170 213 253 297
#     4   9  17  31  53  79 105 133 166 207 253 298
#     4  10  20  32  48  73 103 133 166 206 252 301
#     4   8  14  26  45  68  94 126 164 205 249 297
#     4  10  20  34  53  76 102 134 171 209 251 300
#     4  11  24  39  54  76 108 143 176 211 254 302
#
# _framework density 18.988254000000001
#
# number of rings (size 3 to 8) (size 9 to 14) (size 15 to 20)
#    0.000    2.455    0.000    3.273    0.000    7.636 
#    0.000    2.727    0.000    6.000    0.000    3.818 
#    0.000    0.000    0.000    0.000    0.000    0.000 
#
# Total GULP energy -545588.435318 kJ/mol
# GULP energy per Si atom -12399.737166 kJ/mol
# Density = 1.894504 g / cm^3
# Si number density = 18.988254 Si / 1000 Ang^3
#
#
#
# Elastic Constant Matrix: (Units=GPa)
#
#
# Indices 1 2 3 4 5 6 
#
# 1 22.2840 31.1646 31.6148 0.0000 0.0000 0.0000
# 2 31.1646 173.7088 77.3565 0.0000 0.0000 0.0000
# 3 31.6148 77.3565 133.7835 0.0000 0.0000 0.0000
# 4 0.0000 0.0000 0.0000 34.1234 0.0000 0.0000
# 5 0.0000 0.0000 0.0000 0.0000 22.1276 0.0000
# 6 0.0000 0.0000 0.0000 0.0000 0.0000 25.3375
#
#
#
# Elastic Compliance Matrix: (Units=1/GPa)
#
#
# Indices 1 2 3 4 5 6 
#
# 1 0.073932 -0.007385 -0.013201 0.000000 0.000000 0.000000
# 2 -0.007385 0.008491 -0.003164 0.000000 0.000000 0.000000
# 3 -0.013201 -0.003164 0.012424 0.000000 0.000000 0.000000
# 4 0.000000 0.000000 0.000000 0.029305 0.000000 0.000000
# 5 0.000000 0.000000 0.000000 0.000000 0.045192 0.000000
# 6 0.000000 0.000000 0.000000 0.000000 0.000000 0.039467
#
#
# Mechanical properties :
#
#
# Convention : Reuss Voigt Hill
#
# Bulk Modulus (GPa) = 21.12113 67.78311 44.45212
# Shear Modulus (GPa) = 18.37595 28.96038 23.66816
#
# Velocity S-wave (km/s) = 3.11425 3.90958 3.53436
# Velocity P-wave (km/s) = 4.90702 7.49364 6.33378
#
# Compressibility (1/GPa) = 0.04734594
#
# Stress axis : x y z
#
# Youngs Moduli (GPa) = 13.52596 117.77310 80.48944
#
# Poissons Ratio (x) = 0.86979 1.06252
# Poissons Ratio (y) = 0.09989 0.25470
# Poissons Ratio (z) = 0.17855 0.37268
#
# Static dielectric constant tensor:
#      x y z
#    x 3.007600 0.000000 0.000000 
#    y 0.000000 3.850360 0.000000 
#    z 0.000000 0.000000 3.721790 
# 
# 
# High freq. dielectric constant tensor:
#      x y z
#    x 1.686620 0.000000 0.000000 
#    y 0.000000 1.758910 0.000000 
#    z 0.000000 0.000000 1.752410 
# 
# From -- ./inp_files/2008.got.cif
#   From: 2010.03.12/outbox.cif.g09.slc.cpg/sg47_2_cif.got.tgz:2008.got - 2010.04.14 03:12:58.
