data_PCOD8197204
_publ_section_title
;
Structure prediction by ZEFSAII (Michael W. Deem and Ramdas Pophale) SiO2 
 PCOD8197204
Probable space group: P M M M
;
_chemical_formula_sum "Si O2"
_cell_formula_units_Z 52
_cell_length_a 30.587134
_cell_length_b 10.233108
_cell_length_c 9.017344
_cell_angle_alpha 90.000000
_cell_angle_beta 90.000000
_cell_angle_gamma 90.000000
_cell_volume 2822.441708
_symmetry_space_group_name_H-M "P M M M"
_symmetry_group_IT_number 47
_symmetry_cell_setting 'orthorhombic'
loop_
_space_group_symop_operation_xyz
x,y,z
-x,-y,z
x,-y,-z
-x,y,-z
-x,-y,-z
x,y,-z
-x,y,z
x,-y,z
loop_
_atom_site_type_symbol
_atom_site_label
_atom_site_fract_x
_atom_site_fract_y
_atom_site_fract_z
Si Si1 0.200683 0.150520 0.675366
Si Si2 0.628683 0.853115 0.337772
Si Si3 0.047915 0.345471 0.665452
Si Si4 0.448402 0.500000 0.334799
Si Si5 0.710438 0.845487 0.834898
Si Si6 0.133968 0.347478 0.826291
Si Si7 0.549966 0.760306 0.824660
O O1 0.202177 0.165854 0.500000
O O2 0.247458 0.192738 0.739446
O O3 0.166258 0.252085 0.740393
O O4 0.189224 0.000000 0.719809
O O5 0.622645 0.785352 0.500000
O O6 0.667327 0.783521 0.243903
O O7 0.582984 0.862678 0.247876
O O8 0.644169 0.000000 0.364741
O O9 0.059199 0.292915 0.500000
O O10 0.045665 0.500000 0.660779
O O11 0.085140 0.301897 0.780685
O O12 0.000000 0.291436 0.715406
O O13 0.500000 0.500000 0.347182
O O14 0.427754 0.500000 0.500000
O O15 0.433017 0.623854 0.241241
O O16 0.705569 0.000000 0.847933
O O17 0.714499 0.784881 0.000000
O O18 0.142422 0.500000 0.783442
O O19 0.139885 0.325744 0.000000
O O20 0.500000 0.792929 0.778445
O O21 0.554543 0.759247 0.000000
#
# Coordination Sequence:
#
# PCOD8197204 Si02
#       7
#     8   8   8   4   8   8   8
#     4  10  20  34  54  78 102 132 173 216 257 307
#     4  10  20  33  50  73 101 131 163 199 240 290
#     4   8  14  26  45  69  98 134 175 215 255 303
#     4   9  17  31  51  71  91 119 157 197 235 279
#     4   9  17  31  52  75  98 126 161 201 245 293
#     4  10  20  32  49  76 108 140 173 212 261 311
#     4  10  20  33  50  72  98 128 162 200 242 288
#
# _framework density 18.423762
#
# number of rings (size 3 to 8) (size 9 to 14) (size 15 to 20)
#    0.000    2.538    0.000    3.000    0.000    7.077 
#    0.000    3.077    1.692    0.462    0.000    3.231 
#    0.000    0.000    0.000    0.000    0.000    0.000 
#
# Total GULP energy -644428.789480 kJ/mol
# GULP energy per Si atom -12392.861336 kJ/mol
# Density = 1.838183 g / cm^3
# Si number density = 18.423762 Si / 1000 Ang^3
#
#
#
# Elastic Constant Matrix: (Units=GPa)
#
#
# Indices 1 2 3 4 5 6 
#
# 1 143.2112 36.2472 74.0574 0.0000 0.0000 0.0000
# 2 36.2472 41.7542 31.8911 0.0000 0.0000 0.0000
# 3 74.0574 31.8911 130.6812 0.0000 0.0000 0.0000
# 4 0.0000 0.0000 0.0000 23.6732 0.0000 0.0000
# 5 0.0000 0.0000 0.0000 0.0000 36.6646 0.0000
# 6 0.0000 0.0000 0.0000 0.0000 0.0000 17.0832
#
#
#
# Elastic Compliance Matrix: (Units=1/GPa)
#
#
# Indices 1 2 3 4 5 6 
#
# 1 0.010927 -0.005846 -0.004766 0.000000 0.000000 0.000000
# 2 -0.005846 0.032564 -0.004634 0.000000 0.000000 0.000000
# 3 -0.004766 -0.004634 0.011484 0.000000 0.000000 0.000000
# 4 0.000000 0.000000 0.000000 0.042242 0.000000 0.000000
# 5 0.000000 0.000000 0.000000 0.000000 0.027274 0.000000
# 6 0.000000 0.000000 0.000000 0.000000 0.000000 0.058537
#
#
# Mechanical properties :
#
#
# Convention : Reuss Voigt Hill
#
# Bulk Modulus (GPa) = 40.84371 66.67089 53.75730
# Shear Modulus (GPa) = 22.55516 27.04761 24.80138
#
# Velocity S-wave (km/s) = 3.50271 3.83571 3.67299
# Velocity P-wave (km/s) = 6.21095 7.47549 6.87236
#
# Compressibility (1/GPa) = 0.02448357
#
# Stress axis : x y z
#
# Youngs Moduli (GPa) = 91.51958 30.70906 87.07945
#
# Poissons Ratio (x) = 0.17951 0.41499
# Poissons Ratio (y) = 0.53499 0.40353
# Poissons Ratio (z) = 0.43615 0.14231
#
# Static dielectric constant tensor:
#      x y z
#    x 3.582390 0.000000 0.000000 
#    y 0.000000 3.075920 0.000000 
#    z 0.000000 0.000000 3.663950 
# 
# 
# High freq. dielectric constant tensor:
#      x y z
#    x 1.717870 0.000000 0.000000 
#    y 0.000000 1.663880 0.000000 
#    z 0.000000 0.000000 1.731580 
# 
# From -- ./inp_files/13277.got.cif
#   From: 2010.03.12/outbox.cif.g09.slc.cpg/sg47_7_cif.got.tgz:13277.got - 2010.04.14 03:12:58.
