data_PCOD8197641
_publ_section_title
;
Structure prediction by ZEFSAII (Michael W. Deem and Ramdas Pophale) SiO2 
 PCOD8197641
Probable space group: P M M M
;
_chemical_formula_sum "Si O2"
_cell_formula_units_Z 52
_cell_length_a 23.247983
_cell_length_b 9.237075
_cell_length_c 14.233604
_cell_angle_alpha 90.000000
_cell_angle_beta 90.000000
_cell_angle_gamma 90.000000
_cell_volume 3056.571984
_symmetry_space_group_name_H-M "P M M M"
_symmetry_group_IT_number 47
_symmetry_cell_setting 'orthorhombic'
loop_
_space_group_symop_operation_xyz
x,y,z
-x,-y,z
x,-y,-z
-x,y,-z
-x,-y,-z
x,y,-z
-x,y,z
x,-y,z
loop_
_atom_site_type_symbol
_atom_site_label
_atom_site_fract_x
_atom_site_fract_y
_atom_site_fract_z
Si Si1 0.564968 0.329070 0.706185
Si Si2 0.335174 0.167534 0.608019
Si Si3 0.000000 0.670743 0.397839
Si Si4 0.124178 0.664855 0.612142
Si Si5 0.254249 0.668258 0.893937
Si Si6 0.221820 0.171178 0.282242
Si Si7 0.614748 0.671637 0.898504
O O1 0.500000 0.288062 0.678113
O O2 0.575214 0.500000 0.701770
O O3 0.607646 0.255676 0.632924
O O4 0.576566 0.270190 0.812188
O O5 0.319453 0.196634 0.500000
O O6 0.281545 0.221818 0.669987
O O7 0.348101 0.000000 0.626981
O O8 0.060569 0.711298 0.347285
O O9 0.000000 0.500000 0.412820
O O10 0.000000 0.746364 0.500000
O O11 0.124478 0.678882 0.500000
O O12 0.139097 0.500000 0.641789
O O13 0.169695 0.774262 0.654810
O O14 0.248770 0.500000 0.867819
O O15 0.216360 0.760809 0.821538
O O16 0.319807 0.722238 0.884050
O O17 0.232009 0.696235 0.000000
O O18 0.218006 0.000000 0.275179
O O19 0.612738 0.500000 0.901595
O O20 0.591956 0.730841 0.000000
#
# Coordination Sequence:
#
# PCOD8197641 Si02
#       7
#     8   8   4   8   8   8   8
#     4  10  20  33  51  74  95 116 151 200 247 292
#     4  10  22  38  51  64  89 128 166 198 237 286
#     4   7  12  26  47  71 100 133 170 207 239 278
#     4   9  17  30  50  75 103 137 173 206 241 283
#     4   9  17  31  52  74  96 125 161 199 240 293
#     4  11  21  32  49  74 103 131 162 204 247 291
#     4   8  14  27  48  72  96 119 144 182 235 292
#
# _framework density 17.012522000000001
#
# number of rings (size 3 to 8) (size 9 to 14) (size 15 to 20)
#    0.000    2.692    1.538    2.769    0.000    3.077 
#    0.000    3.462    0.000    1.846    0.000    1.615 
#    0.000    4.308    0.000    0.000    0.000    0.000 
#
# Total GULP energy -644477.204980 kJ/mol
# GULP energy per Si atom -12393.792403 kJ/mol
# Density = 1.697380 g / cm^3
# Si number density = 17.012522 Si / 1000 Ang^3
#
#
#
# Elastic Constant Matrix: (Units=GPa)
#
#
# Indices 1 2 3 4 5 6 
#
# 1 102.9062 41.2169 38.9935 0.0000 0.0000 0.0000
# 2 41.2169 50.4900 35.0300 0.0000 0.0000 0.0000
# 3 38.9935 35.0300 78.2939 0.0000 0.0000 0.0000
# 4 0.0000 0.0000 0.0000 20.0986 0.0000 0.0000
# 5 0.0000 0.0000 0.0000 0.0000 12.8116 0.0000
# 6 0.0000 0.0000 0.0000 0.0000 0.0000 19.2758
#
#
#
# Elastic Compliance Matrix: (Units=1/GPa)
#
#
# Indices 1 2 3 4 5 6 
#
# 1 0.014868 -0.010151 -0.002863 0.000000 0.000000 0.000000
# 2 -0.010151 0.035652 -0.010896 0.000000 0.000000 0.000000
# 3 -0.002863 -0.010896 0.019073 0.000000 0.000000 0.000000
# 4 0.000000 0.000000 0.000000 0.049755 0.000000 0.000000
# 5 0.000000 0.000000 0.000000 0.000000 0.078054 0.000000
# 6 0.000000 0.000000 0.000000 0.000000 0.000000 0.051879
#
#
# Mechanical properties :
#
#
# Convention : Reuss Voigt Hill
#
# Bulk Modulus (GPa) = 45.92703 51.35233 48.63968
# Shear Modulus (GPa) = 16.42797 18.20050 17.31424
#
# Velocity S-wave (km/s) = 3.11085 3.27437 3.19366
# Velocity P-wave (km/s) = 6.32122 6.67427 6.50014
#
# Compressibility (1/GPa) = 0.02177367
#
# Stress axis : x y z
#
# Youngs Moduli (GPa) = 67.25698 28.04891 52.42924
#
# Poissons Ratio (x) = 0.28473 0.15012
# Poissons Ratio (y) = 0.68273 0.57125
# Poissons Ratio (z) = 0.19258 0.30561
#
# Static dielectric constant tensor:
#      x y z
#    x 3.250130 0.000000 0.000000 
#    y 0.000000 2.893680 0.000000 
#    z 0.000000 0.000000 3.272150 
# 
# 
# High freq. dielectric constant tensor:
#      x y z
#    x 1.644820 0.000000 0.000000 
#    y 0.000000 1.629800 0.000000 
#    z 0.000000 0.000000 1.649610 
# 
# From -- ./inp_files/25033.got.cif
#   From: 2010.03.12/outbox.cif.g09.slc.cpg/sg47_13_cif.got.tgz:25033.got - 2010.04.14 03:12:58.
