data_PCOD8197584
_publ_section_title
;
Structure prediction by ZEFSAII (Michael W. Deem and Ramdas Pophale) SiO2 
 PCOD8197584
Probable space group: P M M M
;
_chemical_formula_sum "Si O2"
_cell_formula_units_Z 48
_cell_length_a 9.063102
_cell_length_b 30.922216
_cell_length_c 9.240312
_cell_angle_alpha 90.000000
_cell_angle_beta 90.000000
_cell_angle_gamma 90.000000
_cell_volume 2589.608505
_symmetry_space_group_name_H-M "P M M M"
_symmetry_group_IT_number 47
_symmetry_cell_setting 'orthorhombic'
loop_
_space_group_symop_operation_xyz
x,y,z
-x,-y,z
x,-y,-z
-x,y,-z
-x,-y,-z
x,y,-z
-x,y,z
x,-y,z
loop_
_atom_site_type_symbol
_atom_site_label
_atom_site_fract_x
_atom_site_fract_y
_atom_site_fract_z
Si Si1 0.327148 0.414279 0.168056
Si Si2 0.324204 0.000000 0.836233
Si Si3 0.171816 0.662560 0.669094
Si Si4 0.325108 0.916734 0.664855
Si Si5 0.833513 0.500000 0.171984
Si Si6 0.828519 0.158613 0.168365
Si Si7 0.174871 0.254929 0.840345
O O1 0.500000 0.419423 0.193754
O O2 0.267339 0.374070 0.256460
O O3 0.249563 0.457445 0.229229
O O4 0.289105 0.407015 0.000000
O O5 0.263438 0.042302 0.754174
O O6 0.500000 0.000000 0.835276
O O7 0.263020 0.000000 0.000000
O O8 0.201846 0.661376 0.500000
O O9 0.228650 0.708915 0.727426
O O10 0.000000 0.655250 0.706548
O O11 0.270595 0.921097 0.500000
O O12 0.500000 0.915162 0.673095
O O13 0.264405 0.873029 0.732578
O O14 0.000000 0.500000 0.232621
O O15 0.831214 0.500000 0.000000
O O16 0.772452 0.207124 0.206945
O O17 0.000000 0.152915 0.205573
O O18 0.798891 0.148668 0.000000
O O19 0.000000 0.253762 0.848500
O O20 0.237741 0.266381 0.000000
#
# Coordination Sequence:
#
# PCOD8197584 Si02
#       7
#     8   4   8   8   4   8   8
#     4  10  20  34  53  77 105 136 169 206 251 302
#     4   9  17  31  52  73  94 127 170 212 254 299
#     4  10  20  33  51  76 103 132 169 210 250 296
#     4  10  20  33  50  74 103 133 166 205 250 302
#     4   9  17  31  54  81 104 129 166 212 256 297
#     4   9  18  33  53  77 103 131 166 208 253 301
#     4   8  15  30  52  75  99 130 169 211 252 295
#
# _framework density 18.535620000000002
#
# number of rings (size 3 to 8) (size 9 to 14) (size 15 to 20)
#    0.000    2.667    0.000    3.000    0.000    6.000 
#    0.000    3.333    0.000    6.000    0.000    0.000 
#    0.000    0.000    0.000    0.000    0.000    0.000 
#
# Total GULP energy -595166.402099 kJ/mol
# GULP energy per Si atom -12399.300044 kJ/mol
# Density = 1.849343 g / cm^3
# Si number density = 18.535620 Si / 1000 Ang^3
#
#
#
# Elastic Constant Matrix: (Units=GPa)
#
#
# Indices 1 2 3 4 5 6 
#
# 1 44.0190 44.2257 37.0082 0.0000 0.0000 0.0000
# 2 44.2257 167.3624 79.5437 0.0000 0.0000 0.0000
# 3 37.0082 79.5437 104.1646 0.0000 0.0000 0.0000
# 4 0.0000 0.0000 0.0000 1.7973 0.0000 0.0000
# 5 0.0000 0.0000 0.0000 0.0000 23.1521 0.0000
# 6 0.0000 0.0000 0.0000 0.0000 0.0000 -196.6911
#
#
#
# Elastic Compliance Matrix: (Units=1/GPa)
#
#
# Indices 1 2 3 4 5 6 
#
# 1 0.035112 -0.005258 -0.008460 0.000000 0.000000 0.000000
# 2 -0.005258 0.010166 -0.005895 0.000000 0.000000 0.000000
# 3 -0.008460 -0.005895 0.017108 0.000000 0.000000 0.000000
# 4 0.000000 0.000000 0.000000 0.556397 0.000000 0.000000
# 5 0.000000 0.000000 0.000000 0.000000 0.043193 0.000000
# 6 0.000000 0.000000 0.000000 0.000000 0.000000 -0.005084
#
#
# Mechanical properties :
#
#
# Convention : Reuss Voigt Hill
#
# Bulk Modulus (GPa) = 43.17705 70.78903 56.98304
# Shear Modulus (GPa) = 7.10390 -24.03045 -8.46327
#
# Velocity S-wave (km/s) = 1.95982 -3.60453 -2.13913
# Velocity P-wave (km/s) = 5.33534 4.57714 4.97072
#
# Compressibility (1/GPa) = 0.02316045
#
# Stress axis : x y z
#
# Youngs Moduli (GPa) = 28.47998 98.36362 58.45259
#
# Poissons Ratio (x) = 0.51716 0.49451
# Poissons Ratio (y) = 0.14974 0.34460
# Poissons Ratio (z) = 0.24094 0.57990
#
# Static dielectric constant tensor:
#      x y z
#    x 3.109910 0.000000 0.000000 
#    y 0.000000 3.676880 0.000000 
#    z 0.000000 0.000000 3.396760 
# 
# 
# High freq. dielectric constant tensor:
#      x y z
#    x 1.688560 0.000000 0.000000 
#    y 0.000000 1.736820 0.000000 
#    z 0.000000 0.000000 1.710600 
# 
# From -- ./inp_files/2785.got.cif
#   From: 2010.03.12/outbox.cif.g09.slc.cpg/sg47_2_cif.got.tgz:2785.got - 2010.04.14 03:12:58.
