data_PCOD8197879
_publ_section_title
;
Structure prediction by ZEFSAII (Michael W. Deem and Ramdas Pophale) SiO2 
 PCOD8197879
Probable space group: P M M M
;
_chemical_formula_sum "Si O2"
_cell_formula_units_Z 52
_cell_length_a 29.730725
_cell_length_b 9.159180
_cell_length_c 10.035598
_cell_angle_alpha 90.000000
_cell_angle_beta 90.000000
_cell_angle_gamma 90.000000
_cell_volume 2732.784276
_symmetry_space_group_name_H-M "P M M M"
_symmetry_group_IT_number 47
_symmetry_cell_setting 'orthorhombic'
loop_
_space_group_symop_operation_xyz
x,y,z
-x,-y,z
x,-y,-z
-x,y,-z
-x,-y,-z
x,y,-z
-x,y,z
x,-y,z
loop_
_atom_site_type_symbol
_atom_site_label
_atom_site_fract_x
_atom_site_fract_y
_atom_site_fract_z
Si Si1 0.552772 0.332803 0.848344
Si Si2 0.856861 0.666677 0.146987
Si Si3 0.706461 0.664230 0.342051
Si Si4 0.946917 0.840185 0.500000
Si Si5 0.795337 0.171148 0.345677
Si Si6 0.617582 0.828471 0.654606
Si Si7 0.950211 0.666493 0.755018
O O1 0.500000 0.309064 0.830383
O O2 0.565831 0.500000 0.816246
O O3 0.576529 0.226102 0.744193
O O4 0.566965 0.294109 0.000000
O O5 0.845285 0.500000 0.187573
O O6 0.836521 0.774995 0.255907
O O7 0.911230 0.686619 0.135718
O O8 0.837684 0.702664 0.000000
O O9 0.706408 0.661264 0.500000
O O10 0.706330 0.500000 0.283405
O O11 0.750697 0.748294 0.292311
O O12 0.662453 0.749352 0.291937
O O13 0.931387 0.755799 0.630165
O O14 0.000000 0.853995 0.500000
O O15 0.923982 0.000000 0.500000
O O16 0.805560 0.209177 0.500000
O O17 0.788088 0.000000 0.326292
O O18 0.607766 0.790060 0.500000
O O19 0.624166 0.000000 0.673747
O O20 0.954475 0.500000 0.709012
O O21 0.000000 0.719978 0.805480
#
# Coordination Sequence:
#
# PCOD8197879 Si02
#       7
#     8   8   8   4   8   8   8
#     4   9  19  36  55  75 104 145 192 238 280 323
#     4  10  22  38  55  78 108 141 177 218 264 314
#     4   9  17  32  56  83 109 139 176 219 268 320
#     4   9  17  29  47  73 103 131 163 207 253 297
#     4  10  21  37  58  83 109 139 176 217 264 319
#     4  10  20  33  52  81 115 146 178 222 274 327
#     4   9  18  33  53  76 103 136 173 214 261 310
#
# _framework density 19.028213000000001
#
# number of rings (size 3 to 8) (size 9 to 14) (size 15 to 20)
#    0.000    2.538    0.000    2.077    1.077    6.769 
#    0.000    4.615    0.000    4.615    0.000    3.231 
#    0.000    0.000    0.000    0.000    0.000    0.000 
#
# Total GULP energy -644624.643198 kJ/mol
# GULP energy per Si atom -12396.627754 kJ/mol
# Density = 1.898490 g / cm^3
# Si number density = 19.028213 Si / 1000 Ang^3
#
#
#
# Elastic Constant Matrix: (Units=GPa)
#
#
# Indices 1 2 3 4 5 6 
#
# 1 98.2722 50.9961 44.0075 0.0000 0.0000 0.0000
# 2 50.9961 108.5193 47.2389 0.0000 0.0000 0.0000
# 3 44.0075 47.2389 76.6546 0.0000 0.0000 0.0000
# 4 0.0000 0.0000 0.0000 21.5637 0.0000 0.0000
# 5 0.0000 0.0000 0.0000 0.0000 13.7733 0.0000
# 6 0.0000 0.0000 0.0000 0.0000 0.0000 26.2476
#
#
#
# Elastic Compliance Matrix: (Units=1/GPa)
#
#
# Indices 1 2 3 4 5 6 
#
# 1 0.015191 -0.004568 -0.005906 0.000000 0.000000 0.000000
# 2 -0.004568 0.013967 -0.005985 0.000000 0.000000 0.000000
# 3 -0.005906 -0.005985 0.020125 0.000000 0.000000 0.000000
# 4 0.000000 0.000000 0.000000 0.046374 0.000000 0.000000
# 5 0.000000 0.000000 0.000000 0.000000 0.072604 0.000000
# 6 0.000000 0.000000 0.000000 0.000000 0.000000 0.038099
#
#
# Mechanical properties :
#
#
# Convention : Reuss Voigt Hill
#
# Bulk Modulus (GPa) = 61.10709 63.10345 62.10527
# Shear Modulus (GPa) = 20.43054 21.73049 21.08051
#
# Velocity S-wave (km/s) = 3.28029 3.38304 3.33206
# Velocity P-wave (km/s) = 6.82134 6.96384 6.89296
#
# Compressibility (1/GPa) = 0.01636471
#
# Stress axis : x y z
#
# Youngs Moduli (GPa) = 65.82835 71.59960 49.69061
#
# Poissons Ratio (x) = 0.32704 0.29349
# Poissons Ratio (y) = 0.30068 0.29738
# Poissons Ratio (z) = 0.38881 0.42850
#
# Static dielectric constant tensor:
#      x y z
#    x 3.479120 0.000000 0.000000 
#    y 0.000000 3.583430 0.000000 
#    z 0.000000 0.000000 3.237360 
# 
# 
# High freq. dielectric constant tensor:
#      x y z
#    x 1.740780 0.000000 0.000000 
#    y 0.000000 1.742370 0.000000 
#    z 0.000000 0.000000 1.713750 
# 
# From -- ./inp_files/19813.got.cif
#   From: 2010.03.12/outbox.cif.g09.slc.cpg/sg47_10_cif.got.tgz:19813.got - 2010.04.14 03:12:58.
