data_PCOD8197291
_publ_section_title
;
Structure prediction by ZEFSAII (Michael W. Deem and Ramdas Pophale) SiO2 
 PCOD8197291
Probable space group: P M M M
;
_chemical_formula_sum "Si O2"
_cell_formula_units_Z 64
_cell_length_a 18.328696
_cell_length_b 14.152400
_cell_length_c 13.467731
_cell_angle_alpha 90.000000
_cell_angle_beta 90.000000
_cell_angle_gamma 90.000000
_cell_volume 3493.462585
_symmetry_space_group_name_H-M "P M M M"
_symmetry_group_IT_number 47
_symmetry_cell_setting 'orthorhombic'
loop_
_space_group_symop_operation_xyz
x,y,z
-x,-y,z
x,-y,-z
-x,y,-z
-x,-y,-z
x,y,-z
-x,y,z
x,-y,z
loop_
_atom_site_type_symbol
_atom_site_label
_atom_site_fract_x
_atom_site_fract_y
_atom_site_fract_z
Si Si1 0.189080 0.274033 0.749991
Si Si2 0.365986 0.110832 0.606552
Si Si3 0.583091 0.611199 0.751757
Si Si4 0.675168 0.263047 0.111082
Si Si5 0.914272 0.392145 0.113204
Si Si6 0.195682 0.108703 0.613022
Si Si7 0.417177 0.107529 0.813393
Si Si8 0.710683 0.611125 0.610963
O O1 0.251149 0.247945 0.828459
O O2 0.123106 0.322448 0.808466
O O3 0.158602 0.180506 0.692129
O O4 0.221441 0.345830 0.669518
O O5 0.393135 0.153265 0.500000
O O6 0.281007 0.133086 0.619426
O O7 0.408393 0.152909 0.702014
O O8 0.380270 0.000000 0.603205
O O9 0.500000 0.647902 0.737703
O O10 0.583762 0.500000 0.769666
O O11 0.620765 0.657290 0.847402
O O12 0.631839 0.639299 0.656222
O O13 0.632517 0.163702 0.109807
O O14 0.696258 0.292380 0.000000
O O15 0.888904 0.500000 0.133057
O O16 0.000000 0.382817 0.129593
O O17 0.893712 0.364018 0.000000
O O18 0.167587 0.125284 0.500000
O O19 0.180195 0.000000 0.644188
O O20 0.500000 0.115672 0.848162
O O21 0.389721 0.000000 0.813337
O O22 0.711830 0.652033 0.500000
O O23 0.721691 0.500000 0.613010
#
# Coordination Sequence:
#
# PCOD8197291 Si02
#       8
#     8   8   8   8   8   8   8   8
#     4  11  19  32  56  81 105 136 175 211 257 314
#     4   8  14  27  46  67  92 123 162 210 262 310
#     4   9  19  35  51  66  87 121 168 217 262 310
#     4  11  23  35  48  68  95 125 166 218 268 314
#     4   9  19  37  61  89 118 143 169 207 257 314
#     4   9  17  30  51  78 107 141 179 219 262 307
#     4  10  20  33  47  65  94 132 171 214 267 322
#     4   9  18  31  48  74 105 133 163 205 259 315
#
# _framework density 18.319932000000001
#
# number of rings (size 3 to 8) (size 9 to 14) (size 15 to 20)
#    0.000    2.500    1.250    2.625    0.000    2.500 
#    0.000    3.750    0.000    4.500    0.000    6.125 
#    0.000    0.000    0.000    0.000    0.000    0.000 
#
# Total GULP energy -793323.554471 kJ/mol
# GULP energy per Si atom -12395.680539 kJ/mol
# Density = 1.827824 g / cm^3
# Si number density = 18.319932 Si / 1000 Ang^3
#
#
#
# Elastic Constant Matrix: (Units=GPa)
#
#
# Indices 1 2 3 4 5 6 
#
# 1 53.7294 37.2846 38.3012 0.0000 0.0000 0.0000
# 2 37.2846 58.2746 45.2326 0.0000 0.0000 0.0000
# 3 38.3012 45.2326 127.1867 0.0000 0.0000 0.0000
# 4 0.0000 0.0000 0.0000 30.8102 0.0000 0.0000
# 5 0.0000 0.0000 0.0000 0.0000 22.4337 0.0000
# 6 0.0000 0.0000 0.0000 0.0000 0.0000 22.3257
#
#
#
# Elastic Compliance Matrix: (Units=1/GPa)
#
#
# Indices 1 2 3 4 5 6 
#
# 1 0.034575 -0.019393 -0.003515 0.000000 0.000000 0.000000
# 2 -0.019393 0.034581 -0.006458 0.000000 0.000000 0.000000
# 3 -0.003515 -0.006458 0.011218 0.000000 0.000000 0.000000
# 4 0.000000 0.000000 0.000000 0.032457 0.000000 0.000000
# 5 0.000000 0.000000 0.000000 0.000000 0.044576 0.000000
# 6 0.000000 0.000000 0.000000 0.000000 0.000000 0.044791
#
#
# Mechanical properties :
#
#
# Convention : Reuss Voigt Hill
#
# Bulk Modulus (GPa) = 46.20863 53.42527 49.81695
# Shear Modulus (GPa) = 18.64673 23.00541 20.82607
#
# Velocity S-wave (km/s) = 3.19382 3.54751 3.37530
# Velocity P-wave (km/s) = 6.23527 6.78273 6.51475
#
# Compressibility (1/GPa) = 0.02164098
#
# Stress axis : x y z
#
# Youngs Moduli (GPa) = 28.92277 28.91779 89.14404
#
# Poissons Ratio (x) = 0.56080 0.31334
# Poissons Ratio (y) = 0.56090 0.57572
# Poissons Ratio (z) = 0.10166 0.18676
#
# Static dielectric constant tensor:
#      x y z
#    x 3.000850 0.000000 0.000000 
#    y 0.000000 3.452190 0.000000 
#    z 0.000000 0.000000 3.506370 
# 
# 
# High freq. dielectric constant tensor:
#      x y z
#    x 1.667060 0.000000 0.000000 
#    y 0.000000 1.715550 0.000000 
#    z 0.000000 0.000000 1.713380 
# 
# From -- ./inp_files/22961.got.cif
#   From: 2010.03.12/outbox.cif.g09.slc.cpg/sg47_12_cif.got.tgz:22961.got - 2010.04.14 03:12:58.
