data_PCOD8197660
_publ_section_title
;
Structure prediction by ZEFSAII (Michael W. Deem and Ramdas Pophale) SiO2 
 PCOD8197660
Probable space group: P M M M
;
_chemical_formula_sum "Si O2"
_cell_formula_units_Z 64
_cell_length_a 9.150005
_cell_length_b 19.462379
_cell_length_c 20.088663
_cell_angle_alpha 90.000000
_cell_angle_beta 90.000000
_cell_angle_gamma 90.000000
_cell_volume 3577.406487
_symmetry_space_group_name_H-M "P M M M"
_symmetry_group_IT_number 47
_symmetry_cell_setting 'orthorhombic'
loop_
_space_group_symop_operation_xyz
x,y,z
-x,-y,z
x,-y,-z
-x,y,-z
-x,-y,-z
x,y,-z
-x,y,z
x,-y,z
loop_
_atom_site_type_symbol
_atom_site_label
_atom_site_fract_x
_atom_site_fract_y
_atom_site_fract_z
Si Si1 0.333498 0.420650 0.923011
Si Si2 0.667807 0.078559 0.077477
Si Si3 0.326322 0.923204 0.573624
Si Si4 0.671281 0.174677 0.688183
Si Si5 0.170576 0.331755 0.818484
Si Si6 0.832003 0.420469 0.576640
Si Si7 0.829178 0.173252 0.178648
Si Si8 0.329148 0.333118 0.684816
O O1 0.500000 0.399511 0.906589
O O2 0.308129 0.500000 0.905353
O O3 0.222327 0.375624 0.880935
O O4 0.299007 0.406849 0.000000
O O5 0.500000 0.095818 0.094334
O O6 0.772461 0.129322 0.117020
O O7 0.702862 0.000000 0.097200
O O8 0.699052 0.090312 0.000000
O O9 0.267548 0.903524 0.500000
O O10 0.500000 0.919978 0.573229
O O11 0.264067 0.869540 0.627108
O O12 0.274166 0.000000 0.592627
O O13 0.500000 0.162485 0.698661
O O14 0.751051 0.148222 0.754232
O O15 0.707428 0.253506 0.672167
O O16 0.208762 0.252817 0.834222
O O17 0.251464 0.358237 0.752229
O O18 0.000000 0.343131 0.807179
O O19 0.794741 0.404246 0.500000
O O20 0.801891 0.500000 0.592303
O O21 0.727571 0.375056 0.621941
O O22 0.000000 0.402156 0.591893
O O23 0.000000 0.160985 0.186822
O O24 0.500000 0.346494 0.693088
#
# Coordination Sequence:
#
# PCOD8197660 Si02
#       8
#     8   8   8   8   8   8   8   8
#     4   9  19  36  56  78 104 132 164 206 254 300
#     4   9  19  36  56  77 101 131 169 210 251 300
#     4   8  14  26  46  72  99 126 159 200 243 286
#     4   9  18  32  50  73 101 132 167 207 248 293
#     4  10  21  36  53  74 103 138 173 208 248 301
#     4   9  19  36  55  74  99 132 168 206 251 306
#     4  10  21  35  51  74 104 135 168 208 252 298
#     4  10  20  33  51  75 102 132 167 210 256 298
#
# _framework density 17.890055
#
# number of rings (size 3 to 8) (size 9 to 14) (size 15 to 20)
#    0.000    2.750    0.000    2.625    0.000    5.500 
#    0.000    6.875    0.000    0.375    0.000    0.875 
#    0.000    0.000    0.000    0.000    0.000    0.000 
#
# Total GULP energy -793673.927442 kJ/mol
# GULP energy per Si atom -12401.155116 kJ/mol
# Density = 1.784934 g / cm^3
# Si number density = 17.890055 Si / 1000 Ang^3
#
#
#
# Elastic Constant Matrix: (Units=GPa)
#
#
# Indices 1 2 3 4 5 6 
#
# 1 72.2827 44.8003 54.5610 0.0000 0.0000 0.0000
# 2 44.8003 77.3193 68.2269 0.0000 0.0000 0.0000
# 3 54.5610 68.2269 115.9849 0.0000 0.0000 0.0000
# 4 0.0000 0.0000 0.0000 31.7123 0.0000 0.0000
# 5 0.0000 0.0000 0.0000 0.0000 28.6728 0.0000
# 6 0.0000 0.0000 0.0000 0.0000 0.0000 26.8458
#
#
#
# Elastic Compliance Matrix: (Units=1/GPa)
#
#
# Indices 1 2 3 4 5 6 
#
# 1 0.023654 -0.008082 -0.006373 0.000000 0.000000 0.000000
# 2 -0.008082 0.029654 -0.013641 0.000000 0.000000 0.000000
# 3 -0.006373 -0.013641 0.019644 0.000000 0.000000 0.000000
# 4 0.000000 0.000000 0.000000 0.031533 0.000000 0.000000
# 5 0.000000 0.000000 0.000000 0.000000 0.034876 0.000000
# 6 0.000000 0.000000 0.000000 0.000000 0.000000 0.037250
#
#
# Mechanical properties :
#
#
# Convention : Reuss Voigt Hill
#
# Bulk Modulus (GPa) = 59.67006 66.75146 63.21076
# Shear Modulus (GPa) = 20.97388 23.97943 22.47666
#
# Velocity S-wave (km/s) = 3.42771 3.66509 3.54839
# Velocity P-wave (km/s) = 7.00655 7.43664 7.22480
#
# Compressibility (1/GPa) = 0.01675882
#
# Stress axis : x y z
#
# Youngs Moduli (GPa) = 42.27529 33.72275 50.90533
#
# Poissons Ratio (x) = 0.27255 0.32443
# Poissons Ratio (y) = 0.34167 0.69442
# Poissons Ratio (z) = 0.26943 0.46003
#
# Static dielectric constant tensor:
#      x y z
#    x 3.147730 0.000000 0.000000 
#    y 0.000000 3.301100 0.000000 
#    z 0.000000 0.000000 3.389680 
# 
# 
# High freq. dielectric constant tensor:
#      x y z
#    x 1.680750 0.000000 0.000000 
#    y 0.000000 1.690330 0.000000 
#    z 0.000000 0.000000 1.699270 
# 
# From -- ./inp_files/9993.got.cif
#   From: 2010.03.12/outbox.cif.g09.slc.cpg/sg47_5_cif.got.tgz:9993.got - 2010.04.14 03:12:58.
