data_PCOD8197383
_publ_section_title
;
Structure prediction by ZEFSAII (Michael W. Deem and Ramdas Pophale) SiO2 
 PCOD8197383
Probable space group: P M M M
;
_chemical_formula_sum "Si O2"
_cell_formula_units_Z 56
_cell_length_a 8.893573
_cell_length_b 23.040591
_cell_length_c 14.799278
_cell_angle_alpha 90.000000
_cell_angle_beta 90.000000
_cell_angle_gamma 90.000000
_cell_volume 3032.567087
_symmetry_space_group_name_H-M "P M M M"
_symmetry_group_IT_number 47
_symmetry_cell_setting 'orthorhombic'
loop_
_space_group_symop_operation_xyz
x,y,z
-x,-y,z
x,-y,-z
-x,y,-z
-x,-y,-z
x,y,-z
-x,y,z
x,-y,z
loop_
_atom_site_type_symbol
_atom_site_label
_atom_site_fract_x
_atom_site_fract_y
_atom_site_fract_z
Si Si1 0.676258 0.631113 0.097663
Si Si2 0.824759 0.823679 0.730619
Si Si3 0.166253 0.931883 0.500000
Si Si4 0.320593 0.612233 0.294520
Si Si5 0.320628 0.500000 0.601627
Si Si6 0.831494 0.749281 0.098868
Si Si7 0.677777 0.065670 0.318310
Si Si8 0.678019 0.729365 0.394420
O O1 0.500000 0.621176 0.095415
O O2 0.740084 0.603491 0.190867
O O3 0.709774 0.698859 0.105144
O O4 0.742400 0.607247 0.000000
O O5 0.789865 0.795696 0.826585
O O6 0.749859 0.886853 0.747302
O O7 0.753014 0.786037 0.649698
O O8 0.000000 0.830831 0.709794
O O9 0.262217 0.912393 0.414669
O O10 0.000000 0.902688 0.500000
O O11 0.146356 0.000000 0.500000
O O12 0.500000 0.612960 0.295316
O O13 0.257422 0.557460 0.349717
O O14 0.262988 0.671758 0.341415
O O15 0.500000 0.500000 0.603146
O O16 0.259007 0.500000 0.500000
O O17 0.000000 0.724084 0.115164
O O18 0.822096 0.779011 0.000000
O O19 0.500000 0.068826 0.317224
O O20 0.731687 0.000000 0.294725
O O21 0.724300 0.724843 0.500000
O O22 0.500000 0.735345 0.384583
#
# Coordination Sequence:
#
# PCOD8197383 Si02
#       8
#     8   8   4   8   4   8   8   8
#     4   9  16  27  46  71  98 128 161 203 259 314
#     4  11  22  34  52  77 103 131 166 211 261 309
#     4   9  17  31  51  73  97 129 171 214 251 290
#     4   9  16  28  45  68  99 132 170 213 253 301
#     4   9  16  26  43  67  96 135 179 215 250 296
#     4   9  18  33  52  75 101 129 165 208 256 310
#     4  10  21  36  53  72  99 137 176 211 250 302
#     4  10  20  33  49  70 100 136 170 209 256 305
#
# _framework density 18.466204000000001
#
# number of rings (size 3 to 8) (size 9 to 14) (size 15 to 20)
#    0.000    2.429    1.429    1.500    1.000    4.286 
#    0.000    0.357    0.000    2.571    0.000    5.000 
#    0.000    5.714    0.000    0.000    0.000    0.000 
#
# Total GULP energy -693861.853879 kJ/mol
# GULP energy per Si atom -12390.390248 kJ/mol
# Density = 1.842417 g / cm^3
# Si number density = 18.466204 Si / 1000 Ang^3
#
#
#
# Elastic Constant Matrix: (Units=GPa)
#
#
# Indices 1 2 3 4 5 6 
#
# 1 30.3647 19.8932 22.3817 0.0000 0.0000 0.0000
# 2 19.8932 106.3563 55.9762 0.0000 0.0000 0.0000
# 3 22.3817 55.9762 154.0263 0.0000 0.0000 0.0000
# 4 0.0000 0.0000 0.0000 24.9052 0.0000 0.0000
# 5 0.0000 0.0000 0.0000 0.0000 19.3219 0.0000
# 6 0.0000 0.0000 0.0000 0.0000 0.0000 10.0203
#
#
#
# Elastic Compliance Matrix: (Units=1/GPa)
#
#
# Indices 1 2 3 4 5 6 
#
# 1 0.039208 -0.005360 -0.003749 0.000000 0.000000 0.000000
# 2 -0.005360 0.012359 -0.003713 0.000000 0.000000 0.000000
# 3 -0.003749 -0.003713 0.008386 0.000000 0.000000 0.000000
# 4 0.000000 0.000000 0.000000 0.040152 0.000000 0.000000
# 5 0.000000 0.000000 0.000000 0.000000 0.051755 0.000000
# 6 0.000000 0.000000 0.000000 0.000000 0.000000 0.099797
#
#
# Mechanical properties :
#
#
# Convention : Reuss Voigt Hill
#
# Bulk Modulus (GPa) = 29.14665 54.13883 41.64274
# Shear Modulus (GPa) = 17.31668 23.68256 20.49962
#
# Velocity S-wave (km/s) = 3.06559 3.58506 3.33545
# Velocity P-wave (km/s) = 5.32433 6.82043 6.11829
#
# Compressibility (1/GPa) = 0.03430926
#
# Stress axis : x y z
#
# Youngs Moduli (GPa) = 25.50474 80.91315 119.24010
#
# Poissons Ratio (x) = 0.43372 0.44707
# Poissons Ratio (y) = 0.13671 0.44269
# Poissons Ratio (z) = 0.09563 0.30040
#
# Static dielectric constant tensor:
#      x y z
#    x 3.171160 0.000000 0.000000 
#    y 0.000000 3.360890 0.000000 
#    z 0.000000 0.000000 4.944610 
# 
# 
# High freq. dielectric constant tensor:
#      x y z
#    x 1.690630 0.000000 0.000000 
#    y 0.000000 1.700430 0.000000 
#    z 0.000000 0.000000 1.724670 
# 
# From -- ./inp_files/21676.got.cif
#   From: 2010.03.12/outbox.cif.g09.slc.cpg/sg47_11_cif.got.tgz:21676.got - 2010.04.14 03:12:58.
