data_PCOD8197508
_publ_section_title
;
Structure prediction by ZEFSAII (Michael W. Deem and Ramdas Pophale) SiO2 
 PCOD8197508
Probable space group: P M M M
;
_chemical_formula_sum "Si O2"
_cell_formula_units_Z 56
_cell_length_a 21.725209
_cell_length_b 9.275346
_cell_length_c 14.943046
_cell_angle_alpha 90.000000
_cell_angle_beta 90.000000
_cell_angle_gamma 90.000000
_cell_volume 3011.155722
_symmetry_space_group_name_H-M "P M M M"
_symmetry_group_IT_number 47
_symmetry_cell_setting 'orthorhombic'
loop_
_space_group_symop_operation_xyz
x,y,z
-x,-y,z
x,-y,-z
-x,y,-z
-x,-y,-z
x,y,-z
-x,y,z
x,-y,z
loop_
_atom_site_type_symbol
_atom_site_label
_atom_site_fract_x
_atom_site_fract_y
_atom_site_fract_z
Si Si1 0.815468 0.662675 0.401399
Si Si2 0.816403 0.662198 0.901596
Si Si3 0.068500 0.835152 0.645271
Si Si4 0.500000 0.827402 0.107176
Si Si5 0.728029 0.328536 0.750688
Si Si6 0.589102 0.327751 0.759330
Si Si7 0.068335 0.835280 0.145105
Si Si8 0.500000 0.331228 0.602021
O O1 0.786285 0.667459 0.500000
O O2 0.829762 0.500000 0.370389
O O3 0.880142 0.744252 0.404679
O O4 0.764428 0.731594 0.335951
O O5 0.830934 0.500000 0.869970
O O6 0.765827 0.731382 0.835939
O O7 0.880788 0.744429 0.905694
O O8 0.786860 0.665718 0.000000
O O9 0.078840 0.817707 0.750104
O O10 0.000000 0.780596 0.618596
O O11 0.075842 0.000000 0.615717
O O12 0.558885 0.755769 0.156554
O O13 0.500000 0.000000 0.121688
O O14 0.500000 0.791791 0.000000
O O15 0.724233 0.500000 0.749529
O O16 0.658812 0.269686 0.753563
O O17 0.583288 0.500000 0.776403
O O18 0.558831 0.286590 0.663067
O O19 0.000000 0.780387 0.118520
O O20 0.075684 0.000000 0.115564
O O21 0.500000 0.500000 0.586982
O O22 0.500000 0.261529 0.500000
#
# Coordination Sequence:
#
# PCOD8197508 Si02
#       8
#     8   8   8   4   8   8   8   4
#     4  10  20  33  51  76 104 135 171 211 260 315
#     4  10  20  33  50  72  98 130 167 207 256 311
#     4   9  18  33  52  72  95 128 172 219 266 314
#     4  10  21  37  56  81 114 143 169 212 264 302
#     4   9  18  34  52  74 106 137 168 210 251 290
#     4   9  18  33  56  82 106 141 183 212 244 299
#     4   9  18  33  52  72  94 124 165 213 263 311
#     4   8  14  26  48  81 112 131 159 208 252 284
#
# _framework density 18.59751
#
# number of rings (size 3 to 8) (size 9 to 14) (size 15 to 20)
#    0.000    2.714    1.429    1.500    0.000    3.429 
#    0.000   10.000    0.000    3.429    0.000    0.000 
#    0.000    0.000    0.000    0.000    0.000    0.000 
#
# Total GULP energy -693992.159100 kJ/mol
# GULP energy per Si atom -12392.717127 kJ/mol
# Density = 1.855518 g / cm^3
# Si number density = 18.597510 Si / 1000 Ang^3
#
#
#
# Elastic Constant Matrix: (Units=GPa)
#
#
# Indices 1 2 3 4 5 6 
#
# 1 162.6851 35.1786 67.6705 0.0000 0.0000 0.0000
# 2 35.1786 43.0531 31.0592 0.0000 0.0000 0.0000
# 3 67.6705 31.0592 130.7287 0.0000 0.0000 0.0000
# 4 0.0000 0.0000 0.0000 16.9139 0.0000 0.0000
# 5 0.0000 0.0000 0.0000 0.0000 7.5356 0.0000
# 6 0.0000 0.0000 0.0000 0.0000 0.0000 8.3631
#
#
#
# Elastic Compliance Matrix: (Units=1/GPa)
#
#
# Indices 1 2 3 4 5 6 
#
# 1 0.008516 -0.004560 -0.003325 0.000000 0.000000 0.000000
# 2 -0.004560 0.030473 -0.004880 0.000000 0.000000 0.000000
# 3 -0.003325 -0.004880 0.010530 0.000000 0.000000 0.000000
# 4 0.000000 0.000000 0.000000 0.059123 0.000000 0.000000
# 5 0.000000 0.000000 0.000000 0.000000 0.132704 0.000000
# 6 0.000000 0.000000 0.000000 0.000000 0.000000 0.119573
#
#
# Mechanical properties :
#
#
# Convention : Reuss Voigt Hill
#
# Bulk Modulus (GPa) = 41.68335 67.14262 54.41299
# Shear Modulus (GPa) = 12.67610 20.06643 16.37126
#
# Velocity S-wave (km/s) = 2.61358 3.28835 2.97019
# Velocity P-wave (km/s) = 5.61870 7.11330 6.40972
#
# Compressibility (1/GPa) = 0.02399039
#
# Stress axis : x y z
#
# Youngs Moduli (GPa) = 117.42868 32.81581 94.96818
#
# Poissons Ratio (x) = 0.14963 0.31575
# Poissons Ratio (y) = 0.53544 0.46342
# Poissons Ratio (z) = 0.39043 0.16013
#
# Static dielectric constant tensor:
#      x y z
#    x 3.556990 0.000000 0.000000 
#    y 0.000000 3.145240 0.000000 
#    z 0.000000 0.000000 3.532750 
# 
# 
# High freq. dielectric constant tensor:
#      x y z
#    x 1.719250 0.000000 0.000000 
#    y 0.000000 1.684240 0.000000 
#    z 0.000000 0.000000 1.732160 
# 
# From -- ./inp_files/25251.got.cif
#   From: 2010.03.12/outbox.cif.g09.slc.cpg/sg47_13_cif.got.tgz:25251.got - 2010.04.14 03:12:58.
