data_PCOD8197197
_publ_section_title
;
Structure prediction by ZEFSAII (Michael W. Deem and Ramdas Pophale) SiO2 
 PCOD8197197
Probable space group: P M M M
;
_chemical_formula_sum "Si O2"
_cell_formula_units_Z 48
_cell_length_a 9.065942
_cell_length_b 30.619255
_cell_length_c 9.185679
_cell_angle_alpha 90.000000
_cell_angle_beta 90.000000
_cell_angle_gamma 90.000000
_cell_volume 2549.874587
_symmetry_space_group_name_H-M "P M M M"
_symmetry_group_IT_number 47
_symmetry_cell_setting 'orthorhombic'
loop_
_space_group_symop_operation_xyz
x,y,z
-x,-y,z
x,-y,-z
-x,y,-z
-x,-y,-z
x,y,-z
-x,y,z
x,-y,z
loop_
_atom_site_type_symbol
_atom_site_label
_atom_site_fract_x
_atom_site_fract_y
_atom_site_fract_z
Si Si1 0.827559 0.709228 0.831919
Si Si2 0.332875 0.632135 0.672985
Si Si3 0.834452 0.451936 0.672975
Si Si4 0.330910 0.050511 0.832063
Si Si5 0.169587 0.124562 0.328681
Si Si6 0.672442 0.797773 0.168312
O O1 0.768087 0.669779 0.736867
O O2 0.750250 0.753528 0.778853
O O3 0.000000 0.714405 0.803956
O O4 0.790656 0.699870 0.000000
O O5 0.322142 0.634368 0.500000
O O6 0.500000 0.637995 0.727369
O O7 0.274399 0.585454 0.732476
O O8 0.834354 0.451382 0.500000
O O9 0.781881 0.500000 0.727591
O O10 0.000000 0.442511 0.730101
O O11 0.500000 0.061687 0.793029
O O12 0.222101 0.078122 0.732084
O O13 0.297535 0.000000 0.801249
O O14 0.300757 0.062011 0.000000
O O15 0.192279 0.124503 0.500000
O O16 0.267851 0.162555 0.261941
O O17 0.000000 0.132017 0.285142
O O18 0.500000 0.792503 0.196591
O O19 0.708106 0.807316 0.000000
#
# Coordination Sequence:
#
# PCOD8197197 Si02
#       6
#     8   8   8   8   8   8
#     4  10  21  37  57  79 103 135 174 214 260 313
#     4  10  20  32  49  76 107 138 172 211 258 310
#     4   8  14  26  45  69  98 133 172 213 257 305
#     4   9  19  37  60  84 109 140 181 225 266 311
#     4  11  24  38  53  79 114 147 178 215 261 311
#     4  10  21  38  60  82 103 132 173 218 262 311
#
# _framework density 18.824456999999999
#
# number of rings (size 3 to 8) (size 9 to 14) (size 15 to 20)
#    0.000    2.333    0.000    3.500    0.000    8.333 
#    0.000    4.167    0.000    0.500    0.000    3.500 
#    0.000    0.000    0.000    0.000    0.000    0.000 
#
# Total GULP energy -595277.991409 kJ/mol
# GULP energy per Si atom -12401.624821 kJ/mol
# Density = 1.878161 g / cm^3
# Si number density = 18.824457 Si / 1000 Ang^3
#
#
#
# Elastic Constant Matrix: (Units=GPa)
#
#
# Indices 1 2 3 4 5 6 
#
# 1 101.0677 60.1829 37.7975 0.0000 0.0000 0.0000
# 2 60.1829 130.3179 40.3985 0.0000 0.0000 0.0000
# 3 37.7975 40.3985 42.1950 0.0000 0.0000 0.0000
# 4 0.0000 0.0000 0.0000 30.3160 0.0000 0.0000
# 5 0.0000 0.0000 0.0000 0.0000 28.0426 0.0000
# 6 0.0000 0.0000 0.0000 0.0000 0.0000 41.9703
#
#
#
# Elastic Compliance Matrix: (Units=1/GPa)
#
#
# Indices 1 2 3 4 5 6 
#
# 1 0.016413 -0.004298 -0.010588 0.000000 0.000000 0.000000
# 2 -0.004298 0.012038 -0.007675 0.000000 0.000000 0.000000
# 3 -0.010588 -0.007675 0.040533 0.000000 0.000000 0.000000
# 4 0.000000 0.000000 0.000000 0.032986 0.000000 0.000000
# 5 0.000000 0.000000 0.000000 0.000000 0.035660 0.000000
# 6 0.000000 0.000000 0.000000 0.000000 0.000000 0.023826
#
#
# Mechanical properties :
#
#
# Convention : Reuss Voigt Hill
#
# Bulk Modulus (GPa) = 41.90860 61.14870 51.52865
# Shear Modulus (GPa) = 23.30660 29.07922 26.19291
#
# Velocity S-wave (km/s) = 3.52248 3.93460 3.73423
# Velocity P-wave (km/s) = 6.23338 7.29353 6.78420
#
# Compressibility (1/GPa) = 0.02386145
#
# Stress axis : x y z
#
# Youngs Moduli (GPa) = 60.92666 83.07293 24.67146
#
# Poissons Ratio (x) = 0.35701 0.26122
# Poissons Ratio (y) = 0.26184 0.18936
# Poissons Ratio (z) = 0.64509 0.63762
#
# Static dielectric constant tensor:
#      x y z
#    x 3.602380 0.000000 0.000000 
#    y 0.000000 3.670170 0.000000 
#    z 0.000000 0.000000 3.194310 
# 
# 
# High freq. dielectric constant tensor:
#      x y z
#    x 1.740090 0.000000 0.000000 
#    y 0.000000 1.747490 0.000000 
#    z 0.000000 0.000000 1.703170 
# 
# From -- ./inp_files/2451.got.cif
#   From: 2010.03.12/outbox.cif.g09.slc.cpg/sg47_2_cif.got.tgz:2451.got - 2010.04.14 03:12:58.
