data_PCOD8197473
_publ_section_title
;
Structure prediction by ZEFSAII (Michael W. Deem and Ramdas Pophale) SiO2 
 PCOD8197473
Probable space group: P M M M
;
_chemical_formula_sum "Si O2"
_cell_formula_units_Z 64
_cell_length_a 18.921965
_cell_length_b 9.056141
_cell_length_c 20.750479
_cell_angle_alpha 90.000000
_cell_angle_beta 90.000000
_cell_angle_gamma 90.000000
_cell_volume 3555.801729
_symmetry_space_group_name_H-M "P M M M"
_symmetry_group_IT_number 47
_symmetry_cell_setting 'orthorhombic'
loop_
_space_group_symop_operation_xyz
x,y,z
-x,-y,z
x,-y,-z
-x,y,-z
-x,-y,-z
x,y,-z
-x,y,z
x,-y,z
loop_
_atom_site_type_symbol
_atom_site_label
_atom_site_fract_x
_atom_site_fract_y
_atom_site_fract_z
Si Si1 0.663127 0.174935 0.803401
Si Si2 0.167896 0.672296 0.425411
Si Si3 0.919052 0.825703 0.679187
Si Si4 0.814489 0.830810 0.068451
Si Si5 0.175699 0.828370 0.793575
Si Si6 0.668466 0.327836 0.929565
Si Si7 0.421040 0.175484 0.320267
Si Si8 0.312013 0.827423 0.573772
O O1 0.743628 0.230572 0.791226
O O2 0.631766 0.241546 0.870203
O O3 0.615510 0.234581 0.744858
O O4 0.659938 0.000000 0.808812
O O5 0.152952 0.705716 0.500000
O O6 0.170509 0.500000 0.410546
O O7 0.104710 0.746899 0.386219
O O8 0.242257 0.741965 0.403866
O O9 0.873454 0.756835 0.738620
O O10 0.000000 0.785762 0.693007
O O11 0.908518 0.000000 0.670810
O O12 0.857692 0.796648 0.134501
O O13 0.749317 0.721079 0.066369
O O14 0.786260 0.000000 0.073898
O O15 0.857370 0.811969 0.000000
O O16 0.176246 0.000000 0.778194
O O17 0.664897 0.500000 0.914087
O O18 0.632860 0.294370 0.000000
O O19 0.500000 0.241589 0.325328
O O20 0.376706 0.228562 0.382339
O O21 0.423839 0.000000 0.318796
O O22 0.331940 0.791801 0.500000
O O23 0.296988 0.000000 0.584385
#
# Coordination Sequence:
#
# PCOD8197473 Si02
#       8
#     8   8   8   8   8   8   8   8
#     4   9  16  27  45  65  88 122 157 188 225 274
#     4  10  21  36  53  72  95 123 155 195 240 282
#     4  10  20  33  50  71  96 127 160 194 233 280
#     4   8  13  23  41  63  87 117 151 185 224 273
#     4   8  14  26  44  66  91 119 153 190 227 268
#     4   9  16  25  39  62  90 114 142 190 243 280
#     4   9  17  29  47  73 102 128 156 193 234 273
#     4   9  17  31  53  77  99 125 157 192 229 274
#
# _framework density 17.998754999999999
#
# number of rings (size 3 to 8) (size 9 to 14) (size 15 to 20)
#    0.000    3.000    0.000    2.250    0.000    4.250 
#    0.000    8.125    0.000    2.250    0.000    7.000 
#    0.000    0.000    0.000   32.625    0.000   30.250 
#
# Total GULP energy -792961.388701 kJ/mol
# GULP energy per Si atom -12390.021698 kJ/mol
# Density = 1.795779 g / cm^3
# Si number density = 17.998755 Si / 1000 Ang^3
#
#
#
# Elastic Constant Matrix: (Units=GPa)
#
#
# Indices 1 2 3 4 5 6 
#
# 1 76.3784 25.0481 58.7211 0.0000 0.0000 0.0000
# 2 25.0481 34.7014 33.6278 0.0000 0.0000 0.0000
# 3 58.7211 33.6278 137.7161 0.0000 0.0000 0.0000
# 4 0.0000 0.0000 0.0000 18.1041 0.0000 0.0000
# 5 0.0000 0.0000 0.0000 0.0000 9.2295 0.0000
# 6 0.0000 0.0000 0.0000 0.0000 0.0000 5.5990
#
#
#
# Elastic Compliance Matrix: (Units=1/GPa)
#
#
# Indices 1 2 3 4 5 6 
#
# 1 0.021272 -0.008600 -0.006970 0.000000 0.000000 0.000000
# 2 -0.008600 0.041227 -0.006400 0.000000 0.000000 0.000000
# 3 -0.006970 -0.006400 0.011796 0.000000 0.000000 0.000000
# 4 0.000000 0.000000 0.000000 0.055236 0.000000 0.000000
# 5 0.000000 0.000000 0.000000 0.000000 0.108349 0.000000
# 6 0.000000 0.000000 0.000000 0.000000 0.000000 0.178603
#
#
# Mechanical properties :
#
#
# Convention : Reuss Voigt Hill
#
# Bulk Modulus (GPa) = 32.94380 53.73220 43.33800
# Shear Modulus (GPa) = 10.62607 15.34644 12.98625
#
# Velocity S-wave (km/s) = 2.43241 2.92317 2.68900
# Velocity P-wave (km/s) = 5.12171 6.42739 5.81133
#
# Compressibility (1/GPa) = 0.03035473
#
# Stress axis : x y z
#
# Youngs Moduli (GPa) = 47.01053 24.25609 84.77378
#
# Poissons Ratio (x) = 0.20860 0.59089
# Poissons Ratio (y) = 0.40428 0.54254
# Poissons Ratio (z) = 0.32767 0.15524
#
# Static dielectric constant tensor:
#      x y z
#    x 3.115170 0.000000 0.000000 
#    y 0.000000 3.024200 0.000000 
#    z 0.000000 0.000000 3.883850 
# 
# 
# High freq. dielectric constant tensor:
#      x y z
#    x 1.651910 0.000000 0.000000 
#    y 0.000000 1.664300 0.000000 
#    z 0.000000 0.000000 1.725080 
# 
# From -- ./inp_files/11601.got.cif
#   From: 2010.03.12/outbox.cif.g09.slc.cpg/sg47_6_cif.got.tgz:11601.got - 2010.04.14 03:12:58.
