data_PCOD8197361
_publ_section_title
;
Structure prediction by ZEFSAII (Michael W. Deem and Ramdas Pophale) SiO2 
 PCOD8197361
Probable space group: P M M M
;
_chemical_formula_sum "Si O2"
_cell_formula_units_Z 64
_cell_length_a 31.014823
_cell_length_b 9.530212
_cell_length_c 14.173406
_cell_angle_alpha 90.000000
_cell_angle_beta 90.000000
_cell_angle_gamma 90.000000
_cell_volume 4189.344707
_symmetry_space_group_name_H-M "P M M M"
_symmetry_group_IT_number 47
_symmetry_cell_setting 'orthorhombic'
loop_
_space_group_symop_operation_xyz
x,y,z
-x,-y,z
x,-y,-z
-x,y,-z
-x,-y,-z
x,y,-z
-x,y,z
x,-y,z
loop_
_atom_site_type_symbol
_atom_site_label
_atom_site_fract_x
_atom_site_fract_y
_atom_site_fract_z
Si Si1 0.876931 0.845479 0.111898
Si Si2 0.318635 0.161717 0.392303
Si Si3 0.548270 0.337850 0.771114
Si Si4 0.047332 0.343152 0.887872
Si Si5 0.289938 0.332416 0.221963
Si Si6 0.219973 0.836920 0.110306
Si Si7 0.418685 0.160648 0.607075
Si Si8 0.626603 0.333759 0.105029
O O1 0.913918 0.747414 0.157046
O O2 0.828911 0.794310 0.137925
O O3 0.884571 0.000000 0.153816
O O4 0.881386 0.850124 0.000000
O O5 0.303966 0.187316 0.500000
O O6 0.291398 0.265784 0.326214
O O7 0.368710 0.199422 0.380648
O O8 0.310185 0.000000 0.363813
O O9 0.500000 0.316808 0.811641
O O10 0.558032 0.500000 0.750081
O O11 0.552284 0.257403 0.672755
O O12 0.582543 0.278318 0.846866
O O13 0.052352 0.500000 0.848281
O O14 0.000000 0.283161 0.859009
O O15 0.051269 0.344363 0.000000
O O16 0.285567 0.500000 0.228805
O O17 0.249357 0.269027 0.168161
O O18 0.332645 0.284193 0.165901
O O19 0.228954 0.000000 0.135815
O O20 0.228439 0.812089 0.000000
O O21 0.433352 0.187616 0.500000
O O22 0.426682 0.000000 0.635390
O O23 0.625787 0.500000 0.097954
O O24 0.629791 0.268434 0.000000
#
# Coordination Sequence:
#
# PCOD8197361 Si02
#       8
#     8   8   8   8   8   8   8   8
#     4   8  14  24  36  50  71 102 141 183 222 258
#     4   9  18  33  52  71  90 113 140 169 205 254
#     4  10  20  33  49  69  91 115 143 174 209 248
#     4   8  13  20  30  46  69  98 134 178 226 269
#     4  11  20  30  48  71  92 113 139 177 220 260
#     4   9  18  31  44  60  86 119 152 186 224 264
#     4   9  18  33  52  71  91 115 139 165 202 249
#     4   9  18  32  47  65  89 113 140 175 210 246
#
# _framework density 15.276852999999999
#
# number of rings (size 3 to 8) (size 9 to 14) (size 15 to 20)
#    0.000    2.875    1.250    2.625    0.000    2.750 
#    0.000    6.250    0.000    1.125    0.000    0.875 
#    0.000    0.000    0.000    0.000    0.000    0.625 
#
# Total GULP energy -793323.761593 kJ/mol
# GULP energy per Si atom -12395.683775 kJ/mol
# Density = 1.524208 g / cm^3
# Si number density = 15.276853 Si / 1000 Ang^3
#
#
#
# Elastic Constant Matrix: (Units=GPa)
#
#
# Indices 1 2 3 4 5 6 
#
# 1 113.1885 52.9585 38.4270 0.0000 0.0000 0.0000
# 2 52.9585 65.9507 35.5970 0.0000 0.0000 0.0000
# 3 38.4270 35.5970 65.4879 0.0000 0.0000 0.0000
# 4 0.0000 0.0000 0.0000 19.9088 0.0000 0.0000
# 5 0.0000 0.0000 0.0000 0.0000 6.3180 0.0000
# 6 0.0000 0.0000 0.0000 0.0000 0.0000 26.8926
#
#
#
# Elastic Compliance Matrix: (Units=1/GPa)
#
#
# Indices 1 2 3 4 5 6 
#
# 1 0.014584 -0.010037 -0.003102 0.000000 0.000000 0.000000
# 2 -0.010037 0.028366 -0.009529 0.000000 0.000000 0.000000
# 3 -0.003102 -0.009529 0.022270 0.000000 0.000000 0.000000
# 4 0.000000 0.000000 0.000000 0.050229 0.000000 0.000000
# 5 0.000000 0.000000 0.000000 0.000000 0.158278 0.000000
# 6 0.000000 0.000000 0.000000 0.000000 0.000000 0.037185
#
#
# Mechanical properties :
#
#
# Convention : Reuss Voigt Hill
#
# Bulk Modulus (GPa) = 50.29234 55.39912 52.84573
# Shear Modulus (GPa) = 13.77884 18.46686 16.12285
#
# Velocity S-wave (km/s) = 3.00649 3.48057 3.25218
# Velocity P-wave (km/s) = 6.71149 7.24532 6.98351
#
# Compressibility (1/GPa) = 0.01988375
#
# Stress axis : x y z
#
# Youngs Moduli (GPa) = 68.56925 35.25392 44.90340
#
# Poissons Ratio (x) = 0.35383 0.13929
# Poissons Ratio (y) = 0.68820 0.42790
# Poissons Ratio (z) = 0.21270 0.33595
#
# Static dielectric constant tensor:
#      x y z
#    x 3.008120 0.000000 0.000000 
#    y 0.000000 2.929630 0.000000 
#    z 0.000000 0.000000 2.709940 
# 
# 
# High freq. dielectric constant tensor:
#      x y z
#    x 1.581500 0.000000 0.000000 
#    y 0.000000 1.579520 0.000000 
#    z 0.000000 0.000000 1.545950 
# 
# From -- ./inp_files/8269.got.cif
#   From: 2010.03.12/outbox.cif.g09.slc.cpg/sg47_5_cif.got.tgz:8269.got - 2010.04.14 03:12:58.
