data_PCOD8197290
_publ_section_title
;
Structure prediction by ZEFSAII (Michael W. Deem and Ramdas Pophale) SiO2 
 PCOD8197290
Probable space group: P M M M
;
_chemical_formula_sum "Si O2"
_cell_formula_units_Z 52
_cell_length_a 11.478902
_cell_length_b 9.110780
_cell_length_c 31.222019
_cell_angle_alpha 90.000000
_cell_angle_beta 90.000000
_cell_angle_gamma 90.000000
_cell_volume 3265.253409
_symmetry_space_group_name_H-M "P M M M"
_symmetry_group_IT_number 47
_symmetry_cell_setting 'orthorhombic'
loop_
_space_group_symop_operation_xyz
x,y,z
-x,-y,z
x,-y,-z
-x,y,-z
-x,-y,-z
x,y,-z
-x,y,z
x,-y,z
loop_
_atom_site_type_symbol
_atom_site_label
_atom_site_fract_x
_atom_site_fract_y
_atom_site_fract_z
Si Si1 0.139232 0.336038 0.500000
Si Si2 0.861586 0.164657 0.581280
Si Si3 0.138285 0.335935 0.756566
Si Si4 0.500000 0.672802 0.952267
Si Si5 0.862525 0.166475 0.000000
Si Si6 0.138579 0.834728 0.324601
Si Si7 0.748918 0.674773 0.079207
Si Si8 0.136692 0.171158 0.158415
O O1 0.186239 0.500000 0.500000
O O2 0.190832 0.261438 0.457126
O O3 0.000000 0.328745 0.500000
O O4 0.822409 0.223702 0.628280
O O5 0.000000 0.166389 0.578676
O O6 0.815130 0.000000 0.574978
O O7 0.188612 0.500000 0.763063
O O8 0.190396 0.269662 0.712433
O O9 0.176555 0.231738 0.795522
O O10 0.000000 0.341661 0.753774
O O11 0.500000 0.500000 0.957902
O O12 0.385700 0.722112 0.926397
O O13 0.500000 0.743848 0.000000
O O14 0.822984 0.253520 0.958354
O O15 0.000000 0.160513 0.000000
O O16 0.812420 0.000000 0.000000
O O17 0.000000 0.836360 0.321790
O O18 0.185244 0.000000 0.317523
O O19 0.766084 0.500000 0.077956
O O20 0.791568 0.737570 0.123993
O O21 0.000000 0.197338 0.150543
O O22 0.168167 0.000000 0.155469
#
# Coordination Sequence:
#
# PCOD8197290 Si02
#       8
#     4   8   8   4   4   8   8   8
#     4   9  15  19  23  33  49  69  97 139 189 232
#     4   8  13  20  28  36  49  73 105 139 180 234
#     4   9  16  25  38  56  76  99 128 159 193 239
#     4   9  18  36  56  74  94 116 142 176 214 243
#     4  11  23  36  49  70 100 125 144 171 208 245
#     4   8  13  21  32  45  61  84 114 148 189 236
#     4  11  21  35  55  73  91 116 147 177 206 245
#     4  10  20  33  47  65  92 119 140 169 210 251
#
# _framework density 15.925257
#
# number of rings (size 3 to 8) (size 9 to 14) (size 15 to 20)
#    0.000    2.692    0.769    3.231    0.000    6.769 
#    0.000    5.000    0.000    0.000    0.000    0.000 
#    0.000    0.000    0.000    0.000    0.000    0.000 
#
# Total GULP energy -644516.741945 kJ/mol
# GULP energy per Si atom -12394.552730 kJ/mol
# Density = 1.588901 g / cm^3
# Si number density = 15.925257 Si / 1000 Ang^3
#
#
#
# Elastic Constant Matrix: (Units=GPa)
#
#
# Indices 1 2 3 4 5 6 
#
# 1 35.6627 25.4005 29.4767 0.0000 0.0000 0.0000
# 2 25.4005 107.8362 70.4108 0.0000 0.0000 0.0000
# 3 29.4767 70.4108 152.8389 0.0000 0.0000 0.0000
# 4 0.0000 0.0000 0.0000 67.8456 0.0000 0.0000
# 5 0.0000 0.0000 0.0000 0.0000 -4.4903 0.0000
# 6 0.0000 0.0000 0.0000 0.0000 0.0000 7.9261
#
#
#
# Elastic Compliance Matrix: (Units=1/GPa)
#
#
# Indices 1 2 3 4 5 6 
#
# 1 0.035556 -0.005574 -0.004289 0.000000 0.000000 0.000000
# 2 -0.005574 0.014137 -0.005438 0.000000 0.000000 0.000000
# 3 -0.004289 -0.005438 0.009875 0.000000 0.000000 0.000000
# 4 0.000000 0.000000 0.000000 0.014739 0.000000 0.000000
# 5 0.000000 0.000000 0.000000 0.000000 -0.222704 0.000000
# 6 0.000000 0.000000 0.000000 0.000000 0.000000 0.126165
#
#
# Mechanical properties :
#
#
# Convention : Reuss Voigt Hill
#
# Bulk Modulus (GPa) = 34.52398 60.76820 47.64609
# Shear Modulus (GPa) = 277.36987 25.65962 151.51475
#
# Velocity S-wave (km/s) = 13.21166 4.01840 9.76461
# Velocity P-wave (km/s) = 15.95169 7.73119 12.53450
#
# Compressibility (1/GPa) = 0.02896538
#
# Stress axis : x y z
#
# Youngs Moduli (GPa) = 28.12454 70.73763 101.26517
#
# Poissons Ratio (x) = 0.39432 0.43436
# Poissons Ratio (y) = 0.15678 0.55063
# Poissons Ratio (z) = 0.12063 0.38464
#
# Static dielectric constant tensor:
#      x y z
#    x 2.497670 0.000000 0.000000 
#    y 0.000000 3.204580 0.000000 
#    z 0.000000 0.000000 3.437620 
# 
# 
# High freq. dielectric constant tensor:
#      x y z
#    x 1.527910 0.000000 0.000000 
#    y 0.000000 1.619760 0.000000 
#    z 0.000000 0.000000 1.630920 
# 
# From -- ./inp_files/34550.got.cif
#   From: 2010.03.12/outbox.cif.g09.slc.cpg/sg47_18_cif.got.tgz:34550.got - 2010.04.14 03:12:58.
