data_PCOD8197544
_publ_section_title
;
Structure prediction by ZEFSAII (Michael W. Deem and Ramdas Pophale) SiO2 
 PCOD8197544
Probable space group: P M M M
;
_chemical_formula_sum "Si O2"
_cell_formula_units_Z 56
_cell_length_a 9.186251
_cell_length_b 14.157948
_cell_length_c 23.591255
_cell_angle_alpha 90.000000
_cell_angle_beta 90.000000
_cell_angle_gamma 90.000000
_cell_volume 3068.242388
_symmetry_space_group_name_H-M "P M M M"
_symmetry_group_IT_number 47
_symmetry_cell_setting 'orthorhombic'
loop_
_space_group_symop_operation_xyz
x,y,z
-x,-y,z
x,-y,-z
-x,y,-z
-x,-y,-z
x,y,-z
-x,y,z
x,-y,z
loop_
_atom_site_type_symbol
_atom_site_label
_atom_site_fract_x
_atom_site_fract_y
_atom_site_fract_z
Si Si1 0.668768 0.393584 0.224854
Si Si2 0.329660 0.210862 0.160349
Si Si3 0.170321 0.607324 0.336822
Si Si4 0.168482 0.255948 0.436190
Si Si5 0.164563 0.888065 0.739566
Si Si6 0.668203 0.889802 0.371758
Si Si7 0.832125 0.107783 0.065915
O O1 0.500000 0.393393 0.240641
O O2 0.720231 0.500000 0.208022
O O3 0.700501 0.321980 0.172888
O O4 0.752397 0.354454 0.280077
O O5 0.500000 0.188060 0.161761
O O6 0.250799 0.146666 0.206212
O O7 0.266168 0.183111 0.099251
O O8 0.218317 0.500000 0.347639
O O9 0.220658 0.663928 0.392381
O O10 0.000000 0.616847 0.326445
O O11 0.195661 0.292731 0.500000
O O12 0.265263 0.162795 0.426155
O O13 0.000000 0.229714 0.426907
O O14 0.244941 0.852221 0.683099
O O15 0.000000 0.848040 0.739416
O O16 0.164101 0.000000 0.741548
O O17 0.500000 0.864190 0.363476
O O18 0.691460 0.000000 0.381973
O O19 0.000000 0.122782 0.082835
O O20 0.786122 0.000000 0.080368
O O21 0.807811 0.128307 0.000000
#
# Coordination Sequence:
#
# PCOD8197544 Si02
#       7
#     8   8   8   8   8   8   8
#     4   9  19  35  52  72 101 134 165 200 247 302
#     4  11  21  31  50  79 106 134 170 212 253 291
#     4   9  18  33  53  76 100 126 159 201 249 299
#     4  10  21  35  51  72  97 127 163 201 244 299
#     4  10  20  33  50  73 102 134 164 197 245 305
#     4  10  21  36  52  70  95 127 163 206 253 296
#     4   9  19  36  55  75 104 143 180 210 246 295
#
# _framework density 18.251491000000001
#
# number of rings (size 3 to 8) (size 9 to 14) (size 15 to 20)
#    0.000    2.286    0.000    3.000    0.000    8.857 
#    0.000    3.571    0.000    0.429    0.000    6.000 
#    0.000    0.000    0.000    0.000    0.000    0.000 
#
# Total GULP energy -694483.209311 kJ/mol
# GULP energy per Si atom -12401.485881 kJ/mol
# Density = 1.820995 g / cm^3
# Si number density = 18.251491 Si / 1000 Ang^3
#
#
#
# Elastic Constant Matrix: (Units=GPa)
#
#
# Indices 1 2 3 4 5 6 
#
# 1 89.6657 48.5701 52.7022 0.0000 0.0000 0.0000
# 2 48.5701 70.5342 58.1656 0.0000 0.0000 0.0000
# 3 52.7022 58.1656 102.9012 0.0000 0.0000 0.0000
# 4 0.0000 0.0000 0.0000 28.8688 0.0000 0.0000
# 5 0.0000 0.0000 0.0000 0.0000 18.1715 0.0000
# 6 0.0000 0.0000 0.0000 0.0000 0.0000 24.8787
#
#
#
# Elastic Compliance Matrix: (Units=1/GPa)
#
#
# Indices 1 2 3 4 5 6 
#
# 1 0.018759 -0.009356 -0.004319 0.000000 0.000000 0.000000
# 2 -0.009356 0.031222 -0.012857 0.000000 0.000000 0.000000
# 3 -0.004319 -0.012857 0.019198 0.000000 0.000000 0.000000
# 4 0.000000 0.000000 0.000000 0.034639 0.000000 0.000000
# 5 0.000000 0.000000 0.000000 0.000000 0.055031 0.000000
# 6 0.000000 0.000000 0.000000 0.000000 0.000000 0.040195
#
#
# Mechanical properties :
#
#
# Convention : Reuss Voigt Hill
#
# Bulk Modulus (GPa) = 62.05342 64.66410 63.35876
# Shear Modulus (GPa) = 19.41894 21.29469 20.35681
#
# Velocity S-wave (km/s) = 3.26539 3.41946 3.34331
# Velocity P-wave (km/s) = 6.94909 7.14819 7.04935
#
# Compressibility (1/GPa) = 0.01611515
#
# Stress axis : x y z
#
# Youngs Moduli (GPa) = 53.30760 32.02836 52.08931
#
# Poissons Ratio (x) = 0.29965 0.22499
# Poissons Ratio (y) = 0.49873 0.66971
# Poissons Ratio (z) = 0.23025 0.41179
#
# Static dielectric constant tensor:
#      x y z
#    x 3.439040 0.000000 0.000000 
#    y 0.000000 3.471570 0.000000 
#    z 0.000000 0.000000 3.302450 
# 
# 
# High freq. dielectric constant tensor:
#      x y z
#    x 1.710860 0.000000 0.000000 
#    y 0.000000 1.706390 0.000000 
#    z 0.000000 0.000000 1.694040 
# 
# From -- ./inp_files/7342.got.cif
#   From: 2010.03.12/outbox.cif.g09.slc.cpg/sg47_4_cif.got.tgz:7342.got - 2010.04.14 03:12:58.
