data_PCOD8197406
_publ_section_title
;
Structure prediction by ZEFSAII (Michael W. Deem and Ramdas Pophale) SiO2 
 PCOD8197406
Probable space group: P M M M
;
_chemical_formula_sum "Si O2"
_cell_formula_units_Z 52
_cell_length_a 30.197829
_cell_length_b 9.300971
_cell_length_c 10.358911
_cell_angle_alpha 90.000000
_cell_angle_beta 90.000000
_cell_angle_gamma 90.000000
_cell_volume 2909.498339
_symmetry_space_group_name_H-M "P M M M"
_symmetry_group_IT_number 47
_symmetry_cell_setting 'orthorhombic'
loop_
_space_group_symop_operation_xyz
x,y,z
-x,-y,z
x,-y,-z
-x,y,-z
-x,-y,-z
x,y,-z
-x,y,z
x,-y,z
loop_
_atom_site_type_symbol
_atom_site_label
_atom_site_fract_x
_atom_site_fract_y
_atom_site_fract_z
Si Si1 0.949248 0.831466 0.748096
Si Si2 0.549464 0.829362 0.855876
Si Si3 0.619136 0.831780 0.353078
Si Si4 0.124219 0.655904 0.853640
Si Si5 0.290653 0.668863 0.646843
Si Si6 0.779959 0.329143 0.854416
Si Si7 0.052345 0.340401 0.500000
O O1 0.915695 0.771787 0.854231
O O2 0.931739 0.749414 0.622154
O O3 0.000000 0.793095 0.784497
O O4 0.944070 0.000000 0.727383
O O5 0.500000 0.769730 0.828417
O O6 0.582403 0.769804 0.745886
O O7 0.548508 0.000000 0.848681
O O8 0.564893 0.780828 0.000000
O O9 0.603164 0.802719 0.500000
O O10 0.663976 0.748781 0.322437
O O11 0.627792 0.000000 0.330389
O O12 0.110470 0.500000 0.790716
O O13 0.171062 0.716099 0.799114
O O14 0.135828 0.624641 0.000000
O O15 0.274700 0.701784 0.500000
O O16 0.298464 0.500000 0.665865
O O17 0.255098 0.730179 0.749919
O O18 0.777778 0.500000 0.858066
O O19 0.770313 0.268187 0.000000
O O20 0.073327 0.500000 0.500000
O O21 0.000000 0.350340 0.500000
#
# Coordination Sequence:
#
# PCOD8197406 Si02
#       7
#     8   8   8   8   8   8   4
#     4  10  20  33  49  70  99 130 156 188 234 285
#     4   8  14  25  41  62  89 120 154 193 233 270
#     4   9  17  28  43  65  92 119 148 187 233 276
#     4   9  18  33  51  70  93 121 156 198 237 275
#     4   9  17  30  48  69  93 120 152 190 232 282
#     4   8  15  30  50  69  91 120 154 193 236 279
#     4   9  17  31  51  71  91 119 157 195 227 265
#
# _framework density 17.872496999999999
#
# number of rings (size 3 to 8) (size 9 to 14) (size 15 to 20)
#    0.000    3.154    0.000    2.077    0.000    3.385 
#    1.385    3.846    0.000    1.385    0.000    3.231 
#    0.000    0.000    0.000    0.000    0.000    0.000 
#
# Total GULP energy -644256.203210 kJ/mol
# GULP energy per Si atom -12389.542369 kJ/mol
# Density = 1.783182 g / cm^3
# Si number density = 17.872497 Si / 1000 Ang^3
#
#
#
# Elastic Constant Matrix: (Units=GPa)
#
#
# Indices 1 2 3 4 5 6 
#
# 1 132.9789 42.5945 78.3978 0.0000 0.0000 0.0000
# 2 42.5945 49.2340 28.4975 0.0000 0.0000 0.0000
# 3 78.3978 28.4975 99.2259 0.0000 0.0000 0.0000
# 4 0.0000 0.0000 0.0000 15.4934 0.0000 0.0000
# 5 0.0000 0.0000 0.0000 0.0000 29.9412 0.0000
# 6 0.0000 0.0000 0.0000 0.0000 0.0000 23.8808
#
#
#
# Elastic Compliance Matrix: (Units=1/GPa)
#
#
# Indices 1 2 3 4 5 6 
#
# 1 0.016336 -0.007990 -0.010612 0.000000 0.000000 0.000000
# 2 -0.007990 0.028269 -0.001806 0.000000 0.000000 0.000000
# 3 -0.010612 -0.001806 0.018981 0.000000 0.000000 0.000000
# 4 0.000000 0.000000 0.000000 0.064544 0.000000 0.000000
# 5 0.000000 0.000000 0.000000 0.000000 0.033399 0.000000
# 6 0.000000 0.000000 0.000000 0.000000 0.000000 0.041875
#
#
# Mechanical properties :
#
#
# Convention : Reuss Voigt Hill
#
# Bulk Modulus (GPa) = 43.91765 64.49092 54.20429
# Shear Modulus (GPa) = 19.85635 22.65968 21.25802
#
# Velocity S-wave (km/s) = 3.33678 3.56455 3.45255
# Velocity P-wave (km/s) = 6.28264 7.28722 6.80350
#
# Compressibility (1/GPa) = 0.02276989
#
# Stress axis : x y z
#
# Youngs Moduli (GPa) = 61.21599 35.37430 52.68429
#
# Poissons Ratio (x) = 0.28265 0.55908
# Poissons Ratio (y) = 0.48914 0.09513
# Poissons Ratio (z) = 0.64962 0.06388
#
# Static dielectric constant tensor:
#      x y z
#    x 3.391800 0.000000 0.000000 
#    y 0.000000 2.975850 0.000000 
#    z 0.000000 0.000000 3.509940 
# 
# 
# High freq. dielectric constant tensor:
#      x y z
#    x 1.687210 0.000000 0.000000 
#    y 0.000000 1.656500 0.000000 
#    z 0.000000 0.000000 1.691720 
# 
# From -- ./inp_files/19791.got.cif
#   From: 2010.03.12/outbox.cif.g09.slc.cpg/sg47_10_cif.got.tgz:19791.got - 2010.04.14 03:12:58.
