data_PCOD8197825
_publ_section_title
;
Structure prediction by ZEFSAII (Michael W. Deem and Ramdas Pophale) SiO2 
 PCOD8197825
Probable space group: P M M M
;
_chemical_formula_sum "Si O2"
_cell_formula_units_Z 48
_cell_length_a 30.823077
_cell_length_b 9.261420
_cell_length_c 9.186108
_cell_angle_alpha 90.000000
_cell_angle_beta 90.000000
_cell_angle_gamma 90.000000
_cell_volume 2622.316562
_symmetry_space_group_name_H-M "P M M M"
_symmetry_group_IT_number 47
_symmetry_cell_setting 'orthorhombic'
loop_
_space_group_symop_operation_xyz
x,y,z
-x,-y,z
x,-y,-z
-x,y,-z
-x,-y,-z
x,y,-z
-x,y,z
x,-y,z
loop_
_atom_site_type_symbol
_atom_site_label
_atom_site_fract_x
_atom_site_fract_y
_atom_site_fract_z
Si Si1 0.754050 0.828562 0.665599
Si Si2 0.500000 0.331377 0.669691
Si Si3 0.574897 0.833668 0.170795
Si Si4 0.671724 0.171280 0.839108
Si Si5 0.916367 0.667590 0.331372
Si Si6 0.829420 0.332666 0.829784
Si Si7 0.000000 0.837023 0.326847
O O1 0.758479 0.775472 0.500000
O O2 0.707707 0.772502 0.725921
O O3 0.791587 0.761172 0.761612
O O4 0.757550 0.000000 0.677465
O O5 0.500000 0.500000 0.702762
O O6 0.500000 0.296358 0.500000
O O7 0.542874 0.264833 0.738738
O O8 0.623632 0.780895 0.210533
O O9 0.567758 0.000000 0.215570
O O10 0.565971 0.813979 0.000000
O O11 0.672302 0.000000 0.848105
O O12 0.682263 0.234078 0.000000
O O13 0.907268 0.702783 0.500000
O O14 0.927076 0.500000 0.308279
O O15 0.874597 0.716697 0.240907
O O16 0.957121 0.756657 0.269138
O O17 0.820312 0.500000 0.795909
O O18 0.831771 0.300844 0.000000
O O19 0.000000 0.831779 0.500000
O O20 0.000000 0.000000 0.267371
#
# Coordination Sequence:
#
# PCOD8197825 Si02
#       7
#     8   4   8   8   8   8   4
#     4  10  20  33  52  79 107 135 168 206 251 303
#     4  11  24  37  48  70 106 141 172 209 254 302
#     4   9  18  34  57  81 101 127 169 214 253 301
#     4   8  15  30  52  77 104 132 164 206 253 300
#     4   9  17  31  51  72  96 129 167 205 248 298
#     4  10  21  36  53  74 101 135 175 215 254 298
#     4   9  17  29  48  75 102 126 158 203 250 297
#
# _framework density 18.304425999999999
#
# number of rings (size 3 to 8) (size 9 to 14) (size 15 to 20)
#    0.000    2.667    0.000    2.750    0.000    6.333 
#    0.000    4.583    0.000    3.500    0.000    0.000 
#    0.000    0.000    0.000    0.000    0.000    0.000 
#
# Total GULP energy -595196.623054 kJ/mol
# GULP energy per Si atom -12399.929647 kJ/mol
# Density = 1.826276 g / cm^3
# Si number density = 18.304426 Si / 1000 Ang^3
#
#
#
# Elastic Constant Matrix: (Units=GPa)
#
#
# Indices 1 2 3 4 5 6 
#
# 1 171.7857 61.1014 76.8764 0.0000 0.0000 0.0000
# 2 61.1014 59.4384 42.6220 0.0000 0.0000 0.0000
# 3 76.8764 42.6220 92.0729 0.0000 0.0000 0.0000
# 4 0.0000 0.0000 0.0000 23.7719 0.0000 0.0000
# 5 0.0000 0.0000 0.0000 0.0000 39.7919 0.0000
# 6 0.0000 0.0000 0.0000 0.0000 0.0000 -37.3571
#
#
#
# Elastic Compliance Matrix: (Units=1/GPa)
#
#
# Indices 1 2 3 4 5 6 
#
# 1 0.010964 -0.007045 -0.005893 0.000000 0.000000 0.000000
# 2 -0.007045 0.029711 -0.007871 0.000000 0.000000 0.000000
# 3 -0.005893 -0.007871 0.019425 0.000000 0.000000 0.000000
# 4 0.000000 0.000000 0.000000 0.042066 0.000000 0.000000
# 5 0.000000 0.000000 0.000000 0.000000 0.025131 0.000000
# 6 0.000000 0.000000 0.000000 0.000000 0.000000 -0.026769
#
#
# Mechanical properties :
#
#
# Convention : Reuss Voigt Hill
#
# Bulk Modulus (GPa) = 54.10984 76.05517 65.08251
# Shear Modulus (GPa) = 33.71342 14.75448 24.23395
#
# Velocity S-wave (km/s) = 4.29630 2.84220 3.64255
# Velocity P-wave (km/s) = 7.36452 7.23956 7.30230
#
# Compressibility (1/GPa) = 0.01848093
#
# Stress axis : x y z
#
# Youngs Moduli (GPa) = 91.20369 33.65803 51.47897
#
# Poissons Ratio (x) = 0.23713 0.30339
# Poissons Ratio (y) = 0.64254 0.40520
# Poissons Ratio (z) = 0.53751 0.26493
#
# Static dielectric constant tensor:
#      x y z
#    x 3.640760 0.000000 0.000000 
#    y 0.000000 3.168620 0.000000 
#    z 0.000000 0.000000 3.382160 
# 
# 
# High freq. dielectric constant tensor:
#      x y z
#    x 1.726450 0.000000 0.000000 
#    y 0.000000 1.685420 0.000000 
#    z 0.000000 0.000000 1.701670 
# 
# From -- ./inp_files/13900.got.cif
#   From: 2010.03.12/outbox.cif.g09.slc.cpg/sg47_7_cif.got.tgz:13900.got - 2010.04.14 03:12:58.
