data_PCOD8197070
_publ_section_title
;
Structure prediction by ZEFSAII (Michael W. Deem and Ramdas Pophale) SiO2 
 PCOD8197070
Probable space group: P M M M
;
_chemical_formula_sum "Si O2"
_cell_formula_units_Z 48
_cell_length_a 19.244199
_cell_length_b 15.515548
_cell_length_c 9.272744
_cell_angle_alpha 90.000000
_cell_angle_beta 90.000000
_cell_angle_gamma 90.000000
_cell_volume 2768.695714
_symmetry_space_group_name_H-M "P M M M"
_symmetry_group_IT_number 47
_symmetry_cell_setting 'orthorhombic'
loop_
_space_group_symop_operation_xyz
x,y,z
-x,-y,z
x,-y,-z
-x,y,-z
-x,-y,-z
x,y,-z
-x,y,z
x,-y,z
loop_
_atom_site_type_symbol
_atom_site_label
_atom_site_fract_x
_atom_site_fract_y
_atom_site_fract_z
Si Si1 0.919504 0.400774 0.834661
Si Si2 0.164117 0.260072 0.332761
Si Si3 0.687810 0.091688 0.336917
Si Si4 0.577522 0.403108 0.170234
Si Si5 0.826980 0.905053 0.168254
Si Si6 0.327876 0.275264 0.662204
O O1 0.902881 0.500000 0.798684
O O2 0.873881 0.342870 0.730193
O O3 0.000000 0.380783 0.806473
O O4 0.900190 0.380532 0.000000
O O5 0.145912 0.252499 0.500000
O O6 0.135868 0.172625 0.255223
O O7 0.245978 0.272590 0.305066
O O8 0.719866 0.099895 0.500000
O O9 0.747914 0.089627 0.219610
O O10 0.641619 0.177710 0.311891
O O11 0.645923 0.000000 0.324487
O O12 0.500000 0.376914 0.222379
O O13 0.594282 0.500000 0.222481
O O14 0.634857 0.339835 0.231605
O O15 0.581665 0.397904 0.000000
O O16 0.861791 0.000000 0.195638
O O17 0.828911 0.881921 0.000000
O O18 0.342596 0.306679 0.500000
#
# Coordination Sequence:
#
# PCOD8197070 Si02
#       6
#     8   8   8   8   8   8
#     4   9  19  36  55  73  95 126 163 200 239 285
#     4  10  20  32  48  73 103 131 159 195 238 283
#     4   8  14  26  43  64  94 127 154 185 229 279
#     4   9  19  35  51  66  87 119 158 196 237 286
#     4   9  16  26  43  68  96 126 161 198 235 278
#     4   9  18  30  46  72  99 122 153 192 232 274
#
# _framework density 17.336684000000002
#
# number of rings (size 3 to 8) (size 9 to 14) (size 15 to 20)
#    0.000    3.000    0.000    3.000    0.000    6.333 
#    0.000    5.000    0.000    1.000    0.000    7.000 
#    0.000    0.000    0.000    0.000    0.000    0.000 
#
# Total GULP energy -594669.418616 kJ/mol
# GULP energy per Si atom -12388.946221 kJ/mol
# Density = 1.729722 g / cm^3
# Si number density = 17.336684 Si / 1000 Ang^3
#
#
#
# Elastic Constant Matrix: (Units=GPa)
#
#
# Indices 1 2 3 4 5 6 
#
# 1 38.6864 48.7520 33.0649 0.0000 0.0000 0.0000
# 2 48.7520 148.0085 69.6751 0.0000 0.0000 0.0000
# 3 33.0649 69.6751 91.1311 0.0000 0.0000 0.0000
# 4 0.0000 0.0000 0.0000 32.4088 0.0000 0.0000
# 5 0.0000 0.0000 0.0000 0.0000 19.1727 0.0000
# 6 0.0000 0.0000 0.0000 0.0000 0.0000 -4.5102
#
#
#
# Elastic Compliance Matrix: (Units=1/GPa)
#
#
# Indices 1 2 3 4 5 6 
#
# 1 0.047906 -0.011869 -0.008307 0.000000 0.000000 0.000000
# 2 -0.011869 0.013496 -0.006012 0.000000 0.000000 0.000000
# 3 -0.008307 -0.006012 0.018584 0.000000 0.000000 0.000000
# 4 0.000000 0.000000 0.000000 0.030856 0.000000 0.000000
# 5 0.000000 0.000000 0.000000 0.000000 0.052157 0.000000
# 6 0.000000 0.000000 0.000000 0.000000 0.000000 -0.221720
#
#
# Mechanical properties :
#
#
# Convention : Reuss Voigt Hill
#
# Bulk Modulus (GPa) = 36.21943 64.53445 50.37694
# Shear Modulus (GPa) = 1749.23977 17.83653 883.53815
#
# Velocity S-wave (km/s) = 31.79893 3.21102 22.59959
# Velocity P-wave (km/s) = 37.00225 7.14511 26.64788
#
# Compressibility (1/GPa) = 0.02760949
#
# Stress axis : x y z
#
# Youngs Moduli (GPa) = 20.87421 74.09561 53.81013
#
# Poissons Ratio (x) = 0.87944 0.44701
# Poissons Ratio (y) = 0.24776 0.32351
# Poissons Ratio (z) = 0.17340 0.44547
#
# Static dielectric constant tensor:
#      x y z
#    x 2.769130 0.000000 0.000000 
#    y 0.000000 3.701200 0.000000 
#    z 0.000000 0.000000 3.210020 
# 
# 
# High freq. dielectric constant tensor:
#      x y z
#    x 1.611550 0.000000 0.000000 
#    y 0.000000 1.695260 0.000000 
#    z 0.000000 0.000000 1.674610 
# 
# From -- ./inp_files/6380.got.cif
#   From: 2010.03.12/outbox.cif.g09.slc.cpg/sg47_4_cif.got.tgz:6380.got - 2010.04.14 03:12:58.
