data_PCOD8197698
_publ_section_title
;
Structure prediction by ZEFSAII (Michael W. Deem and Ramdas Pophale) SiO2 
 PCOD8197698
Probable space group: P M M M
;
_chemical_formula_sum "Si O2"
_cell_formula_units_Z 52
_cell_length_a 9.006951
_cell_length_b 23.265077
_cell_length_c 14.213785
_cell_angle_alpha 90.000000
_cell_angle_beta 90.000000
_cell_angle_gamma 90.000000
_cell_volume 2978.461812
_symmetry_space_group_name_H-M "P M M M"
_symmetry_group_IT_number 47
_symmetry_cell_setting 'orthorhombic'
loop_
_space_group_symop_operation_xyz
x,y,z
-x,-y,z
x,-y,-z
-x,y,-z
-x,-y,-z
x,y,-z
-x,y,z
x,-y,z
loop_
_atom_site_type_symbol
_atom_site_label
_atom_site_fract_x
_atom_site_fract_y
_atom_site_fract_z
Si Si1 0.671754 0.934962 0.795448
Si Si2 0.326198 0.613301 0.891806
Si Si3 0.826277 0.169085 0.109271
Si Si4 0.324239 0.273696 0.783852
Si Si5 0.172709 0.760931 0.606196
Si Si6 0.331317 0.121096 0.604180
Si Si7 0.832063 0.500000 0.111914
O O1 0.500000 0.923376 0.819839
O O2 0.771648 0.893383 0.858263
O O3 0.700454 0.926149 0.683806
O O4 0.717154 0.000000 0.820242
O O5 0.500000 0.603549 0.879692
O O6 0.269904 0.669309 0.837041
O O7 0.246648 0.557211 0.848636
O O8 0.281771 0.622642 0.000000
O O9 0.742071 0.217698 0.167161
O O10 0.000000 0.174430 0.129565
O O11 0.788941 0.177184 0.000000
O O12 0.500000 0.267978 0.785356
O O13 0.265411 0.278971 0.677204
O O14 0.207557 0.740503 0.500000
O O15 0.219618 0.826694 0.620950
O O16 0.000000 0.755701 0.629932
O O17 0.305947 0.093997 0.500000
O O18 0.500000 0.144627 0.613039
O O19 0.000000 0.500000 0.147663
O O20 0.819166 0.500000 0.000000
#
# Coordination Sequence:
#
# PCOD8197698 Si02
#       7
#     8   8   8   8   8   8   4
#     4  10  21  36  54  76 100 130 169 211 257 310
#     4   9  18  32  50  74 106 143 178 212 252 298
#     4  11  24  39  54  73  99 133 171 213 263 313
#     4  11  21  34  55  81 106 135 173 215 259 306
#     4  10  20  33  51  76 106 137 167 204 254 310
#     4   9  17  31  52  76 101 129 161 200 250 309
#     4   9  17  29  47  73 106 143 180 215 249 290
#
# _framework density 17.458677000000002
#
# number of rings (size 3 to 8) (size 9 to 14) (size 15 to 20)
#    0.000    2.077    1.538    2.077    0.000    5.846 
#    0.000    4.615    0.000    0.000    0.000    3.769 
#    0.000    4.308    0.000    0.000    0.000    0.000 
#
# Total GULP energy -644845.341018 kJ/mol
# GULP energy per Si atom -12400.871943 kJ/mol
# Density = 1.741894 g / cm^3
# Si number density = 17.458677 Si / 1000 Ang^3
#
#
#
# Elastic Constant Matrix: (Units=GPa)
#
#
# Indices 1 2 3 4 5 6 
#
# 1 71.4582 45.9003 43.9914 0.0000 0.0000 0.0000
# 2 45.9003 114.7304 47.4077 0.0000 0.0000 0.0000
# 3 43.9914 47.4077 89.4997 0.0000 0.0000 0.0000
# 4 0.0000 0.0000 0.0000 20.5834 0.0000 0.0000
# 5 0.0000 0.0000 0.0000 0.0000 27.3539 0.0000
# 6 0.0000 0.0000 0.0000 0.0000 0.0000 6.3363
#
#
#
# Elastic Compliance Matrix: (Units=1/GPa)
#
#
# Indices 1 2 3 4 5 6 
#
# 1 0.022657 -0.005713 -0.008110 0.000000 0.000000 0.000000
# 2 -0.005713 0.012599 -0.003866 0.000000 0.000000 0.000000
# 3 -0.008110 -0.003866 0.017207 0.000000 0.000000 0.000000
# 4 0.000000 0.000000 0.000000 0.048583 0.000000 0.000000
# 5 0.000000 0.000000 0.000000 0.000000 0.036558 0.000000
# 6 0.000000 0.000000 0.000000 0.000000 0.000000 0.157822
#
#
# Mechanical properties :
#
#
# Convention : Reuss Voigt Hill
#
# Bulk Modulus (GPa) = 58.52978 61.14300 59.83639
# Shear Modulus (GPa) = 14.85894 20.08064 17.46979
#
# Velocity S-wave (km/s) = 2.92051 3.39511 3.16672
# Velocity P-wave (km/s) = 6.70597 7.10399 6.90785
#
# Compressibility (1/GPa) = 0.01708532
#
# Stress axis : x y z
#
# Youngs Moduli (GPa) = 44.13698 79.37140 58.11548
#
# Poissons Ratio (x) = 0.45346 0.47133
# Poissons Ratio (y) = 0.25216 0.22465
# Poissons Ratio (z) = 0.35796 0.30681
#
# Static dielectric constant tensor:
#      x y z
#    x 3.289260 0.000000 0.000000 
#    y 0.000000 3.173880 0.000000 
#    z 0.000000 0.000000 3.408370 
# 
# 
# High freq. dielectric constant tensor:
#      x y z
#    x 1.680250 0.000000 0.000000 
#    y 0.000000 1.656280 0.000000 
#    z 0.000000 0.000000 1.669770 
# 
# From -- ./inp_files/21370.got.cif
#   From: 2010.03.12/outbox.cif.g09.slc.cpg/sg47_11_cif.got.tgz:21370.got - 2010.04.14 03:12:58.
