data_PCOD8197822
_publ_section_title
;
Structure prediction by ZEFSAII (Michael W. Deem and Ramdas Pophale) SiO2 
 PCOD8197822
Probable space group: P M M M
;
_chemical_formula_sum "Si O2"
_cell_formula_units_Z 64
_cell_length_a 20.753794
_cell_length_b 19.608871
_cell_length_c 8.969001
_cell_angle_alpha 90.000000
_cell_angle_beta 90.000000
_cell_angle_gamma 90.000000
_cell_volume 3650.010918
_symmetry_space_group_name_H-M "P M M M"
_symmetry_group_IT_number 47
_symmetry_cell_setting 'orthorhombic'
loop_
_space_group_symop_operation_xyz
x,y,z
-x,-y,z
x,-y,-z
-x,y,-z
-x,-y,-z
x,y,-z
-x,y,z
x,-y,z
loop_
_atom_site_type_symbol
_atom_site_label
_atom_site_fract_x
_atom_site_fract_y
_atom_site_fract_z
Si Si1 0.689206 0.782922 0.323374
Si Si2 0.071040 0.795365 0.173553
Si Si3 0.736306 0.073809 0.323417
Si Si4 0.118698 0.076503 0.326308
Si Si5 0.572961 0.712013 0.827616
Si Si6 0.360695 0.424447 0.830753
Si Si7 0.190584 0.292708 0.822826
Si Si8 0.228284 0.422877 0.326006
O O1 0.697484 0.774910 0.500000
O O2 0.692931 0.862367 0.272026
O O3 0.619497 0.757121 0.273919
O O4 0.745200 0.740332 0.244491
O O5 0.073177 0.870117 0.244649
O O6 0.127034 0.746288 0.237136
O O7 0.000000 0.764160 0.207310
O O8 0.082264 0.804718 0.000000
O O9 0.739488 0.070477 0.500000
O O10 0.808721 0.084930 0.263515
O O11 0.709606 0.000000 0.264160
O O12 0.116584 0.093241 0.500000
O O13 0.093431 0.000000 0.294691
O O14 0.500000 0.728601 0.780382
O O15 0.584633 0.631514 0.799398
O O16 0.585251 0.730397 0.000000
O O17 0.390368 0.500000 0.805063
O O18 0.302323 0.411188 0.718583
O O19 0.334253 0.417444 0.000000
O O20 0.183834 0.370390 0.765408
O O21 0.195821 0.291862 0.000000
O O22 0.221441 0.407575 0.500000
O O23 0.206477 0.500000 0.286994
#
# Coordination Sequence:
#
# PCOD8197822 Si02
#       8
#     8   8   8   8   8   8   8   8
#     4  11  20  32  55  80 102 132 172 217 263 307
#     4  10  22  37  51  72 105 142 177 216 260 306
#     4   8  15  29  50  76 103 129 163 212 263 306
#     4   9  17  31  51  75 104 138 176 213 252 305
#     4  10  21  35  50  72 106 144 177 212 256 306
#     4   9  17  30  49  73 102 137 174 207 244 295
#     4  11  21  34  54  77 103 136 174 213 255 307
#     4  10  20  33  52  79 107 132 164 210 260 306
#
# _framework density 17.534193999999999
#
# number of rings (size 3 to 8) (size 9 to 14) (size 15 to 20)
#    0.000    2.250    2.500    1.875    0.000    2.500 
#    0.000    2.500    0.000    2.250    0.000    7.875 
#    0.000    0.000    0.000    0.000    0.000    0.000 
#
# Total GULP energy -793368.498126 kJ/mol
# GULP energy per Si atom -12396.382783 kJ/mol
# Density = 1.749429 g / cm^3
# Si number density = 17.534194 Si / 1000 Ang^3
#
#
#
# Elastic Constant Matrix: (Units=GPa)
#
#
# Indices 1 2 3 4 5 6 
#
# 1 95.0604 57.9293 33.1862 0.0000 0.0000 0.0000
# 2 57.9293 125.0817 39.4377 0.0000 0.0000 0.0000
# 3 33.1862 39.4377 49.8518 0.0000 0.0000 0.0000
# 4 0.0000 0.0000 0.0000 24.7271 0.0000 0.0000
# 5 0.0000 0.0000 0.0000 0.0000 16.3276 0.0000
# 6 0.0000 0.0000 0.0000 0.0000 0.0000 23.7813
#
#
#
# Elastic Compliance Matrix: (Units=1/GPa)
#
#
# Indices 1 2 3 4 5 6 
#
# 1 0.016056 -0.005417 -0.006403 0.000000 0.000000 0.000000
# 2 -0.005417 0.012479 -0.006266 0.000000 0.000000 0.000000
# 3 -0.006403 -0.006266 0.029279 0.000000 0.000000 0.000000
# 4 0.000000 0.000000 0.000000 0.040441 0.000000 0.000000
# 5 0.000000 0.000000 0.000000 0.000000 0.061246 0.000000
# 6 0.000000 0.000000 0.000000 0.000000 0.000000 0.042050
#
#
# Mechanical properties :
#
#
# Convention : Reuss Voigt Hill
#
# Bulk Modulus (GPa) = 46.20681 59.01114 52.60897
# Shear Modulus (GPa) = 20.41327 22.26325 21.33826
#
# Velocity S-wave (km/s) = 3.41574 3.56716 3.49227
# Velocity P-wave (km/s) = 6.47811 7.11998 6.80662
#
# Compressibility (1/GPa) = 0.02164183
#
# Stress axis : x y z
#
# Youngs Moduli (GPa) = 62.28112 80.13207 34.15414
#
# Poissons Ratio (x) = 0.43410 0.21869
# Poissons Ratio (y) = 0.33740 0.21401
# Poissons Ratio (z) = 0.39878 0.50212
#
# Static dielectric constant tensor:
#      x y z
#    x 3.084410 0.000000 0.000000 
#    y 0.000000 3.712440 0.000000 
#    z 0.000000 0.000000 3.132770 
# 
# 
# High freq. dielectric constant tensor:
#      x y z
#    x 1.647580 0.000000 0.000000 
#    y 0.000000 1.687610 0.000000 
#    z 0.000000 0.000000 1.668000 
# 
# From -- ./inp_files/11840.got.cif
#   From: 2010.03.12/outbox.cif.g09.slc.cpg/sg47_6_cif.got.tgz:11840.got - 2010.04.14 03:12:58.
