data_PCOD8197465
_publ_section_title
;
Structure prediction by ZEFSAII (Michael W. Deem and Ramdas Pophale) SiO2 
 PCOD8197465
Probable space group: P M M M
;
_chemical_formula_sum "Si O2"
_cell_formula_units_Z 64
_cell_length_a 9.078855
_cell_length_b 18.733485
_cell_length_c 20.483523
_cell_angle_alpha 90.000000
_cell_angle_beta 90.000000
_cell_angle_gamma 90.000000
_cell_volume 3483.808791
_symmetry_space_group_name_H-M "P M M M"
_symmetry_group_IT_number 47
_symmetry_cell_setting 'orthorhombic'
loop_
_space_group_symop_operation_xyz
x,y,z
-x,-y,z
x,-y,-z
-x,y,-z
-x,-y,-z
x,y,-z
-x,y,z
x,-y,z
loop_
_atom_site_type_symbol
_atom_site_label
_atom_site_fract_x
_atom_site_fract_y
_atom_site_fract_z
Si Si1 0.824802 0.580252 0.927643
Si Si2 0.175176 0.080003 0.072158
Si Si3 0.672641 0.668578 0.424864
Si Si4 0.828801 0.582638 0.681783
Si Si5 0.171791 0.186327 0.425482
Si Si6 0.175482 0.669879 0.193061
Si Si7 0.825160 0.079919 0.315350
Si Si8 0.824118 0.830720 0.807358
O O1 0.767605 0.500000 0.913920
O O2 0.760068 0.633009 0.872508
O O3 0.000000 0.580617 0.924480
O O4 0.773083 0.605441 0.000000
O O5 0.238394 0.134030 0.126207
O O6 0.000000 0.080173 0.074753
O O7 0.232220 0.000000 0.087242
O O8 0.228560 0.104310 0.000000
O O9 0.712014 0.652524 0.500000
O O10 0.500000 0.672744 0.413175
O O11 0.739845 0.604900 0.382461
O O12 0.742070 0.743541 0.402560
O O13 0.799886 0.500000 0.696331
O O14 0.769035 0.626766 0.743796
O O15 0.000000 0.598357 0.669181
O O16 0.208469 0.166058 0.500000
O O17 0.223918 0.120030 0.381407
O O18 0.000000 0.202665 0.415209
O O19 0.237048 0.750311 0.197246
O O20 0.000000 0.669215 0.190681
O O21 0.763296 0.123556 0.253450
O O22 0.000000 0.075507 0.311150
O O23 0.758130 0.000000 0.315745
O O24 0.000000 0.830234 0.807009
#
# Coordination Sequence:
#
# PCOD8197465 Si02
#       8
#     8   8   8   8   8   8   8   8
#     4   8  13  21  33  50  76 112 150 186 227 275
#     4   8  13  20  28  39  61  98 143 185 221 260
#     4  10  21  36  53  72  95 123 153 188 232 280
#     4  10  20  33  50  71  95 124 157 193 233 278
#     4   9  17  30  49  71  94 120 150 185 225 271
#     4   9  16  25  38  58  85 116 151 191 232 274
#     4   9  16  25  39  61  88 116 148 188 230 269
#     4   9  15  21  31  48  72 104 142 184 226 266
#
# _framework density 18.370698000000001
#
# number of rings (size 3 to 8) (size 9 to 14) (size 15 to 20)
#    0.000    3.000    0.000    2.625    0.000    7.000 
#    0.000    5.000    0.000    0.375    0.000    1.750 
#    0.000    0.500    0.000    2.875    0.000    4.625 
#
# Total GULP energy -793421.271369 kJ/mol
# GULP energy per Si atom -12397.207365 kJ/mol
# Density = 1.832889 g / cm^3
# Si number density = 18.370698 Si / 1000 Ang^3
#
#
#
# Elastic Constant Matrix: (Units=GPa)
#
#
# Indices 1 2 3 4 5 6 
#
# 1 18.4981 21.3179 21.8587 0.0000 0.0000 0.0000
# 2 21.3179 147.5051 90.7210 0.0000 0.0000 0.0000
# 3 21.8587 90.7210 142.8342 0.0000 0.0000 0.0000
# 4 0.0000 0.0000 0.0000 42.6094 0.0000 0.0000
# 5 0.0000 0.0000 0.0000 0.0000 5.3505 0.0000
# 6 0.0000 0.0000 0.0000 0.0000 0.0000 3.6093
#
#
#
# Elastic Compliance Matrix: (Units=1/GPa)
#
#
# Indices 1 2 3 4 5 6 
#
# 1 0.068785 -0.005689 -0.006913 0.000000 0.000000 0.000000
# 2 -0.005689 0.011596 -0.006495 0.000000 0.000000 0.000000
# 3 -0.006913 -0.006495 0.012184 0.000000 0.000000 0.000000
# 4 0.000000 0.000000 0.000000 0.023469 0.000000 0.000000
# 5 0.000000 0.000000 0.000000 0.000000 0.186900 0.000000
# 6 0.000000 0.000000 0.000000 0.000000 0.000000 0.277064
#
#
# Mechanical properties :
#
#
# Convention : Reuss Voigt Hill
#
# Bulk Modulus (GPa) = 18.39200 64.07029 41.23115
# Shear Modulus (GPa) = 7.85773 21.97649 14.91711
#
# Velocity S-wave (km/s) = 2.07041 3.46248 2.85266
# Velocity P-wave (km/s) = 3.96848 7.13702 5.77433
#
# Compressibility (1/GPa) = 0.05437145
#
# Stress axis : x y z
#
# Youngs Moduli (GPa) = 14.53806 86.23624 82.07442
#
# Poissons Ratio (x) = 0.49062 0.56738
# Poissons Ratio (y) = 0.08271 0.53304
# Poissons Ratio (z) = 0.10050 0.56007
#
# Static dielectric constant tensor:
#      x y z
#    x 2.660260 0.000000 0.000000 
#    y 0.000000 3.563380 0.000000 
#    z 0.000000 0.000000 3.677560 
# 
# 
# High freq. dielectric constant tensor:
#      x y z
#    x 1.630330 0.000000 0.000000 
#    y 0.000000 1.718030 0.000000 
#    z 0.000000 0.000000 1.729650 
# 
# From -- ./inp_files/29957.got.cif
#   From: 2010.03.12/outbox.cif.g09.slc.cpg/sg47_15_cif.got.tgz:29957.got - 2010.04.14 03:12:58.
