data_PCOD8197432
_publ_section_title
;
Structure prediction by ZEFSAII (Michael W. Deem and Ramdas Pophale) SiO2 
 PCOD8197432
Probable space group: P M M M
;
_chemical_formula_sum "Si O2"
_cell_formula_units_Z 44
_cell_length_a 18.332526
_cell_length_b 9.260175
_cell_length_c 14.340392
_cell_angle_alpha 90.000000
_cell_angle_beta 90.000000
_cell_angle_gamma 90.000000
_cell_volume 2434.459348
_symmetry_space_group_name_H-M "P M M M"
_symmetry_group_IT_number 47
_symmetry_cell_setting 'orthorhombic'
loop_
_space_group_symop_operation_xyz
x,y,z
-x,-y,z
x,-y,-z
-x,y,-z
-x,-y,-z
x,y,-z
-x,y,z
x,-y,z
loop_
_atom_site_type_symbol
_atom_site_label
_atom_site_fract_x
_atom_site_fract_y
_atom_site_fract_z
Si Si1 0.643478 0.669472 0.705306
Si Si2 0.703858 0.666576 0.103493
Si Si3 0.852450 0.166984 0.893998
Si Si4 0.500000 0.672490 0.606509
Si Si5 0.918262 0.666891 0.266739
Si Si6 0.212163 0.671885 0.604545
O O1 0.641862 0.500000 0.686895
O O2 0.644486 0.703790 0.816555
O O3 0.571102 0.737119 0.658899
O O4 0.716153 0.733378 0.656759
O O5 0.728411 0.500000 0.113131
O O6 0.773832 0.763175 0.122207
O O7 0.670784 0.696441 0.000000
O O8 0.911331 0.243671 0.828571
O O9 0.846536 0.000000 0.867332
O O10 0.878724 0.188437 0.000000
O O11 0.500000 0.500000 0.610689
O O12 0.500000 0.726665 0.500000
O O13 0.902685 0.500000 0.243664
O O14 0.860516 0.725758 0.342529
O O15 0.000000 0.688328 0.306460
O O16 0.210664 0.734881 0.500000
O O17 0.213762 0.500000 0.602296
#
# Coordination Sequence:
#
# PCOD8197432 Si02
#       6
#     8   8   8   4   8   8
#     4   9  15  25  42  66  97 130 160 191 233 286
#     4   9  16  28  48  71  96 127 161 198 241 289
#     4  10  20  33  50  72  97 126 161 202 245 289
#     4   9  16  24  37  65 104 135 157 191 240 288
#     4  10  20  33  49  71  98 127 161 200 242 289
#     4   9  16  27  45  68  93 123 160 200 239 280
#
# _framework density 18.073827999999999
#
# number of rings (size 3 to 8) (size 9 to 14) (size 15 to 20)
#    0.000    2.636    1.818    1.091    0.000    4.364 
#    0.000    4.091    0.000    3.273    0.000    1.909 
#    0.000    3.636    0.000    0.000    0.000    0.000 
#
# Total GULP energy -545433.858001 kJ/mol
# GULP energy per Si atom -12396.224045 kJ/mol
# Density = 1.803269 g / cm^3
# Si number density = 18.073828 Si / 1000 Ang^3
#
#
#
# Elastic Constant Matrix: (Units=GPa)
#
#
# Indices 1 2 3 4 5 6 
#
# 1 142.9925 21.1873 84.8116 0.0000 0.0000 0.0000
# 2 21.1873 34.6483 26.7892 0.0000 0.0000 0.0000
# 3 84.8116 26.7892 152.7690 0.0000 0.0000 0.0000
# 4 0.0000 0.0000 0.0000 9.2651 0.0000 0.0000
# 5 0.0000 0.0000 0.0000 0.0000 28.8499 0.0000
# 6 0.0000 0.0000 0.0000 0.0000 0.0000 3.6676
#
#
#
# Elastic Compliance Matrix: (Units=1/GPa)
#
#
# Indices 1 2 3 4 5 6 
#
# 1 0.010573 -0.002229 -0.005479 0.000000 0.000000 0.000000
# 2 -0.002229 0.033858 -0.004700 0.000000 0.000000 0.000000
# 3 -0.005479 -0.004700 0.010412 0.000000 0.000000 0.000000
# 4 0.000000 0.000000 0.000000 0.107932 0.000000 0.000000
# 5 0.000000 0.000000 0.000000 0.000000 0.034662 0.000000
# 6 0.000000 0.000000 0.000000 0.000000 0.000000 0.272659
#
#
# Mechanical properties :
#
#
# Convention : Reuss Voigt Hill
#
# Bulk Modulus (GPa) = 33.30295 66.22067 49.76181
# Shear Modulus (GPa) = 9.90252 21.53130 15.71691
#
# Velocity S-wave (km/s) = 2.34325 3.45526 2.95209
# Velocity P-wave (km/s) = 5.07811 7.25513 6.26195
#
# Compressibility (1/GPa) = 0.03002737
#
# Stress axis : x y z
#
# Youngs Moduli (GPa) = 94.57686 29.53483 96.04587
#
# Poissons Ratio (x) = 0.06584 0.52624
# Poissons Ratio (y) = 0.21085 0.45138
# Poissons Ratio (z) = 0.51819 0.13880
#
# Static dielectric constant tensor:
#      x y z
#    x 3.358550 0.000000 0.000000 
#    y 0.000000 2.876530 0.000000 
#    z 0.000000 0.000000 3.644260 
# 
# 
# High freq. dielectric constant tensor:
#      x y z
#    x 1.688720 0.000000 0.000000 
#    y 0.000000 1.641280 0.000000 
#    z 0.000000 0.000000 1.714080 
# 
# From -- ./inp_files/6103.got.cif
#   From: 2010.03.12/outbox.cif.g09.slc.cpg/sg47_4_cif.got.tgz:6103.got - 2010.04.14 03:12:58.
