data_PCOD8197647
_publ_section_title
;
Structure prediction by ZEFSAII (Michael W. Deem and Ramdas Pophale) SiO2 
 PCOD8197647
Probable space group: P M M M
;
_chemical_formula_sum "Si O2"
_cell_formula_units_Z 64
_cell_length_a 24.289897
_cell_length_b 9.106944
_cell_length_c 14.828234
_cell_angle_alpha 90.000000
_cell_angle_beta 90.000000
_cell_angle_gamma 90.000000
_cell_volume 3280.105181
_symmetry_space_group_name_H-M "P M M M"
_symmetry_group_IT_number 47
_symmetry_cell_setting 'orthorhombic'
loop_
_space_group_symop_operation_xyz
x,y,z
-x,-y,z
x,-y,-z
-x,y,-z
-x,-y,-z
x,y,-z
-x,y,z
x,-y,z
loop_
_atom_site_type_symbol
_atom_site_label
_atom_site_fract_x
_atom_site_fract_y
_atom_site_fract_z
Si Si1 0.384386 0.172720 0.602884
Si Si2 0.059419 0.329784 0.730872
Si Si3 0.823051 0.674088 0.264995
Si Si4 0.064050 0.159744 0.902869
Si Si5 0.727058 0.670122 0.603193
Si Si6 0.767976 0.826898 0.104160
Si Si7 0.344558 0.671005 0.896788
Si Si8 0.561922 0.330353 0.240539
O O1 0.398423 0.217065 0.500000
O O2 0.325831 0.238071 0.632660
O O3 0.430712 0.238987 0.667602
O O4 0.382126 0.000000 0.614982
O O5 0.049672 0.500000 0.719735
O O6 0.117772 0.283774 0.685674
O O7 0.073934 0.291811 0.834128
O O8 0.000000 0.254852 0.699810
O O9 0.821246 0.500000 0.246069
O O10 0.777294 0.724729 0.335726
O O11 0.814665 0.758798 0.169737
O O12 0.000000 0.139996 0.916878
O O13 0.087801 0.000000 0.869511
O O14 0.091402 0.198771 0.000000
O O15 0.743376 0.700688 0.500000
O O16 0.713563 0.500000 0.619875
O O17 0.709248 0.759927 0.133343
O O18 0.765448 0.000000 0.118272
O O19 0.781213 0.786205 0.000000
O O20 0.331537 0.500000 0.882069
O O21 0.396041 0.723544 0.836574
O O22 0.360316 0.704932 0.000000
O O23 0.500000 0.303923 0.204840
O O24 0.572121 0.500000 0.263651
#
# Coordination Sequence:
#
# PCOD8197647 Si02
#       8
#     8   8   8   8   8   8   8   8
#     4  10  21  36  54  77 105 135 166 204 253 305
#     4   9  18  31  45  63  90 124 159 194 235 286
#     4  10  20  33  51  74  99 129 164 203 248 298
#     4   8  14  25  40  57  79 110 149 191 230 268
#     4   9  18  34  56  79 101 126 160 204 253 304
#     4  10  21  35  51  74 103 133 167 208 253 300
#     4   9  18  34  55  76 101 135 172 211 255 298
#     4  10  21  35  52  77 107 139 176 213 247 289
#
# _framework density 19.511569999999999
#
# number of rings (size 3 to 8) (size 9 to 14) (size 15 to 20)
#    0.000    2.625    0.000    1.875    0.000    7.500 
#    0.000    6.250    0.000    0.375    0.000    5.250 
#    0.000    0.000    0.000    7.375    0.000    7.750 
#
# Total GULP energy -792961.646372 kJ/mol
# GULP energy per Si atom -12390.025725 kJ/mol
# Density = 1.946716 g / cm^3
# Si number density = 19.511570 Si / 1000 Ang^3
#
#
#
# Elastic Constant Matrix: (Units=GPa)
#
#
# Indices 1 2 3 4 5 6 
#
# 1 127.0665 28.6579 34.4936 0.0000 0.0000 0.0000
# 2 28.6579 36.9460 17.0693 0.0000 0.0000 0.0000
# 3 34.4936 17.0693 52.7776 0.0000 0.0000 0.0000
# 4 0.0000 0.0000 0.0000 21.0835 0.0000 0.0000
# 5 0.0000 0.0000 0.0000 0.0000 14.2062 0.0000
# 6 0.0000 0.0000 0.0000 0.0000 0.0000 3.7513
#
#
#
# Elastic Compliance Matrix: (Units=1/GPa)
#
#
# Indices 1 2 3 4 5 6 
#
# 1 0.010551 -0.005876 -0.004995 0.000000 0.000000 0.000000
# 2 -0.005876 0.035094 -0.007510 0.000000 0.000000 0.000000
# 3 -0.004995 -0.007510 0.024641 0.000000 0.000000 0.000000
# 4 0.000000 0.000000 0.000000 0.047430 0.000000 0.000000
# 5 0.000000 0.000000 0.000000 0.000000 0.070392 0.000000
# 6 0.000000 0.000000 0.000000 0.000000 0.000000 0.266575
#
#
# Mechanical properties :
#
#
# Convention : Reuss Voigt Hill
#
# Bulk Modulus (GPa) = 29.82962 41.91465 35.87214
# Shear Modulus (GPa) = 9.94786 16.91281 13.43033
#
# Velocity S-wave (km/s) = 2.26042 2.94736 2.62644
# Velocity P-wave (km/s) = 4.70468 5.75423 5.25572
#
# Compressibility (1/GPa) = 0.03352373
#
# Stress axis : x y z
#
# Youngs Moduli (GPa) = 94.77513 28.49479 40.58281
#
# Poissons Ratio (x) = 0.16745 0.20273
# Poissons Ratio (y) = 0.55694 0.30476
# Poissons Ratio (z) = 0.47344 0.21398
#
# Static dielectric constant tensor:
#      x y z
#    x 3.821450 0.000000 0.000000 
#    y 0.000000 3.451110 0.000000 
#    z 0.000000 0.000000 3.524300 
# 
# 
# High freq. dielectric constant tensor:
#      x y z
#    x 1.772840 0.000000 0.000000 
#    y 0.000000 1.745500 0.000000 
#    z 0.000000 0.000000 1.735770 
# 
# From -- ./inp_files/7864.got.cif
#   From: 2010.03.12/outbox.cif.g09.slc.cpg/sg47_4_cif.got.tgz:7864.got - 2010.04.14 03:12:58.
