data_PCOD8197633
_publ_section_title
;
Structure prediction by ZEFSAII (Michael W. Deem and Ramdas Pophale) SiO2 
 PCOD8197633
Probable space group: P M M M
;
_chemical_formula_sum "Si O2"
_cell_formula_units_Z 56
_cell_length_a 17.508577
_cell_length_b 9.052886
_cell_length_c 20.064499
_cell_angle_alpha 90.000000
_cell_angle_beta 90.000000
_cell_angle_gamma 90.000000
_cell_volume 3180.286327
_symmetry_space_group_name_H-M "P M M M"
_symmetry_group_IT_number 47
_symmetry_cell_setting 'orthorhombic'
loop_
_space_group_symop_operation_xyz
x,y,z
-x,-y,z
x,-y,-z
-x,y,-z
-x,-y,-z
x,y,-z
-x,y,z
x,-y,z
loop_
_atom_site_type_symbol
_atom_site_label
_atom_site_fract_x
_atom_site_fract_y
_atom_site_fract_z
Si Si1 0.089819 0.170401 0.424558
Si Si2 0.414782 0.324227 0.500000
Si Si3 0.835008 0.325989 0.921836
Si Si4 0.583789 0.173077 0.761760
Si Si5 0.360263 0.331476 0.637781
Si Si6 0.809208 0.669653 0.684465
Si Si7 0.253271 0.175174 0.810671
Si Si8 0.000000 0.671758 0.077250
O O1 0.113340 0.221358 0.500000
O O2 0.129291 0.264773 0.366563
O O3 0.000000 0.192400 0.415498
O O4 0.112709 0.000000 0.414829
O O5 0.411207 0.500000 0.500000
O O6 0.500000 0.263856 0.500000
O O7 0.373194 0.261829 0.565178
O O8 0.825641 0.500000 0.908035
O O9 0.771330 0.234903 0.882612
O O10 0.918828 0.267506 0.895230
O O11 0.824806 0.292798 0.000000
O O12 0.500000 0.215082 0.793469
O O13 0.587864 0.242856 0.689045
O O14 0.657766 0.227428 0.803746
O O15 0.589879 0.000000 0.752716
O O16 0.387950 0.500000 0.642237
O O17 0.271287 0.315472 0.649235
O O18 0.830936 0.500000 0.699870
O O19 0.802846 0.756617 0.754512
O O20 0.245534 0.000000 0.807422
O O21 0.000000 0.500000 0.091050
O O22 0.000000 0.705648 0.000000
#
# Coordination Sequence:
#
# PCOD8197633 Si02
#       8
#     8   4   8   8   8   8   8   4
#     4   9  19  36  55  73  96 129 169 213 261 310
#     4   9  16  26  41  63  92 121 148 184 237 295
#     4   9  17  32  55  80 106 135 168 206 248 297
#     4   9  18  33  51  69  93 127 167 209 249 293
#     4   9  18  30  46  68  93 123 158 199 245 297
#     4  10  20  33  51  73  99 129 168 213 253 300
#     4  10  20  34  52  75 105 136 169 209 255 304
#     4   7  12  26  49  75 101 131 162 191 228 279
#
# _framework density 17.608478000000002
#
# number of rings (size 3 to 8) (size 9 to 14) (size 15 to 20)
#    0.000    2.857    0.000    2.571    1.000    2.857 
#    1.286    1.429    0.000    3.000    0.000    3.000 
#    0.000    0.000    0.000    0.000    0.000    0.000 
#
# Total GULP energy -693838.907518 kJ/mol
# GULP energy per Si atom -12389.980491 kJ/mol
# Density = 1.756840 g / cm^3
# Si number density = 17.608478 Si / 1000 Ang^3
#
#
#
# Elastic Constant Matrix: (Units=GPa)
#
#
# Indices 1 2 3 4 5 6 
#
# 1 95.9700 38.6417 57.0490 0.0000 0.0000 0.0000
# 2 38.6417 48.9278 36.3704 0.0000 0.0000 0.0000
# 3 57.0490 36.3704 96.3012 0.0000 0.0000 0.0000
# 4 0.0000 0.0000 0.0000 21.8750 0.0000 0.0000
# 5 0.0000 0.0000 0.0000 0.0000 23.9644 0.0000
# 6 0.0000 0.0000 0.0000 0.0000 0.0000 23.0122
#
#
#
# Elastic Compliance Matrix: (Units=1/GPa)
#
#
# Indices 1 2 3 4 5 6 
#
# 1 0.018564 -0.009018 -0.007591 0.000000 0.000000 0.000000
# 2 -0.009018 0.032797 -0.007044 0.000000 0.000000 0.000000
# 3 -0.007591 -0.007044 0.017542 0.000000 0.000000 0.000000
# 4 0.000000 0.000000 0.000000 0.045714 0.000000 0.000000
# 5 0.000000 0.000000 0.000000 0.000000 0.041729 0.000000
# 6 0.000000 0.000000 0.000000 0.000000 0.000000 0.043455
#
#
# Mechanical properties :
#
#
# Convention : Reuss Voigt Hill
#
# Bulk Modulus (GPa) = 46.30699 56.14681 51.22690
# Shear Modulus (GPa) = 19.66142 21.04616 20.35379
#
# Velocity S-wave (km/s) = 3.34516 3.46096 3.40355
# Velocity P-wave (km/s) = 6.42459 6.92289 6.67839
#
# Compressibility (1/GPa) = 0.02159501
#
# Stress axis : x y z
#
# Youngs Moduli (GPa) = 53.86905 30.49086 57.00753
#
# Poissons Ratio (x) = 0.27497 0.43276
# Poissons Ratio (y) = 0.48579 0.40157
# Poissons Ratio (z) = 0.40893 0.21478
#
# Static dielectric constant tensor:
#      x y z
#    x 3.549630 0.000000 0.000000 
#    y 0.000000 3.127750 0.000000 
#    z 0.000000 0.000000 3.190060 
# 
# 
# High freq. dielectric constant tensor:
#      x y z
#    x 1.687670 0.000000 0.000000 
#    y 0.000000 1.664920 0.000000 
#    z 0.000000 0.000000 1.664620 
# 
# From -- ./inp_files/31001.got.cif
#   From: 2010.03.12/outbox.cif.g09.slc.cpg/sg47_16_cif.got.tgz:31001.got - 2010.04.14 03:12:58.
