data_PCOD8197225
_publ_section_title
;
Structure prediction by ZEFSAII (Michael W. Deem and Ramdas Pophale) SiO2 
 PCOD8197225
Probable space group: P M M M
;
_chemical_formula_sum "Si O2"
_cell_formula_units_Z 48
_cell_length_a 10.128710
_cell_length_b 8.941381
_cell_length_c 29.122310
_cell_angle_alpha 90.000000
_cell_angle_beta 90.000000
_cell_angle_gamma 90.000000
_cell_volume 2637.451962
_symmetry_space_group_name_H-M "P M M M"
_symmetry_group_IT_number 47
_symmetry_cell_setting 'orthorhombic'
loop_
_space_group_symop_operation_xyz
x,y,z
-x,-y,z
x,-y,-z
-x,y,-z
-x,-y,-z
x,y,-z
-x,y,z
x,-y,z
loop_
_atom_site_type_symbol
_atom_site_label
_atom_site_fract_x
_atom_site_fract_y
_atom_site_fract_z
Si Si1 0.656534 0.334790 0.788601
Si Si2 0.349996 0.824174 0.120989
Si Si3 0.346669 0.324081 0.312868
Si Si4 0.252050 0.822170 0.400976
Si Si5 0.000000 0.325291 0.445770
Si Si6 0.850729 0.673713 0.053202
Si Si7 0.500000 0.330239 0.445768
O O1 0.500000 0.343614 0.787237
O O2 0.714777 0.500000 0.798189
O O3 0.705199 0.227315 0.829362
O O4 0.701833 0.277170 0.738367
O O5 0.500000 0.764861 0.113016
O O6 0.255846 0.765773 0.081318
O O7 0.347399 0.000000 0.119902
O O8 0.500000 0.283349 0.320824
O O9 0.323888 0.500000 0.320350
O O10 0.258930 0.229119 0.348004
O O11 0.124665 0.754345 0.424208
O O12 0.374011 0.758238 0.428890
O O13 0.249310 0.000000 0.403853
O O14 0.000000 0.500000 0.433180
O O15 0.000000 0.300607 0.500000
O O16 0.829204 0.500000 0.063481
O O17 0.000000 0.720756 0.066941
O O18 0.826491 0.709212 0.000000
O O19 0.500000 0.500000 0.425846
O O20 0.500000 0.335359 0.500000
#
# Coordination Sequence:
#
# PCOD8197225 Si02
#       7
#     8   8   8   8   4   8   4
#     4   8  15  29  51  78 106 142 184 223 263 312
#     4  10  20  32  49  78 113 145 176 218 271 324
#     4   9  17  32  56  83 112 146 184 224 267 323
#     4  12  24  37  58  88 117 145 179 228 284 330
#     4  11  25  45  65  81 105 149 193 225 270 335
#     4   9  19  36  56  76 100 136 183 231 275 322
#     4  11  23  39  59  83 113 149 189 229 268 321
#
# _framework density 18.199383999999998
#
# number of rings (size 3 to 8) (size 9 to 14) (size 15 to 20)
#    0.000    2.167    0.833    4.500    0.000    6.000 
#    0.000    4.167    1.833    0.000    0.000    0.000 
#    0.000    0.000    0.000    0.000    0.000    0.000 
#
# Total GULP energy -595120.121218 kJ/mol
# GULP energy per Si atom -12398.335859 kJ/mol
# Density = 1.815796 g / cm^3
# Si number density = 18.199384 Si / 1000 Ang^3
#
#
#
# Elastic Constant Matrix: (Units=GPa)
#
#
# Indices 1 2 3 4 5 6 
#
# 1 105.3480 60.8074 60.0245 0.0000 0.0000 0.0000
# 2 60.8074 113.7531 67.5147 0.0000 0.0000 0.0000
# 3 60.0245 67.5147 120.6888 0.0000 0.0000 0.0000
# 4 0.0000 0.0000 0.0000 2.6457 0.0000 0.0000
# 5 0.0000 0.0000 0.0000 0.0000 24.7250 0.0000
# 6 0.0000 0.0000 0.0000 0.0000 0.0000 25.7431
#
#
#
# Elastic Compliance Matrix: (Units=1/GPa)
#
#
# Indices 1 2 3 4 5 6 
#
# 1 0.015212 -0.005451 -0.004516 0.000000 0.000000 0.000000
# 2 -0.005451 0.015114 -0.005744 0.000000 0.000000 0.000000
# 3 -0.004516 -0.005744 0.013745 0.000000 0.000000 0.000000
# 4 0.000000 0.000000 0.000000 0.377968 0.000000 0.000000
# 5 0.000000 0.000000 0.000000 0.000000 0.040445 0.000000
# 6 0.000000 0.000000 0.000000 0.000000 0.000000 0.038845
#
#
# Mechanical properties :
#
#
# Convention : Reuss Voigt Hill
#
# Bulk Modulus (GPa) = 79.05989 79.60923 79.33456
# Shear Modulus (GPa) = 9.31154 20.71899 15.01526
#
# Velocity S-wave (km/s) = 2.26440 3.37774 2.87547
# Velocity P-wave (km/s) = 7.09732 7.68440 7.39669
#
# Compressibility (1/GPa) = 0.01264864
#
# Stress axis : x y z
#
# Youngs Moduli (GPa) = 65.73740 66.16384 72.75348
#
# Poissons Ratio (x) = 0.36067 0.32857
# Poissons Ratio (y) = 0.35835 0.41788
# Poissons Ratio (z) = 0.29688 0.38003
#
# Static dielectric constant tensor:
#      x y z
#    x 3.185660 0.000000 0.000000 
#    y 0.000000 3.378740 0.000000 
#    z 0.000000 0.000000 3.650900 
# 
# 
# High freq. dielectric constant tensor:
#      x y z
#    x 1.680200 0.000000 0.000000 
#    y 0.000000 1.705160 0.000000 
#    z 0.000000 0.000000 1.721410 
# 
# From -- ./inp_files/2690.got.cif
#   From: 2010.03.12/outbox.cif.g09.slc.cpg/sg47_2_cif.got.tgz:2690.got - 2010.04.14 03:12:58.
