data_PCOD8197159
_publ_section_title
;
Structure prediction by ZEFSAII (Michael W. Deem and Ramdas Pophale) SiO2 
 PCOD8197159
Probable space group: P M M M
;
_chemical_formula_sum "Si O2"
_cell_formula_units_Z 64
_cell_length_a 18.569133
_cell_length_b 20.407777
_cell_length_c 9.299516
_cell_angle_alpha 90.000000
_cell_angle_beta 90.000000
_cell_angle_gamma 90.000000
_cell_volume 3524.095532
_symmetry_space_group_name_H-M "P M M M"
_symmetry_group_IT_number 47
_symmetry_cell_setting 'orthorhombic'
loop_
_space_group_symop_operation_xyz
x,y,z
-x,-y,z
x,-y,-z
-x,y,-z
-x,-y,-z
x,y,-z
-x,y,z
x,-y,z
loop_
_atom_site_type_symbol
_atom_site_label
_atom_site_fract_x
_atom_site_fract_y
_atom_site_fract_z
Si Si1 0.335421 0.686353 0.830888
Si Si2 0.917096 0.805177 0.670040
Si Si3 0.830472 0.693872 0.169649
Si Si4 0.583353 0.184156 0.167890
Si Si5 0.417540 0.575100 0.332422
Si Si6 0.919712 0.572075 0.829322
Si Si7 0.332687 0.075808 0.666809
Si Si8 0.171246 0.928254 0.670542
O O1 0.252638 0.695495 0.787408
O O2 0.377032 0.750619 0.775208
O O3 0.365326 0.621550 0.756623
O O4 0.345393 0.676625 0.000000
O O5 0.907558 0.796532 0.500000
O O6 0.871734 0.750753 0.749646
O O7 0.886690 0.875266 0.723243
O O8 0.000000 0.800520 0.716621
O O9 0.863005 0.625288 0.226936
O O10 0.842105 0.702955 0.000000
O O11 0.500000 0.192648 0.204468
O O12 0.612036 0.119872 0.245907
O O13 0.597692 0.174684 0.000000
O O14 0.405953 0.588849 0.500000
O O15 0.500000 0.589540 0.288970
O O16 0.398019 0.500000 0.295439
O O17 0.897514 0.500000 0.770926
O O18 0.000000 0.590243 0.774151
O O19 0.919662 0.570867 0.000000
O O20 0.340126 0.093815 0.500000
O O21 0.251662 0.090476 0.722982
O O22 0.352387 0.000000 0.693529
O O23 0.173152 0.932131 0.500000
O O24 0.149242 0.000000 0.731789
#
# Coordination Sequence:
#
# PCOD8197159 Si02
#       8
#     8   8   8   8   8   8   8   8
#     4  10  21  35  52  76 103 132 171 217 258 297
#     4  10  20  32  49  75 103 131 166 207 248 293
#     4  10  20  33  51  74  99 130 167 206 250 299
#     4  10  21  35  49  68  98 132 163 200 250 305
#     4   9  19  36  56  78 105 137 172 208 250 305
#     4   8  14  26  45  68  93 122 157 195 233 277
#     4   9  18  33  53  75  97 124 162 206 249 297
#     4   8  15  30  51  73  98 128 161 199 244 291
#
# _framework density 18.160688
#
# number of rings (size 3 to 8) (size 9 to 14) (size 15 to 20)
#    0.000    2.750    0.000    3.000    0.000    4.250 
#    0.000    4.375    0.000    1.500    0.000    2.625 
#    0.000    0.000    0.000    0.000    0.000    0.000 
#
# Total GULP energy -793513.683631 kJ/mol
# GULP energy per Si atom -12398.651307 kJ/mol
# Density = 1.811935 g / cm^3
# Si number density = 18.160688 Si / 1000 Ang^3
#
#
#
# Elastic Constant Matrix: (Units=GPa)
#
#
# Indices 1 2 3 4 5 6 
#
# 1 147.7196 100.1688 46.8423 0.0000 0.0000 0.0000
# 2 100.1688 148.6003 45.4461 0.0000 0.0000 0.0000
# 3 46.8423 45.4461 33.0603 0.0000 0.0000 0.0000
# 4 0.0000 0.0000 0.0000 29.9220 0.0000 0.0000
# 5 0.0000 0.0000 0.0000 0.0000 17.9667 0.0000
# 6 0.0000 0.0000 0.0000 0.0000 0.0000 42.4302
#
#
#
# Elastic Compliance Matrix: (Units=1/GPa)
#
#
# Indices 1 2 3 4 5 6 
#
# 1 0.015040 -0.006248 -0.012722 0.000000 0.000000 0.000000
# 2 -0.006248 0.014206 -0.010676 0.000000 0.000000 0.000000
# 3 -0.012722 -0.010676 0.062948 0.000000 0.000000 0.000000
# 4 0.000000 0.000000 0.000000 0.033420 0.000000 0.000000
# 5 0.000000 0.000000 0.000000 0.000000 0.055658 0.000000
# 6 0.000000 0.000000 0.000000 0.000000 0.000000 0.023568
#
#
# Mechanical properties :
#
#
# Convention : Reuss Voigt Hill
#
# Bulk Modulus (GPa) = 30.39159 79.36609 54.87884
# Shear Modulus (GPa) = 18.17522 27.19199 22.68361
#
# Velocity S-wave (km/s) = 3.16697 3.87369 3.53802
# Velocity P-wave (km/s) = 5.49037 7.98776 6.85378
#
# Compressibility (1/GPa) = 0.03290384
#
# Stress axis : x y z
#
# Youngs Moduli (GPa) = 66.48809 70.39348 15.88605
#
# Poissons Ratio (x) = 0.43980 0.20210
# Poissons Ratio (y) = 0.41540 0.16960
# Poissons Ratio (z) = 0.84585 0.75150
#
# Static dielectric constant tensor:
#      x y z
#    x 3.489970 0.000000 0.000000 
#    y 0.000000 3.812300 0.000000 
#    z 0.000000 0.000000 2.997800 
# 
# 
# High freq. dielectric constant tensor:
#      x y z
#    x 1.709380 0.000000 0.000000 
#    y 0.000000 1.718300 0.000000 
#    z 0.000000 0.000000 1.668190 
# 
# From -- ./inp_files/9911.got.cif
#   From: 2010.03.12/outbox.cif.g09.slc.cpg/sg47_5_cif.got.tgz:9911.got - 2010.04.14 03:12:58.
