data_PCOD8197236
_publ_section_title
;
Structure prediction by ZEFSAII (Michael W. Deem and Ramdas Pophale) SiO2 
 PCOD8197236
Probable space group: P M M M
;
_chemical_formula_sum "Si O2"
_cell_formula_units_Z 48
_cell_length_a 9.105879
_cell_length_b 8.213095
_cell_length_c 32.510967
_cell_angle_alpha 90.000000
_cell_angle_beta 90.000000
_cell_angle_gamma 90.000000
_cell_volume 2431.412296
_symmetry_space_group_name_H-M "P M M M"
_symmetry_group_IT_number 47
_symmetry_cell_setting 'orthorhombic'
loop_
_space_group_symop_operation_xyz
x,y,z
-x,-y,z
x,-y,-z
-x,y,-z
-x,-y,-z
x,y,-z
-x,y,z
x,-y,z
loop_
_atom_site_type_symbol
_atom_site_label
_atom_site_fract_x
_atom_site_fract_y
_atom_site_fract_z
Si Si1 0.660311 0.812261 0.500000
Si Si2 0.829430 0.313674 0.270636
Si Si3 0.825212 0.500000 0.046594
Si Si4 0.164271 0.312399 0.423142
Si Si5 0.834280 0.812065 0.813544
Si Si6 0.175566 0.816436 0.904162
Si Si7 0.667095 0.187022 0.346901
O O1 0.500000 0.723363 0.500000
O O2 0.748703 0.773379 0.459185
O O3 0.629418 0.000000 0.500000
O O4 0.810816 0.500000 0.283486
O O5 0.762938 0.286441 0.224558
O O6 0.738212 0.205045 0.302124
O O7 0.000000 0.259358 0.271934
O O8 0.765688 0.667987 0.067406
O O9 0.000000 0.500000 0.048506
O O10 0.767441 0.500000 0.000000
O O11 0.156204 0.500000 0.434420
O O12 0.243606 0.291811 0.379665
O O13 0.000000 0.238671 0.420281
O O14 0.759613 0.782607 0.858206
O O15 0.000000 0.749543 0.818023
O O16 0.826985 0.000000 0.801517
O O17 0.000000 0.816552 0.903085
O O18 0.225934 0.000000 0.918909
O O19 0.500000 0.250152 0.345543
O O20 0.673548 0.000000 0.360472
#
# Coordination Sequence:
#
# PCOD8197236 Si02
#       7
#     4   8   4   8   8   8   8
#     4  11  24  41  62  90 120 149 184 221 262 316
#     4  10  20  32  50  77 103 129 166 212 260 311
#     4   9  16  22  30  46  70 106 151 199 251 304
#     4  11  24  41  62  88 115 143 180 224 267 312
#     4   8  14  25  41  61  85 115 152 199 253 302
#     4   8  14  23  34  49  72 105 147 196 250 304
#     4  11  24  40  57  78 106 142 180 215 258 314
#
# _framework density 19.741613000000001
#
# number of rings (size 3 to 8) (size 9 to 14) (size 15 to 20)
#    0.000    2.333    0.000    4.000    1.167    9.667 
#    0.000    1.667    0.000    0.000    0.000    0.000 
#    0.000    0.000    0.000    0.000    0.000    1.667 
#
# Total GULP energy -594926.268423 kJ/mol
# GULP energy per Si atom -12394.297259 kJ/mol
# Density = 1.969668 g / cm^3
# Si number density = 19.741613 Si / 1000 Ang^3
#
#
#
# Elastic Constant Matrix: (Units=GPa)
#
#
# Indices 1 2 3 4 5 6 
#
# 1 83.5901 26.8516 42.6269 0.0000 0.0000 0.0000
# 2 26.8516 85.0535 49.3258 0.0000 0.0000 0.0000
# 3 42.6269 49.3258 144.0848 0.0000 0.0000 0.0000
# 4 0.0000 0.0000 0.0000 40.3609 0.0000 0.0000
# 5 0.0000 0.0000 0.0000 0.0000 -7.2556 0.0000
# 6 0.0000 0.0000 0.0000 0.0000 0.0000 17.0680
#
#
#
# Elastic Compliance Matrix: (Units=1/GPa)
#
#
# Indices 1 2 3 4 5 6 
#
# 1 0.014540 -0.002615 -0.003407 0.000000 0.000000 0.000000
# 2 -0.002615 0.015140 -0.004409 0.000000 0.000000 0.000000
# 3 -0.003407 -0.004409 0.009458 0.000000 0.000000 0.000000
# 4 0.000000 0.000000 0.000000 0.024776 0.000000 0.000000
# 5 0.000000 0.000000 0.000000 0.000000 -0.137825 0.000000
# 6 0.000000 0.000000 0.000000 0.000000 0.000000 0.058589
#
#
# Mechanical properties :
#
#
# Convention : Reuss Voigt Hill
#
# Bulk Modulus (GPa) = 54.71534 61.14855 57.93194
# Shear Modulus (GPa) = 429.85962 22.96294 226.41128
#
# Velocity S-wave (km/s) = 14.77212 3.41423 10.72083
# Velocity P-wave (km/s) = 17.85301 6.82527 13.51507
#
# Compressibility (1/GPa) = 0.01827641
#
# Stress axis : x y z
#
# Youngs Moduli (GPa) = 68.77455 66.05011 105.73409
#
# Poissons Ratio (x) = 0.17271 0.36019
# Poissons Ratio (y) = 0.17983 0.46623
# Poissons Ratio (z) = 0.23428 0.29124
#
# Static dielectric constant tensor:
#      x y z
#    x 3.260660 0.000000 0.000000 
#    y 0.000000 3.651600 0.000000 
#    z 0.000000 0.000000 3.846260 
# 
# 
# High freq. dielectric constant tensor:
#      x y z
#    x 1.714350 0.000000 0.000000 
#    y 0.000000 1.775290 0.000000 
#    z 0.000000 0.000000 1.780260 
# 
# From -- ./inp_files/34106.got.cif
#   From: 2010.03.12/outbox.cif.g09.slc.cpg/sg47_18_cif.got.tgz:34106.got - 2010.04.14 03:12:58.
