data_PCOD8197127
_publ_section_title
;
Structure prediction by ZEFSAII (Michael W. Deem and Ramdas Pophale) SiO2 
 PCOD8197127
Probable space group: P M M M
;
_chemical_formula_sum "Si O2"
_cell_formula_units_Z 60
_cell_length_a 18.481216
_cell_length_b 13.280130
_cell_length_c 13.034789
_cell_angle_alpha 90.000000
_cell_angle_beta 90.000000
_cell_angle_gamma 90.000000
_cell_volume 3199.166730
_symmetry_space_group_name_H-M "P M M M"
_symmetry_group_IT_number 47
_symmetry_cell_setting 'orthorhombic'
loop_
_space_group_symop_operation_xyz
x,y,z
-x,-y,z
x,-y,-z
-x,y,-z
-x,-y,-z
x,y,-z
-x,y,z
x,-y,z
loop_
_atom_site_type_symbol
_atom_site_label
_atom_site_fract_x
_atom_site_fract_y
_atom_site_fract_z
Si Si1 0.298085 0.706158 0.381974
Si Si2 0.417023 0.216078 0.880135
Si Si3 0.808798 0.616249 0.227773
Si Si4 0.156530 0.807043 0.118644
Si Si5 0.920528 0.619596 0.389346
Si Si6 0.000000 0.885130 0.121440
Si Si7 0.710168 0.886125 0.239518
Si Si8 0.582617 0.612426 0.725994
O O1 0.272111 0.694882 0.500000
O O2 0.260788 0.630226 0.299765
O O3 0.287542 0.820161 0.343544
O O4 0.380676 0.670024 0.370396
O O5 0.500000 0.178932 0.860386
O O6 0.359308 0.139879 0.830813
O O7 0.404732 0.326365 0.831585
O O8 0.400643 0.224983 0.000000
O O9 0.816400 0.500000 0.192913
O O10 0.816640 0.690121 0.130589
O O11 0.872661 0.660728 0.298449
O O12 0.074014 0.828305 0.158279
O O13 0.214188 0.875052 0.179201
O O14 0.161986 0.835785 0.000000
O O15 0.888714 0.653402 0.500000
O O16 0.922646 0.500000 0.384170
O O17 0.000000 0.665306 0.375611
O O18 0.000000 0.000000 0.163708
O O19 0.000000 0.885760 0.000000
O O20 0.701842 0.000000 0.276117
O O21 0.500000 0.608638 0.694196
O O22 0.613174 0.500000 0.743815
#
# Coordination Sequence:
#
# PCOD8197127 Si02
#       8
#     8   8   8   8   8   4   8   8
#     4  10  21  36  53  75 102 131 169 216 262 309
#     4   9  18  32  51  78 110 141 174 212 254 303
#     4  10  20  32  49  73 104 138 169 204 248 300
#     4  10  21  35  52  77 105 135 174 214 254 305
#     4   8  14  25  42  64  89 120 159 198 235 278
#     4   9  18  34  55  75  96 127 171 221 265 301
#     4  10  21  37  56  77 101 131 169 215 266 316
#     4   9  18  32  50  74 105 141 179 214 249 294
#
# _framework density 18.754884000000001
#
# number of rings (size 3 to 8) (size 9 to 14) (size 15 to 20)
#    0.000    2.600    0.000    2.000    0.933    4.533 
#    0.000    2.667    0.000    6.000    0.000    3.733 
#    0.000    5.600    0.000    0.000    0.000    0.000 
#
# Total GULP energy -743410.882524 kJ/mol
# GULP energy per Si atom -12390.181375 kJ/mol
# Density = 1.871220 g / cm^3
# Si number density = 18.754884 Si / 1000 Ang^3
#
#
#
# Elastic Constant Matrix: (Units=GPa)
#
#
# Indices 1 2 3 4 5 6 
#
# 1 90.9485 31.3409 22.9956 0.0000 0.0000 0.0000
# 2 31.3409 108.2082 11.8696 0.0000 0.0000 0.0000
# 3 22.9956 11.8696 48.4317 0.0000 0.0000 0.0000
# 4 0.0000 0.0000 0.0000 9.5019 0.0000 0.0000
# 5 0.0000 0.0000 0.0000 0.0000 27.5914 0.0000
# 6 0.0000 0.0000 0.0000 0.0000 0.0000 23.6884
#
#
#
# Elastic Compliance Matrix: (Units=1/GPa)
#
#
# Indices 1 2 3 4 5 6 
#
# 1 0.013558 -0.003310 -0.005626 0.000000 0.000000 0.000000
# 2 -0.003310 0.010305 -0.000954 0.000000 0.000000 0.000000
# 3 -0.005626 -0.000954 0.023553 0.000000 0.000000 0.000000
# 4 0.000000 0.000000 0.000000 0.105242 0.000000 0.000000
# 5 0.000000 0.000000 0.000000 0.000000 0.036243 0.000000
# 6 0.000000 0.000000 0.000000 0.000000 0.000000 0.042215
#
#
# Mechanical properties :
#
#
# Convention : Reuss Voigt Hill
#
# Bulk Modulus (GPa) = 36.18518 42.22228 39.20373
# Shear Modulus (GPa) = 19.22276 24.24850 21.73563
#
# Velocity S-wave (km/s) = 3.20495 3.59962 3.40800
# Velocity P-wave (km/s) = 5.74728 6.31172 6.03610
#
# Compressibility (1/GPa) = 0.02763562
#
# Stress axis : x y z
#
# Youngs Moduli (GPa) = 73.75506 97.04283 42.45764
#
# Poissons Ratio (x) = 0.32119 0.23888
# Poissons Ratio (y) = 0.24412 0.04050
# Poissons Ratio (z) = 0.41498 0.09257
#
# Static dielectric constant tensor:
#      x y z
#    x 3.947200 0.000000 0.000000 
#    y 0.000000 3.269040 0.000000 
#    z 0.000000 0.000000 3.250500 
# 
# 
# High freq. dielectric constant tensor:
#      x y z
#    x 1.748500 0.000000 0.000000 
#    y 0.000000 1.710440 0.000000 
#    z 0.000000 0.000000 1.704620 
# 
# From -- ./inp_files/19210.got.cif
#   From: 2010.03.12/outbox.cif.g09.slc.cpg/sg47_10_cif.got.tgz:19210.got - 2010.04.14 03:12:58.
