data_PCOD8197461
_publ_section_title
;
Structure prediction by ZEFSAII (Michael W. Deem and Ramdas Pophale) SiO2 
 PCOD8197461
Probable space group: P M M M
;
_chemical_formula_sum "Si O2"
_cell_formula_units_Z 64
_cell_length_a 20.465545
_cell_length_b 19.576701
_cell_length_c 9.283140
_cell_angle_alpha 90.000000
_cell_angle_beta 90.000000
_cell_angle_gamma 90.000000
_cell_volume 3719.270131
_symmetry_space_group_name_H-M "P M M M"
_symmetry_group_IT_number 47
_symmetry_cell_setting 'orthorhombic'
loop_
_space_group_symop_operation_xyz
x,y,z
-x,-y,z
x,-y,-z
-x,y,-z
-x,-y,-z
x,y,-z
-x,y,z
x,-y,z
loop_
_atom_site_type_symbol
_atom_site_label
_atom_site_fract_x
_atom_site_fract_y
_atom_site_fract_z
Si Si1 0.572393 0.581227 0.337839
Si Si2 0.167493 0.924371 0.671716
Si Si3 0.178024 0.580985 0.665428
Si Si4 0.310491 0.919046 0.658493
Si Si5 0.695214 0.418591 0.162818
Si Si6 0.428786 0.918874 0.839244
Si Si7 0.075547 0.804117 0.333448
Si Si8 0.076290 0.332107 0.831822
O O1 0.586035 0.607475 0.500000
O O2 0.500000 0.605394 0.286612
O O3 0.575254 0.500000 0.336714
O O4 0.628147 0.610698 0.232022
O O5 0.170073 0.927326 0.500000
O O6 0.239622 0.902409 0.728252
O O7 0.114919 0.869542 0.725572
O O8 0.148581 0.000000 0.730569
O O9 0.178250 0.606340 0.500000
O O10 0.173692 0.500000 0.672998
O O11 0.243725 0.607930 0.743004
O O12 0.115369 0.609152 0.749556
O O13 0.315492 0.886510 0.500000
O O14 0.369479 0.885859 0.749494
O O15 0.318626 0.000000 0.648914
O O16 0.694097 0.500000 0.163114
O O17 0.701463 0.390598 0.000000
O O18 0.500000 0.898792 0.773614
O O19 0.421910 0.000000 0.841844
O O20 0.423442 0.889666 0.000000
O O21 0.092180 0.787730 0.500000
O O22 0.096213 0.740326 0.236244
O O23 0.000000 0.822273 0.314202
O O24 0.000000 0.347041 0.807223
O O25 0.094443 0.332056 0.000000
#
# Coordination Sequence:
#
# PCOD8197461 Si02
#       8
#     8   8   8   8   8   8   8   8
#     4   8  13  21  33  50  76 113 154 191 226 265
#     4   8  14  25  42  66  94 120 148 186 228 264
#     4  10  20  33  50  71  94 120 151 188 228 272
#     4   8  13  21  33  50  75 107 140 174 213 256
#     4   9  16  25  38  58  86 118 150 185 226 271
#     4   8  13  20  29  43  67 100 136 173 212 253
#     4   9  17  30  49  70  91 118 152 187 222 264
#     4  10  21  36  52  69  92 121 150 184 227 273
#
# _framework density 17.207677
#
# number of rings (size 3 to 8) (size 9 to 14) (size 15 to 20)
#    0.000    3.250    0.000    2.625    0.000    4.000 
#    0.000    5.625    0.000    1.125    0.000    1.750 
#    0.000    1.000    0.000    5.250    0.000    9.875 
#
# Total GULP energy -793162.833672 kJ/mol
# GULP energy per Si atom -12393.169276 kJ/mol
# Density = 1.716851 g / cm^3
# Si number density = 17.207677 Si / 1000 Ang^3
#
#
#
# Elastic Constant Matrix: (Units=GPa)
#
#
# Indices 1 2 3 4 5 6 
#
# 1 116.7831 34.7288 62.6626 0.0000 0.0000 0.0000
# 2 34.7288 28.1753 26.3800 0.0000 0.0000 0.0000
# 3 62.6626 26.3800 102.9627 0.0000 0.0000 0.0000
# 4 0.0000 0.0000 0.0000 12.0889 0.0000 0.0000
# 5 0.0000 0.0000 0.0000 0.0000 26.0353 0.0000
# 6 0.0000 0.0000 0.0000 0.0000 0.0000 2.3126
#
#
#
# Elastic Compliance Matrix: (Units=1/GPa)
#
#
# Indices 1 2 3 4 5 6 
#
# 1 0.016035 -0.013982 -0.006177 0.000000 0.000000 0.000000
# 2 -0.013982 0.058884 -0.006578 0.000000 0.000000 0.000000
# 3 -0.006177 -0.006578 0.015156 0.000000 0.000000 0.000000
# 4 0.000000 0.000000 0.000000 0.082720 0.000000 0.000000
# 5 0.000000 0.000000 0.000000 0.000000 0.038409 0.000000
# 6 0.000000 0.000000 0.000000 0.000000 0.000000 0.432409
#
#
# Mechanical properties :
#
#
# Convention : Reuss Voigt Hill
#
# Bulk Modulus (GPa) = 27.31926 55.05153 41.18539
# Shear Modulus (GPa) = 7.04933 16.36401 11.70667
#
# Velocity S-wave (km/s) = 2.02621 3.08713 2.61112
# Velocity P-wave (km/s) = 4.62436 6.69097 5.75125
#
# Compressibility (1/GPa) = 0.03660422
#
# Stress axis : x y z
#
# Youngs Moduli (GPa) = 62.36419 16.98250 65.97831
#
# Poissons Ratio (x) = 0.23744 0.40752
# Poissons Ratio (y) = 0.87195 0.43398
# Poissons Ratio (z) = 0.38519 0.11170
#
# Static dielectric constant tensor:
#      x y z
#    x 3.528990 0.000000 0.000000 
#    y 0.000000 2.713100 0.000000 
#    z 0.000000 0.000000 3.313890 
# 
# 
# High freq. dielectric constant tensor:
#      x y z
#    x 1.680300 0.000000 0.000000 
#    y 0.000000 1.598160 0.000000 
#    z 0.000000 0.000000 1.655280 
# 
# From -- ./inp_files/9913.got.cif
#   From: 2010.03.12/outbox.cif.g09.slc.cpg/sg47_5_cif.got.tgz:9913.got - 2010.04.14 03:12:58.
