data_PCOD8197168
_publ_section_title
;
Structure prediction by ZEFSAII (Michael W. Deem and Ramdas Pophale) SiO2 
 PCOD8197168
Probable space group: P M M M
;
_chemical_formula_sum "Si O2"
_cell_formula_units_Z 48
_cell_length_a 9.245280
_cell_length_b 9.327810
_cell_length_c 30.615999
_cell_angle_alpha 90.000000
_cell_angle_beta 90.000000
_cell_angle_gamma 90.000000
_cell_volume 2640.269111
_symmetry_space_group_name_H-M "P M M M"
_symmetry_group_IT_number 47
_symmetry_cell_setting 'orthorhombic'
loop_
_space_group_symop_operation_xyz
x,y,z
-x,-y,z
x,-y,-z
-x,y,-z
-x,-y,-z
x,y,-z
-x,y,z
x,-y,z
loop_
_atom_site_type_symbol
_atom_site_label
_atom_site_fract_x
_atom_site_fract_y
_atom_site_fract_z
Si Si1 0.165596 0.829806 0.131075
Si Si2 0.833298 0.666235 0.706738
Si Si3 0.331968 0.662737 0.550184
Si Si4 0.330893 0.666531 0.206211
Si Si5 0.169753 0.164663 0.622016
Si Si6 0.337912 0.829753 0.048184
O O1 0.258015 0.760079 0.169072
O O2 0.227396 0.772726 0.084754
O O3 0.000000 0.780009 0.134724
O O4 0.180473 0.000000 0.134947
O O5 0.812407 0.500000 0.695520
O O6 0.737598 0.713033 0.747824
O O7 0.775738 0.754551 0.665335
O O8 0.000000 0.702413 0.717471
O O9 0.300002 0.700965 0.500000
O O10 0.500000 0.681319 0.560806
O O11 0.283211 0.500000 0.560153
O O12 0.243058 0.771811 0.579313
O O13 0.500000 0.700788 0.207570
O O14 0.299868 0.500000 0.196701
O O15 0.000000 0.185667 0.616355
O O16 0.214474 0.000000 0.626594
O O17 0.500000 0.774203 0.058870
O O18 0.337714 0.000000 0.048140
O O19 0.289864 0.774284 0.000000
#
# Coordination Sequence:
#
# PCOD8197168 Si02
#       6
#     8   8   8   8   8   8
#     4  10  20  32  49  75 104 134 168 207 252 300
#     4   9  18  34  54  73  97 132 171 208 247 295
#     4   9  19  36  56  77 102 135 176 218 256 296
#     4  10  21  36  54  76 101 131 168 209 254 303
#     4  10  21  35  52  78 110 139 167 204 252 304
#     4   8  14  26  45  69  98 132 168 206 249 297
#
# _framework density 18.179964999999999
#
# number of rings (size 3 to 8) (size 9 to 14) (size 15 to 20)
#    0.000    2.667    0.000    2.500    0.000    5.667 
#    0.000    7.500    0.000    0.500    0.000    3.500 
#    0.000    0.000    0.000    0.000    0.000    0.000 
#
# Total GULP energy -595219.431859 kJ/mol
# GULP energy per Si atom -12400.404830 kJ/mol
# Density = 1.813859 g / cm^3
# Si number density = 18.179965 Si / 1000 Ang^3
#
#
#
# Elastic Constant Matrix: (Units=GPa)
#
#
# Indices 1 2 3 4 5 6 
#
# 1 86.8301 40.7126 69.9980 0.0000 0.0000 0.0000
# 2 40.7126 61.5712 62.1068 0.0000 0.0000 0.0000
# 3 69.9980 62.1068 146.6340 0.0000 0.0000 0.0000
# 4 0.0000 0.0000 0.0000 108.3685 0.0000 0.0000
# 5 0.0000 0.0000 0.0000 0.0000 44.1998 0.0000
# 6 0.0000 0.0000 0.0000 0.0000 0.0000 25.5413
#
#
#
# Elastic Compliance Matrix: (Units=1/GPa)
#
#
# Indices 1 2 3 4 5 6 
#
# 1 0.020023 -0.006282 -0.006897 0.000000 0.000000 0.000000
# 2 -0.006282 0.030327 -0.009846 0.000000 0.000000 0.000000
# 3 -0.006897 -0.009846 0.014283 0.000000 0.000000 0.000000
# 4 0.000000 0.000000 0.000000 0.009228 0.000000 0.000000
# 5 0.000000 0.000000 0.000000 0.000000 0.022625 0.000000
# 6 0.000000 0.000000 0.000000 0.000000 0.000000 0.039152
#
#
# Mechanical properties :
#
#
# Convention : Reuss Voigt Hill
#
# Bulk Modulus (GPa) = 53.81837 71.18555 62.50196
# Shear Modulus (GPa) = 26.61249 43.76977 35.19113
#
# Velocity S-wave (km/s) = 3.83016 4.91204 4.40444
# Velocity P-wave (km/s) = 7.01624 8.45055 7.76658
#
# Compressibility (1/GPa) = 0.01858102
#
# Stress axis : x y z
#
# Youngs Moduli (GPa) = 49.94373 32.97373 70.01569
#
# Poissons Ratio (x) = 0.20715 0.48291
# Poissons Ratio (y) = 0.31376 0.68938
# Poissons Ratio (z) = 0.34447 0.32466
#
# Static dielectric constant tensor:
#      x y z
#    x 3.394120 0.000000 0.000000 
#    y 0.000000 3.156500 0.000000 
#    z 0.000000 0.000000 3.544340 
# 
# 
# High freq. dielectric constant tensor:
#      x y z
#    x 1.704350 0.000000 0.000000 
#    y 0.000000 1.681090 0.000000 
#    z 0.000000 0.000000 1.717730 
# 
# From -- ./inp_files/2480.got.cif
#   From: 2010.03.12/outbox.cif.g09.slc.cpg/sg47_2_cif.got.tgz:2480.got - 2010.04.14 03:12:58.
