data_PCOD8197360
_publ_section_title
;
Structure prediction by ZEFSAII (Michael W. Deem and Ramdas Pophale) SiO2 
 PCOD8197360
Probable space group: P M M M
;
_chemical_formula_sum "Si O2"
_cell_formula_units_Z 52
_cell_length_a 19.539013
_cell_length_b 9.247988
_cell_length_c 15.976091
_cell_angle_alpha 90.000000
_cell_angle_beta 90.000000
_cell_angle_gamma 90.000000
_cell_volume 2886.824650
_symmetry_space_group_name_H-M "P M M M"
_symmetry_group_IT_number 47
_symmetry_cell_setting 'orthorhombic'
loop_
_space_group_symop_operation_xyz
x,y,z
-x,-y,z
x,-y,-z
-x,y,-z
-x,-y,-z
x,y,-z
-x,y,z
x,-y,z
loop_
_atom_site_type_symbol
_atom_site_label
_atom_site_fract_x
_atom_site_fract_y
_atom_site_fract_z
Si Si1 0.214069 0.169878 0.408894
Si Si2 0.289171 0.830165 0.247359
Si Si3 0.924047 0.834586 0.326731
Si Si4 0.922463 0.331922 0.842975
Si Si5 0.577141 0.831408 0.162848
Si Si6 0.799873 0.168326 0.907532
Si Si7 0.418947 0.661438 0.000000
O O1 0.234310 0.236231 0.500000
O O2 0.259848 0.239132 0.333635
O O3 0.133546 0.202215 0.395198
O O4 0.227682 0.000000 0.411291
O O5 0.370347 0.795429 0.238488
O O6 0.249801 0.769685 0.165266
O O7 0.276333 0.000000 0.250693
O O8 0.911394 0.730835 0.249165
O O9 0.000000 0.810098 0.365467
O O10 0.915608 0.000000 0.295651
O O11 0.904316 0.500000 0.840402
O O12 0.871840 0.251988 0.906261
O O13 0.000000 0.305709 0.873926
O O14 0.500000 0.785792 0.189584
O O15 0.604831 0.746035 0.082395
O O16 0.579852 0.000000 0.139320
O O17 0.814644 0.000000 0.892995
O O18 0.767023 0.194158 0.000000
O O19 0.387459 0.500000 0.000000
O O20 0.500000 0.654539 0.000000
#
# Coordination Sequence:
#
# PCOD8197360 Si02
#       7
#     8   8   8   8   8   8   4
#     4   9  16  27  47  74  98 121 152 194 245 290
#     4   9  17  30  48  70  98 125 155 197 239 281
#     4   9  16  28  48  71  94 120 154 196 238 285
#     4  10  20  33  49  68  94 128 162 198 240 282
#     4   9  17  29  48  71  95 129 168 199 231 278
#     4  10  20  33  50  70  92 124 164 201 238 280
#     4   9  17  29  45  69 101 129 156 195 238 279
#
# _framework density 18.012872000000002
#
# number of rings (size 3 to 8) (size 9 to 14) (size 15 to 20)
#    0.000    2.692    1.538    0.692    1.077    2.769 
#    0.000    3.846    0.000    0.923    0.000    5.385 
#    0.000    0.000    0.000    3.846    0.000    4.000 
#
# Total GULP energy -644413.655415 kJ/mol
# GULP energy per Si atom -12392.570296 kJ/mol
# Density = 1.797187 g / cm^3
# Si number density = 18.012872 Si / 1000 Ang^3
#
#
#
# Elastic Constant Matrix: (Units=GPa)
#
#
# Indices 1 2 3 4 5 6 
#
# 1 109.9943 22.1027 72.6458 0.0000 0.0000 0.0000
# 2 22.1027 37.5761 20.4489 0.0000 0.0000 0.0000
# 3 72.6458 20.4489 137.8411 0.0000 0.0000 0.0000
# 4 0.0000 0.0000 0.0000 5.4234 0.0000 0.0000
# 5 0.0000 0.0000 0.0000 0.0000 20.2535 0.0000
# 6 0.0000 0.0000 0.0000 0.0000 0.0000 10.6047
#
#
#
# Elastic Compliance Matrix: (Units=1/GPa)
#
#
# Indices 1 2 3 4 5 6 
#
# 1 0.014707 -0.004822 -0.007036 0.000000 0.000000 0.000000
# 2 -0.004822 0.030531 -0.001988 0.000000 0.000000 0.000000
# 3 -0.007036 -0.001988 0.011258 0.000000 0.000000 0.000000
# 4 0.000000 0.000000 0.000000 0.184386 0.000000 0.000000
# 5 0.000000 0.000000 0.000000 0.000000 0.049374 0.000000
# 6 0.000000 0.000000 0.000000 0.000000 0.000000 0.094298
#
#
# Mechanical properties :
#
#
# Convention : Reuss Voigt Hill
#
# Bulk Modulus (GPa) = 34.71708 57.31180 46.01444
# Shear Modulus (GPa) = 11.85268 18.60394 15.22831
#
# Velocity S-wave (km/s) = 2.56796 3.21723 2.91075
# Velocity P-wave (km/s) = 5.30168 6.75921 6.07432
#
# Compressibility (1/GPa) = 0.02880426
#
# Stress axis : x y z
#
# Youngs Moduli (GPa) = 67.99470 32.75370 88.82899
#
# Poissons Ratio (x) = 0.15794 0.62497
# Poissons Ratio (y) = 0.32788 0.17659
# Poissons Ratio (z) = 0.47838 0.06511
#
# Static dielectric constant tensor:
#      x y z
#    x 3.447890 0.000000 0.000000 
#    y 0.000000 3.083180 0.000000 
#    z 0.000000 0.000000 3.425270 
# 
# 
# High freq. dielectric constant tensor:
#      x y z
#    x 1.696550 0.000000 0.000000 
#    y 0.000000 1.657720 0.000000 
#    z 0.000000 0.000000 1.679260 
# 
# From -- ./inp_files/24965.got.cif
#   From: 2010.03.12/outbox.cif.g09.slc.cpg/sg47_13_cif.got.tgz:24965.got - 2010.04.14 03:12:58.
