data_PCOD8197502
_publ_section_title
;
Structure prediction by ZEFSAII (Michael W. Deem and Ramdas Pophale) SiO2 
 PCOD8197502
Probable space group: P M M M
;
_chemical_formula_sum "Si O2"
_cell_formula_units_Z 64
_cell_length_a 14.285161
_cell_length_b 28.843873
_cell_length_c 8.858136
_cell_angle_alpha 90.000000
_cell_angle_beta 90.000000
_cell_angle_gamma 90.000000
_cell_volume 3649.900774
_symmetry_space_group_name_H-M "P M M M"
_symmetry_group_IT_number 47
_symmetry_cell_setting 'orthorhombic'
loop_
_space_group_symop_operation_xyz
x,y,z
-x,-y,z
x,-y,-z
-x,y,-z
-x,-y,-z
x,y,-z
-x,y,z
x,-y,z
loop_
_atom_site_type_symbol
_atom_site_label
_atom_site_fract_x
_atom_site_fract_y
_atom_site_fract_z
Si Si1 0.888873 0.449600 0.329608
Si Si2 0.891105 0.186822 0.674410
Si Si3 0.608896 0.132505 0.173767
Si Si4 0.778001 0.730554 0.820746
Si Si5 0.276864 0.947685 0.326167
Si Si6 0.392384 0.228312 0.677806
Si Si7 0.105728 0.357647 0.822286
Si Si8 0.106905 0.909297 0.177508
O O1 0.853613 0.442511 0.500000
O O2 0.852729 0.500000 0.268996
O O3 0.850897 0.406768 0.231279
O O4 0.000000 0.449636 0.322967
O O5 0.864130 0.179345 0.500000
O O6 0.835384 0.229091 0.742631
O O7 0.862188 0.141547 0.767996
O O8 0.000000 0.197822 0.694528
O O9 0.500000 0.123149 0.197078
O O10 0.659978 0.086600 0.229331
O O11 0.640599 0.177299 0.269140
O O12 0.634598 0.141866 0.000000
O O13 0.671005 0.733149 0.761671
O O14 0.824681 0.682539 0.766046
O O15 0.781530 0.735873 0.000000
O O16 0.279391 0.932458 0.500000
O O17 0.170693 0.946333 0.264243
O O18 0.314649 0.000000 0.306433
O O19 0.377777 0.232129 0.500000
O O20 0.500000 0.237364 0.724415
O O21 0.000000 0.349480 0.757829
O O22 0.101163 0.358360 0.000000
O O23 0.000000 0.919767 0.221988
O O24 0.123244 0.913116 0.000000
#
# Coordination Sequence:
#
# PCOD8197502 Si02
#       8
#     8   8   8   8   8   8   8   8
#     4   8  14  25  41  61  87 123 167 211 250 285
#     4  10  20  33  50  72  98 129 164 198 233 279
#     4  10  21  38  60  82 102 125 154 190 233 282
#     4  11  21  32  48  70 100 133 163 200 244 289
#     4  11  24  39  55  76 102 130 157 189 232 281
#     4  10  21  37  56  76  98 125 159 198 238 285
#     4   9  18  30  43  64  96 133 170 205 242 284
#     4  10  21  37  56  75  96 125 161 200 238 276
#
# _framework density 17.534723
#
# number of rings (size 3 to 8) (size 9 to 14) (size 15 to 20)
#    0.000    2.125    0.000    3.750    0.000    6.250 
#    0.000    5.000    0.000    0.000    0.000    0.000 
#    0.000    0.500    0.000    5.500    0.000    4.250 
#
# Total GULP energy -793599.891454 kJ/mol
# GULP energy per Si atom -12399.998304 kJ/mol
# Density = 1.749481 g / cm^3
# Si number density = 17.534723 Si / 1000 Ang^3
#
#
#
# Elastic Constant Matrix: (Units=GPa)
#
#
# Indices 1 2 3 4 5 6 
#
# 1 58.9351 39.6536 17.3052 0.0000 0.0000 0.0000
# 2 39.6536 65.8454 -9.3530 0.0000 0.0000 0.0000
# 3 17.3052 -9.3530 16.4307 0.0000 0.0000 0.0000
# 4 0.0000 0.0000 0.0000 30.5677 0.0000 0.0000
# 5 0.0000 0.0000 0.0000 0.0000 26.3961 0.0000
# 6 0.0000 0.0000 0.0000 0.0000 0.0000 15.7779
#
#
#
# Elastic Compliance Matrix: (Units=1/GPa)
#
#
# Indices 1 2 3 4 5 6 
#
# 1 4.632721 -3.789411 -7.036376 0.000000 0.000000 0.000000
# 2 -3.789411 3.116135 5.764926 0.000000 0.000000 0.000000
# 3 -7.036376 5.764926 10.753365 0.000000 0.000000 0.000000
# 4 0.000000 0.000000 0.000000 0.032714 0.000000 0.000000
# 5 0.000000 0.000000 0.000000 0.000000 0.037884 0.000000
# 6 0.000000 0.000000 0.000000 0.000000 0.000000 0.063380
#
#
# Mechanical properties :
#
#
# Convention : Reuss Voigt Hill
#
# Bulk Modulus (GPa) = 0.11932 26.26919 13.19426
# Shear Modulus (GPa) = 0.15847 20.78869 10.47358
#
# Velocity S-wave (km/s) = 0.30095 3.44695 2.44663
# Velocity P-wave (km/s) = 0.43470 5.55479 3.93984
#
# Compressibility (1/GPa) = 8.38049821
#
# Stress axis : x y z
#
# Youngs Moduli (GPa) = 0.21586 0.32091 0.09299
#
# Poissons Ratio (x) = 1.21606 0.65434
# Poissons Ratio (y) = 0.81797 -0.53610
# Poissons Ratio (z) = 1.51884 -1.85002
#
# Static dielectric constant tensor:
#      x y z
#    x 3.341090 0.000000 0.000000 
#    y 0.000000 3.483410 0.000000 
#    z 0.000000 0.000000 3.341760 
# 
# 
# High freq. dielectric constant tensor:
#      x y z
#    x 1.659880 0.000000 0.000000 
#    y 0.000000 1.666340 0.000000 
#    z 0.000000 0.000000 1.688100 
# 
# From -- ./inp_files/7874.got.cif
#   From: 2010.03.12/outbox.cif.g09.slc.cpg/sg47_4_cif.got.tgz:7874.got - 2010.04.14 03:12:58.
