data_PCOD8197682
_publ_section_title
;
Structure prediction by ZEFSAII (Michael W. Deem and Ramdas Pophale) SiO2 
 PCOD8197682
Probable space group: P M M M
;
_chemical_formula_sum "Si O2"
_cell_formula_units_Z 44
_cell_length_a 9.549200
_cell_length_b 28.256795
_cell_length_c 9.117267
_cell_angle_alpha 90.000000
_cell_angle_beta 90.000000
_cell_angle_gamma 90.000000
_cell_volume 2460.110211
_symmetry_space_group_name_H-M "P M M M"
_symmetry_group_IT_number 47
_symmetry_cell_setting 'orthorhombic'
loop_
_space_group_symop_operation_xyz
x,y,z
-x,-y,z
x,-y,-z
-x,y,-z
-x,-y,-z
x,y,-z
-x,y,z
x,-y,z
loop_
_atom_site_type_symbol
_atom_site_label
_atom_site_fract_x
_atom_site_fract_y
_atom_site_fract_z
Si Si1 0.663260 0.093874 0.327892
Si Si2 0.662380 0.553453 0.168474
Si Si3 0.165069 0.825690 0.830461
Si Si4 0.333898 0.000000 0.165294
Si Si5 0.156176 0.369911 0.326431
Si Si6 0.833914 0.733792 0.662767
O O1 0.690109 0.088748 0.500000
O O2 0.500000 0.102711 0.293347
O O3 0.752426 0.136751 0.265635
O O4 0.719391 0.046324 0.250339
O O5 0.500000 0.558848 0.205773
O O6 0.711793 0.500000 0.203071
O O7 0.745448 0.589293 0.268551
O O8 0.691799 0.565790 0.000000
O O9 0.214661 0.773867 0.776794
O O10 0.000000 0.832927 0.805158
O O11 0.205998 0.831326 0.000000
O O12 0.500000 0.000000 0.162509
O O13 0.272832 0.000000 0.000000
O O14 0.151598 0.372934 0.500000
O O15 0.216610 0.317978 0.281236
O O16 0.000000 0.377205 0.261871
O O17 0.773083 0.745152 0.500000
O O18 0.000000 0.731894 0.651904
#
# Coordination Sequence:
#
# PCOD8197682 Si02
#       6
#     8   8   8   4   8   8
#     4  10  20  34  53  76 101 131 168 206 244 291
#     4   9  19  35  51  68  95 131 167 201 240 289
#     4  10  20  33  51  76 103 131 165 204 246 292
#     4   9  17  31  52  75 100 131 164 202 250 297
#     4   9  18  32  51  76 101 124 157 202 246 289
#     4   8  15  30  50  70  96 130 163 196 239 291
#
# _framework density 17.885377999999999
#
# number of rings (size 3 to 8) (size 9 to 14) (size 15 to 20)
#    0.000    2.818    0.000    3.000    0.000    5.455 
#    0.000    5.909    0.000    3.818    0.000    0.000 
#    0.000    0.000    0.000    0.000    0.000    0.000 
#
# Total GULP energy -545483.193449 kJ/mol
# GULP energy per Si atom -12397.345306 kJ/mol
# Density = 1.784467 g / cm^3
# Si number density = 17.885378 Si / 1000 Ang^3
#
#
#
# Elastic Constant Matrix: (Units=GPa)
#
#
# Indices 1 2 3 4 5 6 
#
# 1 36.0565 45.5992 30.3479 0.0000 0.0000 0.0000
# 2 45.5992 143.8423 58.7088 0.0000 0.0000 0.0000
# 3 30.3479 58.7088 84.7725 0.0000 0.0000 0.0000
# 4 0.0000 0.0000 0.0000 26.7842 0.0000 0.0000
# 5 0.0000 0.0000 0.0000 0.0000 26.7167 0.0000
# 6 0.0000 0.0000 0.0000 0.0000 0.0000 34.1934
#
#
#
# Elastic Compliance Matrix: (Units=1/GPa)
#
#
# Indices 1 2 3 4 5 6 
#
# 1 0.051717 -0.012321 -0.009982 0.000000 0.000000 0.000000
# 2 -0.012321 0.012627 -0.004334 0.000000 0.000000 0.000000
# 3 -0.009982 -0.004334 0.018371 0.000000 0.000000 0.000000
# 4 0.000000 0.000000 0.000000 0.037335 0.000000 0.000000
# 5 0.000000 0.000000 0.000000 0.000000 0.037430 0.000000
# 6 0.000000 0.000000 0.000000 0.000000 0.000000 0.029245
#
#
# Mechanical properties :
#
#
# Convention : Reuss Voigt Hill
#
# Bulk Modulus (GPa) = 33.96464 59.33146 46.64805
# Shear Modulus (GPa) = 20.01503 26.20655 23.11079
#
# Velocity S-wave (km/s) = 3.34888 3.83201 3.59856
# Velocity P-wave (km/s) = 5.82964 7.26803 6.58821
#
# Compressibility (1/GPa) = 0.02944238
#
# Stress axis : x y z
#
# Youngs Moduli (GPa) = 19.33589 79.19734 54.43371
#
# Poissons Ratio (x) = 0.97578 0.54334
# Poissons Ratio (y) = 0.23823 0.23590
# Poissons Ratio (z) = 0.19300 0.34322
#
# Static dielectric constant tensor:
#      x y z
#    x 3.027370 0.000000 0.000000 
#    y 0.000000 3.651260 0.000000 
#    z 0.000000 0.000000 3.346500 
# 
# 
# High freq. dielectric constant tensor:
#      x y z
#    x 1.656630 0.000000 0.000000 
#    y 0.000000 1.708180 0.000000 
#    z 0.000000 0.000000 1.695360 
# 
# From -- ./inp_files/2062.got.cif
#   From: 2010.03.12/outbox.cif.g09.slc.cpg/sg47_2_cif.got.tgz:2062.got - 2010.04.14 03:12:58.
