data_PCOD8197513
_publ_section_title
;
Structure prediction by ZEFSAII (Michael W. Deem and Ramdas Pophale) SiO2 
 PCOD8197513
Probable space group: P M M M
;
_chemical_formula_sum "Si O2"
_cell_formula_units_Z 52
_cell_length_a 9.125028
_cell_length_b 15.943867
_cell_length_c 19.541131
_cell_angle_alpha 90.000000
_cell_angle_beta 90.000000
_cell_angle_gamma 90.000000
_cell_volume 2843.004616
_symmetry_space_group_name_H-M "P M M M"
_symmetry_group_IT_number 47
_symmetry_cell_setting 'orthorhombic'
loop_
_space_group_symop_operation_xyz
x,y,z
-x,-y,z
x,-y,-z
-x,y,-z
-x,-y,-z
x,y,-z
-x,y,z
x,-y,z
loop_
_atom_site_type_symbol
_atom_site_label
_atom_site_fract_x
_atom_site_fract_y
_atom_site_fract_z
Si Si1 0.828576 0.090796 0.212503
Si Si2 0.664774 0.000000 0.581239
Si Si3 0.166939 0.172694 0.924231
Si Si4 0.171512 0.165702 0.576850
Si Si5 0.328141 0.656363 0.077354
Si Si6 0.827504 0.251398 0.290454
Si Si7 0.829204 0.407053 0.795092
O O1 0.799669 0.101348 0.131358
O O2 0.758285 0.169549 0.252919
O O3 0.000000 0.088505 0.228723
O O4 0.759927 0.000000 0.234110
O O5 0.748396 0.916791 0.606221
O O6 0.500000 0.000000 0.610632
O O7 0.664679 0.000000 0.500000
O O8 0.273991 0.249637 0.910104
O O9 0.000000 0.205623 0.916098
O O10 0.192811 0.134750 0.000000
O O11 0.223711 0.190042 0.500000
O O12 0.208576 0.242890 0.628296
O O13 0.000000 0.144942 0.577431
O O14 0.500000 0.653051 0.090369
O O15 0.250406 0.596187 0.131750
O O16 0.289554 0.626813 0.000000
O O17 0.763944 0.337705 0.258285
O O18 0.000000 0.252229 0.278331
O O19 0.802501 0.500000 0.763938
O O20 0.000000 0.390801 0.807986
#
# Coordination Sequence:
#
# PCOD8197513 Si02
#       7
#     8   4   8   8   8   8   8
#     4   9  16  25  42  69  96 123 157 197 241 281
#     4   9  17  29  45  69 103 135 164 201 240 279
#     4   9  16  28  47  68  93 125 163 203 238 280
#     4   9  17  29  48  72  98 131 168 201 237 287
#     4  10  20  33  50  72  99 129 159 195 244 296
#     4   9  17  30  48  71  99 125 156 199 242 285
#     4  10  20  35  55  75  94 122 161 202 245 292
#
# _framework density 18.290507999999999
#
# number of rings (size 3 to 8) (size 9 to 14) (size 15 to 20)
#    0.000    2.692    1.538    0.692    1.077    2.769 
#    0.000    3.846    0.000    0.923    0.000    5.385 
#    0.000    0.000    0.000    5.231    0.000    5.538 
#
# Total GULP energy -644385.481999 kJ/mol
# GULP energy per Si atom -12392.028500 kJ/mol
# Density = 1.824888 g / cm^3
# Si number density = 18.290508 Si / 1000 Ang^3
#
#
#
# Elastic Constant Matrix: (Units=GPa)
#
#
# Indices 1 2 3 4 5 6 
#
# 1 38.7663 23.7126 21.6712 0.0000 0.0000 0.0000
# 2 23.7126 131.4977 68.4090 0.0000 0.0000 0.0000
# 3 21.6712 68.4090 105.7096 0.0000 0.0000 0.0000
# 4 0.0000 0.0000 0.0000 21.7929 0.0000 0.0000
# 5 0.0000 0.0000 0.0000 0.0000 11.4370 0.0000
# 6 0.0000 0.0000 0.0000 0.0000 0.0000 6.0696
#
#
#
# Elastic Compliance Matrix: (Units=1/GPa)
#
#
# Indices 1 2 3 4 5 6 
#
# 1 0.030077 -0.003341 -0.004004 0.000000 0.000000 0.000000
# 2 -0.003341 0.011835 -0.006974 0.000000 0.000000 0.000000
# 3 -0.004004 -0.006974 0.014794 0.000000 0.000000 0.000000
# 4 0.000000 0.000000 0.000000 0.045887 0.000000 0.000000
# 5 0.000000 0.000000 0.000000 0.000000 0.087435 0.000000
# 6 0.000000 0.000000 0.000000 0.000000 0.000000 0.164755
#
#
# Mechanical properties :
#
#
# Convention : Reuss Voigt Hill
#
# Bulk Modulus (GPa) = 35.62701 55.95101 45.78901
# Shear Modulus (GPa) = 12.72983 18.67196 15.70089
#
# Velocity S-wave (km/s) = 2.64101 3.19855 2.93305
# Velocity P-wave (km/s) = 5.36848 6.65564 6.04641
#
# Compressibility (1/GPa) = 0.02806859
#
# Stress axis : x y z
#
# Youngs Moduli (GPa) = 33.24752 84.49278 67.59459
#
# Poissons Ratio (x) = 0.28226 0.27066
# Poissons Ratio (y) = 0.11107 0.47142
# Poissons Ratio (z) = 0.13313 0.58927
#
# Static dielectric constant tensor:
#      x y z
#    x 3.073430 0.000000 0.000000 
#    y 0.000000 3.408230 0.000000 
#    z 0.000000 0.000000 3.556070 
# 
# 
# High freq. dielectric constant tensor:
#      x y z
#    x 1.666570 0.000000 0.000000 
#    y 0.000000 1.690490 0.000000 
#    z 0.000000 0.000000 1.711020 
# 
# From -- ./inp_files/11024.got.cif
#   From: 2010.03.12/outbox.cif.g09.slc.cpg/sg47_6_cif.got.tgz:11024.got - 2010.04.14 03:12:58.
