data_PCOD8197217
_publ_section_title
;
Structure prediction by ZEFSAII (Michael W. Deem and Ramdas Pophale) SiO2 
 PCOD8197217
Probable space group: P M M M
;
_chemical_formula_sum "Si O2"
_cell_formula_units_Z 52
_cell_length_a 20.742463
_cell_length_b 14.369864
_cell_length_c 9.006186
_cell_angle_alpha 90.000000
_cell_angle_beta 90.000000
_cell_angle_gamma 90.000000
_cell_volume 2684.441190
_symmetry_space_group_name_H-M "P M M M"
_symmetry_group_IT_number 47
_symmetry_cell_setting 'orthorhombic'
loop_
_space_group_symop_operation_xyz
x,y,z
-x,-y,z
x,-y,-z
-x,y,-z
-x,-y,-z
x,y,-z
-x,y,z
x,-y,z
loop_
_atom_site_type_symbol
_atom_site_label
_atom_site_fract_x
_atom_site_fract_y
_atom_site_fract_z
Si Si1 0.799099 0.760997 0.170321
Si Si2 0.570937 0.784904 0.671328
Si Si3 0.928650 0.314152 0.171012
Si Si4 0.076404 0.500000 0.665473
Si Si5 0.398630 0.395996 0.826920
Si Si6 0.686342 0.104928 0.825283
Si Si7 0.733973 0.397415 0.668226
O O1 0.877033 0.771663 0.190485
O O2 0.755906 0.850044 0.216519
O O3 0.785302 0.677359 0.281805
O O4 0.782819 0.734678 0.000000
O O5 0.590674 0.780235 0.500000
O O6 0.500000 0.832341 0.690803
O O7 0.562807 0.680604 0.734336
O O8 0.626440 0.841173 0.754659
O O9 0.901476 0.405720 0.253063
O O10 0.000000 0.283041 0.229179
O O11 0.933511 0.342406 0.000000
O O12 0.106502 0.500000 0.500000
O O13 0.000000 0.500000 0.659409
O O14 0.425494 0.500000 0.792770
O O15 0.324579 0.389106 0.781809
O O16 0.405397 0.372642 0.000000
O O17 0.687520 0.000000 0.763321
O O18 0.675222 0.106307 0.000000
O O19 0.710303 0.377674 0.500000
O O20 0.765670 0.500000 0.679043
#
# Coordination Sequence:
#
# PCOD8197217 Si02
#       7
#     8   8   8   4   8   8   8
#     4  10  20  34  55  80 106 143 186 228 275 327
#     4  11  24  40  59  85 116 148 183 226 276 330
#     4   9  18  32  49  72 106 147 188 225 265 319
#     4   9  17  29  45  69 105 147 188 227 268 313
#     4  10  20  35  56  82 114 152 191 227 265 317
#     4  10  22  41  63  85 108 137 180 234 288 341
#     4  10  20  32  49  77 112 147 183 227 274 321
#
# _framework density 19.370884
#
# number of rings (size 3 to 8) (size 9 to 14) (size 15 to 20)
#    0.000    2.077    1.538    1.615    1.077    5.538 
#    0.000    3.077    0.000    0.462    0.000    3.231 
#    0.000    0.000    0.000    6.615    0.000    7.077 
#
# Total GULP energy -644357.037942 kJ/mol
# GULP energy per Si atom -12391.481499 kJ/mol
# Density = 1.932680 g / cm^3
# Si number density = 19.370884 Si / 1000 Ang^3
#
#
#
# Elastic Constant Matrix: (Units=GPa)
#
#
# Indices 1 2 3 4 5 6 
#
# 1 117.6558 65.2967 28.6921 0.0000 0.0000 0.0000
# 2 65.2967 108.0345 34.7406 0.0000 0.0000 0.0000
# 3 28.6921 34.7406 55.8074 0.0000 0.0000 0.0000
# 4 0.0000 0.0000 0.0000 13.4037 0.0000 0.0000
# 5 0.0000 0.0000 0.0000 0.0000 16.7984 0.0000
# 6 0.0000 0.0000 0.0000 0.0000 0.0000 10.4249
#
#
#
# Elastic Compliance Matrix: (Units=1/GPa)
#
#
# Indices 1 2 3 4 5 6 
#
# 1 0.013010 -0.007142 -0.002243 0.000000 0.000000 0.000000
# 2 -0.007142 0.015494 -0.005973 0.000000 0.000000 0.000000
# 3 -0.002243 -0.005973 0.022790 0.000000 0.000000 0.000000
# 4 0.000000 0.000000 0.000000 0.074606 0.000000 0.000000
# 5 0.000000 0.000000 0.000000 0.000000 0.059529 0.000000
# 6 0.000000 0.000000 0.000000 0.000000 0.000000 0.095924
#
#
# Mechanical properties :
#
#
# Convention : Reuss Voigt Hill
#
# Bulk Modulus (GPa) = 48.59551 59.88403 54.23977
# Shear Modulus (GPa) = 15.67747 18.30996 16.99372
#
# Velocity S-wave (km/s) = 2.84796 3.07780 2.96511
# Velocity P-wave (km/s) = 5.99632 6.60394 6.30745
#
# Compressibility (1/GPa) = 0.02057803
#
# Stress axis : x y z
#
# Youngs Moduli (GPa) = 76.86362 64.54195 43.87868
#
# Poissons Ratio (x) = 0.46097 0.09841
# Poissons Ratio (y) = 0.54897 0.26209
# Poissons Ratio (z) = 0.17239 0.38551
#
# Static dielectric constant tensor:
#      x y z
#    x 3.649120 0.000000 0.000000 
#    y 0.000000 3.502350 0.000000 
#    z 0.000000 0.000000 3.552320 
# 
# 
# High freq. dielectric constant tensor:
#      x y z
#    x 1.763710 0.000000 0.000000 
#    y 0.000000 1.718110 0.000000 
#    z 0.000000 0.000000 1.755030 
# 
# From -- ./inp_files/10976.got.cif
#   From: 2010.03.12/outbox.cif.g09.slc.cpg/sg47_6_cif.got.tgz:10976.got - 2010.04.14 03:12:58.
