data_PCOD8197331
_publ_section_title
;
Structure prediction by ZEFSAII (Michael W. Deem and Ramdas Pophale) SiO2 
 PCOD8197331
Probable space group: P M M M
;
_chemical_formula_sum "Si O2"
_cell_formula_units_Z 52
_cell_length_a 11.656652
_cell_length_b 31.296585
_cell_length_c 8.928455
_cell_angle_alpha 90.000000
_cell_angle_beta 90.000000
_cell_angle_gamma 90.000000
_cell_volume 3257.220026
_symmetry_space_group_name_H-M "P M M M"
_symmetry_group_IT_number 47
_symmetry_cell_setting 'orthorhombic'
loop_
_space_group_symop_operation_xyz
x,y,z
-x,-y,z
x,-y,-z
-x,y,-z
-x,-y,-z
x,y,-z
-x,y,z
x,-y,z
loop_
_atom_site_type_symbol
_atom_site_label
_atom_site_fract_x
_atom_site_fract_y
_atom_site_fract_z
Si Si1 0.229171 0.919536 0.821866
Si Si2 0.362672 0.408573 0.168469
Si Si3 0.366254 0.155704 0.324758
Si Si4 0.363106 0.325300 0.332061
Si Si5 0.000000 0.049583 0.677967
Si Si6 0.635840 0.757956 0.832775
Si Si7 0.626191 0.500000 0.178382
Si Si8 0.626864 0.000000 0.177566
O O1 0.288941 0.876275 0.770171
O O2 0.107573 0.925118 0.743444
O O3 0.308165 0.958262 0.764715
O O4 0.213348 0.919432 0.000000
O O5 0.500000 0.410648 0.173516
O O6 0.314680 0.370244 0.270174
O O7 0.313052 0.454985 0.225811
O O8 0.321099 0.399271 0.000000
O O9 0.341138 0.150528 0.500000
O O10 0.500000 0.147266 0.288070
O O11 0.328508 0.202902 0.273605
O O12 0.317992 0.319595 0.500000
O O13 0.500000 0.325435 0.326040
O O14 0.313713 0.285920 0.235244
O O15 0.000000 0.052644 0.500000
O O16 0.000000 0.000000 0.731128
O O17 0.500000 0.754449 0.839673
O O18 0.685784 0.764618 0.000000
O O19 0.500000 0.500000 0.251408
O O20 0.614936 0.500000 0.000000
O O21 0.500000 0.000000 0.248373
O O22 0.619976 0.000000 0.000000
#
# Coordination Sequence:
#
# PCOD8197331 Si02
#       8
#     8   8   8   8   4   8   4   4
#     4  11  21  35  55  75  97 123 156 188 216 254
#     4   8  12  18  27  37  50  72 105 144 186 235
#     4  10  20  33  48  69  97 123 145 175 220 268
#     4   9  15  21  29  43  63  86 113 149 194 242
#     4  11  23  39  57  75  99 125 153 187 225 260
#     4   9  16  26  40  56  74 100 133 165 199 245
#     4   7  10  16  25  35  47  67  99 141 187 232
#     4   9  18  31  49  74 100 123 148 181 216 249
#
# _framework density 15.964534
#
# number of rings (size 3 to 8) (size 9 to 14) (size 15 to 20)
#    0.000    2.692    0.769    3.462    0.000    5.538 
#    0.000    0.385    0.000    4.154    0.000    0.000 
#    0.000    0.000    0.000    0.000    0.000    0.000 
#
# Total GULP energy -644465.387957 kJ/mol
# GULP energy per Si atom -12393.565153 kJ/mol
# Density = 1.592820 g / cm^3
# Si number density = 15.964534 Si / 1000 Ang^3
#
#
#
# Elastic Constant Matrix: (Units=GPa)
#
#
# Indices 1 2 3 4 5 6 
#
# 1 49.3630 30.2092 19.5706 0.0000 0.0000 0.0000
# 2 30.2092 135.2485 40.5819 0.0000 0.0000 0.0000
# 3 19.5706 40.5819 78.4764 0.0000 0.0000 0.0000
# 4 0.0000 0.0000 0.0000 24.6436 0.0000 0.0000
# 5 0.0000 0.0000 0.0000 0.0000 12.2581 0.0000
# 6 0.0000 0.0000 0.0000 0.0000 0.0000 -0.7176
#
#
#
# Elastic Compliance Matrix: (Units=1/GPa)
#
#
# Indices 1 2 3 4 5 6 
#
# 1 0.024420 -0.004293 -0.003870 0.000000 0.000000 0.000000
# 2 -0.004293 0.009507 -0.003845 0.000000 0.000000 0.000000
# 3 -0.003870 -0.003845 0.015696 0.000000 0.000000 0.000000
# 4 0.000000 0.000000 0.000000 0.040579 0.000000 0.000000
# 5 0.000000 0.000000 0.000000 0.000000 0.081579 0.000000
# 6 0.000000 0.000000 0.000000 0.000000 0.000000 -1.393473
#
#
# Mechanical properties :
#
#
# Convention : Reuss Voigt Hill
#
# Bulk Modulus (GPa) = 39.05363 49.31235 44.18299
# Shear Modulus (GPa) = -4.20471 18.75187 7.27358
#
# Velocity S-wave (km/s) = -1.62465 3.43096 2.13681
# Velocity P-wave (km/s) = 4.58220 6.83016 5.81582
#
# Compressibility (1/GPa) = 0.02560582
#
# Stress axis : x y z
#
# Youngs Moduli (GPa) = 40.95057 105.19034 63.70944
#
# Poissons Ratio (x) = 0.45161 0.24653
# Poissons Ratio (y) = 0.17581 0.24499
# Poissons Ratio (z) = 0.15847 0.40450
#
# Static dielectric constant tensor:
#      x y z
#    x 2.475680 0.000000 0.000000 
#    y 0.000000 3.385120 0.000000 
#    z 0.000000 0.000000 3.043850 
# 
# 
# High freq. dielectric constant tensor:
#      x y z
#    x 1.528950 0.000000 0.000000 
#    y 0.000000 1.634570 0.000000 
#    z 0.000000 0.000000 1.615140 
# 
# From -- ./inp_files/4872.got.cif
#   From: 2010.03.12/outbox.cif.g09.slc.cpg/sg47_3_cif.got.tgz:4872.got - 2010.04.14 03:12:58.
