data_PCOD8197926
_publ_section_title
;
Structure prediction by ZEFSAII (Michael W. Deem and Ramdas Pophale) SiO2 
 PCOD8197926
Probable space group: P M M M
;
_chemical_formula_sum "Si O2"
_cell_formula_units_Z 64
_cell_length_a 14.191180
_cell_length_b 9.921625
_cell_length_c 23.601718
_cell_angle_alpha 90.000000
_cell_angle_beta 90.000000
_cell_angle_gamma 90.000000
_cell_volume 3323.111658
_symmetry_space_group_name_H-M "P M M M"
_symmetry_group_IT_number 47
_symmetry_cell_setting 'orthorhombic'
loop_
_space_group_symop_operation_xyz
x,y,z
-x,-y,z
x,-y,-z
-x,y,-z
-x,-y,-z
x,y,-z
-x,y,z
x,-y,z
loop_
_atom_site_type_symbol
_atom_site_label
_atom_site_fract_x
_atom_site_fract_y
_atom_site_fract_z
Si Si1 0.894673 0.753897 0.062690
Si Si2 0.610327 0.849430 0.243710
Si Si3 0.301112 0.856265 0.936402
Si Si4 0.277379 0.154169 0.643731
Si Si5 0.388753 0.654195 0.853513
Si Si6 0.109708 0.644927 0.183757
Si Si7 0.606912 0.345820 0.566711
Si Si8 0.891369 0.844125 0.720336
O O1 0.812976 0.865061 0.064407
O O2 0.871397 0.659253 0.116472
O O3 0.000000 0.817223 0.070468
O O4 0.890400 0.680603 0.000000
O O5 0.500000 0.832834 0.250839
O O6 0.654041 0.821203 0.304063
O O7 0.648769 0.736665 0.200599
O O8 0.636713 0.000000 0.222028
O O9 0.341300 0.724086 0.906976
O O10 0.336518 0.000000 0.910267
O O11 0.338639 0.845229 0.000000
O O12 0.313023 0.252222 0.594415
O O13 0.170979 0.189609 0.664545
O O14 0.282407 0.000000 0.621855
O O15 0.500000 0.663994 0.860154
O O16 0.354708 0.500000 0.848873
O O17 0.153489 0.500000 0.201407
O O18 0.149371 0.761971 0.225160
O O19 0.000000 0.643868 0.195360
O O20 0.619823 0.331953 0.500000
O O21 0.500000 0.301868 0.583666
O O22 0.623771 0.500000 0.585898
O O23 0.000000 0.810910 0.705606
O O24 0.877876 0.000000 0.737130
#
# Coordination Sequence:
#
# PCOD8197926 Si02
#       8
#     8   8   8   8   8   8   8   8
#     4   9  19  35  53  76 107 138 170 216 273 332
#     4   9  18  33  52  76 107 138 170 215 268 319
#     4  10  22  38  56  78 101 129 169 215 265 324
#     4  10  20  33  54  84 112 145 189 231 268 311
#     4  10  22  39  57  77 102 134 172 215 266 323
#     4   9  18  32  50  73 100 133 177 224 270 325
#     4   9  19  36  57  84 120 156 185 218 267 326
#     4   9  19  35  52  74 109 150 188 229 277 322
#
# _framework density 19.259056999999999
#
# number of rings (size 3 to 8) (size 9 to 14) (size 15 to 20)
#    0.000    2.625    0.000    1.125    1.750    4.750 
#    0.000    8.125    0.000    0.375    0.000    2.625 
#    0.000    0.000    0.000    0.000    0.000    0.000 
#
# Total GULP energy -792854.633151 kJ/mol
# GULP energy per Si atom -12388.353643 kJ/mol
# Density = 1.921522 g / cm^3
# Si number density = 19.259057 Si / 1000 Ang^3
#
#
#
# Elastic Constant Matrix: (Units=GPa)
#
#
# Indices 1 2 3 4 5 6 
#
# 1 42.7997 47.5409 43.0859 0.0000 0.0000 0.0000
# 2 47.5409 129.1435 57.6001 0.0000 0.0000 0.0000
# 3 43.0859 57.6001 78.9424 0.0000 0.0000 0.0000
# 4 0.0000 0.0000 0.0000 25.6141 0.0000 0.0000
# 5 0.0000 0.0000 0.0000 0.0000 -12.9369 0.0000
# 6 0.0000 0.0000 0.0000 0.0000 0.0000 15.8145
#
#
#
# Elastic Compliance Matrix: (Units=1/GPa)
#
#
# Indices 1 2 3 4 5 6 
#
# 1 0.061323 -0.011336 -0.025198 0.000000 0.000000 0.000000
# 2 -0.011336 0.013574 -0.003718 0.000000 0.000000 0.000000
# 3 -0.025198 -0.003718 0.029133 0.000000 0.000000 0.000000
# 4 0.000000 0.000000 0.000000 0.039041 0.000000 0.000000
# 5 0.000000 0.000000 0.000000 0.000000 -0.077298 0.000000
# 6 0.000000 0.000000 0.000000 0.000000 0.000000 0.063233
#
#
# Mechanical properties :
#
#
# Convention : Reuss Voigt Hill
#
# Bulk Modulus (GPa) = 42.50429 60.81549 51.65989
# Shear Modulus (GPa) = 23.00421 12.54225 17.77323
#
# Velocity S-wave (km/s) = 3.45985 2.55471 3.04114
# Velocity P-wave (km/s) = 6.17077 6.35202 6.26205
#
# Compressibility (1/GPa) = 0.02352704
#
# Stress axis : x y z
#
# Youngs Moduli (GPa) = 16.30715 73.66820 34.32531
#
# Poissons Ratio (x) = 0.83507 0.86494
# Poissons Ratio (y) = 0.18485 0.12761
# Poissons Ratio (z) = 0.41091 0.27388
#
# Static dielectric constant tensor:
#      x y z
#    x 3.621280 0.000000 0.000000 
#    y 0.000000 3.647320 0.000000 
#    z 0.000000 0.000000 3.346010 
# 
# 
# High freq. dielectric constant tensor:
#      x y z
#    x 1.753220 0.000000 0.000000 
#    y 0.000000 1.743550 0.000000 
#    z 0.000000 0.000000 1.726370 
# 
# From -- ./inp_files/32767.got.cif
#   From: 2010.03.12/outbox.cif.g09.slc.cpg/sg47_17_cif.got.tgz:32767.got - 2010.04.14 03:12:58.
