data_PCOD8197509
_publ_section_title
;
Structure prediction by ZEFSAII (Michael W. Deem and Ramdas Pophale) SiO2 
 PCOD8197509
Probable space group: P M M M
;
_chemical_formula_sum "Si O2"
_cell_formula_units_Z 44
_cell_length_a 7.710115
_cell_length_b 9.856942
_cell_length_c 31.436557
_cell_angle_alpha 90.000000
_cell_angle_beta 90.000000
_cell_angle_gamma 90.000000
_cell_volume 2389.120375
_symmetry_space_group_name_H-M "P M M M"
_symmetry_group_IT_number 47
_symmetry_cell_setting 'orthorhombic'
loop_
_space_group_symop_operation_xyz
x,y,z
-x,-y,z
x,-y,-z
-x,y,-z
-x,-y,-z
x,y,-z
-x,y,z
x,-y,z
loop_
_atom_site_type_symbol
_atom_site_label
_atom_site_fract_x
_atom_site_fract_y
_atom_site_fract_z
Si Si1 0.795727 0.347036 0.952330
Si Si2 0.692751 0.654754 0.282696
Si Si3 0.298387 0.339215 0.500000
Si Si4 0.696661 0.850400 0.879194
Si Si5 0.000000 0.660801 0.342089
Si Si6 0.000000 0.338500 0.562955
Si Si7 0.195745 0.154355 0.788599
O O1 0.733657 0.500000 0.942793
O O2 0.708492 0.247996 0.919064
O O3 0.000000 0.336236 0.947781
O O4 0.738161 0.305193 0.000000
O O5 0.500000 0.662017 0.302643
O O6 0.740325 0.500000 0.269994
O O7 0.692617 0.745368 0.240325
O O8 0.828141 0.711251 0.317442
O O9 0.315148 0.500000 0.500000
O O10 0.500000 0.280501 0.500000
O O11 0.180430 0.290475 0.540318
O O12 0.500000 0.859012 0.864229
O O13 0.799908 0.797208 0.837856
O O14 0.765487 0.000000 0.892681
O O15 0.000000 0.723188 0.389472
O O16 0.000000 0.500000 0.345744
O O17 0.000000 0.500000 0.562712
O O18 0.000000 0.162578 0.772055
O O19 0.267281 0.000000 0.785140
#
# Coordination Sequence:
#
# PCOD8197509 Si02
#       7
#     8   8   4   8   4   4   8
#     4   9  19  36  55  74  97 126 160 196 236 286
#     4  10  20  33  50  72  98 131 169 208 254 305
#     4   8  13  21  34  55  83 118 165 213 253 299
#     4  10  21  35  51  74 101 126 156 196 241 291
#     4   9  17  30  44  63  95 130 169 215 256 303
#     4   8  14  23  36  55  83 122 164 209 257 297
#     4  10  20  35  55  75  96 127 166 206 251 299
#
# _framework density 18.416820999999999
#
# number of rings (size 3 to 8) (size 9 to 14) (size 15 to 20)
#    0.000    2.636    0.909    2.182    0.000    4.727 
#    0.000    6.364    0.000    0.000    0.000    0.000 
#    0.000    0.000    0.000    6.545    0.000   21.455 
#
# Total GULP energy -545311.216599 kJ/mol
# GULP energy per Si atom -12393.436741 kJ/mol
# Density = 1.837490 g / cm^3
# Si number density = 18.416821 Si / 1000 Ang^3
#
#
#
# Elastic Constant Matrix: (Units=GPa)
#
#
# Indices 1 2 3 4 5 6 
#
# 1 108.0984 25.3893 49.0130 0.0000 0.0000 0.0000
# 2 25.3893 51.5840 51.9931 0.0000 0.0000 0.0000
# 3 49.0130 51.9931 137.3455 0.0000 0.0000 0.0000
# 4 0.0000 0.0000 0.0000 -0.3299 0.0000 0.0000
# 5 0.0000 0.0000 0.0000 0.0000 18.1754 0.0000
# 6 0.0000 0.0000 0.0000 0.0000 0.0000 16.7109
#
#
#
# Elastic Compliance Matrix: (Units=1/GPa)
#
#
# Indices 1 2 3 4 5 6 
#
# 1 0.011218 -0.002404 -0.003093 0.000000 0.000000 0.000000
# 2 -0.002404 0.031861 -0.011204 0.000000 0.000000 0.000000
# 3 -0.003093 -0.011204 0.012626 0.000000 0.000000 0.000000
# 4 0.000000 0.000000 0.000000 -3.030799 0.000000 0.000000
# 5 0.000000 0.000000 0.000000 0.000000 0.055020 0.000000
# 6 0.000000 0.000000 0.000000 0.000000 0.000000 0.059841
#
#
# Mechanical properties :
#
#
# Convention : Reuss Voigt Hill
#
# Bulk Modulus (GPa) = 44.83437 61.09096 52.96267
# Shear Modulus (GPa) = -1.77343 18.28676 8.25666
#
# Velocity S-wave (km/s) = -0.98236 3.15451 2.11966
# Velocity P-wave (km/s) = 4.80733 6.81991 5.90007
#
# Compressibility (1/GPa) = 0.02230432
#
# Stress axis : x y z
#
# Youngs Moduli (GPa) = 89.14316 31.38595 79.20149
#
# Poissons Ratio (x) = 0.07544 0.24500
# Poissons Ratio (y) = 0.21426 0.88735
# Poissons Ratio (z) = 0.27575 0.35164
#
# Static dielectric constant tensor:
#      x y z
#    x 3.520300 0.000000 0.000000 
#    y 0.000000 3.155520 0.000000 
#    z 0.000000 0.000000 3.484710 
# 
# 
# High freq. dielectric constant tensor:
#      x y z
#    x 1.726070 0.000000 0.000000 
#    y 0.000000 1.672550 0.000000 
#    z 0.000000 0.000000 1.706140 
# 
# From -- ./inp_files/33993.got.cif
#   From: 2010.03.12/outbox.cif.g09.slc.cpg/sg47_17_cif.got.tgz:33993.got - 2010.04.14 03:12:58.
