data_PCOD8197968
_publ_section_title
;
Structure prediction by ZEFSAII (Michael W. Deem and Ramdas Pophale) SiO2 
 PCOD8197968
Probable space group: P M M M
;
_chemical_formula_sum "Si O2"
_cell_formula_units_Z 48
_cell_length_a 8.883925
_cell_length_b 14.478062
_cell_length_c 20.499255
_cell_angle_alpha 90.000000
_cell_angle_beta 90.000000
_cell_angle_gamma 90.000000
_cell_volume 2636.655524
_symmetry_space_group_name_H-M "P M M M"
_symmetry_group_IT_number 47
_symmetry_cell_setting 'orthorhombic'
loop_
_space_group_symop_operation_xyz
x,y,z
-x,-y,z
x,-y,-z
-x,y,-z
-x,-y,-z
x,y,-z
-x,y,z
x,-y,z
loop_
_atom_site_type_symbol
_atom_site_label
_atom_site_fract_x
_atom_site_fract_y
_atom_site_fract_z
Si Si1 0.172434 0.893171 0.924819
Si Si2 0.178674 0.400016 0.629203
Si Si3 0.323920 0.216780 0.814393
Si Si4 0.820720 0.212542 0.428216
Si Si5 0.178851 0.104804 0.697179
Si Si6 0.824393 0.396015 0.778275
O O1 0.283868 0.832468 0.881917
O O2 0.000000 0.868973 0.907572
O O3 0.203564 0.000000 0.909430
O O4 0.206318 0.871113 0.000000
O O5 0.239520 0.500000 0.603856
O O6 0.242731 0.315797 0.586164
O O7 0.228492 0.385244 0.703667
O O8 0.000000 0.401150 0.626185
O O9 0.500000 0.212173 0.802719
O O10 0.243256 0.166945 0.754393
O O11 0.270247 0.322884 0.820313
O O12 0.762754 0.181624 0.500000
O O13 0.762779 0.141845 0.373044
O O14 0.000000 0.214805 0.427150
O O15 0.000000 0.110819 0.701034
O O16 0.235693 0.000000 0.705282
O O17 0.790381 0.500000 0.803245
O O18 0.000000 0.373119 0.785626
#
# Coordination Sequence:
#
# PCOD8197968 Si02
#       6
#     8   8   8   8   8   8
#     4   9  19  37  60  84 110 142 179 216 256 306
#     4   8  13  23  42  68  96 124 157 205 264 318
#     4  12  23  33  52  81 112 142 172 213 261 311
#     4   9  16  26  43  69  99 128 164 218 278 324
#     4  10  20  34  51  70  97 135 180 227 268 312
#     4   9  17  32  55  78 102 136 177 218 259 308
#
# _framework density 18.204881
#
# number of rings (size 3 to 8) (size 9 to 14) (size 15 to 20)
#    0.000    2.500    1.667    3.500    0.000    4.000 
#    0.000    4.167    0.000    1.000    0.000    4.667 
#    0.000    2.667    0.000    0.000    0.000    0.000 
#
# Total GULP energy -595010.388346 kJ/mol
# GULP energy per Si atom -12396.049757 kJ/mol
# Density = 1.816345 g / cm^3
# Si number density = 18.204881 Si / 1000 Ang^3
#
#
#
# Elastic Constant Matrix: (Units=GPa)
#
#
# Indices 1 2 3 4 5 6 
#
# 1 28.8318 29.4045 19.2706 0.0000 0.0000 0.0000
# 2 29.4045 119.1373 48.4947 0.0000 0.0000 0.0000
# 3 19.2706 48.4947 86.1136 0.0000 0.0000 0.0000
# 4 0.0000 0.0000 0.0000 29.7336 0.0000 0.0000
# 5 0.0000 0.0000 0.0000 0.0000 2.1079 0.0000
# 6 0.0000 0.0000 0.0000 0.0000 0.0000 8.4243
#
#
#
# Elastic Compliance Matrix: (Units=1/GPa)
#
#
# Indices 1 2 3 4 5 6 
#
# 1 0.048143 -0.009727 -0.005296 0.000000 0.000000 0.000000
# 2 -0.009727 0.012855 -0.005063 0.000000 0.000000 0.000000
# 3 -0.005296 -0.005063 0.015649 0.000000 0.000000 0.000000
# 4 0.000000 0.000000 0.000000 0.033632 0.000000 0.000000
# 5 0.000000 0.000000 0.000000 0.000000 0.474409 0.000000
# 6 0.000000 0.000000 0.000000 0.000000 0.000000 0.118705
#
#
# Mechanical properties :
#
#
# Convention : Reuss Voigt Hill
#
# Bulk Modulus (GPa) = 27.41486 47.60249 37.50868
# Shear Modulus (GPa) = 6.61618 17.18068 11.89843
#
# Velocity S-wave (km/s) = 1.90845 3.07537 2.55930
# Velocity P-wave (km/s) = 4.46632 6.23021 5.42049
#
# Compressibility (1/GPa) = 0.03647657
#
# Stress axis : x y z
#
# Youngs Moduli (GPa) = 20.77124 77.79028 63.90285
#
# Poissons Ratio (x) = 0.75664 0.33843
# Poissons Ratio (y) = 0.20203 0.32352
# Poissons Ratio (z) = 0.11001 0.39383
#
# Static dielectric constant tensor:
#      x y z
#    x 2.886190 0.000000 0.000000 
#    y 0.000000 3.714300 0.000000 
#    z 0.000000 0.000000 3.328000 
# 
# 
# High freq. dielectric constant tensor:
#      x y z
#    x 1.655830 0.000000 0.000000 
#    y 0.000000 1.717560 0.000000 
#    z 0.000000 0.000000 1.692290 
# 
# From -- ./inp_files/6764.got.cif
#   From: 2010.03.12/outbox.cif.g09.slc.cpg/sg47_4_cif.got.tgz:6764.got - 2010.04.14 03:12:58.
