data_PCOD8197711
_publ_section_title
;
Structure prediction by ZEFSAII (Michael W. Deem and Ramdas Pophale) SiO2 
 PCOD8197711
Probable space group: P M M M
;
_chemical_formula_sum "Si O2"
_cell_formula_units_Z 44
_cell_length_a 17.842998
_cell_length_b 14.046574
_cell_length_c 9.664175
_cell_angle_alpha 90.000000
_cell_angle_beta 90.000000
_cell_angle_gamma 90.000000
_cell_volume 2422.161093
_symmetry_space_group_name_H-M "P M M M"
_symmetry_group_IT_number 47
_symmetry_cell_setting 'orthorhombic'
loop_
_space_group_symop_operation_xyz
x,y,z
-x,-y,z
x,-y,-z
-x,y,-z
-x,-y,-z
x,y,-z
-x,y,z
x,-y,z
loop_
_atom_site_type_symbol
_atom_site_label
_atom_site_fract_x
_atom_site_fract_y
_atom_site_fract_z
Si Si1 0.706195 0.208467 0.658334
Si Si2 0.784925 0.393619 0.341865
Si Si3 0.586061 0.108771 0.160060
Si Si4 0.000000 0.113508 0.158661
Si Si5 0.861178 0.887463 0.658665
Si Si6 0.082257 0.387046 0.154919
O O1 0.688230 0.181800 0.500000
O O2 0.714971 0.322649 0.677518
O O3 0.636888 0.178082 0.750792
O O4 0.782467 0.157236 0.706174
O O5 0.810991 0.396163 0.500000
O O6 0.762354 0.500000 0.290512
O O7 0.855191 0.348913 0.259599
O O8 0.500000 0.134335 0.190542
O O9 0.602477 0.000000 0.202092
O O10 0.604970 0.124869 0.000000
O O11 0.926117 0.151361 0.238951
O O12 0.000000 0.000000 0.161520
O O13 0.000000 0.151211 0.000000
O O14 0.880319 0.858716 0.500000
O O15 0.853539 0.000000 0.672631
O O16 0.077351 0.500000 0.168144
O O17 0.000000 0.343371 0.190430
O O18 0.105668 0.357484 0.000000
#
# Coordination Sequence:
#
# PCOD8197711 Si02
#       6
#     8   8   8   4   8   8
#     4  10  20  33  51  77 103 131 170 210 248 297
#     4   9  18  32  48  68  97 132 170 213 258 299
#     4   9  19  36  57  82 111 137 158 189 242 304
#     4   9  17  29  45  65  90 123 164 204 241 287
#     4   9  17  30  47  66  92 126 160 198 246 295
#     4   8  14  26  44  64  87 119 162 212 262 307
#
# _framework density 18.165597000000002
#
# number of rings (size 3 to 8) (size 9 to 14) (size 15 to 20)
#    0.000    3.000    0.000    1.909    0.000    4.364 
#    1.636    4.545    0.000    0.545    0.000    3.818 
#    0.000    0.000    0.000    0.000    0.000    0.000 
#
# Total GULP energy -545495.184851 kJ/mol
# GULP energy per Si atom -12397.617838 kJ/mol
# Density = 1.812425 g / cm^3
# Si number density = 18.165597 Si / 1000 Ang^3
#
#
#
# Elastic Constant Matrix: (Units=GPa)
#
#
# Indices 1 2 3 4 5 6 
#
# 1 109.7756 48.5852 69.6168 0.0000 0.0000 0.0000
# 2 48.5852 50.6979 37.7246 0.0000 0.0000 0.0000
# 3 69.6168 37.7246 91.1747 0.0000 0.0000 0.0000
# 4 0.0000 0.0000 0.0000 17.7829 0.0000 0.0000
# 5 0.0000 0.0000 0.0000 0.0000 38.4860 0.0000
# 6 0.0000 0.0000 0.0000 0.0000 0.0000 23.7157
#
#
#
# Elastic Compliance Matrix: (Units=1/GPa)
#
#
# Indices 1 2 3 4 5 6 
#
# 1 0.021993 -0.012398 -0.011663 0.000000 0.000000 0.000000
# 2 -0.012398 0.035488 -0.005217 0.000000 0.000000 0.000000
# 3 -0.011663 -0.005217 0.022032 0.000000 0.000000 0.000000
# 4 0.000000 0.000000 0.000000 0.056234 0.000000 0.000000
# 5 0.000000 0.000000 0.000000 0.000000 0.025983 0.000000
# 6 0.000000 0.000000 0.000000 0.000000 0.000000 0.042166
#
#
# Mechanical properties :
#
#
# Convention : Reuss Voigt Hill
#
# Bulk Modulus (GPa) = 47.71712 62.61126 55.16419
# Shear Modulus (GPa) = 18.55710 22.37836 20.46773
#
# Velocity S-wave (km/s) = 3.19964 3.51366 3.36032
# Velocity P-wave (km/s) = 6.32259 7.14163 6.74455
#
# Compressibility (1/GPa) = 0.02095684
#
# Stress axis : x y z
#
# Youngs Moduli (GPa) = 45.46877 28.17840 45.38864
#
# Poissons Ratio (x) = 0.34936 0.52937
# Poissons Ratio (y) = 0.56373 0.23680
# Poissons Ratio (z) = 0.53031 0.14701
#
# Static dielectric constant tensor:
#      x y z
#    x 3.224210 0.000000 0.000000 
#    y 0.000000 3.351720 0.000000 
#    z 0.000000 0.000000 3.389540 
# 
# 
# High freq. dielectric constant tensor:
#      x y z
#    x 1.678820 0.000000 0.000000 
#    y 0.000000 1.703700 0.000000 
#    z 0.000000 0.000000 1.702680 
# 
# From -- ./inp_files/8953.got.cif
#   From: 2010.03.12/outbox.cif.g09.slc.cpg/sg47_5_cif.got.tgz:8953.got - 2010.04.14 03:12:58.
