data_PCOD8197158
_publ_section_title
;
Structure prediction by ZEFSAII (Michael W. Deem and Ramdas Pophale) SiO2 
 PCOD8197158
Probable space group: P M M M
;
_chemical_formula_sum "Si O2"
_cell_formula_units_Z 36
_cell_length_a 9.263689
_cell_length_b 9.178473
_cell_length_c 23.223883
_cell_angle_alpha 90.000000
_cell_angle_beta 90.000000
_cell_angle_gamma 90.000000
_cell_volume 1974.645938
_symmetry_space_group_name_H-M "P M M M"
_symmetry_group_IT_number 47
_symmetry_cell_setting 'orthorhombic'
loop_
_space_group_symop_operation_xyz
x,y,z
-x,-y,z
x,-y,-z
-x,y,-z
-x,-y,-z
x,y,-z
-x,y,z
x,-y,z
loop_
_atom_site_type_symbol
_atom_site_label
_atom_site_fract_x
_atom_site_fract_y
_atom_site_fract_z
Si Si1 0.171481 0.836600 0.563461
Si Si2 0.837068 0.326704 0.000000
Si Si3 0.332477 0.331284 0.110958
Si Si4 0.828523 0.666007 0.326723
Si Si5 0.667219 0.170434 0.773491
O O1 0.226454 0.786533 0.500000
O O2 0.229916 0.727246 0.612190
O O3 0.000000 0.836272 0.563827
O O4 0.227701 0.000000 0.576747
O O5 0.756727 0.268975 0.056915
O O6 0.831836 0.500000 0.000000
O O7 0.000000 0.267158 0.000000
O O8 0.500000 0.308556 0.096603
O O9 0.297094 0.500000 0.123129
O O10 0.283830 0.240403 0.166365
O O11 0.776451 0.500000 0.321041
O O12 0.761778 0.760785 0.276381
O O13 0.000000 0.678896 0.322704
O O14 0.500000 0.204646 0.761248
O O15 0.698740 0.000000 0.776296
#
# Coordination Sequence:
#
# PCOD8197158 Si02
#       5
#     8   4   8   8   8
#     4   8  14  26  45  69  98 132 167 202 243 293
#     4   9  17  29  48  75 102 126 156 197 242 287
#     4   9  17  31  51  72  95 126 163 200 240 289
#     4  10  20  32  49  75 103 131 165 206 252 299
#     4  10  21  36  53  73  98 131 170 209 251 298
#
# _framework density 18.231117999999999
#
# number of rings (size 3 to 8) (size 9 to 14) (size 15 to 20)
#    0.000    2.778    0.000    2.333    0.000    5.333 
#    0.000    5.000    0.000    4.000    0.000    4.667 
#    0.000    0.000    0.000    0.000    0.000    0.000 
#
# Total GULP energy -446363.086857 kJ/mol
# GULP energy per Si atom -12398.974635 kJ/mol
# Density = 1.818962 g / cm^3
# Si number density = 18.231118 Si / 1000 Ang^3
#
#
#
# Elastic Constant Matrix: (Units=GPa)
#
#
# Indices 1 2 3 4 5 6 
#
# 1 43.0614 29.5601 50.9869 0.0000 0.0000 0.0000
# 2 29.5601 89.8666 72.2935 0.0000 0.0000 0.0000
# 3 50.9869 72.2935 172.4729 0.0000 0.0000 0.0000
# 4 0.0000 0.0000 0.0000 8.4397 0.0000 0.0000
# 5 0.0000 0.0000 0.0000 0.0000 -10.2090 0.0000
# 6 0.0000 0.0000 0.0000 0.0000 0.0000 19.7181
#
#
#
# Elastic Compliance Matrix: (Units=1/GPa)
#
#
# Indices 1 2 3 4 5 6 
#
# 1 0.037226 -0.005118 -0.008860 0.000000 0.000000 0.000000
# 2 -0.005118 0.017492 -0.005819 0.000000 0.000000 0.000000
# 3 -0.008860 -0.005819 0.010856 0.000000 0.000000 0.000000
# 4 0.000000 0.000000 0.000000 0.118488 0.000000 0.000000
# 5 0.000000 0.000000 0.000000 0.000000 -0.097953 0.000000
# 6 0.000000 0.000000 0.000000 0.000000 0.000000 0.050715
#
#
# Mechanical properties :
#
#
# Convention : Reuss Voigt Hill
#
# Bulk Modulus (GPa) = 38.48882 67.89798 53.19340
# Shear Modulus (GPa) = 27.01559 13.76044 20.38802
#
# Velocity S-wave (km/s) = 3.85364 2.75030 3.34774
# Velocity P-wave (km/s) = 6.39986 6.88544 6.64709
#
# Compressibility (1/GPa) = 0.02598157
#
# Stress axis : x y z
#
# Youngs Moduli (GPa) = 26.86286 57.16847 92.11235
#
# Poissons Ratio (x) = 0.29256 0.81610
# Poissons Ratio (y) = 0.13747 0.53601
# Poissons Ratio (z) = 0.23800 0.33267
#
# Static dielectric constant tensor:
#      x y z
#    x 3.099640 0.000000 0.000000 
#    y 0.000000 3.359700 0.000000 
#    z 0.000000 0.000000 3.677270 
# 
# 
# High freq. dielectric constant tensor:
#      x y z
#    x 1.674350 0.000000 0.000000 
#    y 0.000000 1.696760 0.000000 
#    z 0.000000 0.000000 1.723820 
# 
# From -- ./inp_files/1441.got.cif
#   From: 2010.03.12/outbox.cif.g09.slc.cpg/sg47_1_cif.got.tgz:1441.got - 2010.04.14 03:12:58.
