data_PCOD8197259
_publ_section_title
;
Structure prediction by ZEFSAII (Michael W. Deem and Ramdas Pophale) SiO2 
 PCOD8197259
Probable space group: P M M M
;
_chemical_formula_sum "Si O2"
_cell_formula_units_Z 44
_cell_length_a 9.263720
_cell_length_b 14.845652
_cell_length_c 17.120089
_cell_angle_alpha 90.000000
_cell_angle_beta 90.000000
_cell_angle_gamma 90.000000
_cell_volume 2354.456732
_symmetry_space_group_name_H-M "P M M M"
_symmetry_group_IT_number 47
_symmetry_cell_setting 'orthorhombic'
loop_
_space_group_symop_operation_xyz
x,y,z
-x,-y,z
x,-y,-z
-x,y,-z
-x,-y,-z
x,y,-z
-x,y,z
x,-y,z
loop_
_atom_site_type_symbol
_atom_site_label
_atom_site_fract_x
_atom_site_fract_y
_atom_site_fract_z
Si Si1 0.838262 0.098453 0.194239
Si Si2 0.170183 0.393554 0.500000
Si Si3 0.162198 0.900534 0.379538
Si Si4 0.330604 0.727371 0.380044
Si Si5 0.836747 0.394013 0.087700
Si Si6 0.667189 0.268822 0.197382
O O1 0.835528 0.098348 0.286951
O O2 0.734693 0.176706 0.163119
O O3 0.000000 0.117466 0.163921
O O4 0.785862 0.000000 0.163945
O O5 0.198051 0.500000 0.500000
O O6 0.245226 0.352195 0.576813
O O7 0.000000 0.371503 0.500000
O O8 0.271292 0.824032 0.410768
O O9 0.000000 0.878539 0.409071
O O10 0.209380 0.000000 0.410421
O O11 0.500000 0.721735 0.399566
O O12 0.299023 0.716015 0.288429
O O13 0.821036 0.500000 0.095027
O O14 0.729908 0.352274 0.150453
O O15 0.000000 0.364006 0.106883
O O16 0.795335 0.363077 0.000000
O O17 0.500000 0.262444 0.180880
#
# Coordination Sequence:
#
# PCOD8197259 Si02
#       6
#     8   4   8   8   8   8
#     4   8  14  26  46  72 102 138 177 212 247 291
#     4  11  25  43  60  75  94 129 177 224 268 309
#     4   8  14  27  49  76 105 136 170 209 251 296
#     4  10  21  36  54  78 108 139 171 210 257 310
#     4   9  19  36  56  77 102 134 172 214 260 307
#     4  10  20  32  51  81 111 139 170 206 254 310
#
# _framework density 18.687963
#
# number of rings (size 3 to 8) (size 9 to 14) (size 15 to 20)
#    0.000    2.818    0.000    3.000    0.000    5.091 
#    0.000    8.636    0.000    3.273    0.000    3.818 
#    0.000    0.000    0.000    0.000    0.000    0.000 
#
# Total GULP energy -545405.301851 kJ/mol
# GULP energy per Si atom -12395.575042 kJ/mol
# Density = 1.864543 g / cm^3
# Si number density = 18.687963 Si / 1000 Ang^3
#
#
#
# Elastic Constant Matrix: (Units=GPa)
#
#
# Indices 1 2 3 4 5 6 
#
# 1 126.2531 77.3321 49.1292 0.0000 0.0000 0.0000
# 2 77.3321 120.5842 43.4654 0.0000 0.0000 0.0000
# 3 49.1292 43.4654 61.5300 0.0000 0.0000 0.0000
# 4 0.0000 0.0000 0.0000 -13.7653 0.0000 0.0000
# 5 0.0000 0.0000 0.0000 0.0000 23.7458 0.0000
# 6 0.0000 0.0000 0.0000 0.0000 0.0000 18.7831
#
#
#
# Elastic Compliance Matrix: (Units=1/GPa)
#
#
# Indices 1 2 3 4 5 6 
#
# 1 0.014968 -0.007099 -0.006937 0.000000 0.000000 0.000000
# 2 -0.007099 0.014493 -0.004570 0.000000 0.000000 0.000000
# 3 -0.006937 -0.004570 0.025019 0.000000 0.000000 0.000000
# 4 0.000000 0.000000 0.000000 -0.072646 0.000000 0.000000
# 5 0.000000 0.000000 0.000000 0.000000 0.042113 0.000000
# 6 0.000000 0.000000 0.000000 0.000000 0.000000 0.053239
#
#
# Mechanical properties :
#
#
# Convention : Reuss Voigt Hill
#
# Bulk Modulus (GPa) = 57.90609 72.02450 64.96529
# Shear Modulus (GPa) = 41.61394 14.98210 28.29802
#
# Velocity S-wave (km/s) = 4.72399 2.83450 3.89554
# Velocity P-wave (km/s) = 7.79794 7.02401 7.42107
#
# Compressibility (1/GPa) = 0.01726934
#
# Stress axis : x y z
#
# Youngs Moduli (GPa) = 66.80915 69.00041 39.96971
#
# Poissons Ratio (x) = 0.48982 0.27726
# Poissons Ratio (y) = 0.47426 0.18265
# Poissons Ratio (z) = 0.46343 0.31531
#
# Static dielectric constant tensor:
#      x y z
#    x 3.491360 0.000000 0.000000 
#    y 0.000000 3.678580 0.000000 
#    z 0.000000 0.000000 3.147920 
# 
# 
# High freq. dielectric constant tensor:
#      x y z
#    x 1.724390 0.000000 0.000000 
#    y 0.000000 1.732400 0.000000 
#    z 0.000000 0.000000 1.697880 
# 
# From -- ./inp_files/8965.got.cif
#   From: 2010.03.12/outbox.cif.g09.slc.cpg/sg47_5_cif.got.tgz:8965.got - 2010.04.14 03:12:58.
