data_PCOD8197449
_publ_section_title
;
Structure prediction by ZEFSAII (Michael W. Deem and Ramdas Pophale) SiO2 
 PCOD8197449
Probable space group: P M M M
;
_chemical_formula_sum "Si O2"
_cell_formula_units_Z 52
_cell_length_a 8.928448
_cell_length_b 23.970817
_cell_length_c 12.892501
_cell_angle_alpha 90.000000
_cell_angle_beta 90.000000
_cell_angle_gamma 90.000000
_cell_volume 2759.281339
_symmetry_space_group_name_H-M "P M M M"
_symmetry_group_IT_number 47
_symmetry_cell_setting 'orthorhombic'
loop_
_space_group_symop_operation_xyz
x,y,z
-x,-y,z
x,-y,-z
-x,y,-z
-x,-y,-z
x,y,-z
-x,y,z
x,-y,z
loop_
_atom_site_type_symbol
_atom_site_label
_atom_site_fract_x
_atom_site_fract_y
_atom_site_fract_z
Si Si1 0.821974 0.562397 0.884744
Si Si2 0.822752 0.356073 0.291680
Si Si3 0.176778 0.771372 0.709568
Si Si4 0.678035 0.062782 0.000000
Si Si5 0.669320 0.774152 0.500000
Si Si6 0.323629 0.871154 0.798963
Si Si7 0.332069 0.358356 0.500000
Si Si8 0.170905 0.065622 0.617407
O O1 0.767503 0.500000 0.855382
O O2 0.757993 0.606623 0.802217
O O3 0.000000 0.564489 0.883745
O O4 0.763697 0.578255 0.000000
O O5 0.774034 0.292326 0.269585
O O6 0.752407 0.379865 0.397546
O O7 0.000000 0.360897 0.302764
O O8 0.243294 0.794950 0.601574
O O9 0.244209 0.810412 0.799815
O O10 0.000000 0.777083 0.705270
O O11 0.736464 0.094929 0.101685
O O12 0.500000 0.060172 0.000000
O O13 0.744197 0.000000 0.000000
O O14 0.500000 0.797647 0.500000
O O15 0.669249 0.707825 0.500000
O O16 0.500000 0.861926 0.804534
O O17 0.283253 0.904490 0.695297
O O18 0.500000 0.382308 0.500000
O O19 0.212738 0.083348 0.500000
O O20 0.000000 0.083172 0.642491
O O21 0.190800 0.000000 0.630829
#
# Coordination Sequence:
#
# PCOD8197449 Si02
#       8
#     8   8   8   4   4   8   4   8
#     4   8  14  27  50  79 106 132 171 224 272 311
#     4   9  17  31  51  76 104 139 176 212 259 314
#     4  10  20  33  49  75 110 143 171 210 264 316
#     4   9  20  40  61  77  97 131 174 221 264 298
#     4   9  17  31  51  74  99 136 180 216 249 302
#     4  11  22  36  56  79 103 135 179 223 258 307
#     4   9  17  29  48  72 101 137 175 214 253 300
#     4   9  19  36  56  79 109 139 165 204 263 320
#
# _framework density 18.845488
#
# number of rings (size 3 to 8) (size 9 to 14) (size 15 to 20)
#    0.000    2.692    0.000    2.769    1.077    3.692 
#    1.385    2.692    0.000    6.000    0.000    1.077 
#    0.000    0.000    0.000    0.000    0.000    0.000 
#
# Total GULP energy -644739.254323 kJ/mol
# GULP energy per Si atom -12398.831814 kJ/mol
# Density = 1.880259 g / cm^3
# Si number density = 18.845488 Si / 1000 Ang^3
#
#
#
# Elastic Constant Matrix: (Units=GPa)
#
#
# Indices 1 2 3 4 5 6 
#
# 1 56.1380 28.8817 37.4131 0.0000 0.0000 0.0000
# 2 28.8817 103.8229 86.7207 0.0000 0.0000 0.0000
# 3 37.4131 86.7207 147.8892 0.0000 0.0000 0.0000
# 4 0.0000 0.0000 0.0000 37.6052 0.0000 0.0000
# 5 0.0000 0.0000 0.0000 0.0000 19.0253 0.0000
# 6 0.0000 0.0000 0.0000 0.0000 0.0000 16.5026
#
#
#
# Elastic Compliance Matrix: (Units=1/GPa)
#
#
# Indices 1 2 3 4 5 6 
#
# 1 0.021852 -0.002864 -0.003849 0.000000 0.000000 0.000000
# 2 -0.002864 0.019254 -0.010566 0.000000 0.000000 0.000000
# 3 -0.003849 -0.010566 0.013931 0.000000 0.000000 0.000000
# 4 0.000000 0.000000 0.000000 0.026592 0.000000 0.000000
# 5 0.000000 0.000000 0.000000 0.000000 0.052562 0.000000
# 6 0.000000 0.000000 0.000000 0.000000 0.000000 0.060596
#
#
# Mechanical properties :
#
#
# Convention : Reuss Voigt Hill
#
# Bulk Modulus (GPa) = 48.82875 68.20904 58.51890
# Shear Modulus (GPa) = 21.17122 24.94893 23.06008
#
# Velocity S-wave (km/s) = 3.35537 3.64245 3.50185
# Velocity P-wave (km/s) = 6.40138 7.34590 6.88984
#
# Compressibility (1/GPa) = 0.02047974
#
# Stress axis : x y z
#
# Youngs Moduli (GPa) = 45.76319 51.93798 71.78242
#
# Poissons Ratio (x) = 0.14876 0.27626
# Poissons Ratio (y) = 0.13107 0.75843
# Poissons Ratio (z) = 0.17612 0.54876
#
# Static dielectric constant tensor:
#      x y z
#    x 3.215420 0.000000 0.000000 
#    y 0.000000 3.555000 0.000000 
#    z 0.000000 0.000000 3.621330 
# 
# 
# High freq. dielectric constant tensor:
#      x y z
#    x 1.708800 0.000000 0.000000 
#    y 0.000000 1.728670 0.000000 
#    z 0.000000 0.000000 1.729110 
# 
# From -- ./inp_files/15584.got.cif
#   From: 2010.03.12/outbox.cif.g09.slc.cpg/sg47_8_cif.got.tgz:15584.got - 2010.04.14 03:12:58.
