data_PCOD8197972
_publ_section_title
;
Structure prediction by ZEFSAII (Michael W. Deem and Ramdas Pophale) SiO2 
 PCOD8197972
Probable space group: P M M M
;
_chemical_formula_sum "Si O2"
_cell_formula_units_Z 52
_cell_length_a 11.446380
_cell_length_b 31.086154
_cell_length_c 8.863324
_cell_angle_alpha 90.000000
_cell_angle_beta 90.000000
_cell_angle_gamma 90.000000
_cell_volume 3153.782791
_symmetry_space_group_name_H-M "P M M M"
_symmetry_group_IT_number 47
_symmetry_cell_setting 'orthorhombic'
loop_
_space_group_symop_operation_xyz
x,y,z
-x,-y,z
x,-y,-z
-x,y,-z
-x,-y,-z
x,y,-z
-x,y,z
x,-y,z
loop_
_atom_site_type_symbol
_atom_site_label
_atom_site_fract_x
_atom_site_fract_y
_atom_site_fract_z
Si Si1 0.500000 0.550343 0.321998
Si Si2 0.138534 0.255968 0.831042
Si Si3 0.860688 0.000000 0.669851
Si Si4 0.139401 0.171030 0.669953
Si Si5 0.262148 0.421744 0.178842
Si Si6 0.863134 0.343162 0.675558
Si Si7 0.862350 0.500000 0.330096
Si Si8 0.139282 0.914540 0.169835
O O1 0.500000 0.500000 0.280101
O O2 0.500000 0.557596 0.500000
O O3 0.610986 0.573280 0.250223
O O4 0.189433 0.212077 0.760276
O O5 0.176716 0.295723 0.726382
O O6 0.000000 0.252910 0.836615
O O7 0.188821 0.261826 0.000000
O O8 0.811625 0.042501 0.751513
O O9 0.813534 0.000000 0.500000
O O10 0.000000 0.000000 0.673626
O O11 0.186654 0.173353 0.500000
O O12 0.187860 0.127438 0.744892
O O13 0.000000 0.171259 0.672447
O O14 0.210110 0.375990 0.224288
O O15 0.176995 0.458065 0.241879
O O16 0.270450 0.425666 0.000000
O O17 0.833793 0.349524 0.500000
O O18 0.000000 0.350535 0.706963
O O19 0.808471 0.500000 0.500000
O O20 0.000000 0.500000 0.340077
O O21 0.000000 0.914683 0.173233
O O22 0.186580 0.913441 0.000000
#
# Coordination Sequence:
#
# PCOD8197972 Si02
#       8
#     4   8   4   8   8   8   4   8
#     4  11  23  41  63  79  98 128 160 190 224 265
#     4   9  16  26  40  58  80 105 134 169 209 253
#     4   9  15  21  27  35  49  71 101 141 191 244
#     4   9  15  22  32  46  64  88 119 154 195 246
#     4  12  24  37  56  79 102 125 155 192 228 264
#     4  10  20  34  51  71  97 127 155 183 221 271
#     4  11  23  38  55  76 103 133 161 187 220 265
#     4   9  15  21  28  38  53  75 106 146 192 241
#
# _framework density 16.488136999999998
#
# number of rings (size 3 to 8) (size 9 to 14) (size 15 to 20)
#    0.000    2.077    0.769    4.385    0.000   10.154 
#    0.000    0.000    0.000    0.000    0.000    0.000 
#    0.000    0.000    0.000    0.000    0.000    0.000 
#
# Total GULP energy -644833.619015 kJ/mol
# GULP energy per Si atom -12400.646520 kJ/mol
# Density = 1.645061 g / cm^3
# Si number density = 16.488137 Si / 1000 Ang^3
#
#
#
# Elastic Constant Matrix: (Units=GPa)
#
#
# Indices 1 2 3 4 5 6 
#
# 1 36.5655 26.5283 25.9510 0.0000 0.0000 0.0000
# 2 26.5283 139.4146 58.2808 0.0000 0.0000 0.0000
# 3 25.9510 58.2808 137.3202 0.0000 0.0000 0.0000
# 4 0.0000 0.0000 0.0000 29.5586 0.0000 0.0000
# 5 0.0000 0.0000 0.0000 0.0000 12.8134 0.0000
# 6 0.0000 0.0000 0.0000 0.0000 0.0000 -1.9959
#
#
#
# Elastic Compliance Matrix: (Units=1/GPa)
#
#
# Indices 1 2 3 4 5 6 
#
# 1 0.033827 -0.004576 -0.004450 0.000000 0.000000 0.000000
# 2 -0.004576 0.009339 -0.003099 0.000000 0.000000 0.000000
# 3 -0.004450 -0.003099 0.009438 0.000000 0.000000 0.000000
# 4 0.000000 0.000000 0.000000 0.033831 0.000000 0.000000
# 5 0.000000 0.000000 0.000000 0.000000 0.078043 0.000000
# 6 0.000000 0.000000 0.000000 0.000000 0.000000 -0.501021
#
#
# Mechanical properties :
#
#
# Convention : Reuss Voigt Hill
#
# Bulk Modulus (GPa) = 35.26919 59.42451 47.34685
# Shear Modulus (GPa) = -16.51036 21.57789 2.53376
#
# Velocity S-wave (km/s) = -3.16784 3.62151 1.24099
# Velocity P-wave (km/s) = 2.83845 7.32162 5.55261
#
# Compressibility (1/GPa) = 0.02835336
#
# Stress axis : x y z
#
# Youngs Moduli (GPa) = 29.56244 107.07716 105.94923
#
# Poissons Ratio (x) = 0.49001 0.47152
# Poissons Ratio (y) = 0.13528 0.32832
# Poissons Ratio (z) = 0.13156 0.33181
#
# Static dielectric constant tensor:
#      x y z
#    x 2.525920 0.000000 0.000000 
#    y 0.000000 3.353120 0.000000 
#    z 0.000000 0.000000 3.370960 
# 
# 
# High freq. dielectric constant tensor:
#      x y z
#    x 1.548830 0.000000 0.000000 
#    y 0.000000 1.652250 0.000000 
#    z 0.000000 0.000000 1.659340 
# 
# From -- ./inp_files/4868.got.cif
#   From: 2010.03.12/outbox.cif.g09.slc.cpg/sg47_3_cif.got.tgz:4868.got - 2010.04.14 03:12:58.
