data_PCOD8197218
_publ_section_title
;
Structure prediction by ZEFSAII (Michael W. Deem and Ramdas Pophale) SiO2 
 PCOD8197218
Probable space group: P M M M
;
_chemical_formula_sum "Si O2"
_cell_formula_units_Z 64
_cell_length_a 9.204061
_cell_length_b 24.794887
_cell_length_c 15.072483
_cell_angle_alpha 90.000000
_cell_angle_beta 90.000000
_cell_angle_gamma 90.000000
_cell_volume 3439.746397
_symmetry_space_group_name_H-M "P M M M"
_symmetry_group_IT_number 47
_symmetry_cell_setting 'orthorhombic'
loop_
_space_group_symop_operation_xyz
x,y,z
-x,-y,z
x,-y,-z
-x,y,-z
-x,-y,-z
x,y,-z
-x,y,z
x,-y,z
loop_
_atom_site_type_symbol
_atom_site_label
_atom_site_fract_x
_atom_site_fract_y
_atom_site_fract_z
Si Si1 0.326989 0.641041 0.729589
Si Si2 0.661866 0.757181 0.330714
Si Si3 0.829490 0.939767 0.736078
Si Si4 0.167149 0.851881 0.599275
Si Si5 0.332735 0.100454 0.902016
Si Si6 0.663185 0.219943 0.130955
Si Si7 0.166262 0.563263 0.399042
Si Si8 0.169061 0.673793 0.099332
O O1 0.500000 0.638772 0.741855
O O2 0.278790 0.696148 0.680071
O O3 0.272990 0.591920 0.669851
O O4 0.255950 0.638441 0.827827
O O5 0.500000 0.755531 0.370725
O O6 0.759660 0.793065 0.395075
O O7 0.664533 0.786140 0.236291
O O8 0.765038 0.896505 0.665828
O O9 0.761560 0.932720 0.832829
O O10 0.000000 0.931353 0.745833
O O11 0.793399 0.000000 0.701621
O O12 0.188536 0.874234 0.500000
O O13 0.000000 0.842740 0.622373
O O14 0.500000 0.096700 0.872218
O O15 0.284722 0.162959 0.907141
O O16 0.309551 0.075327 0.000000
O O17 0.500000 0.234903 0.098437
O O18 0.773616 0.265091 0.097516
O O19 0.207636 0.579267 0.500000
O O20 0.187202 0.500000 0.385293
O O21 0.000000 0.579897 0.379511
O O22 0.000000 0.674098 0.125579
O O23 0.190796 0.649266 0.000000
#
# Coordination Sequence:
#
# PCOD8197218 Si02
#       8
#     8   8   8   8   8   8   8   8
#     4  10  21  35  54  82 115 152 190 228 272 323
#     4   9  18  33  52  76 107 140 172 209 258 312
#     4  10  22  39  56  74  99 131 169 218 269 317
#     4  10  21  36  55  78 101 130 170 214 264 321
#     4  10  20  34  54  78 103 133 169 209 257 317
#     4   9  17  31  51  74 103 138 173 212 260 315
#     4   9  19  37  60  85 114 149 189 234 282 328
#     4  10  20  32  49  77 112 149 188 228 271 321
#
# _framework density 18.606024000000001
#
# number of rings (size 3 to 8) (size 9 to 14) (size 15 to 20)
#    0.000    2.375    1.250    2.250    0.000    6.750 
#    0.000    5.625    0.000    0.375    0.000    4.375 
#    0.000    0.000    0.000    0.000    0.000    0.000 
#
# Total GULP energy -793461.666196 kJ/mol
# GULP energy per Si atom -12397.838534 kJ/mol
# Density = 1.856368 g / cm^3
# Si number density = 18.606024 Si / 1000 Ang^3
#
#
#
# Elastic Constant Matrix: (Units=GPa)
#
#
# Indices 1 2 3 4 5 6 
#
# 1 72.8064 39.1640 44.3209 0.0000 0.0000 0.0000
# 2 39.1640 71.3955 47.3270 0.0000 0.0000 0.0000
# 3 44.3209 47.3270 96.0103 0.0000 0.0000 0.0000
# 4 0.0000 0.0000 0.0000 -8.4447 0.0000 0.0000
# 5 0.0000 0.0000 0.0000 0.0000 18.8202 0.0000
# 6 0.0000 0.0000 0.0000 0.0000 0.0000 27.9201
#
#
#
# Elastic Compliance Matrix: (Units=1/GPa)
#
#
# Indices 1 2 3 4 5 6 
#
# 1 0.021688 -0.007813 -0.006160 0.000000 0.000000 0.000000
# 2 -0.007813 0.023620 -0.008036 0.000000 0.000000 0.000000
# 3 -0.006160 -0.008036 0.017221 0.000000 0.000000 0.000000
# 4 0.000000 0.000000 0.000000 -0.118417 0.000000 0.000000
# 5 0.000000 0.000000 0.000000 0.000000 0.053134 0.000000
# 6 0.000000 0.000000 0.000000 0.000000 0.000000 0.035816
#
#
# Mechanical properties :
#
#
# Convention : Reuss Voigt Hill
#
# Bulk Modulus (GPa) = 54.02874 55.75956 54.89415
# Shear Modulus (GPa) = 60.05946 14.95247 37.50597
#
# Velocity S-wave (km/s) = 5.68768 2.83792 4.49463
# Velocity P-wave (km/s) = 8.49907 6.38530 7.51686
#
# Compressibility (1/GPa) = 0.01850867
#
# Stress axis : x y z
#
# Youngs Moduli (GPa) = 46.10808 42.33787 58.07020
#
# Poissons Ratio (x) = 0.33081 0.35773
# Poissons Ratio (y) = 0.36026 0.46665
# Poissons Ratio (z) = 0.28404 0.34023
#
# Static dielectric constant tensor:
#      x y z
#    x 3.350380 0.000000 0.000000 
#    y 0.000000 3.234040 0.000000 
#    z 0.000000 0.000000 3.501350 
# 
# 
# High freq. dielectric constant tensor:
#      x y z
#    x 1.715930 0.000000 0.000000 
#    y 0.000000 1.701600 0.000000 
#    z 0.000000 0.000000 1.725820 
# 
# From -- ./inp_files/21961.got.cif
#   From: 2010.03.12/outbox.cif.g09.slc.cpg/sg47_11_cif.got.tgz:21961.got - 2010.04.14 03:12:58.
