data_PCOD8197923
_publ_section_title
;
Structure prediction by ZEFSAII (Michael W. Deem and Ramdas Pophale) SiO2 
 PCOD8197923
Probable space group: P M M M
;
_chemical_formula_sum "Si O2"
_cell_formula_units_Z 44
_cell_length_a 15.459437
_cell_length_b 8.857294
_cell_length_c 17.156646
_cell_angle_alpha 90.000000
_cell_angle_beta 90.000000
_cell_angle_gamma 90.000000
_cell_volume 2349.238581
_symmetry_space_group_name_H-M "P M M M"
_symmetry_group_IT_number 47
_symmetry_cell_setting 'orthorhombic'
loop_
_space_group_symop_operation_xyz
x,y,z
-x,-y,z
x,-y,-z
-x,y,-z
-x,-y,-z
x,y,-z
-x,y,z
x,-y,z
loop_
_atom_site_type_symbol
_atom_site_label
_atom_site_fract_x
_atom_site_fract_y
_atom_site_fract_z
Si Si1 0.343448 0.678272 0.500000
Si Si2 0.903611 0.673344 0.652046
Si Si3 0.156498 0.177016 0.500000
Si Si4 0.740822 0.323285 0.244210
Si Si5 0.000000 0.337147 0.091327
Si Si6 0.815088 0.680020 0.086053
Si Si7 0.402363 0.172935 0.345335
O O1 0.340897 0.500000 0.500000
O O2 0.246878 0.737836 0.500000
O O3 0.393727 0.732774 0.575955
O O4 0.889840 0.500000 0.626598
O O5 0.896916 0.777376 0.576132
O O6 0.831045 0.720971 0.714435
O O7 0.000000 0.696680 0.688201
O O8 0.173543 0.000000 0.500000
O O9 0.721534 0.500000 0.254132
O O10 0.746864 0.275157 0.152999
O O11 0.661568 0.231340 0.278969
O O12 0.909706 0.250603 0.110328
O O13 0.000000 0.500000 0.135518
O O14 0.000000 0.367552 0.000000
O O15 0.826274 0.500000 0.083967
O O16 0.784835 0.737993 0.000000
O O17 0.500000 0.190529 0.313870
O O18 0.379757 0.000000 0.364223
#
# Coordination Sequence:
#
# PCOD8197923 Si02
#       7
#     4   8   4   8   4   8   8
#     4  12  23  38  61  86 110 138 173 217 270 327
#     4  10  21  35  51  75 110 150 190 231 272 315
#     4  12  23  36  55  76 106 148 191 229 266 313
#     4  10  20  33  54  82 111 145 182 225 272 322
#     4   7  10  18  36  66 105 142 173 210 257 309
#     4   8  14  25  44  74 110 144 179 220 266 315
#     4  11  24  41  60  82 109 140 174 219 274 326
#
# _framework density 18.729472999999999
#
# number of rings (size 3 to 8) (size 9 to 14) (size 15 to 20)
#    0.000    2.091    1.818    3.818    1.273    4.000 
#    0.000    0.000    0.000    1.091    0.000    3.818 
#    0.000    2.182    0.000    0.000    0.000    0.000 
#
# Total GULP energy -545343.764322 kJ/mol
# GULP energy per Si atom -12394.176462 kJ/mol
# Density = 1.868684 g / cm^3
# Si number density = 18.729473 Si / 1000 Ang^3
#
#
#
# Elastic Constant Matrix: (Units=GPa)
#
#
# Indices 1 2 3 4 5 6 
#
# 1 122.9551 44.4758 57.1517 0.0000 0.0000 0.0000
# 2 44.4758 83.3240 40.1499 0.0000 0.0000 0.0000
# 3 57.1517 40.1499 122.3999 0.0000 0.0000 0.0000
# 4 0.0000 0.0000 0.0000 0.5837 0.0000 0.0000
# 5 0.0000 0.0000 0.0000 0.0000 34.0112 0.0000
# 6 0.0000 0.0000 0.0000 0.0000 0.0000 -0.1354
#
#
#
# Elastic Compliance Matrix: (Units=1/GPa)
#
#
# Indices 1 2 3 4 5 6 
#
# 1 0.011516 -0.004224 -0.003992 0.000000 0.000000 0.000000
# 2 -0.004224 0.015803 -0.003212 0.000000 0.000000 0.000000
# 3 -0.003992 -0.003212 0.011087 0.000000 0.000000 0.000000
# 4 0.000000 0.000000 0.000000 1.713353 0.000000 0.000000
# 5 0.000000 0.000000 0.000000 0.000000 0.029402 0.000000
# 6 0.000000 0.000000 0.000000 0.000000 0.000000 -7.383237
#
#
# Mechanical properties :
#
#
# Convention : Reuss Voigt Hill
#
# Bulk Modulus (GPa) = 64.29760 68.02600 66.16180
# Shear Modulus (GPa) = -0.89702 19.35198 9.22748
#
# Velocity S-wave (km/s) = -0.69280 3.21789 2.22203
# Velocity P-wave (km/s) = 5.81070 7.08559 6.47957
#
# Compressibility (1/GPa) = 0.01555268
#
# Stress axis : x y z
#
# Youngs Moduli (GPa) = 86.83354 63.27774 90.19279
#
# Poissons Ratio (x) = 0.26726 0.36003
# Poissons Ratio (y) = 0.36675 0.28968
# Poissons Ratio (z) = 0.34662 0.20323
#
# Static dielectric constant tensor:
#      x y z
#    x 3.503430 0.000000 0.000000 
#    y 0.000000 3.163660 0.000000 
#    z 0.000000 0.000000 3.559750 
# 
# 
# High freq. dielectric constant tensor:
#      x y z
#    x 1.722210 0.000000 0.000000 
#    y 0.000000 1.692570 0.000000 
#    z 0.000000 0.000000 1.722710 
# 
# From -- ./inp_files/9049.got.cif
#   From: 2010.03.12/outbox.cif.g09.slc.cpg/sg47_5_cif.got.tgz:9049.got - 2010.04.14 03:12:58.
