data_PCOD8197146
_publ_section_title
;
Structure prediction by ZEFSAII (Michael W. Deem and Ramdas Pophale) SiO2 
 PCOD8197146
Probable space group: P M M M
;
_chemical_formula_sum "Si O2"
_cell_formula_units_Z 44
_cell_length_a 9.111926
_cell_length_b 28.620370
_cell_length_c 9.607013
_cell_angle_alpha 90.000000
_cell_angle_beta 90.000000
_cell_angle_gamma 90.000000
_cell_volume 2505.381155
_symmetry_space_group_name_H-M "P M M M"
_symmetry_group_IT_number 47
_symmetry_cell_setting 'orthorhombic'
loop_
_space_group_symop_operation_xyz
x,y,z
-x,-y,z
x,-y,-z
-x,y,-z
-x,-y,-z
x,y,-z
-x,y,z
x,-y,z
loop_
_atom_site_type_symbol
_atom_site_label
_atom_site_fract_x
_atom_site_fract_y
_atom_site_fract_z
Si Si1 0.835579 0.551374 0.665156
Si Si2 0.675536 0.899912 0.656283
Si Si3 0.330522 0.641751 0.664262
Si Si4 0.660800 0.000000 0.665317
Si Si5 0.827452 0.279773 0.160495
Si Si6 0.330063 0.185350 0.838830
O O1 0.835983 0.550634 0.500000
O O2 0.785559 0.500000 0.720082
O O3 0.724497 0.591114 0.718244
O O4 0.000000 0.562572 0.719459
O O5 0.729142 0.888559 0.500000
O O6 0.500000 0.902867 0.660999
O O7 0.733925 0.859069 0.755962
O O8 0.739957 0.950820 0.707092
O O9 0.303980 0.647686 0.500000
O O10 0.500000 0.646697 0.703831
O O11 0.238974 0.680609 0.743080
O O12 0.500000 0.000000 0.735324
O O13 0.643269 0.000000 0.500000
O O14 0.759995 0.230586 0.208319
O O15 0.000000 0.277827 0.184056
O O16 0.786977 0.290183 0.000000
O O17 0.500000 0.194513 0.802869
O O18 0.306650 0.174277 0.000000
#
# Coordination Sequence:
#
# PCOD8197146 Si02
#       6
#     8   8   8   4   8   8
#     4   8  14  26  45  69  98 131 162 191 227 272
#     4   8  13  22  38  60  86 116 147 178 216 266
#     4  10  20  32  49  75 102 126 155 194 238 281
#     4   7  10  18  33  55  84 115 144 174 212 261
#     4  10  21  36  52  68  89 123 163 198 237 286
#     4   9  17  29  44  63  88 115 144 184 233 278
#
# _framework density 17.562199
#
# number of rings (size 3 to 8) (size 9 to 14) (size 15 to 20)
#    0.000    3.182    0.000    2.727    0.000    3.273 
#    0.000    4.091    0.000    3.273    0.000    4.455 
#    0.000    5.091    0.000    0.000    0.000    0.000 
#
# Total GULP energy -545245.364750 kJ/mol
# GULP energy per Si atom -12391.940108 kJ/mol
# Density = 1.752223 g / cm^3
# Si number density = 17.562199 Si / 1000 Ang^3
#
#
#
# Elastic Constant Matrix: (Units=GPa)
#
#
# Indices 1 2 3 4 5 6 
#
# 1 58.2655 56.4123 25.9418 0.0000 0.0000 0.0000
# 2 56.4123 180.4595 58.1264 0.0000 0.0000 0.0000
# 3 25.9418 58.1264 43.0364 0.0000 0.0000 0.0000
# 4 0.0000 0.0000 0.0000 -2.1833 0.0000 0.0000
# 5 0.0000 0.0000 0.0000 0.0000 16.4449 0.0000
# 6 0.0000 0.0000 0.0000 0.0000 0.0000 -0.8389
#
#
#
# Elastic Compliance Matrix: (Units=1/GPa)
#
#
# Indices 1 2 3 4 5 6 
#
# 1 0.026214 -0.005496 -0.008379 0.000000 0.000000 0.000000
# 2 -0.005496 0.010961 -0.011491 0.000000 0.000000 0.000000
# 3 -0.008379 -0.011491 0.043807 0.000000 0.000000 0.000000
# 4 0.000000 0.000000 0.000000 -0.458018 0.000000 0.000000
# 5 0.000000 0.000000 0.000000 0.000000 0.060809 0.000000
# 6 0.000000 0.000000 0.000000 0.000000 0.000000 -1.192104
#
#
# Mechanical properties :
#
#
# Convention : Reuss Voigt Hill
#
# Bulk Modulus (GPa) = 33.05714 62.52470 47.79092
# Shear Modulus (GPa) = -3.45419 12.10327 4.32454
#
# Velocity S-wave (km/s) = -1.40396 2.62804 1.57091
# Velocity P-wave (km/s) = 4.02934 6.69985 5.52827
#
# Compressibility (1/GPa) = 0.03025065
#
# Stress axis : x y z
#
# Youngs Moduli (GPa) = 38.14692 91.23456 22.82740
#
# Poissons Ratio (x) = 0.50142 0.19127
# Poissons Ratio (y) = 0.20965 0.26231
# Poissons Ratio (z) = 0.31962 1.04839
#
# Static dielectric constant tensor:
#      x y z
#    x 3.038310 0.000000 0.000000 
#    y 0.000000 3.803040 0.000000 
#    z 0.000000 0.000000 2.997500 
# 
# 
# High freq. dielectric constant tensor:
#      x y z
#    x 1.647480 0.000000 0.000000 
#    y 0.000000 1.701410 0.000000 
#    z 0.000000 0.000000 1.642640 
# 
# From -- ./inp_files/2072.got.cif
#   From: 2010.03.12/outbox.cif.g09.slc.cpg/sg47_2_cif.got.tgz:2072.got - 2010.04.14 03:12:58.
