data_PCOD8197211
_publ_section_title
;
Structure prediction by ZEFSAII (Michael W. Deem and Ramdas Pophale) SiO2 
 PCOD8197211
Probable space group: P M M M
;
_chemical_formula_sum "Si O2"
_cell_formula_units_Z 48
_cell_length_a 9.408639
_cell_length_b 30.325825
_cell_length_c 9.208984
_cell_angle_alpha 90.000000
_cell_angle_beta 90.000000
_cell_angle_gamma 90.000000
_cell_volume 2627.550964
_symmetry_space_group_name_H-M "P M M M"
_symmetry_group_IT_number 47
_symmetry_cell_setting 'orthorhombic'
loop_
_space_group_symop_operation_xyz
x,y,z
-x,-y,z
x,-y,-z
-x,y,-z
-x,-y,-z
x,y,-z
-x,y,z
x,-y,z
loop_
_atom_site_type_symbol
_atom_site_label
_atom_site_fract_x
_atom_site_fract_y
_atom_site_fract_z
Si Si1 0.837306 0.051108 0.332826
Si Si2 0.837071 0.449158 0.832946
Si Si3 0.664449 0.123080 0.171042
Si Si4 0.842779 0.703577 0.672433
Si Si5 0.166313 0.197724 0.668106
Si Si6 0.339043 0.622615 0.327569
O O1 0.811312 0.064040 0.500000
O O2 0.732361 0.078571 0.232639
O O3 0.000000 0.061686 0.290575
O O4 0.803413 0.000000 0.306853
O O5 0.799380 0.500000 0.804867
O O6 0.736559 0.420636 0.731718
O O7 0.000000 0.439770 0.790787
O O8 0.809922 0.436800 0.000000
O O9 0.500000 0.124406 0.215759
O O10 0.741125 0.165634 0.234945
O O11 0.685456 0.123222 0.000000
O O12 0.848572 0.701800 0.500000
O O13 0.794401 0.752606 0.718717
O O14 0.735342 0.666903 0.734121
O O15 0.000000 0.693394 0.734857
O O16 0.205337 0.190293 0.500000
O O17 0.000000 0.188373 0.693309
O O18 0.330510 0.621124 0.500000
O O19 0.500000 0.623194 0.271657
#
# Coordination Sequence:
#
# PCOD8197211 Si02
#       6
#     8   8   8   8   8   8
#     4   9  19  37  60  83 104 129 168 216 259 302
#     4   9  19  36  55  73  95 128 172 216 254 297
#     4  11  24  37  49  73 110 145 174 207 250 301
#     4   8  15  30  52  76 101 130 166 209 254 298
#     4   9  18  34  57  81 101 127 170 218 257 298
#     4  10  20  32  49  77 109 136 164 202 250 305
#
# _framework density 18.267959999999999
#
# number of rings (size 3 to 8) (size 9 to 14) (size 15 to 20)
#    0.000    2.667    0.000    3.500    0.000    7.333 
#    0.000    7.500    0.000    1.000    0.000    0.000 
#    0.000    0.000    0.000    0.000    0.000    0.000 
#
# Total GULP energy -595193.202704 kJ/mol
# GULP energy per Si atom -12399.858390 kJ/mol
# Density = 1.822638 g / cm^3
# Si number density = 18.267960 Si / 1000 Ang^3
#
#
#
# Elastic Constant Matrix: (Units=GPa)
#
#
# Indices 1 2 3 4 5 6 
#
# 1 125.3206 81.8682 49.4235 0.0000 0.0000 0.0000
# 2 81.8682 124.6354 42.4732 0.0000 0.0000 0.0000
# 3 49.4235 42.4732 47.6480 0.0000 0.0000 0.0000
# 4 0.0000 0.0000 0.0000 -3.7127 0.0000 0.0000
# 5 0.0000 0.0000 0.0000 0.0000 28.7256 0.0000
# 6 0.0000 0.0000 0.0000 0.0000 0.0000 5.6724
#
#
#
# Elastic Compliance Matrix: (Units=1/GPa)
#
#
# Indices 1 2 3 4 5 6 
#
# 1 0.017368 -0.007568 -0.011269 0.000000 0.000000 0.000000
# 2 -0.007568 0.014822 -0.005362 0.000000 0.000000 0.000000
# 3 -0.011269 -0.005362 0.037456 0.000000 0.000000 0.000000
# 4 0.000000 0.000000 0.000000 -0.269348 0.000000 0.000000
# 5 0.000000 0.000000 0.000000 0.000000 0.034812 0.000000
# 6 0.000000 0.000000 0.000000 0.000000 0.000000 0.176293
#
#
# Mechanical properties :
#
#
# Convention : Reuss Voigt Hill
#
# Bulk Modulus (GPa) = 47.06454 71.68155 59.37304
# Shear Modulus (GPa) = 74.75880 14.39300 44.57590
#
# Velocity S-wave (km/s) = 6.40408 2.80997 4.94511
# Velocity P-wave (km/s) = 8.97231 7.06060 8.07324
#
# Compressibility (1/GPa) = 0.02124742
#
# Stress axis : x y z
#
# Youngs Moduli (GPa) = 57.57870 67.46819 26.69826
#
# Poissons Ratio (x) = 0.51059 0.30085
# Poissons Ratio (y) = 0.43575 0.14316
# Poissons Ratio (z) = 0.64884 0.36177
#
# Static dielectric constant tensor:
#      x y z
#    x 3.474480 0.000000 0.000000 
#    y 0.000000 3.497120 0.000000 
#    z 0.000000 0.000000 3.095830 
# 
# 
# High freq. dielectric constant tensor:
#      x y z
#    x 1.707960 0.000000 0.000000 
#    y 0.000000 1.723160 0.000000 
#    z 0.000000 0.000000 1.683020 
# 
# From -- ./inp_files/2487.got.cif
#   From: 2010.03.12/outbox.cif.g09.slc.cpg/sg47_2_cif.got.tgz:2487.got - 2010.04.14 03:12:58.
