data_PCOD8197029
_publ_section_title
;
Structure prediction by ZEFSAII (Michael W. Deem and Ramdas Pophale) SiO2 
 PCOD8197029
Probable space group: P M M M
;
_chemical_formula_sum "Si O2"
_cell_formula_units_Z 48
_cell_length_a 9.330978
_cell_length_b 30.843791
_cell_length_c 9.399093
_cell_angle_alpha 90.000000
_cell_angle_beta 90.000000
_cell_angle_gamma 90.000000
_cell_volume 2705.084674
_symmetry_space_group_name_H-M "P M M M"
_symmetry_group_IT_number 47
_symmetry_cell_setting 'orthorhombic'
loop_
_space_group_symop_operation_xyz
x,y,z
-x,-y,z
x,-y,-z
-x,y,-z
-x,-y,-z
x,y,-z
-x,y,z
x,-y,z
loop_
_atom_site_type_symbol
_atom_site_label
_atom_site_fract_x
_atom_site_fract_y
_atom_site_fract_z
Si Si1 0.331216 0.870661 0.334303
Si Si2 0.329964 0.952149 0.840795
Si Si3 0.658918 0.285810 0.831218
Si Si4 0.330643 0.618785 0.840401
Si Si5 0.837097 0.548842 0.666857
Si Si6 0.832722 0.203296 0.833158
O O1 0.293278 0.869984 0.500000
O O2 0.500000 0.864301 0.307249
O O3 0.275025 0.916321 0.270458
O O4 0.247116 0.833103 0.255401
O O5 0.500000 0.952979 0.840397
O O6 0.272532 0.000000 0.796157
O O7 0.275152 0.940577 0.000000
O O8 0.500000 0.274746 0.770417
O O9 0.710401 0.333409 0.779175
O O10 0.771434 0.249580 0.780899
O O11 0.649392 0.287583 0.000000
O O12 0.500000 0.613753 0.840233
O O13 0.266441 0.582149 0.742123
O O14 0.270145 0.612956 0.000000
O O15 0.815319 0.553835 0.500000
O O16 0.797404 0.500000 0.714502
O O17 0.000000 0.559298 0.709844
O O18 0.000000 0.202104 0.798086
O O19 0.802446 0.195839 0.000000
#
# Coordination Sequence:
#
# PCOD8197029 Si02
#       6
#     8   8   8   8   8   8
#     4  10  20  32  48  72 101 133 166 199 240 289
#     4   8  14  26  46  72  99 126 159 200 243 286
#     4   8  15  30  51  73  98 127 158 196 243 292
#     4   9  18  32  51  77 104 126 154 197 247 296
#     4   9  19  35  51  68  95 132 171 206 239 281
#     4  10  20  33  51  74  97 125 164 205 243 286
#
# _framework density 17.744361000000001
#
# number of rings (size 3 to 8) (size 9 to 14) (size 15 to 20)
#    0.000    3.000    0.000    3.000    0.000    4.333 
#    0.000    6.667    0.000    1.500    0.000    3.500 
#    0.000    0.000    0.000    0.000    0.000    0.000 
#
# Total GULP energy -594978.919987 kJ/mol
# GULP energy per Si atom -12395.394166 kJ/mol
# Density = 1.770397 g / cm^3
# Si number density = 17.744361 Si / 1000 Ang^3
#
#
#
# Elastic Constant Matrix: (Units=GPa)
#
#
# Indices 1 2 3 4 5 6 
#
# 1 55.0334 61.0334 38.4907 0.0000 0.0000 0.0000
# 2 61.0334 164.8383 67.3016 0.0000 0.0000 0.0000
# 3 38.4907 67.3016 64.9156 0.0000 0.0000 0.0000
# 4 0.0000 0.0000 0.0000 -17.9838 0.0000 0.0000
# 5 0.0000 0.0000 0.0000 0.0000 23.6620 0.0000
# 6 0.0000 0.0000 0.0000 0.0000 0.0000 -9.2591
#
#
#
# Elastic Compliance Matrix: (Units=1/GPa)
#
#
# Indices 1 2 3 4 5 6 
#
# 1 0.036344 -0.008077 -0.013175 0.000000 0.000000 0.000000
# 2 -0.008077 0.012315 -0.007978 0.000000 0.000000 0.000000
# 3 -0.013175 -0.007978 0.031488 0.000000 0.000000 0.000000
# 4 0.000000 0.000000 0.000000 -0.055606 0.000000 0.000000
# 5 0.000000 0.000000 0.000000 0.000000 0.042262 0.000000
# 6 0.000000 0.000000 0.000000 0.000000 0.000000 -0.108002
#
#
# Mechanical properties :
#
#
# Convention : Reuss Voigt Hill
#
# Bulk Modulus (GPa) = 46.11442 68.71542 57.41492
# Shear Modulus (GPa) = 204.16917 7.14792 105.65854
#
# Velocity S-wave (km/s) = 10.73831 2.00923 7.72490
# Velocity P-wave (km/s) = 13.40869 6.64770 10.58265
#
# Compressibility (1/GPa) = 0.02168519
#
# Stress axis : x y z
#
# Youngs Moduli (GPa) = 27.51513 81.20450 31.75849
#
# Poissons Ratio (x) = 0.65593 0.41842
# Poissons Ratio (y) = 0.22225 0.25336
# Poissons Ratio (z) = 0.36251 0.64784
#
# Static dielectric constant tensor:
#      x y z
#    x 3.092400 0.000000 0.000000 
#    y 0.000000 3.671510 0.000000 
#    z 0.000000 0.000000 3.135860 
# 
# 
# High freq. dielectric constant tensor:
#      x y z
#    x 1.662330 0.000000 0.000000 
#    y 0.000000 1.703590 0.000000 
#    z 0.000000 0.000000 1.664050 
# 
# From -- ./inp_files/2510.got.cif
#   From: 2010.03.12/outbox.cif.g09.slc.cpg/sg47_2_cif.got.tgz:2510.got - 2010.04.14 03:12:58.
