data_PCOD8197608
_publ_section_title
;
Structure prediction by ZEFSAII (Michael W. Deem and Ramdas Pophale) SiO2 
 PCOD8197608
Probable space group: P M M M
;
_chemical_formula_sum "Si O2"
_cell_formula_units_Z 48
_cell_length_a 9.065030
_cell_length_b 17.803703
_cell_length_c 15.286238
_cell_angle_alpha 90.000000
_cell_angle_beta 90.000000
_cell_angle_gamma 90.000000
_cell_volume 2467.062793
_symmetry_space_group_name_H-M "P M M M"
_symmetry_group_IT_number 47
_symmetry_cell_setting 'orthorhombic'
loop_
_space_group_symop_operation_xyz
x,y,z
-x,-y,z
x,-y,-z
-x,y,-z
-x,-y,-z
x,y,-z
-x,y,z
x,-y,z
loop_
_atom_site_type_symbol
_atom_site_label
_atom_site_fract_x
_atom_site_fract_y
_atom_site_fract_z
Si Si1 0.333700 0.716149 0.319705
Si Si2 0.166547 0.587914 0.000000
Si Si3 0.837110 0.582397 0.602310
Si Si4 0.335615 0.312154 0.122541
Si Si5 0.173923 0.869815 0.711300
Si Si6 0.830586 0.161349 0.095390
Si Si7 0.675029 0.000000 0.397255
O O1 0.500000 0.739605 0.348426
O O2 0.274965 0.650132 0.380663
O O3 0.334772 0.679317 0.225330
O O4 0.227384 0.788248 0.320369
O O5 0.244315 0.618063 0.086794
O O6 0.179229 0.500000 0.000000
O O7 0.000000 0.616556 0.000000
O O8 0.852416 0.576089 0.500000
O O9 0.782604 0.500000 0.637791
O O10 0.000000 0.600127 0.642340
O O11 0.500000 0.314936 0.084640
O O12 0.266852 0.234872 0.089782
O O13 0.211339 0.884668 0.815472
O O14 0.000000 0.877723 0.694367
O O15 0.259300 0.927964 0.650930
O O16 0.000000 0.185926 0.105624
O O17 0.808667 0.118591 0.000000
O O18 0.500000 0.000000 0.386256
O O19 0.719233 0.000000 0.500000
#
# Coordination Sequence:
#
# PCOD8197608 Si02
#       7
#     8   4   8   8   8   8   4
#     4  10  21  36  56  84 116 148 186 234 286 343
#     4  11  23  35  47  67  99 142 191 238 283 335
#     4   9  19  36  56  78 106 142 186 237 291 345
#     4  10  20  33  50  74 104 140 182 227 277 330
#     4  10  21  38  62  91 119 152 196 239 284 347
#     4   9  17  32  57  86 115 147 183 226 276 331
#     4  11  25  45  66  87 118 158 195 241 300 351
#
# _framework density 19.456336
#
# number of rings (size 3 to 8) (size 9 to 14) (size 15 to 20)
#    0.000    2.167    0.833    2.500    0.000    6.000 
#    0.000    4.583    0.000    2.500    0.000    0.000 
#    0.000    0.000    0.000    0.000    0.000    0.000 
#
# Total GULP energy -594751.946973 kJ/mol
# GULP energy per Si atom -12390.665562 kJ/mol
# Density = 1.941205 g / cm^3
# Si number density = 19.456336 Si / 1000 Ang^3
#
#
#
# Elastic Constant Matrix: (Units=GPa)
#
#
# Indices 1 2 3 4 5 6 
#
# 1 117.2495 51.0665 49.9416 0.0000 0.0000 0.0000
# 2 51.0665 87.2309 51.6286 0.0000 0.0000 0.0000
# 3 49.9416 51.6286 104.2937 0.0000 0.0000 0.0000
# 4 0.0000 0.0000 0.0000 -13.2613 0.0000 0.0000
# 5 0.0000 0.0000 0.0000 0.0000 39.3665 0.0000
# 6 0.0000 0.0000 0.0000 0.0000 0.0000 51.2613
#
#
#
# Elastic Compliance Matrix: (Units=1/GPa)
#
#
# Indices 1 2 3 4 5 6 
#
# 1 0.012183 -0.005204 -0.003258 0.000000 0.000000 0.000000
# 2 -0.005204 0.018437 -0.006635 0.000000 0.000000 0.000000
# 3 -0.003258 -0.006635 0.014433 0.000000 0.000000 0.000000
# 4 0.000000 0.000000 0.000000 -0.075407 0.000000 0.000000
# 5 0.000000 0.000000 0.000000 0.000000 0.025402 0.000000
# 6 0.000000 0.000000 0.000000 0.000000 0.000000 0.019508
#
#
# Mechanical properties :
#
#
# Convention : Reuss Voigt Hill
#
# Bulk Modulus (GPa) = 67.29682 68.22749 67.76215
# Shear Modulus (GPa) = 100.59744 25.88246 63.23995
#
# Velocity S-wave (km/s) = 7.19836 3.65126 5.70737
# Velocity P-wave (km/s) = 10.18589 7.27453 8.85074
#
# Compressibility (1/GPa) = 0.01485954
#
# Stress axis : x y z
#
# Youngs Moduli (GPa) = 82.08184 54.23766 69.28621
#
# Poissons Ratio (x) = 0.28225 0.22572
# Poissons Ratio (y) = 0.42715 0.45972
# Poissons Ratio (z) = 0.26740 0.35987
#
# Static dielectric constant tensor:
#      x y z
#    x 3.810270 0.000000 0.000000 
#    y 0.000000 3.328830 0.000000 
#    z 0.000000 0.000000 1.107920 
# 
# 
# High freq. dielectric constant tensor:
#      x y z
#    x 1.767670 0.000000 0.000000 
#    y 0.000000 1.736980 0.000000 
#    z 0.000000 0.000000 1.763750 
# 
# From -- ./inp_files/21110.got.cif
#   From: 2010.03.12/outbox.cif.g09.slc.cpg/sg47_11_cif.got.tgz:21110.got - 2010.04.14 03:12:58.
