data_PCOD8197454
_publ_section_title
;
Structure prediction by ZEFSAII (Michael W. Deem and Ramdas Pophale) SiO2 
 PCOD8197454
Probable space group: P M M M
;
_chemical_formula_sum "Si O2"
_cell_formula_units_Z 52
_cell_length_a 9.285620
_cell_length_b 26.532969
_cell_length_c 13.462577
_cell_angle_alpha 90.000000
_cell_angle_beta 90.000000
_cell_angle_gamma 90.000000
_cell_volume 3316.843319
_symmetry_space_group_name_H-M "P M M M"
_symmetry_group_IT_number 47
_symmetry_cell_setting 'orthorhombic'
loop_
_space_group_symop_operation_xyz
x,y,z
-x,-y,z
x,-y,-z
-x,y,-z
-x,-y,-z
x,y,-z
-x,y,z
x,-y,z
loop_
_atom_site_type_symbol
_atom_site_label
_atom_site_fract_x
_atom_site_fract_y
_atom_site_fract_z
Si Si1 0.832417 0.349742 0.615566
Si Si2 0.167175 0.244981 0.696630
Si Si3 0.664762 0.845779 0.389127
Si Si4 0.836054 0.187698 0.110807
Si Si5 0.170274 0.000000 0.116744
Si Si6 0.662472 0.555142 0.381943
Si Si7 0.669311 0.903118 0.804957
O O1 0.795421 0.342533 0.500000
O O2 0.772571 0.300656 0.673341
O O3 0.757938 0.399470 0.661587
O O4 0.000000 0.357191 0.633770
O O5 0.242232 0.204014 0.627190
O O6 0.196430 0.232837 0.812473
O O7 0.000000 0.242903 0.668802
O O8 0.694229 0.866895 0.500000
O O9 0.500000 0.829263 0.375178
O O10 0.702220 0.889642 0.310251
O O11 0.725303 0.142175 0.126311
O O12 0.000000 0.167709 0.125942
O O13 0.814583 0.209273 0.000000
O O14 0.241338 0.047811 0.168440
O O15 0.000000 0.000000 0.136316
O O16 0.205157 0.000000 0.000000
O O17 0.669901 0.556439 0.500000
O O18 0.500000 0.563313 0.344986
O O19 0.718474 0.500000 0.345244
O O20 0.500000 0.911836 0.824695
#
# Coordination Sequence:
#
# PCOD8197454 Si02
#       7
#     8   8   8   8   4   8   8
#     4   9  16  24  35  54  80 108 137 169 204 240
#     4   9  17  28  42  62  87 113 143 176 207 245
#     4   9  18  32  48  66  89 116 144 172 204 244
#     4   9  17  30  47  65  87 115 142 169 207 252
#     4  11  23  37  52  69  90 114 139 171 212 255
#     4   8  14  24  36  50  71 102 138 171 203 242
#     4  10  20  33  50  71  91 112 140 173 208 246
#
# _framework density 15.677555999999999
#
# number of rings (size 3 to 8) (size 9 to 14) (size 15 to 20)
#    0.000    2.846    0.000    2.077    0.000    5.231 
#    0.000    3.462    0.000    2.308    0.000    0.000 
#    0.000    0.615    0.000    7.692    0.000    1.538 
#
# Total GULP energy -644600.612966 kJ/mol
# GULP energy per Si atom -12396.165634 kJ/mol
# Density = 1.564187 g / cm^3
# Si number density = 15.677556 Si / 1000 Ang^3
#
#
#
# Elastic Constant Matrix: (Units=GPa)
#
#
# Indices 1 2 3 4 5 6 
#
# 1 64.9930 60.8877 35.5128 0.0000 0.0000 0.0000
# 2 60.8877 144.4097 52.6611 0.0000 0.0000 0.0000
# 3 35.5128 52.6611 86.3675 0.0000 0.0000 0.0000
# 4 0.0000 0.0000 0.0000 14.7853 0.0000 0.0000
# 5 0.0000 0.0000 0.0000 0.0000 17.1785 0.0000
# 6 0.0000 0.0000 0.0000 0.0000 0.0000 20.6531
#
#
#
# Elastic Compliance Matrix: (Units=1/GPa)
#
#
# Indices 1 2 3 4 5 6 
#
# 1 0.027260 -0.009524 -0.005402 0.000000 0.000000 0.000000
# 2 -0.009524 0.012232 -0.003542 0.000000 0.000000 0.000000
# 3 -0.005402 -0.003542 0.015959 0.000000 0.000000 0.000000
# 4 0.000000 0.000000 0.000000 0.067635 0.000000 0.000000
# 5 0.000000 0.000000 0.000000 0.000000 0.058212 0.000000
# 6 0.000000 0.000000 0.000000 0.000000 0.000000 0.048419
#
#
# Mechanical properties :
#
#
# Convention : Reuss Voigt Hill
#
# Bulk Modulus (GPa) = 54.00835 65.98816 59.99826
# Shear Modulus (GPa) = 18.32673 20.30395 19.31534
#
# Velocity S-wave (km/s) = 3.42274 3.60265 3.51385
# Velocity P-wave (km/s) = 7.08128 7.71282 7.40379
#
# Compressibility (1/GPa) = 0.01851565
#
# Stress axis : x y z
#
# Youngs Moduli (GPa) = 36.68345 81.75256 62.65897
#
# Poissons Ratio (x) = 0.77860 0.33848
# Poissons Ratio (y) = 0.34937 0.22195
# Poissons Ratio (z) = 0.19816 0.28959
#
# Static dielectric constant tensor:
#      x y z
#    x 3.078910 0.000000 0.000000 
#    y 0.000000 3.165830 0.000000 
#    z 0.000000 0.000000 2.926470 
# 
# 
# High freq. dielectric constant tensor:
#      x y z
#    x 1.606190 0.000000 0.000000 
#    y 0.000000 1.594930 0.000000 
#    z 0.000000 0.000000 1.575830 
# 
# From -- ./inp_files/21745.got.cif
#   From: 2010.03.12/outbox.cif.g09.slc.cpg/sg47_11_cif.got.tgz:21745.got - 2010.04.14 03:12:58.
