data_PCOD8197918
_publ_section_title
;
Structure prediction by ZEFSAII (Michael W. Deem and Ramdas Pophale) SiO2 
 PCOD8197918
Probable space group: P M M M
;
_chemical_formula_sum "Si O2"
_cell_formula_units_Z 40
_cell_length_a 26.917341
_cell_length_b 8.083318
_cell_length_c 9.362381
_cell_angle_alpha 90.000000
_cell_angle_beta 90.000000
_cell_angle_gamma 90.000000
_cell_volume 2037.080218
_symmetry_space_group_name_H-M "P M M M"
_symmetry_group_IT_number 47
_symmetry_cell_setting 'orthorhombic'
loop_
_space_group_symop_operation_xyz
x,y,z
-x,-y,z
x,-y,-z
-x,y,-z
-x,-y,-z
x,y,-z
-x,y,z
x,-y,z
loop_
_atom_site_type_symbol
_atom_site_label
_atom_site_fract_x
_atom_site_fract_y
_atom_site_fract_z
Si Si1 0.409555 0.690264 0.159432
Si Si2 0.679654 0.194670 0.338221
Si Si3 0.944277 0.000000 0.830202
Si Si4 0.500000 0.189839 0.656037
Si Si5 0.881717 0.314700 0.166505
Si Si6 0.792464 0.189568 0.666079
O O1 0.423147 0.500000 0.148956
O O2 0.355499 0.711520 0.228262
O O3 0.450761 0.773425 0.256259
O O4 0.409835 0.768412 0.000000
O O5 0.666768 0.249068 0.500000
O O6 0.736111 0.244264 0.301373
O O7 0.671935 0.000000 0.321811
O O8 0.917704 0.168689 0.774716
O O9 0.000000 0.000000 0.767584
O O10 0.945735 0.000000 0.000000
O O11 0.500000 0.281369 0.500000
O O12 0.500000 0.000000 0.622289
O O13 0.904066 0.500000 0.194153
O O14 0.828817 0.305314 0.244165
O O15 0.872267 0.286645 0.000000
O O16 0.804493 0.212057 0.500000
O O17 0.800622 0.000000 0.712658
#
# Coordination Sequence:
#
# PCOD8197918 Si02
#       6
#     8   8   4   4   8   8
#     4  11  24  39  55  80 113 144 177 220 270 324
#     4   9  19  36  57  81 108 141 184 226 265 319
#     4   9  18  34  55  79 111 149 187 232 285 334
#     4  11  24  41  62  84 104 133 178 227 272 326
#     4  10  20  33  53  82 112 144 186 233 281 337
#     4   9  18  34  56  80 109 147 187 228 276 330
#
# _framework density 19.635947000000002
#
# number of rings (size 3 to 8) (size 9 to 14) (size 15 to 20)
#    0.000    2.200    1.000    3.000    0.000    8.800 
#    0.000    8.000    0.000    1.200    0.000    1.400 
#    0.000    0.000    0.000    0.000    0.000    0.000 
#
# Total GULP energy -495934.610701 kJ/mol
# GULP energy per Si atom -12398.365268 kJ/mol
# Density = 1.959125 g / cm^3
# Si number density = 19.635947 Si / 1000 Ang^3
#
#
#
# Elastic Constant Matrix: (Units=GPa)
#
#
# Indices 1 2 3 4 5 6 
#
# 1 126.4785 48.9811 59.6401 0.0000 0.0000 0.0000
# 2 48.9811 94.5040 37.1871 0.0000 0.0000 0.0000
# 3 59.6401 37.1871 98.6515 0.0000 0.0000 0.0000
# 4 0.0000 0.0000 0.0000 25.5200 0.0000 0.0000
# 5 0.0000 0.0000 0.0000 0.0000 8.9145 0.0000
# 6 0.0000 0.0000 0.0000 0.0000 0.0000 6.0924
#
#
#
# Elastic Compliance Matrix: (Units=1/GPa)
#
#
# Indices 1 2 3 4 5 6 
#
# 1 0.012240 -0.004030 -0.005881 0.000000 0.000000 0.000000
# 2 -0.004030 0.013751 -0.002747 0.000000 0.000000 0.000000
# 3 -0.005881 -0.002747 0.014728 0.000000 0.000000 0.000000
# 4 0.000000 0.000000 0.000000 0.039185 0.000000 0.000000
# 5 0.000000 0.000000 0.000000 0.000000 0.112176 0.000000
# 6 0.000000 0.000000 0.000000 0.000000 0.000000 0.164140
#
#
# Mechanical properties :
#
#
# Convention : Reuss Voigt Hill
#
# Bulk Modulus (GPa) = 64.92225 67.91672 66.41949
# Shear Modulus (GPa) = 12.93092 19.69375 16.31233
#
# Velocity S-wave (km/s) = 2.56897 3.17036 2.88538
# Velocity P-wave (km/s) = 6.47566 6.93287 6.70816
#
# Compressibility (1/GPa) = 0.01540304
#
# Stress axis : x y z
#
# Youngs Moduli (GPa) = 81.69812 72.72014 67.90014
#
# Poissons Ratio (x) = 0.29306 0.39930
# Poissons Ratio (y) = 0.32924 0.18654
# Poissons Ratio (z) = 0.48044 0.19978
#
# Static dielectric constant tensor:
#      x y z
#    x 3.654720 0.000000 0.000000 
#    y 0.000000 3.578370 0.000000 
#    z 0.000000 0.000000 3.603370 
# 
# 
# High freq. dielectric constant tensor:
#      x y z
#    x 1.763580 0.000000 0.000000 
#    y 0.000000 1.764430 0.000000 
#    z 0.000000 0.000000 1.754330 
# 
# From -- ./inp_files/13052.got.cif
#   From: 2010.03.12/outbox.cif.g09.slc.cpg/sg47_7_cif.got.tgz:13052.got - 2010.04.14 03:12:58.
