data_PCOD8197630
_publ_section_title
;
Structure prediction by ZEFSAII (Michael W. Deem and Ramdas Pophale) SiO2 
 PCOD8197630
Probable space group: P M M M
;
_chemical_formula_sum "Si O2"
_cell_formula_units_Z 28
_cell_length_a 7.465493
_cell_length_b 15.631714
_cell_length_c 13.304235
_cell_angle_alpha 90.000000
_cell_angle_beta 90.000000
_cell_angle_gamma 90.000000
_cell_volume 1552.583622
_symmetry_space_group_name_H-M "P M M M"
_symmetry_group_IT_number 47
_symmetry_cell_setting 'orthorhombic'
loop_
_space_group_symop_operation_xyz
x,y,z
-x,-y,z
x,-y,-z
-x,y,-z
-x,-y,-z
x,y,-z
-x,y,z
x,-y,z
loop_
_atom_site_type_symbol
_atom_site_label
_atom_site_fract_x
_atom_site_fract_y
_atom_site_fract_z
Si Si1 0.000000 0.899889 0.192047
Si Si2 0.288431 0.500000 0.612905
Si Si3 0.295937 0.219867 0.887168
Si Si4 0.708157 0.679705 0.305795
Si Si5 0.000000 0.199559 0.387847
O O1 0.175431 0.861336 0.139666
O O2 0.000000 0.879457 0.310756
O O3 0.000000 0.000000 0.174102
O O4 0.500000 0.500000 0.606089
O O5 0.207224 0.500000 0.500000
O O6 0.223230 0.583558 0.673446
O O7 0.500000 0.188617 0.876568
O O8 0.256964 0.298862 0.811731
O O9 0.254277 0.252229 0.000000
O O10 0.500000 0.690950 0.335283
O O11 0.821960 0.743834 0.373976
O O12 0.000000 0.161566 0.500000
#
# Coordination Sequence:
#
# PCOD8197630 Si02
#       5
#     4   4   8   8   4
#     4  10  21  35  51  73  98 121 152 198 243 284
#     4   9  16  27  46  70  96 128 163 199 236 270
#     4   9  18  33  52  72  96 127 159 192 235 286
#     4   9  18  32  48  70 100 128 159 199 236 274
#     4  10  20  33  51  71  92 127 164 191 234 289
#
# _framework density 18.034455000000001
#
# number of rings (size 3 to 8) (size 9 to 14) (size 15 to 20)
#    0.000    2.714    0.000    1.286    0.000    4.286 
#    0.000    3.571    0.000    4.286    0.000   14.000 
#    0.000    0.000    0.000    0.000    0.000    0.000 
#
# Total GULP energy -347137.165570 kJ/mol
# GULP energy per Si atom -12397.755913 kJ/mol
# Density = 1.799341 g / cm^3
# Si number density = 18.034455 Si / 1000 Ang^3
#
#
#
# Elastic Constant Matrix: (Units=GPa)
#
#
# Indices 1 2 3 4 5 6 
#
# 1 74.6405 31.7036 39.4545 0.0000 0.0000 0.0000
# 2 31.7036 119.1372 60.9278 0.0000 0.0000 0.0000
# 3 39.4545 60.9278 154.3067 0.0000 0.0000 0.0000
# 4 0.0000 0.0000 0.0000 15.6995 0.0000 0.0000
# 5 0.0000 0.0000 0.0000 0.0000 16.3276 0.0000
# 6 0.0000 0.0000 0.0000 0.0000 0.0000 19.0514
#
#
#
# Elastic Compliance Matrix: (Units=1/GPa)
#
#
# Indices 1 2 3 4 5 6 
#
# 1 0.016177 -0.002743 -0.003053 0.000000 0.000000 0.000000
# 2 -0.002743 0.010983 -0.003635 0.000000 0.000000 0.000000
# 3 -0.003053 -0.003635 0.008696 0.000000 0.000000 0.000000
# 4 0.000000 0.000000 0.000000 0.063696 0.000000 0.000000
# 5 0.000000 0.000000 0.000000 0.000000 0.061246 0.000000
# 6 0.000000 0.000000 0.000000 0.000000 0.000000 0.052490
#
#
# Mechanical properties :
#
#
# Convention : Reuss Voigt Hill
#
# Bulk Modulus (GPa) = 58.84785 68.02844 63.43815
# Shear Modulus (GPa) = 21.02475 24.61560 22.82017
#
# Velocity S-wave (km/s) = 3.41810 3.69849 3.56106
# Velocity P-wave (km/s) = 6.94835 7.48610 7.22223
#
# Compressibility (1/GPa) = 0.01699297
#
# Stress axis : x y z
#
# Youngs Moduli (GPa) = 61.81767 91.05196 114.98887
#
# Poissons Ratio (x) = 0.24980 0.35105
# Poissons Ratio (y) = 0.16959 0.41799
# Poissons Ratio (z) = 0.18872 0.33098
#
# Static dielectric constant tensor:
#      x y z
#    x 3.448360 0.000000 0.000000 
#    y 0.000000 3.118850 0.000000 
#    z 0.000000 0.000000 3.535200 
# 
# 
# High freq. dielectric constant tensor:
#      x y z
#    x 1.710380 0.000000 0.000000 
#    y 0.000000 1.669030 0.000000 
#    z 0.000000 0.000000 1.704760 
# 
# From -- ./inp_files/14597.got.cif
#   From: 2010.03.12/outbox.cif.g09.slc.cpg/sg47_8_cif.got.tgz:14597.got - 2010.04.14 03:12:58.
