data_PCOD8197771
_publ_section_title
;
Structure prediction by ZEFSAII (Michael W. Deem and Ramdas Pophale) SiO2 
 PCOD8197771
Probable space group: P M M M
;
_chemical_formula_sum "Si O2"
_cell_formula_units_Z 64
_cell_length_a 20.757210
_cell_length_b 19.428109
_cell_length_c 8.856920
_cell_angle_alpha 90.000000
_cell_angle_beta 90.000000
_cell_angle_gamma 90.000000
_cell_volume 3571.759696
_symmetry_space_group_name_H-M "P M M M"
_symmetry_group_IT_number 47
_symmetry_cell_setting 'orthorhombic'
loop_
_space_group_symop_operation_xyz
x,y,z
-x,-y,z
x,-y,-z
-x,y,-z
-x,-y,-z
x,y,-z
-x,y,z
x,-y,z
loop_
_atom_site_type_symbol
_atom_site_label
_atom_site_fract_x
_atom_site_fract_y
_atom_site_fract_z
Si Si1 0.311204 0.209901 0.677637
Si Si2 0.132483 0.077578 0.673314
Si Si3 0.732346 0.922052 0.823163
Si Si4 0.808577 0.710548 0.822264
Si Si5 0.071665 0.198675 0.825817
Si Si6 0.572771 0.714734 0.174298
Si Si7 0.636408 0.423845 0.171507
Si Si8 0.230377 0.422415 0.323684
O O1 0.302351 0.212072 0.500000
O O2 0.313057 0.131001 0.734534
O O3 0.252175 0.250964 0.750645
O O4 0.379232 0.242696 0.721400
O O5 0.151366 0.091588 0.500000
O O6 0.194401 0.091794 0.776084
O O7 0.077222 0.129319 0.727389
O O8 0.106772 0.000000 0.694934
O O9 0.711592 0.000000 0.781151
O O10 0.726022 0.908112 0.000000
O O11 0.875320 0.746131 0.772382
O O12 0.813636 0.632008 0.765178
O O13 0.798804 0.711634 0.000000
O O14 0.000000 0.229226 0.799170
O O15 0.082318 0.179223 0.000000
O O16 0.500000 0.733644 0.220479
O O17 0.581844 0.632911 0.201419
O O18 0.586157 0.733458 0.000000
O O19 0.607044 0.500000 0.201078
O O20 0.695337 0.409236 0.283107
O O21 0.662690 0.418196 0.000000
O O22 0.221549 0.409799 0.500000
O O23 0.209709 0.500000 0.277682
#
# Coordination Sequence:
#
# PCOD8197771 Si02
#       8
#     8   8   8   8   8   8   8   8
#     4  12  23  35  56  83 112 145 182 227 276 324
#     4  10  20  33  51  78 111 146 183 222 266 320
#     4  10  20  35  57  83 110 141 179 225 274 324
#     4  11  21  35  57  81 107 141 184 229 272 325
#     4  10  22  38  55  77 107 145 186 229 276 326
#     4  10  21  36  54  78 111 150 189 228 270 321
#     4   9  17  30  50  76 107 144 183 221 264 317
#     4  10  20  33  52  80 111 140 175 223 276 327
#
# _framework density 17.918339
#
# number of rings (size 3 to 8) (size 9 to 14) (size 15 to 20)
#    0.000    1.750    2.500    2.625    0.000    3.750 
#    0.000    2.500    0.000    0.750    0.000    7.875 
#    0.000    0.000    0.000    0.000    0.000    0.000 
#
# Total GULP energy -793662.979302 kJ/mol
# GULP energy per Si atom -12400.984052 kJ/mol
# Density = 1.787756 g / cm^3
# Si number density = 17.918339 Si / 1000 Ang^3
#
#
#
# Elastic Constant Matrix: (Units=GPa)
#
#
# Indices 1 2 3 4 5 6 
#
# 1 100.3600 60.4696 40.6517 0.0000 0.0000 0.0000
# 2 60.4696 121.2431 52.5671 0.0000 0.0000 0.0000
# 3 40.6517 52.5671 82.8583 0.0000 0.0000 0.0000
# 4 0.0000 0.0000 0.0000 29.0663 0.0000 0.0000
# 5 0.0000 0.0000 0.0000 0.0000 7.9152 0.0000
# 6 0.0000 0.0000 0.0000 0.0000 0.0000 24.5133
#
#
#
# Elastic Compliance Matrix: (Units=1/GPa)
#
#
# Indices 1 2 3 4 5 6 
#
# 1 0.014985 -0.005913 -0.003601 0.000000 0.000000 0.000000
# 2 -0.005913 0.013710 -0.005797 0.000000 0.000000 0.000000
# 3 -0.003601 -0.005797 0.017513 0.000000 0.000000 0.000000
# 4 0.000000 0.000000 0.000000 0.034404 0.000000 0.000000
# 5 0.000000 0.000000 0.000000 0.000000 0.126340 0.000000
# 6 0.000000 0.000000 0.000000 0.000000 0.000000 0.040794
#
#
# Mechanical properties :
#
#
# Convention : Reuss Voigt Hill
#
# Bulk Modulus (GPa) = 64.15479 67.98203 66.06841
# Shear Modulus (GPa) = 17.63267 22.35049 19.99158
#
# Velocity S-wave (km/s) = 3.14037 3.53562 3.34384
# Velocity P-wave (km/s) = 7.00221 7.39525 7.20141
#
# Compressibility (1/GPa) = 0.01558730
#
# Stress axis : x y z
#
# Youngs Moduli (GPa) = 66.73254 72.93785 57.09906
#
# Poissons Ratio (x) = 0.43125 0.20561
# Poissons Ratio (y) = 0.39456 0.33102
# Poissons Ratio (z) = 0.24030 0.42284
#
# Static dielectric constant tensor:
#      x y z
#    x 3.049460 0.000000 0.000000 
#    y 0.000000 3.620380 0.000000 
#    z 0.000000 0.000000 3.350400 
# 
# 
# High freq. dielectric constant tensor:
#      x y z
#    x 1.659610 0.000000 0.000000 
#    y 0.000000 1.701620 0.000000 
#    z 0.000000 0.000000 1.700310 
# 
# From -- ./inp_files/9939.got.cif
#   From: 2010.03.12/outbox.cif.g09.slc.cpg/sg47_5_cif.got.tgz:9939.got - 2010.04.14 03:12:58.
