data_PCOD8197691
_publ_section_title
;
Structure prediction by ZEFSAII (Michael W. Deem and Ramdas Pophale) SiO2 
 PCOD8197691
Probable space group: P M M M
;
_chemical_formula_sum "Si O2"
_cell_formula_units_Z 48
_cell_length_a 32.057671
_cell_length_b 7.978217
_cell_length_c 9.337553
_cell_angle_alpha 90.000000
_cell_angle_beta 90.000000
_cell_angle_gamma 90.000000
_cell_volume 2388.201089
_symmetry_space_group_name_H-M "P M M M"
_symmetry_group_IT_number 47
_symmetry_cell_setting 'orthorhombic'
loop_
_space_group_symop_operation_xyz
x,y,z
-x,-y,z
x,-y,-z
-x,y,-z
-x,-y,-z
x,y,-z
-x,y,z
x,-y,z
loop_
_atom_site_type_symbol
_atom_site_label
_atom_site_fract_x
_atom_site_fract_y
_atom_site_fract_z
Si Si1 0.752853 0.303836 0.836290
Si Si2 0.847292 0.302579 0.161156
Si Si3 0.000000 0.799523 0.161222
Si Si4 0.546628 0.000000 0.829931
Si Si5 0.601158 0.687740 0.834031
Si Si6 0.323049 0.808820 0.337054
Si Si7 0.923027 0.806104 0.341744
O O1 0.746182 0.500000 0.812272
O O2 0.800130 0.251827 0.798199
O O3 0.722616 0.203605 0.731568
O O4 0.742773 0.255329 0.000000
O O5 0.853045 0.500000 0.171471
O O6 0.877873 0.214521 0.271671
O O7 0.857475 0.241244 0.000000
O O8 0.959183 0.727007 0.242331
O O9 0.000000 0.000000 0.157116
O O10 0.000000 0.727611 0.000000
O O11 0.569419 0.169970 0.775974
O O12 0.500000 0.000000 0.765110
O O13 0.544591 0.000000 0.000000
O O14 0.582141 0.500000 0.812913
O O15 0.644372 0.695258 0.748808
O O16 0.611321 0.721303 0.000000
O O17 0.320981 0.744955 0.500000
O O18 0.338263 0.000000 0.329102
O O19 0.923517 0.722085 0.500000
O O20 0.932927 0.000000 0.358938
#
# Coordination Sequence:
#
# PCOD8197691 Si02
#       7
#     8   8   4   4   8   8   8
#     4   9  19  36  56  77 102 136 179 223 269 323
#     4   9  19  36  55  75 102 136 174 216 262 315
#     4   9  17  31  52  75  98 129 170 214 260 313
#     4   9  18  34  57  87 121 151 185 237 291 336
#     4  10  20  35  58  85 113 150 192 232 282 342
#     4  11  23  36  52  78 112 147 184 229 278 328
#     4  10  20  33  51  76 105 134 166 209 261 317
#
# _framework density 20.09881
#
# number of rings (size 3 to 8) (size 9 to 14) (size 15 to 20)
#    0.000    2.333    0.833    2.750    0.000    7.667 
#    0.000    7.083    0.000    3.500    0.000    1.167 
#    0.000    0.000    0.000    0.000    0.000    0.000 
#
# Total GULP energy -595187.543962 kJ/mol
# GULP energy per Si atom -12399.740499 kJ/mol
# Density = 2.005306 g / cm^3
# Si number density = 20.098810 Si / 1000 Ang^3
#
#
#
# Elastic Constant Matrix: (Units=GPa)
#
#
# Indices 1 2 3 4 5 6 
#
# 1 138.2451 36.4483 71.9613 0.0000 0.0000 0.0000
# 2 36.4483 68.3466 30.9196 0.0000 0.0000 0.0000
# 3 71.9613 30.9196 125.8647 0.0000 0.0000 0.0000
# 4 0.0000 0.0000 0.0000 18.9112 0.0000 0.0000
# 5 0.0000 0.0000 0.0000 0.0000 9.8215 0.0000
# 6 0.0000 0.0000 0.0000 0.0000 0.0000 17.7417
#
#
#
# Elastic Compliance Matrix: (Units=1/GPa)
#
#
# Indices 1 2 3 4 5 6 
#
# 1 0.010953 -0.003384 -0.005431 0.000000 0.000000 0.000000
# 2 -0.003384 0.017506 -0.002366 0.000000 0.000000 0.000000
# 3 -0.005431 -0.002366 0.011631 0.000000 0.000000 0.000000
# 4 0.000000 0.000000 0.000000 0.052879 0.000000 0.000000
# 5 0.000000 0.000000 0.000000 0.000000 0.101818 0.000000
# 6 0.000000 0.000000 0.000000 0.000000 0.000000 0.056364
#
#
# Mechanical properties :
#
#
# Convention : Reuss Voigt Hill
#
# Bulk Modulus (GPa) = 56.40483 67.90163 62.15323
# Shear Modulus (GPa) = 17.89413 22.17002 20.03207
#
# Velocity S-wave (km/s) = 2.98704 3.32482 3.16045
# Velocity P-wave (km/s) = 6.32623 6.97112 6.65649
#
# Compressibility (1/GPa) = 0.01772898
#
# Stress axis : x y z
#
# Youngs Moduli (GPa) = 91.30263 57.12254 85.97634
#
# Poissons Ratio (x) = 0.19331 0.46691
# Poissons Ratio (y) = 0.30897 0.20340
# Poissons Ratio (z) = 0.49583 0.13514
#
# Static dielectric constant tensor:
#      x y z
#    x 3.705440 0.000000 0.000000 
#    y 0.000000 3.451400 0.000000 
#    z 0.000000 0.000000 3.651870 
# 
# 
# High freq. dielectric constant tensor:
#      x y z
#    x 1.783650 0.000000 0.000000 
#    y 0.000000 1.771710 0.000000 
#    z 0.000000 0.000000 1.773440 
# 
# From -- ./inp_files/13840.got.cif
#   From: 2010.03.12/outbox.cif.g09.slc.cpg/sg47_7_cif.got.tgz:13840.got - 2010.04.14 03:12:58.
