data_PCOD8197192
_publ_section_title
;
Structure prediction by ZEFSAII (Michael W. Deem and Ramdas Pophale) SiO2 
 PCOD8197192
Probable space group: P M M M
;
_chemical_formula_sum "Si O2"
_cell_formula_units_Z 44
_cell_length_a 9.501835
_cell_length_b 8.837060
_cell_length_c 28.460940
_cell_angle_alpha 90.000000
_cell_angle_beta 90.000000
_cell_angle_gamma 90.000000
_cell_volume 2389.816350
_symmetry_space_group_name_H-M "P M M M"
_symmetry_group_IT_number 47
_symmetry_cell_setting 'orthorhombic'
loop_
_space_group_symop_operation_xyz
x,y,z
-x,-y,z
x,-y,-z
-x,y,-z
-x,-y,-z
x,y,-z
-x,y,z
x,-y,z
loop_
_atom_site_type_symbol
_atom_site_label
_atom_site_fract_x
_atom_site_fract_y
_atom_site_fract_z
Si Si1 0.166287 0.834588 0.000000
Si Si2 0.661866 0.822364 0.719763
Si Si3 0.337562 0.674720 0.816619
Si Si4 0.840183 0.320107 0.637763
Si Si5 0.163377 0.821478 0.898318
Si Si6 0.657804 0.679914 0.552050
O O1 0.208124 0.756209 0.049634
O O2 0.000000 0.855647 0.000000
O O3 0.236821 0.000000 0.000000
O O4 0.500000 0.775225 0.710457
O O5 0.709616 0.770420 0.771372
O O6 0.760389 0.739497 0.683005
O O7 0.683818 0.000000 0.715295
O O8 0.500000 0.703771 0.828151
O O9 0.306229 0.500000 0.806089
O O10 0.250833 0.728237 0.861110
O O11 0.835005 0.500000 0.638455
O O12 0.764948 0.255121 0.590847
O O13 0.000000 0.260471 0.638045
O O14 0.000000 0.790537 0.888516
O O15 0.196177 0.000000 0.894852
O O16 0.703471 0.736510 0.500000
O O17 0.500000 0.737909 0.563578
O O18 0.659531 0.500000 0.553045
#
# Coordination Sequence:
#
# PCOD8197192 Si02
#       6
#     4   8   8   8   8   8
#     4   7  12  26  48  73 100 130 166 205 242 285
#     4  10  21  37  56  74  93 125 169 211 251 298
#     4  10  21  36  53  74 101 132 165 204 252 302
#     4  10  20  32  49  76 107 136 165 201 248 298
#     4   9  17  31  53  78 102 131 168 208 248 291
#     4   8  14  26  46  72 101 134 171 207 242 284
#
# _framework density 18.411456999999999
#
# number of rings (size 3 to 8) (size 9 to 14) (size 15 to 20)
#    0.000    2.818    0.000    3.273    0.000    4.727 
#    0.000    2.727    0.000    4.909    0.000    3.818 
#    0.000    0.000    0.000    0.000    0.000    0.000 
#
# Total GULP energy -545354.167783 kJ/mol
# GULP energy per Si atom -12394.412904 kJ/mol
# Density = 1.836955 g / cm^3
# Si number density = 18.411457 Si / 1000 Ang^3
#
#
#
# Elastic Constant Matrix: (Units=GPa)
#
#
# Indices 1 2 3 4 5 6 
#
# 1 89.7512 17.2825 71.6675 0.0000 0.0000 0.0000
# 2 17.2825 14.2049 6.7373 0.0000 0.0000 0.0000
# 3 71.6675 6.7373 137.2416 0.0000 0.0000 0.0000
# 4 0.0000 0.0000 0.0000 341.3030 0.0000 0.0000
# 5 0.0000 0.0000 0.0000 0.0000 39.2385 0.0000
# 6 0.0000 0.0000 0.0000 0.0000 0.0000 23.2006
#
#
#
# Elastic Compliance Matrix: (Units=1/GPa)
#
#
# Indices 1 2 3 4 5 6 
#
# 1 0.025859 -0.025654 -0.012244 0.000000 0.000000 0.000000
# 2 -0.025654 0.097528 0.008609 0.000000 0.000000 0.000000
# 3 -0.012244 0.008609 0.013258 0.000000 0.000000 0.000000
# 4 0.000000 0.000000 0.000000 0.002930 0.000000 0.000000
# 5 0.000000 0.000000 0.000000 0.000000 0.025485 0.000000
# 6 0.000000 0.000000 0.000000 0.000000 0.000000 0.043102
#
#
# Mechanical properties :
#
#
# Convention : Reuss Voigt Hill
#
# Bulk Modulus (GPa) = 12.80978 48.06358 30.43668
# Shear Modulus (GPa) = 17.07867 90.44911 53.76389
#
# Velocity S-wave (km/s) = 3.04897 7.01664 5.40969
# Velocity P-wave (km/s) = 4.40086 9.58155 7.45566
#
# Compressibility (1/GPa) = 0.07806538
#
# Stress axis : x y z
#
# Youngs Moduli (GPa) = 38.67116 10.25349 75.42781
#
# Poissons Ratio (x) = 0.26305 0.92355
# Poissons Ratio (y) = 0.99208 -0.64935
# Poissons Ratio (z) = 0.47350 -0.08827
#
# Static dielectric constant tensor:
#      x y z
#    x 3.371640 0.000000 0.000000 
#    y 0.000000 3.077490 0.000000 
#    z 0.000000 0.000000 3.748210 
# 
# 
# High freq. dielectric constant tensor:
#      x y z
#    x 1.700800 0.000000 0.000000 
#    y 0.000000 1.680990 0.000000 
#    z 0.000000 0.000000 1.734390 
# 
# From -- ./inp_files/1960.got.cif
#   From: 2010.03.12/outbox.cif.g09.slc.cpg/sg47_1_cif.got.tgz:1960.got - 2010.04.14 03:12:58.
