data_PCOD8197216
_publ_section_title
;
Structure prediction by ZEFSAII (Michael W. Deem and Ramdas Pophale) SiO2 
 PCOD8197216
Probable space group: P M M M
;
_chemical_formula_sum "Si O2"
_cell_formula_units_Z 48
_cell_length_a 13.395426
_cell_length_b 18.532203
_cell_length_c 9.269719
_cell_angle_alpha 90.000000
_cell_angle_beta 90.000000
_cell_angle_gamma 90.000000
_cell_volume 2301.177651
_symmetry_space_group_name_H-M "P M M M"
_symmetry_group_IT_number 47
_symmetry_cell_setting 'orthorhombic'
loop_
_space_group_symop_operation_xyz
x,y,z
-x,-y,z
x,-y,-z
-x,y,-z
-x,-y,-z
x,y,-z
-x,y,z
x,-y,z
loop_
_atom_site_type_symbol
_atom_site_label
_atom_site_fract_x
_atom_site_fract_y
_atom_site_fract_z
Si Si1 0.617581 0.215836 0.339019
Si Si2 0.695350 0.350417 0.165889
Si Si3 0.888428 0.273873 0.163874
Si Si4 0.618783 0.919676 0.163901
Si Si5 0.119167 0.863707 0.336635
Si Si6 0.613012 0.500000 0.171396
Si Si7 0.119336 0.000000 0.163053
O O1 0.662248 0.222514 0.500000
O O2 0.500000 0.206130 0.344372
O O3 0.639735 0.287757 0.250648
O O4 0.664787 0.143380 0.266100
O O5 0.815292 0.342179 0.179505
O O6 0.667076 0.428311 0.231868
O O7 0.660229 0.344841 0.000000
O O8 0.844967 0.211641 0.267646
O O9 0.000000 0.298012 0.209220
O O10 0.888362 0.244080 0.000000
O O11 0.500000 0.921528 0.180488
O O12 0.661201 0.000000 0.204178
O O13 0.647719 0.900240 0.000000
O O14 0.158028 0.869733 0.500000
O O15 0.000000 0.866435 0.330622
O O16 0.163038 0.929527 0.242777
O O17 0.500000 0.500000 0.227611
O O18 0.618733 0.500000 0.000000
O O19 0.000000 0.000000 0.167832
O O20 0.159174 0.000000 0.000000
#
# Coordination Sequence:
#
# PCOD8197216 Si02
#       7
#     8   8   8   8   8   4   4
#     4  10  20  32  49  77 111 144 178 220 271 324
#     4  10  20  35  57  81 107 142 182 221 267 325
#     4   9  18  33  52  75 104 138 178 225 276 326
#     4   8  14  26  46  72 102 139 182 223 264 315
#     4   9  16  26  43  68  97 132 176 224 273 325
#     4   9  18  34  58  88 116 141 175 219 264 317
#     4   9  15  23  39  65  97 133 174 223 278 329
#
# _framework density 20.858885999999998
#
# number of rings (size 3 to 8) (size 9 to 14) (size 15 to 20)
#    0.000    2.833    0.000    2.250    0.000    5.667 
#    0.000    2.500    1.833    4.000    0.000    0.000 
#    0.000    4.000    0.000    0.000    0.000    0.000 
#
# Total GULP energy -595187.485506 kJ/mol
# GULP energy per Si atom -12399.739281 kJ/mol
# Density = 2.081141 g / cm^3
# Si number density = 20.858886 Si / 1000 Ang^3
#
#
#
# Elastic Constant Matrix: (Units=GPa)
#
#
# Indices 1 2 3 4 5 6 
#
# 1 45.5231 52.5214 22.5978 0.0000 0.0000 0.0000
# 2 52.5214 195.6642 81.6259 0.0000 0.0000 0.0000
# 3 22.5978 81.6259 119.9258 0.0000 0.0000 0.0000
# 4 0.0000 0.0000 0.0000 9.9678 0.0000 0.0000
# 5 0.0000 0.0000 0.0000 0.0000 12.1998 0.0000
# 6 0.0000 0.0000 0.0000 0.0000 0.0000 35.0085
#
#
#
# Elastic Compliance Matrix: (Units=1/GPa)
#
#
# Indices 1 2 3 4 5 6 
#
# 1 0.031827 -0.008437 -0.000255 0.000000 0.000000 0.000000
# 2 -0.008437 0.009374 -0.004790 0.000000 0.000000 0.000000
# 3 -0.000255 -0.004790 0.011647 0.000000 0.000000 0.000000
# 4 0.000000 0.000000 0.000000 0.100323 0.000000 0.000000
# 5 0.000000 0.000000 0.000000 0.000000 0.081968 0.000000
# 6 0.000000 0.000000 0.000000 0.000000 0.000000 0.028564
#
#
# Mechanical properties :
#
#
# Convention : Reuss Voigt Hill
#
# Bulk Modulus (GPa) = 38.63394 74.95591 56.79492
# Shear Modulus (GPa) = 16.70582 25.05976 20.88279
#
# Velocity S-wave (km/s) = 2.83308 3.46987 3.16752
# Velocity P-wave (km/s) = 5.40958 7.21569 6.37690
#
# Compressibility (1/GPa) = 0.02588398
#
# Stress axis : x y z
#
# Youngs Moduli (GPa) = 31.41945 106.67829 85.85868
#
# Poissons Ratio (x) = 0.90005 0.02187
# Poissons Ratio (y) = 0.26509 0.41130
# Poissons Ratio (z) = 0.00800 0.51104
#
# Static dielectric constant tensor:
#      x y z
#    x 3.749840 0.000000 0.000000 
#    y 0.000000 3.806560 0.000000 
#    z 0.000000 0.000000 3.783240 
# 
# 
# High freq. dielectric constant tensor:
#      x y z
#    x 1.831980 0.000000 0.000000 
#    y 0.000000 1.799880 0.000000 
#    z 0.000000 0.000000 1.800120 
# 
# From -- ./inp_files/6392.got.cif
#   From: 2010.03.12/outbox.cif.g09.slc.cpg/sg47_4_cif.got.tgz:6392.got - 2010.04.14 03:12:58.
