data_PCOD8197665
_publ_section_title
;
Structure prediction by ZEFSAII (Michael W. Deem and Ramdas Pophale) SiO2 
 PCOD8197665
Probable space group: P M M M
;
_chemical_formula_sum "Si O2"
_cell_formula_units_Z 64
_cell_length_a 20.050942
_cell_length_b 9.319919
_cell_length_c 18.580817
_cell_angle_alpha 90.000000
_cell_angle_beta 90.000000
_cell_angle_gamma 90.000000
_cell_volume 3472.255901
_symmetry_space_group_name_H-M "P M M M"
_symmetry_group_IT_number 47
_symmetry_cell_setting 'orthorhombic'
loop_
_space_group_symop_operation_xyz
x,y,z
-x,-y,z
x,-y,-z
-x,y,-z
-x,-y,-z
x,y,-z
-x,y,z
x,-y,z
loop_
_atom_site_type_symbol
_atom_site_label
_atom_site_fract_x
_atom_site_fract_y
_atom_site_fract_z
Si Si1 0.183033 0.334714 0.416567
Si Si2 0.422746 0.165420 0.081661
Si Si3 0.076392 0.333763 0.810834
Si Si4 0.423306 0.833092 0.581992
Si Si5 0.812395 0.329762 0.919655
Si Si6 0.077231 0.167181 0.667143
Si Si7 0.313643 0.668260 0.667850
Si Si8 0.315324 0.668979 0.166639
O O1 0.198869 0.313392 0.500000
O O2 0.166782 0.500000 0.398121
O O3 0.119620 0.238356 0.396369
O O4 0.247348 0.279845 0.373026
O O5 0.500000 0.192185 0.097953
O O6 0.382287 0.260629 0.137380
O O7 0.404205 0.000000 0.093373
O O8 0.405728 0.211698 0.000000
O O9 0.090173 0.500000 0.791844
O O10 0.121156 0.281477 0.877538
O O11 0.096904 0.241274 0.742014
O O12 0.000000 0.307880 0.833168
O O13 0.407643 0.787360 0.500000
O O14 0.500000 0.799379 0.600536
O O15 0.378294 0.744406 0.636281
O O16 0.408022 0.000000 0.592698
O O17 0.809293 0.500000 0.923697
O O18 0.747659 0.270837 0.878018
O O19 0.814438 0.263766 0.000000
O O20 0.000000 0.193772 0.648717
O O21 0.094086 0.000000 0.672864
O O22 0.324273 0.500000 0.657539
O O23 0.305172 0.712008 0.750700
O O24 0.322436 0.500000 0.157306
#
# Coordination Sequence:
#
# PCOD8197665 Si02
#       8
#     8   8   8   8   8   8   8   8
#     4  10  21  37  57  79 103 134 173 215 258 306
#     4   9  19  36  55  74  99 132 169 210 255 301
#     4   9  17  31  53  78 104 136 172 210 252 299
#     4   9  19  36  56  78 105 137 173 212 255 306
#     4   9  17  30  50  76 104 133 168 212 258 300
#     4  10  21  36  54  77 106 139 173 210 254 306
#     4  10  21  36  54  78 107 137 172 214 258 306
#     4  10  20  33  51  75 103 135 169 207 252 302
#
# _framework density 18.431820999999999
#
# number of rings (size 3 to 8) (size 9 to 14) (size 15 to 20)
#    0.000    2.500    0.000    2.625    0.000    7.000 
#    0.000    8.125    0.000    1.125    0.000    1.750 
#    0.000    0.000    0.000    0.000    0.000    0.000 
#
# Total GULP energy -793777.783720 kJ/mol
# GULP energy per Si atom -12402.777871 kJ/mol
# Density = 1.838987 g / cm^3
# Si number density = 18.431821 Si / 1000 Ang^3
#
#
#
# Elastic Constant Matrix: (Units=GPa)
#
#
# Indices 1 2 3 4 5 6 
#
# 1 105.8773 44.5450 74.5437 0.0000 0.0000 0.0000
# 2 44.5450 51.3283 49.2542 0.0000 0.0000 0.0000
# 3 74.5437 49.2542 134.6325 0.0000 0.0000 0.0000
# 4 0.0000 0.0000 0.0000 23.8490 0.0000 0.0000
# 5 0.0000 0.0000 0.0000 0.0000 41.8443 0.0000
# 6 0.0000 0.0000 0.0000 0.0000 0.0000 23.2586
#
#
#
# Elastic Compliance Matrix: (Units=1/GPa)
#
#
# Indices 1 2 3 4 5 6 
#
# 1 0.017971 -0.009320 -0.006541 0.000000 0.000000 0.000000
# 2 -0.009320 0.034855 -0.007591 0.000000 0.000000 0.000000
# 3 -0.006541 -0.007591 0.013826 0.000000 0.000000 0.000000
# 4 0.000000 0.000000 0.000000 0.041931 0.000000 0.000000
# 5 0.000000 0.000000 0.000000 0.000000 0.023898 0.000000
# 6 0.000000 0.000000 0.000000 0.000000 0.000000 0.042995
#
#
# Mechanical properties :
#
#
# Convention : Reuss Voigt Hill
#
# Bulk Modulus (GPa) = 50.63549 69.83598 60.23574
# Shear Modulus (GPa) = 21.83773 26.02339 23.93056
#
# Velocity S-wave (km/s) = 3.44580 3.76157 3.60714
# Velocity P-wave (km/s) = 6.58505 7.53903 7.07813
#
# Compressibility (1/GPa) = 0.01974899
#
# Stress axis : x y z
#
# Youngs Moduli (GPa) = 55.64571 28.69042 72.32595
#
# Poissons Ratio (x) = 0.26738 0.47306
# Poissons Ratio (y) = 0.51859 0.54905
# Poissons Ratio (z) = 0.36396 0.21780
#
# Static dielectric constant tensor:
#      x y z
#    x 3.421680 0.000000 0.000000 
#    y 0.000000 3.187080 0.000000 
#    z 0.000000 0.000000 3.458180 
# 
# 
# High freq. dielectric constant tensor:
#      x y z
#    x 1.723880 0.000000 0.000000 
#    y 0.000000 1.693460 0.000000 
#    z 0.000000 0.000000 1.719910 
# 
# From -- ./inp_files/11570.got.cif
#   From: 2010.03.12/outbox.cif.g09.slc.cpg/sg47_6_cif.got.tgz:11570.got - 2010.04.14 03:12:58.
