data_PCOD8197971
_publ_section_title
;
Structure prediction by ZEFSAII (Michael W. Deem and Ramdas Pophale) SiO2 
 PCOD8197971
Probable space group: P M M M
;
_chemical_formula_sum "Si O2"
_cell_formula_units_Z 56
_cell_length_a 15.113921
_cell_length_b 23.075374
_cell_length_c 8.552779
_cell_angle_alpha 90.000000
_cell_angle_beta 90.000000
_cell_angle_gamma 90.000000
_cell_volume 2982.861899
_symmetry_space_group_name_H-M "P M M M"
_symmetry_group_IT_number 47
_symmetry_cell_setting 'orthorhombic'
loop_
_space_group_symop_operation_xyz
x,y,z
-x,-y,z
x,-y,-z
-x,y,-z
-x,-y,-z
x,y,-z
-x,y,z
x,-y,z
loop_
_atom_site_type_symbol
_atom_site_label
_atom_site_fract_x
_atom_site_fract_y
_atom_site_fract_z
Si Si1 0.096297 0.817928 0.686015
Si Si2 0.399539 0.243426 0.815516
Si Si3 0.102433 0.620537 0.816622
Si Si4 0.895530 0.500000 0.325245
Si Si5 0.336864 0.116777 0.181132
Si Si6 0.166047 0.935807 0.317568
Si Si7 0.500000 0.065563 0.328763
Si Si8 0.224706 0.280851 0.315988
O O1 0.104010 0.818249 0.500000
O O2 0.103288 0.884426 0.749327
O O3 0.173654 0.776257 0.753580
O O4 0.000000 0.794045 0.738821
O O5 0.500000 0.254485 0.748915
O O6 0.363541 0.181006 0.762724
O O7 0.324581 0.287739 0.751961
O O8 0.404410 0.248720 0.000000
O O9 0.135404 0.556567 0.769246
O O10 0.165771 0.664199 0.726386
O O11 0.000000 0.630713 0.766860
O O12 0.114496 0.629094 0.000000
O O13 0.854330 0.500000 0.500000
O O14 0.000000 0.500000 0.336959
O O15 0.263131 0.088737 0.289733
O O16 0.419943 0.077627 0.213845
O O17 0.308537 0.114998 0.000000
O O18 0.150210 0.943522 0.500000
O O19 0.150425 0.000000 0.239513
O O20 0.500000 0.098667 0.500000
O O21 0.500000 0.000000 0.375605
O O22 0.232752 0.276371 0.500000
#
# Coordination Sequence:
#
# PCOD8197971 Si02
#       8
#     8   8   8   4   8   8   4   8
#     4   9  18  32  50  74 102 133 173 222 272 320
#     4  10  21  38  56  75 101 134 173 220 274 334
#     4  10  20  34  54  83 121 162 197 228 268 318
#     4   9  17  31  53  83 120 159 198 237 271 307
#     4  11  21  35  53  72  96 126 162 208 265 330
#     4  10  20  34  51  71  96 128 170 218 269 326
#     4  11  23  35  49  71  97 123 157 204 259 326
#     4  11  21  34  55  81 110 143 181 229 276 324
#
# _framework density 18.773916
#
# number of rings (size 3 to 8) (size 9 to 14) (size 15 to 20)
#    0.000    1.857    2.143    2.571    0.000    6.000 
#    0.000    1.429    0.000    1.286    0.000    1.500 
#    0.000    4.000    0.000    0.000    0.000    0.000 
#
# Total GULP energy -693871.258315 kJ/mol
# GULP energy per Si atom -12390.558184 kJ/mol
# Density = 1.873119 g / cm^3
# Si number density = 18.773916 Si / 1000 Ang^3
#
#
#
# Elastic Constant Matrix: (Units=GPa)
#
#
# Indices 1 2 3 4 5 6 
#
# 1 115.0747 43.8698 9.5794 0.0000 0.0000 0.0000
# 2 43.8698 97.1809 9.4357 0.0000 0.0000 0.0000
# 3 9.5794 9.4357 23.7114 0.0000 0.0000 0.0000
# 4 0.0000 0.0000 0.0000 24.1199 0.0000 0.0000
# 5 0.0000 0.0000 0.0000 0.0000 23.9269 0.0000
# 6 0.0000 0.0000 0.0000 0.0000 0.0000 14.0835
#
#
#
# Elastic Compliance Matrix: (Units=1/GPa)
#
#
# Indices 1 2 3 4 5 6 
#
# 1 0.010635 -0.004560 -0.002482 0.000000 0.000000 0.000000
# 2 -0.004560 0.012659 -0.003195 0.000000 0.000000 0.000000
# 3 -0.002482 -0.003195 0.044448 0.000000 0.000000 0.000000
# 4 0.000000 0.000000 0.000000 0.041460 0.000000 0.000000
# 5 0.000000 0.000000 0.000000 0.000000 0.041794 0.000000
# 6 0.000000 0.000000 0.000000 0.000000 0.000000 0.071005
#
#
# Mechanical properties :
#
#
# Convention : Reuss Voigt Hill
#
# Bulk Modulus (GPa) = 21.15616 40.19298 30.67457
# Shear Modulus (GPa) = 19.36257 23.96488 21.66373
#
# Velocity S-wave (km/s) = 3.21496 3.57669 3.40064
# Velocity P-wave (km/s) = 5.00746 6.20583 5.63857
#
# Compressibility (1/GPa) = 0.04726756
#
# Stress axis : x y z
#
# Youngs Moduli (GPa) = 94.02925 78.99665 22.49822
#
# Poissons Ratio (x) = 0.36022 0.05584
# Poissons Ratio (y) = 0.42876 0.07189
# Poissons Ratio (z) = 0.23338 0.25241
#
# Static dielectric constant tensor:
#      x y z
#    x 3.619400 0.000000 0.000000 
#    y 0.000000 3.547570 0.000000 
#    z 0.000000 0.000000 3.240780 
# 
# 
# High freq. dielectric constant tensor:
#      x y z
#    x 1.721910 0.000000 0.000000 
#    y 0.000000 1.712740 0.000000 
#    z 0.000000 0.000000 1.715290 
# 
# From -- ./inp_files/7440.got.cif
#   From: 2010.03.12/outbox.cif.g09.slc.cpg/sg47_4_cif.got.tgz:7440.got - 2010.04.14 03:12:58.
