data_PCOD8197405
_publ_section_title
;
Structure prediction by ZEFSAII (Michael W. Deem and Ramdas Pophale) SiO2 
 PCOD8197405
Probable space group: P M M M
;
_chemical_formula_sum "Si O2"
_cell_formula_units_Z 52
_cell_length_a 8.774130
_cell_length_b 20.736793
_cell_length_c 16.385371
_cell_angle_alpha 90.000000
_cell_angle_beta 90.000000
_cell_angle_gamma 90.000000
_cell_volume 2981.274301
_symmetry_space_group_name_H-M "P M M M"
_symmetry_group_IT_number 47
_symmetry_cell_setting 'orthorhombic'
loop_
_space_group_symop_operation_xyz
x,y,z
-x,-y,z
x,-y,-z
-x,y,-z
-x,-y,-z
x,y,-z
-x,y,z
x,-y,z
loop_
_atom_site_type_symbol
_atom_site_label
_atom_site_fract_x
_atom_site_fract_y
_atom_site_fract_z
Si Si1 0.321457 0.802754 0.592676
Si Si2 0.678258 0.500000 0.908374
Si Si3 0.678161 0.848101 0.000000
Si Si4 0.320411 0.362067 0.852071
Si Si5 0.822278 0.864009 0.833389
Si Si6 0.179018 0.734730 0.739872
Si Si7 0.178165 0.710516 0.000000
Si Si8 0.675528 0.928117 0.686605
O O1 0.268387 0.792160 0.500000
O O2 0.500000 0.789526 0.603452
O O3 0.229827 0.752520 0.648448
O O4 0.280535 0.876429 0.617124
O O5 0.500000 0.500000 0.922847
O O6 0.724313 0.562408 0.854955
O O7 0.753270 0.500000 0.000000
O O8 0.742402 0.881313 0.918506
O O9 0.500000 0.856963 0.000000
O O10 0.722135 0.773938 0.000000
O O11 0.500000 0.351382 0.867621
O O12 0.269488 0.329872 0.766662
O O13 0.218553 0.329742 0.920911
O O14 0.775224 0.792773 0.801277
O O15 0.774378 0.917095 0.767478
O O16 0.000000 0.867660 0.848132
O O17 0.000000 0.721241 0.740833
O O18 0.000000 0.728794 0.000000
O O19 0.500000 0.919926 0.711724
O O20 0.708883 0.000000 0.652706
#
# Coordination Sequence:
#
# PCOD8197405 Si02
#       8
#     8   4   4   8   8   8   4   8
#     4   9  18  33  54  80 106 131 164 204 250 307
#     4   9  18  32  48  72 103 138 181 220 254 291
#     4  12  22  32  50  72  94 128 172 217 261 302
#     4  11  20  33  52  72 100 140 180 215 252 298
#     4  10  20  33  49  70  99 129 165 213 257 300
#     4  10  20  33  50  73 103 133 166 210 257 307
#     4  12  22  31  45  71 104 134 171 214 257 301
#     4   9  18  33  52  74 102 134 167 202 245 301
#
# _framework density 17.442207
#
# number of rings (size 3 to 8) (size 9 to 14) (size 15 to 20)
#    0.000    1.923    2.308    2.769    0.000    2.154 
#    0.000    3.846    0.000    2.308    0.000    4.846 
#    0.000    4.308    0.000    0.000    0.000    0.000 
#
# Total GULP energy -644794.063127 kJ/mol
# GULP energy per Si atom -12399.885829 kJ/mol
# Density = 1.740251 g / cm^3
# Si number density = 17.442207 Si / 1000 Ang^3
#
#
#
# Elastic Constant Matrix: (Units=GPa)
#
#
# Indices 1 2 3 4 5 6 
#
# 1 58.3751 18.3511 35.8299 0.0000 0.0000 0.0000
# 2 18.3511 88.4102 37.5064 0.0000 0.0000 0.0000
# 3 35.8299 37.5064 115.1699 0.0000 0.0000 0.0000
# 4 0.0000 0.0000 0.0000 27.0098 0.0000 0.0000
# 5 0.0000 0.0000 0.0000 0.0000 22.3003 0.0000
# 6 0.0000 0.0000 0.0000 0.0000 0.0000 15.9009
#
#
#
# Elastic Compliance Matrix: (Units=1/GPa)
#
#
# Indices 1 2 3 4 5 6 
#
# 1 0.021440 -0.001880 -0.006058 0.000000 0.000000 0.000000
# 2 -0.001880 0.013289 -0.003743 0.000000 0.000000 0.000000
# 3 -0.006058 -0.003743 0.011786 0.000000 0.000000 0.000000
# 4 0.000000 0.000000 0.000000 0.037024 0.000000 0.000000
# 5 0.000000 0.000000 0.000000 0.000000 0.044843 0.000000
# 6 0.000000 0.000000 0.000000 0.000000 0.000000 0.062890
#
#
# Mechanical properties :
#
#
# Convention : Reuss Voigt Hill
#
# Bulk Modulus (GPa) = 43.18987 49.48112 46.33549
# Shear Modulus (GPa) = 22.48706 24.39338 23.44022
#
# Velocity S-wave (km/s) = 3.59448 3.74374 3.66987
# Velocity P-wave (km/s) = 6.48402 6.86423 6.67683
#
# Compressibility (1/GPa) = 0.02315358
#
# Stress axis : x y z
#
# Youngs Moduli (GPa) = 46.64214 75.25023 84.84457
#
# Poissons Ratio (x) = 0.14150 0.51396
# Poissons Ratio (y) = 0.08770 0.31755
# Poissons Ratio (z) = 0.28254 0.28164
#
# Static dielectric constant tensor:
#      x y z
#    x 3.188970 0.000000 0.000000 
#    y 0.000000 3.282170 0.000000 
#    z 0.000000 0.000000 3.331720 
# 
# 
# High freq. dielectric constant tensor:
#      x y z
#    x 1.675360 0.000000 0.000000 
#    y 0.000000 1.655180 0.000000 
#    z 0.000000 0.000000 1.659510 
# 
# From -- ./inp_files/11125.got.cif
#   From: 2010.03.12/outbox.cif.g09.slc.cpg/sg47_6_cif.got.tgz:11125.got - 2010.04.14 03:12:58.
