data_PCOD8197797
_publ_section_title
;
Structure prediction by ZEFSAII (Michael W. Deem and Ramdas Pophale) SiO2 
 PCOD8197797
Probable space group: P M M M
;
_chemical_formula_sum "Si O2"
_cell_formula_units_Z 48
_cell_length_a 9.447743
_cell_length_b 8.593832
_cell_length_c 31.002876
_cell_angle_alpha 90.000000
_cell_angle_beta 90.000000
_cell_angle_gamma 90.000000
_cell_volume 2517.195309
_symmetry_space_group_name_H-M "P M M M"
_symmetry_group_IT_number 47
_symmetry_cell_setting 'orthorhombic'
loop_
_space_group_symop_operation_xyz
x,y,z
-x,-y,z
x,-y,-z
-x,y,-z
-x,-y,-z
x,y,-z
-x,y,z
x,-y,z
loop_
_atom_site_type_symbol
_atom_site_label
_atom_site_fract_x
_atom_site_fract_y
_atom_site_fract_z
Si Si1 0.334727 0.681414 0.779442
Si Si2 0.841276 0.314887 0.547858
Si Si3 0.158216 0.315037 0.047249
Si Si4 0.837004 0.181426 0.296406
Si Si5 0.344074 0.315447 0.123980
Si Si6 0.340976 0.684198 0.626343
O O1 0.500000 0.720730 0.771636
O O2 0.307908 0.500000 0.770055
O O3 0.235205 0.783896 0.749280
O O4 0.288707 0.726059 0.828189
O O5 0.794939 0.258422 0.500000
O O6 0.840688 0.500000 0.549490
O O7 0.732917 0.246529 0.583238
O O8 0.000000 0.254480 0.558225
O O9 0.157023 0.500000 0.051235
O O10 0.247878 0.240951 0.086361
O O11 0.000000 0.249602 0.051728
O O12 0.219931 0.267502 0.000000
O O13 0.751793 0.272987 0.332631
O O14 0.000000 0.237978 0.295757
O O15 0.827529 0.000000 0.306382
O O16 0.500000 0.245020 0.117650
O O17 0.350229 0.500000 0.119397
O O18 0.500000 0.753409 0.630219
O O19 0.348939 0.500000 0.623361
#
# Coordination Sequence:
#
# PCOD8197797 Si02
#       6
#     8   8   8   8   8   8
#     4   9  18  33  52  73  96 122 156 198 242 289
#     4   8  14  26  46  73 104 135 164 195 233 276
#     4   8  13  20  30  48  78 115 151 184 219 263
#     4  11  24  38  51  70  96 126 162 202 243 289
#     4   8  14  24  38  58  84 113 146 185 227 272
#     4  10  20  33  52  78 104 131 164 200 239 284
#
# _framework density 19.068842
#
# number of rings (size 3 to 8) (size 9 to 14) (size 15 to 20)
#    0.000    3.000    0.000    3.500    0.000    6.000 
#    0.000    5.000    0.000    0.500    0.000    3.500 
#    0.000    0.667    0.000    7.333    0.000   12.000 
#
# Total GULP energy -594907.345602 kJ/mol
# GULP energy per Si atom -12393.903033 kJ/mol
# Density = 1.902544 g / cm^3
# Si number density = 19.068842 Si / 1000 Ang^3
#
#
#
# Elastic Constant Matrix: (Units=GPa)
#
#
# Indices 1 2 3 4 5 6 
#
# 1 124.6204 11.6335 86.6446 0.0000 0.0000 0.0000
# 2 11.6335 10.6360 6.6197 0.0000 0.0000 0.0000
# 3 86.6446 6.6197 161.7726 0.0000 0.0000 0.0000
# 4 0.0000 0.0000 0.0000 -1.8203 0.0000 0.0000
# 5 0.0000 0.0000 0.0000 0.0000 44.0631 0.0000
# 6 0.0000 0.0000 0.0000 0.0000 0.0000 14.2167
#
#
#
# Elastic Compliance Matrix: (Units=1/GPa)
#
#
# Indices 1 2 3 4 5 6 
#
# 1 0.013908 -0.010852 -0.007005 0.000000 0.000000 0.000000
# 2 -0.010852 0.104945 0.001518 0.000000 0.000000 0.000000
# 3 -0.007005 0.001518 0.009871 0.000000 0.000000 0.000000
# 4 0.000000 0.000000 0.000000 -0.549364 0.000000 0.000000
# 5 0.000000 0.000000 0.000000 0.000000 0.022695 0.000000
# 6 0.000000 0.000000 0.000000 0.000000 0.000000 0.070340
#
#
# Mechanical properties :
#
#
# Convention : Reuss Voigt Hill
#
# Bulk Modulus (GPa) = 10.41165 56.31383 33.36274
# Shear Modulus (GPa) = -19.01775 24.10066 2.54146
#
# Velocity S-wave (km/s) = -3.16146 3.55896 1.15571
# Velocity P-wave (km/s) = 2.80260 6.81794 4.39486
#
# Compressibility (1/GPa) = 0.09604624
#
# Stress axis : x y z
#
# Youngs Moduli (GPa) = 71.90278 9.52877 101.30545
#
# Poissons Ratio (x) = 0.10341 0.70963
# Poissons Ratio (y) = 0.78031 -0.15379
# Poissons Ratio (z) = 0.50367 -0.01447
#
# Static dielectric constant tensor:
#      x y z
#    x 3.806080 0.000000 0.000000 
#    y 0.000000 2.840240 0.000000 
#    z 0.000000 0.000000 3.837760 
# 
# 
# High freq. dielectric constant tensor:
#      x y z
#    x 1.741740 0.000000 0.000000 
#    y 0.000000 1.677520 0.000000 
#    z 0.000000 0.000000 1.759980 
# 
# From -- ./inp_files/2503.got.cif
#   From: 2010.03.12/outbox.cif.g09.slc.cpg/sg47_2_cif.got.tgz:2503.got - 2010.04.14 03:12:58.
