data_PCOD8197272
_publ_section_title
;
Structure prediction by ZEFSAII (Michael W. Deem and Ramdas Pophale) SiO2 
 PCOD8197272
Probable space group: P M M M
;
_chemical_formula_sum "Si O2"
_cell_formula_units_Z 40
_cell_length_a 21.307520
_cell_length_b 11.495408
_cell_length_c 9.946647
_cell_angle_alpha 90.000000
_cell_angle_beta 90.000000
_cell_angle_gamma 90.000000
_cell_volume 2436.318148
_symmetry_space_group_name_H-M "P M M M"
_symmetry_group_IT_number 47
_symmetry_cell_setting 'orthorhombic'
loop_
_space_group_symop_operation_xyz
x,y,z
-x,-y,z
x,-y,-z
-x,y,-z
-x,-y,-z
x,y,-z
-x,y,z
x,-y,z
loop_
_atom_site_type_symbol
_atom_site_label
_atom_site_fract_x
_atom_site_fract_y
_atom_site_fract_z
Si Si1 0.426492 0.371033 0.500000
Si Si2 0.134651 0.861370 0.848969
Si Si3 0.572850 0.362079 0.000000
Si Si4 0.625250 0.765133 0.251357
Si Si5 0.573330 0.000000 0.850095
Si Si6 0.753413 0.863553 0.658042
Si Si7 0.000000 0.873411 0.841367
O O1 0.395528 0.500000 0.500000
O O2 0.500000 0.385822 0.500000
O O3 0.406570 0.299316 0.372607
O O4 0.185129 0.821494 0.738678
O O5 0.065977 0.809090 0.804064
O O6 0.129061 0.000000 0.851191
O O7 0.153348 0.818248 0.000000
O O8 0.612530 0.315726 0.124412
O O9 0.572873 0.500000 0.000000
O O10 0.500000 0.316616 0.000000
O O11 0.593406 0.889345 0.234541
O O12 0.698452 0.784597 0.280730
O O13 0.500000 0.000000 0.867792
O O14 0.604449 0.000000 0.000000
O O15 0.762514 0.838527 0.500000
O O16 0.739221 0.000000 0.683296
O O17 0.000000 0.000000 0.770318
O O18 0.000000 0.890953 0.000000
#
# Coordination Sequence:
#
# PCOD8197272 Si02
#       7
#     4   8   4   8   4   8   4
#     4  11  24  41  59  77  97 129 175 220 264 315
#     4   8  14  24  43  64  91 129 172 207 239 284
#     4  11  24  41  59  77  97 127 169 218 268 313
#     4  12  22  37  56  77 104 134 166 212 261 314
#     4  11  22  35  53  79 105 128 161 210 265 317
#     4  10  20  33  44  67 103 138 167 201 248 303
#     4   7  10  20  37  63  89 121 168 213 238 267
#
# _framework density 16.418216999999999
#
# number of rings (size 3 to 8) (size 9 to 14) (size 15 to 20)
#    0.000    2.000    3.000    3.600    1.400    2.000 
#    0.000    1.500    0.000    3.000    0.000    0.000 
#    0.000    0.000    0.000    5.400    0.000    0.700 
#
# Total GULP energy -495679.846763 kJ/mol
# GULP energy per Si atom -12391.996169 kJ/mol
# Density = 1.638085 g / cm^3
# Si number density = 16.418217 Si / 1000 Ang^3
#
#
#
# Elastic Constant Matrix: (Units=GPa)
#
#
# Indices 1 2 3 4 5 6 
#
# 1 134.6787 32.4277 68.4897 0.0000 0.0000 0.0000
# 2 32.4277 74.0975 44.0763 0.0000 0.0000 0.0000
# 3 68.4897 44.0763 131.7724 0.0000 0.0000 0.0000
# 4 0.0000 0.0000 0.0000 40.5521 0.0000 0.0000
# 5 0.0000 0.0000 0.0000 0.0000 29.9292 0.0000
# 6 0.0000 0.0000 0.0000 0.0000 0.0000 16.7389
#
#
#
# Elastic Compliance Matrix: (Units=1/GPa)
#
#
# Indices 1 2 3 4 5 6 
#
# 1 0.010251 -0.001644 -0.004778 0.000000 0.000000 0.000000
# 2 -0.001644 0.017112 -0.004869 0.000000 0.000000 0.000000
# 3 -0.004778 -0.004869 0.011701 0.000000 0.000000 0.000000
# 4 0.000000 0.000000 0.000000 0.024660 0.000000 0.000000
# 5 0.000000 0.000000 0.000000 0.000000 0.033412 0.000000
# 6 0.000000 0.000000 0.000000 0.000000 0.000000 0.059741
#
#
# Mechanical properties :
#
#
# Convention : Reuss Voigt Hill
#
# Bulk Modulus (GPa) = 60.67593 70.05955 65.36774
# Shear Modulus (GPa) = 27.03404 30.48103 28.75753
#
# Velocity S-wave (km/s) = 4.06222 4.31343 4.18971
# Velocity P-wave (km/s) = 7.68367 8.22022 7.95647
#
# Compressibility (1/GPa) = 0.01648100
#
# Stress axis : x y z
#
# Youngs Moduli (GPa) = 97.55407 58.44002 85.46329
#
# Poissons Ratio (x) = 0.09607 0.40835
# Poissons Ratio (y) = 0.16037 0.41613
# Poissons Ratio (z) = 0.46612 0.28455
#
# Static dielectric constant tensor:
#      x y z
#    x 3.470450 0.000000 0.000000 
#    y 0.000000 2.869500 0.000000 
#    z 0.000000 0.000000 3.147380 
# 
# 
# High freq. dielectric constant tensor:
#      x y z
#    x 1.638800 0.000000 0.000000 
#    y 0.000000 1.585940 0.000000 
#    z 0.000000 0.000000 1.637030 
# 
# From -- ./inp_files/10758.got.cif
#   From: 2010.03.12/outbox.cif.g09.slc.cpg/sg47_6_cif.got.tgz:10758.got - 2010.04.14 03:12:58.
