data_PCOD8197240
_publ_section_title
;
Structure prediction by ZEFSAII (Michael W. Deem and Ramdas Pophale) SiO2 
 PCOD8197240
Probable space group: P M M M
;
_chemical_formula_sum "Si O2"
_cell_formula_units_Z 64
_cell_length_a 18.479311
_cell_length_b 14.172862
_cell_length_c 13.668797
_cell_angle_alpha 90.000000
_cell_angle_beta 90.000000
_cell_angle_gamma 90.000000
_cell_volume 3579.922515
_symmetry_space_group_name_H-M "P M M M"
_symmetry_group_IT_number 47
_symmetry_cell_setting 'orthorhombic'
loop_
_space_group_symop_operation_xyz
x,y,z
-x,-y,z
x,-y,-z
-x,y,-z
-x,-y,-z
x,y,-z
-x,y,z
x,-y,z
loop_
_atom_site_type_symbol
_atom_site_label
_atom_site_fract_x
_atom_site_fract_y
_atom_site_fract_z
Si Si1 0.350574 0.609455 0.886687
Si Si2 0.584318 0.896841 0.608206
Si Si3 0.582184 0.711613 0.713485
Si Si4 0.202871 0.609079 0.218637
Si Si5 0.081621 0.893307 0.239775
Si Si6 0.916744 0.719917 0.111141
Si Si7 0.278009 0.295024 0.389119
Si Si8 0.794380 0.894540 0.610781
O O1 0.370652 0.500000 0.866576
O O2 0.403728 0.677539 0.824477
O O3 0.268092 0.630044 0.856747
O O4 0.361373 0.635178 0.000000
O O5 0.615036 0.862512 0.500000
O O6 0.500000 0.909175 0.594260
O O7 0.596825 0.823267 0.697258
O O8 0.618065 0.000000 0.634255
O O9 0.500000 0.683991 0.682902
O O10 0.642731 0.664839 0.642566
O O11 0.192694 0.500000 0.238041
O O12 0.128897 0.647211 0.174620
O O13 0.216990 0.657111 0.323031
O O14 0.095886 0.826654 0.147136
O O15 0.136582 0.865465 0.325344
O O16 0.000000 0.879866 0.280245
O O17 0.094322 0.000000 0.203428
O O18 0.000000 0.689505 0.121551
O O19 0.890293 0.715079 0.000000
O O20 0.262982 0.325026 0.500000
O O21 0.271268 0.180419 0.373762
O O22 0.822339 0.890308 0.500000
O O23 0.766208 0.000000 0.637218
#
# Coordination Sequence:
#
# PCOD8197240 Si02
#       8
#     8   8   8   8   8   8   8   8
#     4   9  19  36  57  78  99 130 173 217 263 315
#     4   8  14  26  45  69  97 129 163 196 235 292
#     4  10  20  32  50  78 107 133 166 213 264 312
#     4  10  20  36  56  76 101 134 173 214 256 305
#     4   9  17  30  49  75 109 144 173 204 248 301
#     4  10  20  33  52  80 109 136 171 214 257 298
#     4  10  20  34  52  75 103 136 171 208 256 311
#     4   9  17  30  50  76 104 135 173 214 253 295
#
# _framework density 17.877482000000001
#
# number of rings (size 3 to 8) (size 9 to 14) (size 15 to 20)
#    0.000    2.625    1.250    1.125    0.000    3.500 
#    0.000    5.000    0.000    1.875    0.000    9.625 
#    0.000    0.000    0.000    0.000    0.000    0.000 
#
# Total GULP energy -793122.464882 kJ/mol
# GULP energy per Si atom -12392.538514 kJ/mol
# Density = 1.783679 g / cm^3
# Si number density = 17.877482 Si / 1000 Ang^3
#
#
#
# Elastic Constant Matrix: (Units=GPa)
#
#
# Indices 1 2 3 4 5 6 
#
# 1 89.4089 32.7003 53.2892 0.0000 0.0000 0.0000
# 2 32.7003 88.4216 60.7165 0.0000 0.0000 0.0000
# 3 53.2892 60.7165 132.1573 0.0000 0.0000 0.0000
# 4 0.0000 0.0000 0.0000 27.6899 0.0000 0.0000
# 5 0.0000 0.0000 0.0000 0.0000 22.3067 0.0000
# 6 0.0000 0.0000 0.0000 0.0000 0.0000 22.7641
#
#
#
# Elastic Compliance Matrix: (Units=1/GPa)
#
#
# Indices 1 2 3 4 5 6 
#
# 1 0.014969 -0.002032 -0.005102 0.000000 0.000000 0.000000
# 2 -0.002032 0.016798 -0.006898 0.000000 0.000000 0.000000
# 3 -0.005102 -0.006898 0.012793 0.000000 0.000000 0.000000
# 4 0.000000 0.000000 0.000000 0.036114 0.000000 0.000000
# 5 0.000000 0.000000 0.000000 0.000000 0.044830 0.000000
# 6 0.000000 0.000000 0.000000 0.000000 0.000000 0.043929
#
#
# Mechanical properties :
#
#
# Convention : Reuss Voigt Hill
#
# Bulk Modulus (GPa) = 60.62432 67.04441 63.83436
# Shear Modulus (GPa) = 24.63120 25.43761 25.03441
#
# Velocity S-wave (km/s) = 3.71587 3.77621 3.74616
# Velocity P-wave (km/s) = 7.23843 7.52307 7.38212
#
# Compressibility (1/GPa) = 0.01649503
#
# Stress axis : x y z
#
# Youngs Moduli (GPa) = 66.80560 59.53258 78.16765
#
# Poissons Ratio (x) = 0.12099 0.39882
# Poissons Ratio (y) = 0.13577 0.53918
# Poissons Ratio (z) = 0.34085 0.41064
#
# Static dielectric constant tensor:
#      x y z
#    x 3.381760 0.000000 0.000000 
#    y 0.000000 3.398270 0.000000 
#    z 0.000000 0.000000 3.224240 
# 
# 
# High freq. dielectric constant tensor:
#      x y z
#    x 1.696990 0.000000 0.000000 
#    y 0.000000 1.685830 0.000000 
#    z 0.000000 0.000000 1.676120 
# 
# From -- ./inp_files/17904.got.cif
#   From: 2010.03.12/outbox.cif.g09.slc.cpg/sg47_9_cif.got.tgz:17904.got - 2010.04.14 03:12:58.
