data_PCOD8197884
_publ_section_title
;
Structure prediction by ZEFSAII (Michael W. Deem and Ramdas Pophale) SiO2 
 PCOD8197884
Probable space group: P M M M
;
_chemical_formula_sum "Si O2"
_cell_formula_units_Z 48
_cell_length_a 9.686412
_cell_length_b 29.173169
_cell_length_c 8.847170
_cell_angle_alpha 90.000000
_cell_angle_beta 90.000000
_cell_angle_gamma 90.000000
_cell_volume 2500.062798
_symmetry_space_group_name_H-M "P M M M"
_symmetry_group_IT_number 47
_symmetry_cell_setting 'orthorhombic'
loop_
_space_group_symop_operation_xyz
x,y,z
-x,-y,z
x,-y,-z
-x,y,-z
-x,-y,-z
x,y,-z
-x,y,z
x,-y,z
loop_
_atom_site_type_symbol
_atom_site_label
_atom_site_fract_x
_atom_site_fract_y
_atom_site_fract_z
Si Si1 0.500000 0.052315 0.178891
Si Si2 0.341175 0.280743 0.178286
Si Si3 0.839821 0.194096 0.175506
Si Si4 0.836524 0.449956 0.169284
Si Si5 0.244076 0.100306 0.321964
Si Si6 0.841842 0.358573 0.322728
Si Si7 0.000000 0.053058 0.167677
O O1 0.375090 0.082551 0.234565
O O2 0.500000 0.000000 0.243851
O O3 0.500000 0.049842 0.000000
O O4 0.500000 0.277584 0.235874
O O5 0.257379 0.235660 0.228146
O O6 0.264194 0.323791 0.248570
O O7 0.337176 0.286549 0.000000
O O8 0.795185 0.151658 0.277167
O O9 0.000000 0.206663 0.206189
O O10 0.816117 0.182136 0.000000
O O11 0.780047 0.500000 0.223694
O O12 0.788116 0.409506 0.280351
O O13 0.000000 0.452013 0.168121
O O14 0.782039 0.439562 0.000000
O O15 0.267544 0.097532 0.500000
O O16 0.127869 0.065810 0.269477
O O17 0.835071 0.352333 0.500000
O O18 0.000000 0.350452 0.264954
O O19 0.000000 0.000000 0.137032
O O20 0.000000 0.077384 0.000000
#
# Coordination Sequence:
#
# PCOD8197884 Si02
#       7
#     4   8   8   8   8   8   4
#     4  11  25  45  67  89 119 163 207 243 284 345
#     4  10  22  39  60  86 112 147 195 243 289 341
#     4  10  21  39  63  88 117 154 195 238 287 350
#     4   8  14  26  47  76 109 146 189 237 286 337
#     4  12  25  40  62  94 127 157 192 243 300 348
#     4  10  20  33  52  81 116 154 192 235 289 346
#     4  11  23  41  65  91 121 161 205 241 282 343
#
# _framework density 19.199515999999999
#
# number of rings (size 3 to 8) (size 9 to 14) (size 15 to 20)
#    0.000    1.833    0.833    4.000    1.167    6.333 
#    0.000    1.667    0.000    0.500    0.000    3.500 
#    0.000    0.000    0.000    0.000    0.000    0.000 
#
# Total GULP energy -595051.346574 kJ/mol
# GULP energy per Si atom -12396.903054 kJ/mol
# Density = 1.915582 g / cm^3
# Si number density = 19.199516 Si / 1000 Ang^3
#
#
#
# Elastic Constant Matrix: (Units=GPa)
#
#
# Indices 1 2 3 4 5 6 
#
# 1 128.3988 58.1002 29.4549 0.0000 0.0000 0.0000
# 2 58.1002 123.1899 33.4121 0.0000 0.0000 0.0000
# 3 29.4549 33.4121 51.0117 0.0000 0.0000 0.0000
# 4 0.0000 0.0000 0.0000 -1.2961 0.0000 0.0000
# 5 0.0000 0.0000 0.0000 0.0000 -14.2454 0.0000
# 6 0.0000 0.0000 0.0000 0.0000 0.0000 29.9407
#
#
#
# Elastic Compliance Matrix: (Units=1/GPa)
#
#
# Indices 1 2 3 4 5 6 
#
# 1 0.010360 -0.003969 -0.003383 0.000000 0.000000 0.000000
# 2 -0.003969 0.011391 -0.005170 0.000000 0.000000 0.000000
# 3 -0.003383 -0.005170 0.024943 0.000000 0.000000 0.000000
# 4 0.000000 0.000000 0.000000 -0.771550 0.000000 0.000000
# 5 0.000000 0.000000 0.000000 0.000000 -0.070198 0.000000
# 6 0.000000 0.000000 0.000000 0.000000 0.000000 0.033399
#
#
# Mechanical properties :
#
#
# Convention : Reuss Voigt Hill
#
# Bulk Modulus (GPa) = 46.18481 60.50385 53.34433
# Shear Modulus (GPa) = -6.85499 14.98873 4.06687
#
# Velocity S-wave (km/s) = -1.89160 2.79710 1.45699
# Velocity P-wave (km/s) = 4.39733 6.48177 5.53850
#
# Compressibility (1/GPa) = 0.02165214
#
# Stress axis : x y z
#
# Youngs Moduli (GPa) = 96.52487 87.78522 40.09206
#
# Poissons Ratio (x) = 0.34839 0.13562
# Poissons Ratio (y) = 0.38307 0.20726
# Poissons Ratio (z) = 0.32651 0.45382
#
# Static dielectric constant tensor:
#      x y z
#    x 3.683910 0.000000 0.000000 
#    y 0.000000 3.866290 0.000000 
#    z 0.000000 0.000000 3.504870 
# 
# 
# High freq. dielectric constant tensor:
#      x y z
#    x 1.734340 0.000000 0.000000 
#    y 0.000000 1.761670 0.000000 
#    z 0.000000 0.000000 1.742460 
# 
# From -- ./inp_files/2805.got.cif
#   From: 2010.03.12/outbox.cif.g09.slc.cpg/sg47_2_cif.got.tgz:2805.got - 2010.04.14 03:12:58.
