data_PCOD8197489
_publ_section_title
;
Structure prediction by ZEFSAII (Michael W. Deem and Ramdas Pophale) SiO2 
 PCOD8197489
Probable space group: P M M M
;
_chemical_formula_sum "Si O2"
_cell_formula_units_Z 64
_cell_length_a 29.390791
_cell_length_b 14.673000
_cell_length_c 8.930532
_cell_angle_alpha 90.000000
_cell_angle_beta 90.000000
_cell_angle_gamma 90.000000
_cell_volume 3851.301537
_symmetry_space_group_name_H-M "P M M M"
_symmetry_group_IT_number 47
_symmetry_cell_setting 'orthorhombic'
loop_
_space_group_symop_operation_xyz
x,y,z
-x,-y,z
x,-y,-z
-x,y,-z
-x,-y,-z
x,y,-z
-x,y,z
x,-y,z
loop_
_atom_site_type_symbol
_atom_site_label
_atom_site_fract_x
_atom_site_fract_y
_atom_site_fract_z
Si Si1 0.648686 0.102436 0.173535
Si Si2 0.449958 0.168463 0.171544
Si Si3 0.695127 0.269640 0.675143
Si Si4 0.950088 0.608369 0.168288
Si Si5 0.550468 0.643578 0.669394
Si Si6 0.137232 0.392253 0.666038
Si Si7 0.367201 0.598999 0.832474
Si Si8 0.770711 0.604743 0.822816
O O1 0.594415 0.107910 0.210952
O O2 0.682272 0.169319 0.265136
O O3 0.664022 0.000000 0.213811
O O4 0.656693 0.124428 0.000000
O O5 0.500000 0.118856 0.191423
O O6 0.448268 0.251210 0.285669
O O7 0.445863 0.203042 0.000000
O O8 0.705323 0.263929 0.500000
O O9 0.652020 0.332735 0.709314
O O10 0.737098 0.319751 0.755578
O O11 0.946759 0.500000 0.166879
O O12 0.909719 0.650132 0.269445
O O13 0.000000 0.638093 0.230351
O O14 0.943835 0.645419 0.000000
O O15 0.568685 0.633547 0.500000
O O16 0.500000 0.603515 0.681599
O O17 0.580584 0.585730 0.785367
O O18 0.145468 0.352239 0.500000
O O19 0.132301 0.500000 0.658761
O O20 0.179042 0.365235 0.772265
O O21 0.342874 0.500000 0.828386
O O22 0.362427 0.640054 0.000000
O O23 0.760220 0.500000 0.768990
O O24 0.767165 0.609963 0.000000
#
# Coordination Sequence:
#
# PCOD8197489 Si02
#       8
#     8   8   8   8   8   8   8   8
#     4  10  21  37  57  79 102 127 154 184 221 272
#     4   9  17  31  53  77 100 125 150 178 214 261
#     4  12  24  37  54  74  97 123 151 191 238 280
#     4   8  13  21  33  50  76 114 159 203 245 287
#     4  10  20  33  50  72  97 123 149 180 221 265
#     4   9  16  25  38  59  87 117 154 201 247 289
#     4  11  23  37  53  72  94 122 156 189 223 269
#     4  10  20  34  52  71  93 124 161 201 244 290
#
# _framework density 16.617760000000001
#
# number of rings (size 3 to 8) (size 9 to 14) (size 15 to 20)
#    0.000    2.125    1.250    3.375    0.000    6.500 
#    0.000    3.750    0.000    0.000    0.000    2.625 
#    0.000    0.000    0.000    0.000    0.000    0.625 
#
# Total GULP energy -792947.418696 kJ/mol
# GULP energy per Si atom -12389.803417 kJ/mol
# Density = 1.657994 g / cm^3
# Si number density = 16.617760 Si / 1000 Ang^3
#
#
#
# Elastic Constant Matrix: (Units=GPa)
#
#
# Indices 1 2 3 4 5 6 
#
# 1 113.5121 34.5812 46.7235 0.0000 0.0000 0.0000
# 2 34.5812 67.2015 29.5118 0.0000 0.0000 0.0000
# 3 46.7235 29.5118 85.6467 0.0000 0.0000 0.0000
# 4 0.0000 0.0000 0.0000 1.5822 0.0000 0.0000
# 5 0.0000 0.0000 0.0000 0.0000 27.0997 0.0000
# 6 0.0000 0.0000 0.0000 0.0000 0.0000 -18.1975
#
#
#
# Elastic Compliance Matrix: (Units=1/GPa)
#
#
# Indices 1 2 3 4 5 6 
#
# 1 0.012190 -0.003950 -0.005289 0.000000 0.000000 0.000000
# 2 -0.003950 0.018814 -0.004328 0.000000 0.000000 0.000000
# 3 -0.005289 -0.004328 0.016053 0.000000 0.000000 0.000000
# 4 0.000000 0.000000 0.000000 0.632036 0.000000 0.000000
# 5 0.000000 0.000000 0.000000 0.000000 0.036901 0.000000
# 6 0.000000 0.000000 0.000000 0.000000 0.000000 -0.054953
#
#
# Mechanical properties :
#
#
# Convention : Reuss Voigt Hill
#
# Bulk Modulus (GPa) = 50.19473 54.22148 52.20810
# Shear Modulus (GPa) = 7.19615 12.46646 9.83131
#
# Velocity S-wave (km/s) = 2.08322 2.74193 2.43495
# Velocity P-wave (km/s) = 6.00479 6.53634 6.27619
#
# Compressibility (1/GPa) = 0.01992241
#
# Stress axis : x y z
#
# Youngs Moduli (GPa) = 82.03376 53.15204 62.29555
#
# Poissons Ratio (x) = 0.20996 0.32948
# Poissons Ratio (y) = 0.32405 0.26961
# Poissons Ratio (z) = 0.43388 0.23003
#
# Static dielectric constant tensor:
#      x y z
#    x 3.332660 0.000000 0.000000 
#    y 0.000000 2.729850 0.000000 
#    z 0.000000 0.000000 3.204370 
# 
# 
# High freq. dielectric constant tensor:
#      x y z
#    x 1.636010 0.000000 0.000000 
#    y 0.000000 1.583070 0.000000 
#    z 0.000000 0.000000 1.647430 
# 
# From -- ./inp_files/14329.got.cif
#   From: 2010.03.12/outbox.cif.g09.slc.cpg/sg47_8_cif.got.tgz:14329.got - 2010.04.14 03:12:58.
