data_PCOD8197888
_publ_section_title
;
Structure prediction by ZEFSAII (Michael W. Deem and Ramdas Pophale) SiO2 
 PCOD8197888
Probable space group: P M M M
;
_chemical_formula_sum "Si O2"
_cell_formula_units_Z 56
_cell_length_a 8.960531
_cell_length_b 14.216817
_cell_length_c 22.803719
_cell_angle_alpha 90.000000
_cell_angle_beta 90.000000
_cell_angle_gamma 90.000000
_cell_volume 2904.970996
_symmetry_space_group_name_H-M "P M M M"
_symmetry_group_IT_number 47
_symmetry_cell_setting 'orthorhombic'
loop_
_space_group_symop_operation_xyz
x,y,z
-x,-y,z
x,-y,-z
-x,y,-z
-x,-y,-z
x,y,-z
-x,y,z
x,-y,z
loop_
_atom_site_type_symbol
_atom_site_label
_atom_site_fract_x
_atom_site_fract_y
_atom_site_fract_z
Si Si1 0.830119 0.391848 0.725182
Si Si2 0.328291 0.109094 0.216215
Si Si3 0.828095 0.291577 0.393626
Si Si4 0.323946 0.606773 0.500000
Si Si5 0.828729 0.894809 0.663345
Si Si6 0.176635 0.781642 0.886991
Si Si7 0.822477 0.893995 0.000000
Si Si8 0.675431 0.606881 0.155556
O O1 0.811484 0.500000 0.707689
O O2 0.780550 0.332742 0.669075
O O3 0.723396 0.364227 0.778767
O O4 0.000000 0.368748 0.743771
O O5 0.500000 0.139687 0.209970
O O6 0.275363 0.130577 0.281942
O O7 0.228558 0.168119 0.171994
O O8 0.305464 0.000000 0.201185
O O9 0.727752 0.337228 0.443070
O O10 0.799486 0.178968 0.389529
O O11 0.000000 0.314743 0.408129
O O12 0.259831 0.500000 0.500000
O O13 0.500000 0.603880 0.500000
O O14 0.000000 0.886377 0.684686
O O15 0.794176 0.000000 0.639751
O O16 0.236929 0.839889 0.942666
O O17 0.244491 0.676422 0.890279
O O18 0.000000 0.774329 0.887732
O O19 0.000000 0.897201 0.000000
O O20 0.757515 0.000000 0.000000
O O21 0.500000 0.618625 0.149737
O O22 0.726133 0.500000 0.141733
#
# Coordination Sequence:
#
# PCOD8197888 Si02
#       8
#     8   8   8   4   8   8   4   8
#     4   9  17  30  51  80 109 137 175 221 265 313
#     4  10  20  33  52  82 117 148 178 216 266 323
#     4  10  20  35  56  79 104 139 179 217 260 309
#     4  11  25  41  56  77 104 134 171 217 268 321
#     4   9  18  33  54  82 113 143 178 219 262 310
#     4  11  21  35  57  80 105 141 183 227 272 318
#     4   9  20  38  58  81 106 134 175 225 272 317
#     4  10  21  36  54  79 112 146 178 217 268 324
#
# _framework density 19.2773
#
# number of rings (size 3 to 8) (size 9 to 14) (size 15 to 20)
#    0.000    2.143    0.000    3.214    0.000    5.714 
#    0.000    3.571    0.000    6.857    0.000    0.000 
#    0.000    0.000    0.000    0.000    0.000    0.000 
#
# Total GULP energy -694496.957792 kJ/mol
# GULP energy per Si atom -12401.731389 kJ/mol
# Density = 1.923342 g / cm^3
# Si number density = 19.277300 Si / 1000 Ang^3
#
#
#
# Elastic Constant Matrix: (Units=GPa)
#
#
# Indices 1 2 3 4 5 6 
#
# 1 68.4507 45.4506 35.9449 0.0000 0.0000 0.0000
# 2 45.4506 140.7120 78.0529 0.0000 0.0000 0.0000
# 3 35.9449 78.0529 78.3485 0.0000 0.0000 0.0000
# 4 0.0000 0.0000 0.0000 32.0078 0.0000 0.0000
# 5 0.0000 0.0000 0.0000 0.0000 3.0930 0.0000
# 6 0.0000 0.0000 0.0000 0.0000 0.0000 29.0531
#
#
#
# Elastic Compliance Matrix: (Units=1/GPa)
#
#
# Indices 1 2 3 4 5 6 
#
# 1 0.019809 -0.003034 -0.006066 0.000000 0.000000 0.000000
# 2 -0.003034 0.016349 -0.014896 0.000000 0.000000 0.000000
# 3 -0.006066 -0.014896 0.030386 0.000000 0.000000 0.000000
# 4 0.000000 0.000000 0.000000 0.031242 0.000000 0.000000
# 5 0.000000 0.000000 0.000000 0.000000 0.323308 0.000000
# 6 0.000000 0.000000 0.000000 0.000000 0.000000 0.034420
#
#
# Mechanical properties :
#
#
# Convention : Reuss Voigt Hill
#
# Bulk Modulus (GPa) = 53.89793 67.37864 60.63829
# Shear Modulus (GPa) = 9.80991 21.36830 15.58910
#
# Velocity S-wave (km/s) = 2.25829 3.33298 2.84681
# Velocity P-wave (km/s) = 5.90083 7.05974 6.50614
#
# Compressibility (1/GPa) = 0.01855359
#
# Stress axis : x y z
#
# Youngs Moduli (GPa) = 50.48326 61.16467 32.91007
#
# Poissons Ratio (x) = 0.18555 0.19962
# Poissons Ratio (y) = 0.15315 0.49022
# Poissons Ratio (z) = 0.30621 0.91110
#
# Static dielectric constant tensor:
#      x y z
#    x 3.429000 0.000000 0.000000 
#    y 0.000000 3.962500 0.000000 
#    z 0.000000 0.000000 3.366030 
# 
# 
# High freq. dielectric constant tensor:
#      x y z
#    x 1.741380 0.000000 0.000000 
#    y 0.000000 1.772430 0.000000 
#    z 0.000000 0.000000 1.724230 
# 
# From -- ./inp_files/29793.got.cif
#   From: 2010.03.12/outbox.cif.g09.slc.cpg/sg47_15_cif.got.tgz:29793.got - 2010.04.14 03:12:58.
