data_PCOD8197234
_publ_section_title
;
Structure prediction by ZEFSAII (Michael W. Deem and Ramdas Pophale) SiO2 
 PCOD8197234
Probable space group: P M M M
;
_chemical_formula_sum "Si O2"
_cell_formula_units_Z 40
_cell_length_a 16.308484
_cell_length_b 9.419772
_cell_length_c 14.091705
_cell_angle_alpha 90.000000
_cell_angle_beta 90.000000
_cell_angle_gamma 90.000000
_cell_volume 2164.798737
_symmetry_space_group_name_H-M "P M M M"
_symmetry_group_IT_number 47
_symmetry_cell_setting 'orthorhombic'
loop_
_space_group_symop_operation_xyz
x,y,z
-x,-y,z
x,-y,-z
-x,y,-z
-x,-y,-z
x,y,-z
-x,y,z
x,-y,z
loop_
_atom_site_type_symbol
_atom_site_label
_atom_site_fract_x
_atom_site_fract_y
_atom_site_fract_z
Si Si1 0.338311 0.833541 0.389618
Si Si2 0.358417 0.156245 0.894357
Si Si3 0.208011 0.158190 0.761947
Si Si4 0.096361 0.336639 0.106799
Si Si5 0.500000 0.657826 0.886674
Si Si6 0.500000 0.662263 0.612017
O O1 0.319906 0.806546 0.500000
O O2 0.256348 0.784864 0.331886
O O3 0.417811 0.745164 0.354472
O O4 0.355893 0.000000 0.368464
O O5 0.272108 0.153999 0.845864
O O6 0.420492 0.265006 0.843661
O O7 0.398854 0.000000 0.893136
O O8 0.341782 0.210313 0.000000
O O9 0.136032 0.256469 0.802807
O O10 0.172787 0.000000 0.741985
O O11 0.122685 0.500000 0.115115
O O12 0.000000 0.317967 0.119517
O O13 0.121140 0.281452 0.000000
O O14 0.500000 0.500000 0.847514
O O15 0.500000 0.668747 0.000000
O O16 0.500000 0.500000 0.651702
O O17 0.500000 0.659971 0.500000
#
# Coordination Sequence:
#
# PCOD8197234 Si02
#       6
#     8   8   8   8   4   4
#     4   9  18  33  51  71 100 137 173 212 259 304
#     4   9  17  29  43  60  87 120 151 188 235 281
#     4  10  20  32  50  76  99 124 164 208 247 292
#     4   9  19  36  56  78 105 134 160 191 241 304
#     4   9  17  28  41  58  83 119 160 193 223 270
#     4   9  17  30  49  72  97 129 174 222 261 299
#
# _framework density 18.477467999999998
#
# number of rings (size 3 to 8) (size 9 to 14) (size 15 to 20)
#    0.000    2.800    0.000    1.800    0.000    6.400 
#    0.000    7.000    0.000    0.600    0.000    4.200 
#    0.000    0.000    0.000    0.000    0.000    0.000 
#
# Total GULP energy -495540.982250 kJ/mol
# GULP energy per Si atom -12388.524556 kJ/mol
# Density = 1.843541 g / cm^3
# Si number density = 18.477468 Si / 1000 Ang^3
#
#
#
# Elastic Constant Matrix: (Units=GPa)
#
#
# Indices 1 2 3 4 5 6 
#
# 1 70.1656 41.8901 37.2346 0.0000 0.0000 0.0000
# 2 41.8901 86.0002 27.5557 0.0000 0.0000 0.0000
# 3 37.2346 27.5557 95.2446 0.0000 0.0000 0.0000
# 4 0.0000 0.0000 0.0000 14.9432 0.0000 0.0000
# 5 0.0000 0.0000 0.0000 0.0000 46.9897 0.0000
# 6 0.0000 0.0000 0.0000 0.0000 0.0000 22.4848
#
#
#
# Elastic Compliance Matrix: (Units=1/GPa)
#
#
# Indices 1 2 3 4 5 6 
#
# 1 0.023148 -0.009232 -0.006379 0.000000 0.000000 0.000000
# 2 -0.009232 0.016497 -0.001164 0.000000 0.000000 0.000000
# 3 -0.006379 -0.001164 0.013330 0.000000 0.000000 0.000000
# 4 0.000000 0.000000 0.000000 0.066920 0.000000 0.000000
# 5 0.000000 0.000000 0.000000 0.000000 0.021281 0.000000
# 6 0.000000 0.000000 0.000000 0.000000 0.000000 0.044474
#
#
# Mechanical properties :
#
#
# Convention : Reuss Voigt Hill
#
# Bulk Modulus (GPa) = 51.47482 51.64126 51.55804
# Shear Modulus (GPa) = 22.15570 26.53222 24.34396
#
# Velocity S-wave (km/s) = 3.46651 3.79347 3.63367
# Velocity P-wave (km/s) = 6.62879 6.86994 6.75044
#
# Compressibility (1/GPa) = 0.01942697
#
# Stress axis : x y z
#
# Youngs Moduli (GPa) = 43.19956 60.61536 75.02027
#
# Poissons Ratio (x) = 0.55957 0.47853
# Poissons Ratio (y) = 0.39880 0.08732
# Poissons Ratio (z) = 0.27556 0.07056
#
# Static dielectric constant tensor:
#      x y z
#    x 3.192930 0.000000 0.000000 
#    y 0.000000 3.668820 0.000000 
#    z 0.000000 0.000000 3.417460 
# 
# 
# High freq. dielectric constant tensor:
#      x y z
#    x 1.693240 0.000000 0.000000 
#    y 0.000000 1.711430 0.000000 
#    z 0.000000 0.000000 1.715170 
# 
# From -- ./inp_files/23353.got.cif
#   From: 2010.03.12/outbox.cif.g09.slc.cpg/sg47_12_cif.got.tgz:23353.got - 2010.04.14 03:12:58.
