data_PCOD8197082
_publ_section_title
;
Structure prediction by ZEFSAII (Michael W. Deem and Ramdas Pophale) SiO2 
 PCOD8197082
Probable space group: P M M M
;
_chemical_formula_sum "Si O2"
_cell_formula_units_Z 44
_cell_length_a 7.855550
_cell_length_b 30.076441
_cell_length_c 9.178537
_cell_angle_alpha 90.000000
_cell_angle_beta 90.000000
_cell_angle_gamma 90.000000
_cell_volume 2168.585274
_symmetry_space_group_name_H-M "P M M M"
_symmetry_group_IT_number 47
_symmetry_cell_setting 'orthorhombic'
loop_
_space_group_symop_operation_xyz
x,y,z
-x,-y,z
x,-y,-z
-x,y,-z
-x,-y,-z
x,y,-z
-x,y,z
x,-y,z
loop_
_atom_site_type_symbol
_atom_site_label
_atom_site_fract_x
_atom_site_fract_y
_atom_site_fract_z
Si Si1 0.302061 0.868799 0.339766
Si Si2 0.691023 0.389893 0.832108
Si Si3 0.297484 0.950980 0.163342
Si Si4 0.199353 0.695469 0.669591
Si Si5 0.000000 0.549524 0.827301
Si Si6 0.201201 0.216931 0.165496
O O1 0.219223 0.861457 0.500000
O O2 0.500000 0.877598 0.358081
O O3 0.218384 0.912593 0.265983
O O4 0.276774 0.826390 0.239240
O O5 0.500000 0.409881 0.816463
O O6 0.700202 0.345642 0.736966
O O7 0.829307 0.425358 0.773374
O O8 0.731001 0.377772 0.000000
O O9 0.500000 0.947766 0.161135
O O10 0.241237 0.000000 0.219858
O O11 0.227614 0.943451 0.000000
O O12 0.242745 0.699419 0.500000
O O13 0.266280 0.739946 0.747627
O O14 0.000000 0.688189 0.697949
O O15 0.000000 0.500000 0.759220
O O16 0.000000 0.546280 0.000000
O O17 0.000000 0.214081 0.171946
O O18 0.267682 0.219860 0.000000
#
# Coordination Sequence:
#
# PCOD8197082 Si02
#       6
#     8   8   8   8   4   8
#     4  10  20  32  48  73 104 135 168 211 263 318
#     4  10  20  34  56  85 115 150 191 234 282 335
#     4   8  14  26  45  68  94 127 168 213 262 316
#     4  10  20  35  56  79 105 140 180 223 274 329
#     4   9  18  34  57  85 119 155 191 239 288 329
#     4  10  21  36  55  77 102 137 178 218 263 317
#
# _framework density 20.289725000000001
#
# number of rings (size 3 to 8) (size 9 to 14) (size 15 to 20)
#    0.000    2.455    0.909    2.182    0.000    4.727 
#    0.000    3.636    0.000    1.636    0.000    5.091 
#    0.000    0.000    0.000    0.000    0.000    0.000 
#
# Total GULP energy -545527.755427 kJ/mol
# GULP energy per Si atom -12398.358078 kJ/mol
# Density = 2.024354 g / cm^3
# Si number density = 20.289725 Si / 1000 Ang^3
#
#
#
# Elastic Constant Matrix: (Units=GPa)
#
#
# Indices 1 2 3 4 5 6 
#
# 1 61.9711 43.7248 30.0227 0.0000 0.0000 0.0000
# 2 43.7248 168.0215 65.5980 0.0000 0.0000 0.0000
# 3 30.0227 65.5980 119.5314 0.0000 0.0000 0.0000
# 4 0.0000 0.0000 0.0000 7.7454 0.0000 0.0000
# 5 0.0000 0.0000 0.0000 0.0000 16.8624 0.0000
# 6 0.0000 0.0000 0.0000 0.0000 0.0000 27.4242
#
#
#
# Elastic Compliance Matrix: (Units=1/GPa)
#
#
# Indices 1 2 3 4 5 6 
#
# 1 0.020489 -0.004229 -0.002825 0.000000 0.000000 0.000000
# 2 -0.004229 0.008447 -0.003574 0.000000 0.000000 0.000000
# 3 -0.002825 -0.003574 0.011037 0.000000 0.000000 0.000000
# 4 0.000000 0.000000 0.000000 0.129109 0.000000 0.000000
# 5 0.000000 0.000000 0.000000 0.000000 0.059303 0.000000
# 6 0.000000 0.000000 0.000000 0.000000 0.000000 0.036464
#
#
# Mechanical properties :
#
#
# Convention : Reuss Voigt Hill
#
# Bulk Modulus (GPa) = 53.42642 69.80166 61.61404
# Shear Modulus (GPa) = 17.10306 24.41831 20.76068
#
# Velocity S-wave (km/s) = 2.90650 3.47289 3.20224
# Velocity P-wave (km/s) = 6.13617 7.11044 6.64120
#
# Compressibility (1/GPa) = 0.01871733
#
# Stress axis : x y z
#
# Youngs Moduli (GPa) = 48.80634 118.38071 90.60526
#
# Poissons Ratio (x) = 0.50061 0.25600
# Poissons Ratio (y) = 0.20639 0.32379
# Poissons Ratio (z) = 0.13790 0.42305
#
# Static dielectric constant tensor:
#      x y z
#    x 3.429570 0.000000 0.000000 
#    y 0.000000 3.825340 0.000000 
#    z 0.000000 0.000000 3.817470 
# 
# 
# High freq. dielectric constant tensor:
#      x y z
#    x 1.771210 0.000000 0.000000 
#    y 0.000000 1.795640 0.000000 
#    z 0.000000 0.000000 1.784490 
# 
# From -- ./inp_files/2314.got.cif
#   From: 2010.03.12/outbox.cif.g09.slc.cpg/sg47_2_cif.got.tgz:2314.got - 2010.04.14 03:12:58.
