data_PCOD8197269
_publ_section_title
;
Structure prediction by ZEFSAII (Michael W. Deem and Ramdas Pophale) SiO2 
 PCOD8197269
Probable space group: P M M M
;
_chemical_formula_sum "Si O2"
_cell_formula_units_Z 64
_cell_length_a 25.254345
_cell_length_b 14.506862
_cell_length_c 9.033503
_cell_angle_alpha 90.000000
_cell_angle_beta 90.000000
_cell_angle_gamma 90.000000
_cell_volume 3309.525883
_symmetry_space_group_name_H-M "P M M M"
_symmetry_group_IT_number 47
_symmetry_cell_setting 'orthorhombic'
loop_
_space_group_symop_operation_xyz
x,y,z
-x,-y,z
x,-y,-z
-x,y,-z
-x,-y,-z
x,y,-z
-x,y,z
x,-y,z
loop_
_atom_site_type_symbol
_atom_site_label
_atom_site_fract_x
_atom_site_fract_y
_atom_site_fract_z
Si Si1 0.867597 0.264542 0.173073
Si Si2 0.058789 0.391567 0.664875
Si Si3 0.059584 0.897099 0.823774
Si Si4 0.347525 0.393909 0.174103
Si Si5 0.415017 0.103518 0.173827
Si Si6 0.748202 0.738799 0.826007
Si Si7 0.558560 0.716421 0.670630
Si Si8 0.305639 0.102968 0.331721
O O1 0.900091 0.354145 0.217029
O O2 0.896666 0.174024 0.242798
O O3 0.807655 0.285058 0.224221
O O4 0.868417 0.252126 0.000000
O O5 0.073527 0.357093 0.500000
O O6 0.061433 0.500000 0.672023
O O7 0.000000 0.357348 0.707118
O O8 0.000000 0.870613 0.769841
O O9 0.074091 0.000000 0.767714
O O10 0.060708 0.894636 0.000000
O O11 0.343160 0.500000 0.227045
O O12 0.292883 0.342447 0.218073
O O13 0.397844 0.346127 0.249847
O O14 0.357176 0.388078 0.000000
O O15 0.447297 0.181374 0.260075
O O16 0.354764 0.113594 0.222583
O O17 0.436197 0.000000 0.211285
O O18 0.419367 0.122885 0.000000
O O19 0.738347 0.829539 0.730202
O O20 0.743873 0.760665 0.000000
O O21 0.575072 0.725670 0.500000
O O22 0.500000 0.670815 0.686331
O O23 0.322077 0.128520 0.500000
O O24 0.282398 0.000000 0.325148
#
# Coordination Sequence:
#
# PCOD8197269 Si02
#       8
#     8   8   8   8   8   8   8   8
#     4  10  20  32  52  83 112 139 181 234 280 325
#     4   9  19  36  55  75 104 143 183 224 276 337
#     4   8  14  26  45  71 106 146 184 224 272 321
#     4  10  22  41  62  81 106 145 191 236 286 345
#     4  10  20  35  58  87 118 152 188 225 269 325
#     4  10  21  36  55  82 114 148 185 229 282 337
#     4  11  24  40  60  88 119 148 183 232 284 336
#     4  10  20  34  55  82 112 148 188 228 270 320
#
# _framework density 19.338115999999999
#
# number of rings (size 3 to 8) (size 9 to 14) (size 15 to 20)
#    0.000    2.250    1.250    2.250    0.000    5.750 
#    0.000    5.625    0.000    0.375    0.000    1.750 
#    0.000    0.000    0.000    0.000    0.000    0.000 
#
# Total GULP energy -793263.401259 kJ/mol
# GULP energy per Si atom -12394.740645 kJ/mol
# Density = 1.929410 g / cm^3
# Si number density = 19.338116 Si / 1000 Ang^3
#
#
#
# Elastic Constant Matrix: (Units=GPa)
#
#
# Indices 1 2 3 4 5 6 
#
# 1 142.8320 69.2428 33.4702 0.0000 0.0000 0.0000
# 2 69.2428 108.4611 36.2198 0.0000 0.0000 0.0000
# 3 33.4702 36.2198 32.0612 0.0000 0.0000 0.0000
# 4 0.0000 0.0000 0.0000 25.0781 0.0000 0.0000
# 5 0.0000 0.0000 0.0000 0.0000 18.3333 0.0000
# 6 0.0000 0.0000 0.0000 0.0000 0.0000 14.6947
#
#
#
# Elastic Compliance Matrix: (Units=1/GPa)
#
#
# Indices 1 2 3 4 5 6 
#
# 1 0.010722 -0.004990 -0.005557 0.000000 0.000000 0.000000
# 2 -0.004990 0.017127 -0.014140 0.000000 0.000000 0.000000
# 3 -0.005557 -0.014140 0.052965 0.000000 0.000000 0.000000
# 4 0.000000 0.000000 0.000000 0.039875 0.000000 0.000000
# 5 0.000000 0.000000 0.000000 0.000000 0.054545 0.000000
# 6 0.000000 0.000000 0.000000 0.000000 0.000000 0.068052
#
#
# Mechanical properties :
#
#
# Convention : Reuss Voigt Hill
#
# Bulk Modulus (GPa) = 31.80429 62.35777 47.08103
# Shear Modulus (GPa) = 16.49404 21.24934 18.87169
#
# Velocity S-wave (km/s) = 2.92366 3.31846 3.12730
# Velocity P-wave (km/s) = 5.28008 6.85558 6.11875
#
# Compressibility (1/GPa) = 0.03144230
#
# Stress axis : x y z
#
# Youngs Moduli (GPa) = 93.26436 58.38674 18.88036
#
# Poissons Ratio (x) = 0.29132 0.10491
# Poissons Ratio (y) = 0.46535 0.26697
# Poissons Ratio (z) = 0.51824 0.82558
#
# Static dielectric constant tensor:
#      x y z
#    x 3.647750 0.000000 0.000000 
#    y 0.000000 3.671060 0.000000 
#    z 0.000000 0.000000 3.379440 
# 
# 
# High freq. dielectric constant tensor:
#      x y z
#    x 1.752550 0.000000 0.000000 
#    y 0.000000 1.753770 0.000000 
#    z 0.000000 0.000000 1.735730 
# 
# From -- ./inp_files/12709.got.cif
#   From: 2010.03.12/outbox.cif.g09.slc.cpg/sg47_7_cif.got.tgz:12709.got - 2010.04.14 03:12:58.
