data_PCOD8197836
_publ_section_title
;
Structure prediction by ZEFSAII (Michael W. Deem and Ramdas Pophale) SiO2 
 PCOD8197836
Probable space group: P M M M
;
_chemical_formula_sum "Si O2"
_cell_formula_units_Z 48
_cell_length_a 30.920586
_cell_length_b 9.387429
_cell_length_c 8.612915
_cell_angle_alpha 90.000000
_cell_angle_beta 90.000000
_cell_angle_gamma 90.000000
_cell_volume 2500.026099
_symmetry_space_group_name_H-M "P M M M"
_symmetry_group_IT_number 47
_symmetry_cell_setting 'orthorhombic'
loop_
_space_group_symop_operation_xyz
x,y,z
-x,-y,z
x,-y,-z
-x,y,-z
-x,-y,-z
x,y,-z
-x,y,z
x,-y,z
loop_
_atom_site_type_symbol
_atom_site_label
_atom_site_fract_x
_atom_site_fract_y
_atom_site_fract_z
Si Si1 0.127211 0.840205 0.316101
Si Si2 0.547365 0.339413 0.815433
Si Si3 0.627819 0.834724 0.178167
Si Si4 0.952090 0.340211 0.684693
Si Si5 0.205186 0.335868 0.818675
Si Si6 0.718272 0.164593 0.319294
O O1 0.124387 0.847256 0.500000
O O2 0.083844 0.766962 0.246896
O O3 0.168413 0.747841 0.272369
O O4 0.131101 0.000000 0.247254
O O5 0.500000 0.285911 0.756773
O O6 0.555041 0.500000 0.757929
O O7 0.586116 0.243605 0.748499
O O8 0.548131 0.331715 0.000000
O O9 0.669338 0.791958 0.279226
O O10 0.617593 0.000000 0.191092
O O11 0.636484 0.789570 0.000000
O O12 0.950342 0.339819 0.500000
O O13 0.942260 0.500000 0.745455
O O14 0.000000 0.291829 0.740467
O O15 0.205492 0.500000 0.764207
O O16 0.251005 0.265459 0.780386
O O17 0.195974 0.323340 0.000000
O O18 0.727124 0.190017 0.500000
O O19 0.726892 0.000000 0.273546
#
# Coordination Sequence:
#
# PCOD8197836 Si02
#       6
#     8   8   8   8   8   8
#     4  10  20  33  52  79 108 138 172 210 254 302
#     4   8  14  25  42  66  96 128 162 202 246 289
#     4   9  17  29  47  72 100 129 162 202 247 294
#     4   8  14  26  46  73 105 140 175 210 249 293
#     4  11  24  39  55  76 101 131 169 211 255 304
#     4  10  21  37  56  77 102 132 166 205 252 306
#
# _framework density 19.199798000000001
#
# number of rings (size 3 to 8) (size 9 to 14) (size 15 to 20)
#    0.000    2.667    0.000    3.000    0.000    6.667 
#    0.000    5.000    0.000    1.000    0.000    7.000 
#    0.000    0.000    0.000    0.000    0.000    0.000 
#
# Total GULP energy -595088.870942 kJ/mol
# GULP energy per Si atom -12397.684811 kJ/mol
# Density = 1.915610 g / cm^3
# Si number density = 19.199798 Si / 1000 Ang^3
#
#
#
# Elastic Constant Matrix: (Units=GPa)
#
#
# Indices 1 2 3 4 5 6 
#
# 1 144.9420 80.7158 7.6891 0.0000 0.0000 0.0000
# 2 80.7158 116.9239 15.2402 0.0000 0.0000 0.0000
# 3 7.6891 15.2402 17.2035 0.0000 0.0000 0.0000
# 4 0.0000 0.0000 0.0000 17.2930 0.0000 0.0000
# 5 0.0000 0.0000 0.0000 0.0000 -28.9209 0.0000
# 6 0.0000 0.0000 0.0000 0.0000 0.0000 44.6279
#
#
#
# Elastic Compliance Matrix: (Units=1/GPa)
#
#
# Indices 1 2 3 4 5 6 
#
# 1 0.011275 -0.008057 0.002098 0.000000 0.000000 0.000000
# 2 -0.008057 0.015426 -0.010065 0.000000 0.000000 0.000000
# 3 0.002098 -0.010065 0.066106 0.000000 0.000000 0.000000
# 4 0.000000 0.000000 0.000000 0.057827 0.000000 0.000000
# 5 0.000000 0.000000 0.000000 0.000000 -0.034577 0.000000
# 6 0.000000 0.000000 0.000000 0.000000 0.000000 0.022407
#
#
# Mechanical properties :
#
#
# Convention : Reuss Voigt Hill
#
# Bulk Modulus (GPa) = 16.45813 54.03996 35.24905
# Shear Modulus (GPa) = 26.21032 18.29496 22.25264
#
# Velocity S-wave (km/s) = 3.69878 3.09021 3.40811
# Velocity P-wave (km/s) = 5.17996 6.39842 5.82116
#
# Compressibility (1/GPa) = 0.06076024
#
# Stress axis : x y z
#
# Youngs Moduli (GPa) = 88.69473 64.82490 15.12715
#
# Poissons Ratio (x) = 0.52227 -0.03174
# Poissons Ratio (y) = 0.71458 0.15225
# Poissons Ratio (z) = -0.18608 0.65245
#
# Static dielectric constant tensor:
#      x y z
#    x 3.847380 0.000000 0.000000 
#    y 0.000000 3.717520 0.000000 
#    z 0.000000 0.000000 3.085270 
# 
# 
# High freq. dielectric constant tensor:
#      x y z
#    x 1.763980 0.000000 0.000000 
#    y 0.000000 1.746290 0.000000 
#    z 0.000000 0.000000 1.703520 
# 
# From -- ./inp_files/2449.got.cif
#   From: 2010.03.12/outbox.cif.g09.slc.cpg/sg47_2_cif.got.tgz:2449.got - 2010.04.14 03:12:58.
