data_PCOD8197495
_publ_section_title
;
Structure prediction by ZEFSAII (Michael W. Deem and Ramdas Pophale) SiO2 
 PCOD8197495
Probable space group: P M M M
;
_chemical_formula_sum "Si O2"
_cell_formula_units_Z 44
_cell_length_a 28.959813
_cell_length_b 8.951340
_cell_length_c 8.977365
_cell_angle_alpha 90.000000
_cell_angle_beta 90.000000
_cell_angle_gamma 90.000000
_cell_volume 2327.194541
_symmetry_space_group_name_H-M "P M M M"
_symmetry_group_IT_number 47
_symmetry_cell_setting 'orthorhombic'
loop_
_space_group_symop_operation_xyz
x,y,z
-x,-y,z
x,-y,-z
-x,y,-z
-x,-y,-z
x,y,-z
-x,y,z
x,-y,z
loop_
_atom_site_type_symbol
_atom_site_label
_atom_site_fract_x
_atom_site_fract_y
_atom_site_fract_z
Si Si1 0.677100 0.175208 0.828623
Si Si2 0.852443 0.321529 0.832424
Si Si3 0.238231 0.322884 0.330420
Si Si4 0.048881 0.332567 0.177048
Si Si5 0.407889 0.327472 0.325034
Si Si6 0.500000 0.677563 0.167878
O O1 0.723765 0.251299 0.774617
O O2 0.634774 0.232123 0.731207
O O3 0.682121 0.000000 0.805913
O O4 0.668494 0.218440 0.000000
O O5 0.855384 0.500000 0.833253
O O6 0.811875 0.265780 0.724135
O O7 0.902326 0.257530 0.771600
O O8 0.842126 0.263726 0.000000
O O9 0.245591 0.270443 0.500000
O O10 0.242297 0.500000 0.316089
O O11 0.046792 0.500000 0.241271
O O12 0.000000 0.251653 0.226105
O O13 0.051289 0.338601 0.000000
O O14 0.413119 0.307447 0.500000
O O15 0.399612 0.500000 0.281653
O O16 0.454354 0.262962 0.250270
O O17 0.500000 0.500000 0.172502
O O18 0.500000 0.739367 0.000000
#
# Coordination Sequence:
#
# PCOD8197495 Si02
#       6
#     8   8   8   8   8   4
#     4  11  24  39  54  74 100 130 166 208 252 297
#     4   8  13  22  38  60  86 118 156 197 239 282
#     4  10  20  33  50  72  97 127 164 204 246 294
#     4   7   9  14  27  50  80 113 149 188 230 277
#     4  10  20  35  57  84 111 138 169 204 243 289
#     4   9  17  31  54  83 112 141 172 206 242 279
#
# _framework density 18.906887000000001
#
# number of rings (size 3 to 8) (size 9 to 14) (size 15 to 20)
#    0.000    2.818    0.000    4.091    0.000    6.909 
#    0.000    0.455    0.000    3.273    0.000    3.818 
#    0.000    0.727    0.000    8.364    0.000    9.636 
#
# Total GULP energy -545180.411957 kJ/mol
# GULP energy per Si atom -12390.463908 kJ/mol
# Density = 1.886385 g / cm^3
# Si number density = 18.906887 Si / 1000 Ang^3
#
#
#
# Elastic Constant Matrix: (Units=GPa)
#
#
# Indices 1 2 3 4 5 6 
#
# 1 165.9374 22.8520 37.0114 0.0000 0.0000 0.0000
# 2 22.8520 19.6411 18.9366 0.0000 0.0000 0.0000
# 3 37.0114 18.9366 69.0419 0.0000 0.0000 0.0000
# 4 0.0000 0.0000 0.0000 16.4928 0.0000 0.0000
# 5 0.0000 0.0000 0.0000 0.0000 10.0872 0.0000
# 6 0.0000 0.0000 0.0000 0.0000 0.0000 -7.2169
#
#
#
# Elastic Compliance Matrix: (Units=1/GPa)
#
#
# Indices 1 2 3 4 5 6 
#
# 1 0.007411 -0.006515 -0.002186 0.000000 0.000000 0.000000
# 2 -0.006515 0.074945 -0.017063 0.000000 0.000000 0.000000
# 3 -0.002186 -0.017063 0.020336 0.000000 0.000000 0.000000
# 4 0.000000 0.000000 0.000000 0.060633 0.000000 0.000000
# 5 0.000000 0.000000 0.000000 0.000000 0.099136 0.000000
# 6 0.000000 0.000000 0.000000 0.000000 0.000000 -0.138564
#
#
# Mechanical properties :
#
#
# Convention : Reuss Voigt Hill
#
# Bulk Modulus (GPa) = 19.54516 45.80226 32.67371
# Shear Modulus (GPa) = 25.97682 15.59397 20.78539
#
# Velocity S-wave (km/s) = 3.71068 2.87501 3.31925
# Velocity P-wave (km/s) = 5.35900 5.94127 5.65763
#
# Compressibility (1/GPa) = 0.05116356
#
# Stress axis : x y z
#
# Youngs Moduli (GPa) = 134.93144 13.34312 49.17439
#
# Poissons Ratio (x) = 0.08693 0.10749
# Poissons Ratio (y) = 0.87910 0.83906
# Poissons Ratio (z) = 0.29495 0.22767
#
# Static dielectric constant tensor:
#      x y z
#    x 4.116350 0.000000 0.000000 
#    y 0.000000 2.921600 0.000000 
#    z 0.000000 0.000000 3.394610 
# 
# 
# High freq. dielectric constant tensor:
#      x y z
#    x 1.767700 0.000000 0.000000 
#    y 0.000000 1.668540 0.000000 
#    z 0.000000 0.000000 1.720190 
# 
# From -- ./inp_files/13669.got.cif
#   From: 2010.03.12/outbox.cif.g09.slc.cpg/sg47_7_cif.got.tgz:13669.got - 2010.04.14 03:12:58.
