data_PCOD8197485
_publ_section_title
;
Structure prediction by ZEFSAII (Michael W. Deem and Ramdas Pophale) SiO2 
 PCOD8197485
Probable space group: P M M M
;
_chemical_formula_sum "Si O2"
_cell_formula_units_Z 48
_cell_length_a 9.307796
_cell_length_b 9.044255
_cell_length_c 31.082074
_cell_angle_alpha 90.000000
_cell_angle_beta 90.000000
_cell_angle_gamma 90.000000
_cell_volume 2616.553656
_symmetry_space_group_name_H-M "P M M M"
_symmetry_group_IT_number 47
_symmetry_cell_setting 'orthorhombic'
loop_
_space_group_symop_operation_xyz
x,y,z
-x,-y,z
x,-y,-z
-x,y,-z
-x,-y,-z
x,y,-z
-x,y,z
x,-y,z
loop_
_atom_site_type_symbol
_atom_site_label
_atom_site_fract_x
_atom_site_fract_y
_atom_site_fract_z
Si Si1 0.171288 0.166966 0.500000
Si Si2 0.666607 0.328817 0.917428
Si Si3 0.171389 0.667024 0.584385
Si Si4 0.171036 0.166826 0.331529
Si Si5 0.162150 0.675815 0.000000
Si Si6 0.332029 0.170977 0.169916
Si Si7 0.168613 0.671525 0.753996
O O1 0.230374 0.249978 0.457818
O O2 0.000000 0.167395 0.500000
O O3 0.230312 0.000000 0.500000
O O4 0.500000 0.307090 0.928750
O O5 0.701502 0.500000 0.907800
O O6 0.713161 0.233861 0.876348
O O7 0.757142 0.266251 0.957532
O O8 0.230119 0.500000 0.584269
O O9 0.231798 0.749801 0.626513
O O10 0.000000 0.667773 0.584579
O O11 0.226663 0.249787 0.289050
O O12 0.000000 0.167607 0.332757
O O13 0.230812 0.000000 0.331231
O O14 0.166100 0.500000 0.000000
O O15 0.000000 0.736910 0.000000
O O16 0.500000 0.195281 0.178048
O O17 0.246720 0.260218 0.205431
O O18 0.288529 0.000000 0.172160
O O19 0.206985 0.500000 0.750345
O O20 0.000000 0.697917 0.759786
#
# Coordination Sequence:
#
# PCOD8197485 Si02
#       7
#     4   8   8   8   4   8   8
#     4   9  15  21  29  43  65  97 140 187 234 283
#     4   9  17  31  51  72  95 126 162 197 236 284
#     4   9  15  22  32  47  70 102 142 187 232 280
#     4   9  16  26  40  58  82 113 148 187 233 285
#     4   9  17  29  48  75 102 126 158 201 242 279
#     4  10  21  36  53  74 100 130 164 202 245 291
#     4  10  20  33  50  72  96 124 160 200 242 290
#
# _framework density 18.344740000000002
#
# number of rings (size 3 to 8) (size 9 to 14) (size 15 to 20)
#    0.000    2.667    0.000    2.500    0.000    8.667 
#    0.000    2.083    0.000    2.500    0.000    0.000 
#    0.000    0.000    0.000    0.750    0.000   14.667 
#
# Total GULP energy -595243.202674 kJ/mol
# GULP energy per Si atom -12400.900056 kJ/mol
# Density = 1.830299 g / cm^3
# Si number density = 18.344740 Si / 1000 Ang^3
#
#
#
# Elastic Constant Matrix: (Units=GPa)
#
#
# Indices 1 2 3 4 5 6 
#
# 1 32.9008 31.8284 47.3215 0.0000 0.0000 0.0000
# 2 31.8284 141.5084 88.2429 0.0000 0.0000 0.0000
# 3 47.3215 88.2429 182.0650 0.0000 0.0000 0.0000
# 4 0.0000 0.0000 0.0000 24.4361 0.0000 0.0000
# 5 0.0000 0.0000 0.0000 0.0000 -3.8022 0.0000
# 6 0.0000 0.0000 0.0000 0.0000 0.0000 14.9277
#
#
#
# Elastic Compliance Matrix: (Units=1/GPa)
#
#
# Indices 1 2 3 4 5 6 
#
# 1 0.050504 -0.004549 -0.010922 0.000000 0.000000 0.000000
# 2 -0.004549 0.010537 -0.003925 0.000000 0.000000 0.000000
# 3 -0.010922 -0.003925 0.010234 0.000000 0.000000 0.000000
# 4 0.000000 0.000000 0.000000 0.040923 0.000000 0.000000
# 5 0.000000 0.000000 0.000000 0.000000 -0.263008 0.000000
# 6 0.000000 0.000000 0.000000 0.000000 0.000000 0.066989
#
#
# Mechanical properties :
#
#
# Convention : Reuss Voigt Hill
#
# Bulk Modulus (GPa) = 30.78461 76.80666 53.79564
# Shear Modulus (GPa) = -146.19735 19.71776 -63.23980
#
# Velocity S-wave (km/s) = -8.93686 3.28204 -5.87774
# Velocity P-wave (km/s) = 9.46955 7.50478 4.08354
#
# Compressibility (1/GPa) = 0.03248376
#
# Stress axis : x y z
#
# Youngs Moduli (GPa) = 19.80034 94.90041 97.71565
#
# Poissons Ratio (x) = 0.43166 1.06728
# Poissons Ratio (y) = 0.09006 0.38353
# Poissons Ratio (z) = 0.21626 0.37248
#
# Static dielectric constant tensor:
#      x y z
#    x 2.889960 0.000000 0.000000 
#    y 0.000000 3.483750 0.000000 
#    z 0.000000 0.000000 3.600990 
# 
# 
# High freq. dielectric constant tensor:
#      x y z
#    x 1.652340 0.000000 0.000000 
#    y 0.000000 1.716460 0.000000 
#    z 0.000000 0.000000 1.730360 
# 
# From -- ./inp_files/34093.got.cif
#   From: 2010.03.12/outbox.cif.g09.slc.cpg/sg47_18_cif.got.tgz:34093.got - 2010.04.14 03:12:58.
