data_PCOD8197305
_publ_section_title
;
Structure prediction by ZEFSAII (Michael W. Deem and Ramdas Pophale) SiO2 
 PCOD8197305
Probable space group: P M M M
;
_chemical_formula_sum "Si O2"
_cell_formula_units_Z 52
_cell_length_a 14.467951
_cell_length_b 23.820845
_cell_length_c 9.222592
_cell_angle_alpha 90.000000
_cell_angle_beta 90.000000
_cell_angle_gamma 90.000000
_cell_volume 3178.463208
_symmetry_space_group_name_H-M "P M M M"
_symmetry_group_IT_number 47
_symmetry_cell_setting 'orthorhombic'
loop_
_space_group_symop_operation_xyz
x,y,z
-x,-y,z
x,-y,-z
-x,y,-z
-x,-y,-z
x,y,-z
-x,y,z
x,-y,z
loop_
_atom_site_type_symbol
_atom_site_label
_atom_site_fract_x
_atom_site_fract_y
_atom_site_fract_z
Si Si1 0.897579 0.276173 0.333128
Si Si2 0.390231 0.000000 0.341002
Si Si3 0.395631 0.120271 0.326335
Si Si4 0.895371 0.609117 0.168709
Si Si5 0.604022 0.663655 0.672645
Si Si6 0.269316 0.437294 0.332638
Si Si7 0.709783 0.773087 0.670212
O O1 0.886164 0.295489 0.500000
O O2 0.880200 0.329492 0.233887
O O3 0.819325 0.230261 0.294286
O O4 0.000000 0.250403 0.306040
O O5 0.362311 0.940929 0.262750
O O6 0.500000 0.000000 0.357824
O O7 0.344083 0.000000 0.500000
O O8 0.391342 0.117126 0.500000
O O9 0.500000 0.133927 0.276354
O O10 0.330175 0.169299 0.261959
O O11 0.826299 0.565995 0.244830
O O12 0.000000 0.588231 0.196157
O O13 0.872283 0.612123 0.000000
O O14 0.601823 0.664385 0.500000
O O15 0.500000 0.662947 0.735251
O O16 0.656699 0.607729 0.727538
O O17 0.656809 0.718615 0.733750
O O18 0.246843 0.424743 0.500000
O O19 0.310197 0.500000 0.312474
O O20 0.691102 0.774738 0.500000
#
# Coordination Sequence:
#
# PCOD8197305 Si02
#       7
#     8   4   8   8   8   8   8
#     4   9  16  27  44  64  86 109 134 169 211 255
#     4   7  10  16  24  38  69 111 144 167 197 239
#     4   8  12  17  27  47  76 108 140 172 204 240
#     4  10  20  33  49  67  86 109 137 171 212 257
#     4   9  16  26  41  62  85 105 131 172 213 244
#     4  10  20  33  48  66  87 111 139 170 208 253
#     4   9  14  21  36  58  80 103 134 172 211 245
#
# _framework density 16.360108
#
# number of rings (size 3 to 8) (size 9 to 14) (size 15 to 20)
#    0.000    3.000    1.538    1.846    0.000    3.692 
#    0.000    3.077    0.000    0.462    0.000    1.615 
#    0.000    4.308    0.000    0.692    0.000   11.615 
#
# Total GULP energy -644317.240722 kJ/mol
# GULP energy per Si atom -12390.716168 kJ/mol
# Density = 1.632287 g / cm^3
# Si number density = 16.360108 Si / 1000 Ang^3
#
#
#
# Elastic Constant Matrix: (Units=GPa)
#
#
# Indices 1 2 3 4 5 6 
#
# 1 114.4785 71.9406 17.8625 0.0000 0.0000 0.0000
# 2 71.9406 145.7398 15.0642 0.0000 0.0000 0.0000
# 3 17.8625 15.0642 24.0903 0.0000 0.0000 0.0000
# 4 0.0000 0.0000 0.0000 2.2702 0.0000 0.0000
# 5 0.0000 0.0000 0.0000 0.0000 7.2786 0.0000
# 6 0.0000 0.0000 0.0000 0.0000 0.0000 24.2170
#
#
#
# Elastic Compliance Matrix: (Units=1/GPa)
#
#
# Indices 1 2 3 4 5 6 
#
# 1 0.013488 -0.006013 -0.006241 0.000000 0.000000 0.000000
# 2 -0.006013 0.010016 -0.001805 0.000000 0.000000 0.000000
# 3 -0.006241 -0.001805 0.047267 0.000000 0.000000 0.000000
# 4 0.000000 0.000000 0.000000 0.440498 0.000000 0.000000
# 5 0.000000 0.000000 0.000000 0.000000 0.137389 0.000000
# 6 0.000000 0.000000 0.000000 0.000000 0.000000 0.041293
#
#
# Mechanical properties :
#
#
# Convention : Reuss Voigt Hill
#
# Bulk Modulus (GPa) = 23.44493 54.89370 39.16931
# Shear Modulus (GPa) = 6.82794 18.71591 12.77192
#
# Velocity S-wave (km/s) = 2.04514 3.38597 2.79709
# Velocity P-wave (km/s) = 4.46525 6.99376 5.86733
#
# Compressibility (1/GPa) = 0.04265315
#
# Stress axis : x y z
#
# Youngs Moduli (GPa) = 74.14240 99.83897 21.15657
#
# Poissons Ratio (x) = 0.60030 0.13204
# Poissons Ratio (y) = 0.44580 0.03819
# Poissons Ratio (z) = 0.46271 0.18021
#
# Static dielectric constant tensor:
#      x y z
#    x 3.224410 0.000000 0.000000 
#    y 0.000000 3.341310 0.000000 
#    z 0.000000 0.000000 2.597550 
# 
# 
# High freq. dielectric constant tensor:
#      x y z
#    x 1.622880 0.000000 0.000000 
#    y 0.000000 1.624830 0.000000 
#    z 0.000000 0.000000 1.569170 
# 
# From -- ./inp_files/7590.got.cif
#   From: 2010.03.12/outbox.cif.g09.slc.cpg/sg47_4_cif.got.tgz:7590.got - 2010.04.14 03:12:58.
