data_PCOD8197386
_publ_section_title
;
Structure prediction by ZEFSAII (Michael W. Deem and Ramdas Pophale) SiO2 
 PCOD8197386
Probable space group: P M M M
;
_chemical_formula_sum "Si O2"
_cell_formula_units_Z 52
_cell_length_a 9.194041
_cell_length_b 19.998639
_cell_length_c 15.673384
_cell_angle_alpha 90.000000
_cell_angle_beta 90.000000
_cell_angle_gamma 90.000000
_cell_volume 2881.838580
_symmetry_space_group_name_H-M "P M M M"
_symmetry_group_IT_number 47
_symmetry_cell_setting 'orthorhombic'
loop_
_space_group_symop_operation_xyz
x,y,z
-x,-y,z
x,-y,-z
-x,y,-z
-x,-y,-z
x,y,-z
-x,y,z
x,-y,z
loop_
_atom_site_type_symbol
_atom_site_label
_atom_site_fract_x
_atom_site_fract_y
_atom_site_fract_z
Si Si1 0.835778 0.837539 0.378151
Si Si2 0.834661 0.811126 0.814384
Si Si3 0.329155 0.675595 0.219532
Si Si4 0.338256 0.926088 0.899534
Si Si5 0.832708 0.578361 0.096662
Si Si6 0.661868 0.078279 0.500000
Si Si7 0.333521 0.705281 0.592833
O O1 0.828079 0.844484 0.277587
O O2 0.745831 0.898948 0.415508
O O3 0.768592 0.769012 0.411649
O O4 0.000000 0.840515 0.411753
O O5 0.742472 0.743165 0.816265
O O6 0.771503 0.867045 0.876374
O O7 0.000000 0.793954 0.841380
O O8 0.500000 0.680450 0.203312
O O9 0.267406 0.613964 0.166221
O O10 0.293985 0.663236 0.321151
O O11 0.500000 0.911026 0.862445
O O12 0.286323 0.000000 0.866889
O O13 0.346637 0.928009 0.000000
O O14 0.806780 0.500000 0.107522
O O15 0.000000 0.596878 0.114624
O O16 0.790795 0.600220 0.000000
O O17 0.500000 0.109102 0.500000
O O18 0.654995 0.000000 0.500000
O O19 0.313307 0.667176 0.500000
O O20 0.500000 0.729136 0.602074
#
# Coordination Sequence:
#
# PCOD8197386 Si02
#       7
#     8   8   8   8   8   4   8
#     4  10  20  33  49  70  95 124 162 208 255 303
#     4  10  21  35  52  76 105 135 169 213 264 315
#     4  10  20  33  53  83 112 139 177 222 265 313
#     4   9  19  36  55  73  95 127 169 216 265 317
#     4   9  19  37  59  81 109 147 184 218 264 320
#     4  11  23  35  47  65  91 127 168 207 254 313
#     4   9  17  31  52  75 102 136 171 209 256 310
#
# _framework density 18.044035999999998
#
# number of rings (size 3 to 8) (size 9 to 14) (size 15 to 20)
#    0.000    2.385    0.769    2.538    0.000    5.538 
#    0.000    4.615    0.000    0.462    0.000    3.231 
#    0.000    0.000    0.000    0.000    0.000    0.000 
#
# Total GULP energy -644441.128151 kJ/mol
# GULP energy per Si atom -12393.098618 kJ/mol
# Density = 1.800297 g / cm^3
# Si number density = 18.044036 Si / 1000 Ang^3
#
#
#
# Elastic Constant Matrix: (Units=GPa)
#
#
# Indices 1 2 3 4 5 6 
#
# 1 118.7275 48.3598 49.4020 0.0000 0.0000 0.0000
# 2 48.3598 69.6511 47.6762 0.0000 0.0000 0.0000
# 3 49.4020 47.6762 94.6986 0.0000 0.0000 0.0000
# 4 0.0000 0.0000 0.0000 28.0674 0.0000 0.0000
# 5 0.0000 0.0000 0.0000 0.0000 558.2704 0.0000
# 6 0.0000 0.0000 0.0000 0.0000 0.0000 58.4555
#
#
#
# Elastic Compliance Matrix: (Units=1/GPa)
#
#
# Indices 1 2 3 4 5 6 
#
# 1 0.012366 -0.006363 -0.003248 0.000000 0.000000 0.000000
# 2 -0.006363 0.025180 -0.009358 0.000000 0.000000 0.000000
# 3 -0.003248 -0.009358 0.016965 0.000000 0.000000 0.000000
# 4 0.000000 0.000000 0.000000 0.035629 0.000000 0.000000
# 5 0.000000 0.000000 0.000000 0.000000 0.001791 0.000000
# 6 0.000000 0.000000 0.000000 0.000000 0.000000 0.017107
#
#
# Mechanical properties :
#
#
# Convention : Reuss Voigt Hill
#
# Bulk Modulus (GPa) = 60.33159 63.77259 62.05209
# Shear Modulus (GPa) = 32.78704 138.13458 85.46081
#
# Velocity S-wave (km/s) = 4.26732 8.75901 6.88950
# Velocity P-wave (km/s) = 7.60187 11.73513 9.88690
#
# Compressibility (1/GPa) = 0.01657506
#
# Stress axis : x y z
#
# Youngs Moduli (GPa) = 80.86983 39.71335 58.94408
#
# Poissons Ratio (x) = 0.25268 0.19142
# Poissons Ratio (y) = 0.51455 0.55159
# Poissons Ratio (z) = 0.26263 0.37163
#
# Static dielectric constant tensor:
#      x y z
#    x 3.565600 0.000000 0.000000 
#    y 0.000000 3.028220 0.000000 
#    z 0.000000 0.000000 3.723550 
# 
# 
# High freq. dielectric constant tensor:
#      x y z
#    x 1.709200 0.000000 0.000000 
#    y 0.000000 1.667950 0.000000 
#    z 0.000000 0.000000 1.707170 
# 
# From -- ./inp_files/21461.got.cif
#   From: 2010.03.12/outbox.cif.g09.slc.cpg/sg47_11_cif.got.tgz:21461.got - 2010.04.14 03:12:58.
