data_PCOD8197731
_publ_section_title
;
Structure prediction by ZEFSAII (Michael W. Deem and Ramdas Pophale) SiO2 
 PCOD8197731
Probable space group: P M M M
;
_chemical_formula_sum "Si O2"
_cell_formula_units_Z 48
_cell_length_a 30.415351
_cell_length_b 9.260827
_cell_length_c 9.360454
_cell_angle_alpha 90.000000
_cell_angle_beta 90.000000
_cell_angle_gamma 90.000000
_cell_volume 2636.571282
_symmetry_space_group_name_H-M "P M M M"
_symmetry_group_IT_number 47
_symmetry_cell_setting 'orthorhombic'
loop_
_space_group_symop_operation_xyz
x,y,z
-x,-y,z
x,-y,-z
-x,y,-z
-x,-y,-z
x,y,-z
-x,y,z
x,-y,z
loop_
_atom_site_type_symbol
_atom_site_label
_atom_site_fract_x
_atom_site_fract_y
_atom_site_fract_z
Si Si1 0.000000 0.336970 0.830117
Si Si2 0.500000 0.663382 0.330043
Si Si3 0.758071 0.332320 0.161642
Si Si4 0.914947 0.168032 0.166149
Si Si5 0.170464 0.169567 0.664179
Si Si6 0.656631 0.335862 0.834154
Si Si7 0.585064 0.166847 0.332089
O O1 0.956700 0.255507 0.773837
O O2 0.000000 0.500000 0.771186
O O3 0.000000 0.333298 0.000000
O O4 0.500000 0.500000 0.270699
O O5 0.500000 0.665368 0.500000
O O6 0.456910 0.745489 0.272711
O O7 0.769240 0.500000 0.178688
O O8 0.786526 0.243347 0.272886
O O9 0.707380 0.302552 0.197840
O O10 0.768539 0.281853 0.000000
O O11 0.872621 0.223400 0.252073
O O12 0.924379 0.000000 0.193433
O O13 0.906353 0.200027 0.000000
O O14 0.165263 0.214544 0.500000
O O15 0.176517 0.000000 0.683457
O O16 0.645277 0.500000 0.789171
O O17 0.628690 0.224536 0.742424
O O18 0.646056 0.312623 0.000000
O O19 0.590766 0.189799 0.500000
O O20 0.578115 0.000000 0.293304
#
# Coordination Sequence:
#
# PCOD8197731 Si02
#       7
#     4   4   8   8   8   8   8
#     4   9  17  29  48  75 100 122 158 209 254 291
#     4   9  17  31  52  75 100 135 176 212 248 295
#     4   9  19  36  56  76  99 131 171 212 254 301
#     4   9  17  31  51  72  96 130 169 205 245 296
#     4  10  21  35  51  75 106 136 168 208 253 301
#     4   9  19  36  55  75 101 133 170 211 254 302
#     4  10  20  33  51  77 107 136 168 209 255 301
#
# _framework density 18.205462000000001
#
# number of rings (size 3 to 8) (size 9 to 14) (size 15 to 20)
#    0.000    2.667    0.000    2.500    0.000    6.667 
#    0.000    7.500    0.000    5.000    0.000    0.000 
#    0.000    0.000    0.000    0.000    0.000    0.000 
#
# Total GULP energy -595295.863188 kJ/mol
# GULP energy per Si atom -12401.997150 kJ/mol
# Density = 1.816403 g / cm^3
# Si number density = 18.205462 Si / 1000 Ang^3
#
#
#
# Elastic Constant Matrix: (Units=GPa)
#
#
# Indices 1 2 3 4 5 6 
#
# 1 132.0065 72.6569 60.7239 0.0000 0.0000 0.0000
# 2 72.6569 98.0428 48.3568 0.0000 0.0000 0.0000
# 3 60.7239 48.3568 67.4454 0.0000 0.0000 0.0000
# 4 0.0000 0.0000 0.0000 26.1338 0.0000 0.0000
# 5 0.0000 0.0000 0.0000 0.0000 17.1616 0.0000
# 6 0.0000 0.0000 0.0000 0.0000 0.0000 36.1215
#
#
#
# Elastic Compliance Matrix: (Units=1/GPa)
#
#
# Indices 1 2 3 4 5 6 
#
# 1 0.015636 -0.007185 -0.008927 0.000000 0.000000 0.000000
# 2 -0.007185 0.019081 -0.007212 0.000000 0.000000 0.000000
# 3 -0.008927 -0.007212 0.028035 0.000000 0.000000 0.000000
# 4 0.000000 0.000000 0.000000 0.038265 0.000000 0.000000
# 5 0.000000 0.000000 0.000000 0.000000 0.058270 0.000000
# 6 0.000000 0.000000 0.000000 0.000000 0.000000 0.027684
#
#
# Mechanical properties :
#
#
# Convention : Reuss Voigt Hill
#
# Bulk Modulus (GPa) = 62.09158 73.44111 67.76634
# Shear Modulus (GPa) = 20.92173 23.60052 22.26112
#
# Velocity S-wave (km/s) = 3.39366 3.60438 3.50061
# Velocity P-wave (km/s) = 7.03818 7.59933 7.32413
#
# Compressibility (1/GPa) = 0.01610524
#
# Stress axis : x y z
#
# Youngs Moduli (GPa) = 63.95404 52.40755 35.67016
#
# Poissons Ratio (x) = 0.37654 0.31841
# Poissons Ratio (y) = 0.45950 0.25725
# Poissons Ratio (z) = 0.57089 0.37796
#
# Static dielectric constant tensor:
#      x y z
#    x 3.417940 0.000000 0.000000 
#    y 0.000000 3.347670 0.000000 
#    z 0.000000 0.000000 3.132800 
# 
# 
# High freq. dielectric constant tensor:
#      x y z
#    x 1.716660 0.000000 0.000000 
#    y 0.000000 1.705720 0.000000 
#    z 0.000000 0.000000 1.681990 
# 
# From -- ./inp_files/2768.got.cif
#   From: 2010.03.12/outbox.cif.g09.slc.cpg/sg47_2_cif.got.tgz:2768.got - 2010.04.14 03:12:58.
