data_PCOD8197612
_publ_section_title
;
Structure prediction by ZEFSAII (Michael W. Deem and Ramdas Pophale) SiO2 
 PCOD8197612
Probable space group: P M M M
;
_chemical_formula_sum "Si O2"
_cell_formula_units_Z 56
_cell_length_a 14.450097
_cell_length_b 23.413946
_cell_length_c 8.670693
_cell_angle_alpha 90.000000
_cell_angle_beta 90.000000
_cell_angle_gamma 90.000000
_cell_volume 2933.588432
_symmetry_space_group_name_H-M "P M M M"
_symmetry_group_IT_number 47
_symmetry_cell_setting 'orthorhombic'
loop_
_space_group_symop_operation_xyz
x,y,z
-x,-y,z
x,-y,-z
-x,y,-z
-x,-y,-z
x,y,-z
-x,y,z
x,-y,z
loop_
_atom_site_type_symbol
_atom_site_label
_atom_site_fract_x
_atom_site_fract_y
_atom_site_fract_z
Si Si1 0.605154 0.111071 0.180350
Si Si2 0.894044 0.837040 0.177898
Si Si3 0.396573 0.563273 0.817005
Si Si4 0.894120 0.718107 0.319183
Si Si5 0.722380 0.331437 0.182149
Si Si6 0.393999 0.769589 0.321553
Si Si7 0.777407 0.935480 0.677211
O O1 0.500000 0.099100 0.232295
O O2 0.634069 0.175669 0.220878
O O3 0.670011 0.067803 0.273783
O O4 0.618651 0.100937 0.000000
O O5 0.861904 0.782291 0.276529
O O6 0.836079 0.892820 0.218629
O O7 0.000000 0.851794 0.214783
O O8 0.878421 0.821533 0.000000
O O9 0.500000 0.579870 0.758215
O O10 0.369884 0.500000 0.755017
O O11 0.320721 0.608716 0.758316
O O12 0.397202 0.562573 0.000000
O O13 0.882508 0.709067 0.500000
O O14 0.830242 0.672110 0.230126
O O15 0.000000 0.708073 0.265798
O O16 0.669428 0.281988 0.270631
O O17 0.710348 0.324167 0.000000
O O18 0.376595 0.784115 0.500000
O O19 0.500000 0.752335 0.290160
O O20 0.788949 0.917879 0.500000
O O21 0.812400 0.000000 0.705005
#
# Coordination Sequence:
#
# PCOD8197612 Si02
#       7
#     8   8   8   8   8   8   8
#     4  10  21  37  56  76 100 132 171 216 262 306
#     4  10  21  38  60  83 106 132 165 210 262 311
#     4   8  15  29  49  75 108 144 180 216 255 301
#     4  10  21  37  56  77 104 138 173 210 256 313
#     4  11  20  30  51  80 108 137 172 218 265 307
#     4  10  20  33  50  74 106 140 171 206 252 310
#     4  11  24  39  55  76 103 136 172 209 251 306
#
# _framework density 19.089248000000001
#
# number of rings (size 3 to 8) (size 9 to 14) (size 15 to 20)
#    0.000    2.000    0.000    4.286    0.000    5.714 
#    0.000    2.857    0.000    2.143    0.000    8.000 
#    0.000    0.000    0.000    0.000    0.000    0.000 
#
# Total GULP energy -694511.882748 kJ/mol
# GULP energy per Si atom -12401.997906 kJ/mol
# Density = 1.904580 g / cm^3
# Si number density = 19.089248 Si / 1000 Ang^3
#
#
#
# Elastic Constant Matrix: (Units=GPa)
#
#
# Indices 1 2 3 4 5 6 
#
# 1 90.9373 53.7772 17.5442 0.0000 0.0000 0.0000
# 2 53.7772 85.4022 11.6202 0.0000 0.0000 0.0000
# 3 17.5442 11.6202 40.1497 0.0000 0.0000 0.0000
# 4 0.0000 0.0000 0.0000 15.2840 0.0000 0.0000
# 5 0.0000 0.0000 0.0000 0.0000 29.5833 0.0000
# 6 0.0000 0.0000 0.0000 0.0000 0.0000 27.8304
#
#
#
# Elastic Compliance Matrix: (Units=1/GPa)
#
#
# Indices 1 2 3 4 5 6 
#
# 1 0.018395 -0.010920 -0.004878 0.000000 0.000000 0.000000
# 2 -0.010920 0.018671 -0.000632 0.000000 0.000000 0.000000
# 3 -0.004878 -0.000632 0.027221 0.000000 0.000000 0.000000
# 4 0.000000 0.000000 0.000000 0.065428 0.000000 0.000000
# 5 0.000000 0.000000 0.000000 0.000000 0.033803 0.000000
# 6 0.000000 0.000000 0.000000 0.000000 0.000000 0.035932
#
#
# Mechanical properties :
#
#
# Convention : Reuss Voigt Hill
#
# Bulk Modulus (GPa) = 31.81846 42.48581 37.15213
# Shear Modulus (GPa) = 20.59431 23.44273 22.01852
#
# Velocity S-wave (km/s) = 3.28814 3.50817 3.39993
# Velocity P-wave (km/s) = 5.57855 6.22209 5.90909
#
# Compressibility (1/GPa) = 0.03142830
#
# Stress axis : x y z
#
# Youngs Moduli (GPa) = 54.36235 53.55813 36.73604
#
# Poissons Ratio (x) = 0.58483 0.17919
# Poissons Ratio (y) = 0.59361 0.02323
# Poissons Ratio (z) = 0.26517 0.03387
#
# Static dielectric constant tensor:
#      x y z
#    x 3.743580 0.000000 0.000000 
#    y 0.000000 3.509920 0.000000 
#    z 0.000000 0.000000 3.388400 
# 
# 
# High freq. dielectric constant tensor:
#      x y z
#    x 1.747630 0.000000 0.000000 
#    y 0.000000 1.724640 0.000000 
#    z 0.000000 0.000000 1.739050 
# 
# From -- ./inp_files/7292.got.cif
#   From: 2010.03.12/outbox.cif.g09.slc.cpg/sg47_4_cif.got.tgz:7292.got - 2010.04.14 03:12:58.
