data_PCOD8197239
_publ_section_title
;
Structure prediction by ZEFSAII (Michael W. Deem and Ramdas Pophale) SiO2 
 PCOD8197239
Probable space group: P M M M
;
_chemical_formula_sum "Si O2"
_cell_formula_units_Z 20
_cell_length_a 8.399889
_cell_length_b 16.893100
_cell_length_c 7.398210
_cell_angle_alpha 90.000000
_cell_angle_beta 90.000000
_cell_angle_gamma 90.000000
_cell_volume 1049.807219
_symmetry_space_group_name_H-M "P M M M"
_symmetry_group_IT_number 47
_symmetry_cell_setting 'orthorhombic'
loop_
_space_group_symop_operation_xyz
x,y,z
-x,-y,z
x,-y,-z
-x,y,-z
-x,-y,-z
x,y,-z
-x,y,z
x,-y,z
loop_
_atom_site_type_symbol
_atom_site_label
_atom_site_fract_x
_atom_site_fract_y
_atom_site_fract_z
Si Si1 0.688930 0.382508 0.500000
Si Si2 0.309981 0.796069 0.500000
Si Si3 0.188532 0.500000 0.208786
Si Si4 0.310563 0.087517 0.799535
O O1 0.500000 0.386578 0.500000
O O2 0.755397 0.293114 0.500000
O O3 0.750107 0.423048 0.315991
O O4 0.500000 0.794999 0.500000
O O5 0.242221 0.843353 0.327138
O O6 0.000000 0.500000 0.211527
O O7 0.250790 0.500000 0.000000
O O8 0.500000 0.090070 0.798321
O O9 0.255529 0.000000 0.733376
O O10 0.244723 0.103731 0.000000
#
# Coordination Sequence:
#
# PCOD8197239 Si02
#       4
#     4   4   4   8
#     4  10  20  32  50  78 105 126 153 196 248 296
#     4   9  16  24  36  59  91 122 150 185 231 277
#     4  10  21  38  57  71  90 126 165 199 238 289
#     4   8  13  21  33  50  78 121 164 190 213 258
#
# _framework density 19.051116
#
# number of rings (size 3 to 8) (size 9 to 14) (size 15 to 20)
#    0.000    3.000    0.000    4.200    0.000    5.600 
#    0.000    4.000    0.000    0.000    0.000    0.000 
#    0.000   12.800    0.000   35.200    0.000   28.800 
#
# Total GULP energy -247841.725803 kJ/mol
# GULP energy per Si atom -12392.086290 kJ/mol
# Density = 1.900776 g / cm^3
# Si number density = 19.051116 Si / 1000 Ang^3
#
#
#
# Elastic Constant Matrix: (Units=GPa)
#
#
# Indices 1 2 3 4 5 6 
#
# 1 32.9091 16.1767 20.4254 0.0000 0.0000 0.0000
# 2 16.1767 208.2463 110.9223 0.0000 0.0000 0.0000
# 3 20.4254 110.9223 172.0505 0.0000 0.0000 0.0000
# 4 0.0000 0.0000 0.0000 16.7159 0.0000 0.0000
# 5 0.0000 0.0000 0.0000 0.0000 17.0555 0.0000
# 6 0.0000 0.0000 0.0000 0.0000 0.0000 -4.0970
#
#
#
# Elastic Compliance Matrix: (Units=1/GPa)
#
#
# Indices 1 2 3 4 5 6 
#
# 1 0.032875 -0.000723 -0.003437 0.000000 0.000000 0.000000
# 2 -0.000723 0.007329 -0.004639 0.000000 0.000000 0.000000
# 3 -0.003437 -0.004639 0.009211 0.000000 0.000000 0.000000
# 4 0.000000 0.000000 0.000000 0.059823 0.000000 0.000000
# 5 0.000000 0.000000 0.000000 0.000000 0.058632 0.000000
# 6 0.000000 0.000000 0.000000 0.000000 0.000000 -0.244083
#
#
# Mechanical properties :
#
#
# Convention : Reuss Voigt Hill
#
# Bulk Modulus (GPa) = 31.42937 78.69494 55.06216
# Shear Modulus (GPa) = -104.15152 23.64699 -40.25226
#
# Velocity S-wave (km/s) = -7.40190 3.52694 -4.60157
# Velocity P-wave (km/s) = 7.51783 7.61464 0.85586
#
# Compressibility (1/GPa) = 0.03181737
#
# Stress axis : x y z
#
# Youngs Moduli (GPa) = 30.41802 136.43700 108.56217
#
# Poissons Ratio (x) = 0.09868 0.37308
# Poissons Ratio (y) = 0.02200 0.50367
# Poissons Ratio (z) = 0.10453 0.63299
#
# Static dielectric constant tensor:
#      x y z
#    x 2.903040 0.000000 0.000000 
#    y 0.000000 3.824140 0.000000 
#    z 0.000000 0.000000 3.910510 
# 
# 
# High freq. dielectric constant tensor:
#      x y z
#    x 1.685260 0.000000 0.000000 
#    y 0.000000 1.745500 0.000000 
#    z 0.000000 0.000000 1.750160 
# 
# From -- ./inp_files/326.got.cif
#   From: 2010.03.12/outbox.cif.g09.slc.cpg/sg47_1_cif.got.tgz:326.got - 2010.04.14 03:12:58.
