data_PCOD8197673
_publ_section_title
;
Structure prediction by ZEFSAII (Michael W. Deem and Ramdas Pophale) SiO2 
 PCOD8197673
Probable space group: P M M M
;
_chemical_formula_sum "Si O2"
_cell_formula_units_Z 44
_cell_length_a 9.284075
_cell_length_b 28.717055
_cell_length_c 8.578483
_cell_angle_alpha 90.000000
_cell_angle_beta 90.000000
_cell_angle_gamma 90.000000
_cell_volume 2287.120439
_symmetry_space_group_name_H-M "P M M M"
_symmetry_group_IT_number 47
_symmetry_cell_setting 'orthorhombic'
loop_
_space_group_symop_operation_xyz
x,y,z
-x,-y,z
x,-y,-z
-x,y,-z
-x,-y,-z
x,y,-z
-x,y,z
x,-y,z
loop_
_atom_site_type_symbol
_atom_site_label
_atom_site_fract_x
_atom_site_fract_y
_atom_site_fract_z
Si Si1 0.163148 0.500000 0.816163
Si Si2 0.665472 0.413549 0.316674
Si Si3 0.166409 0.327282 0.184554
Si Si4 0.338243 0.863794 0.814723
Si Si5 0.661584 0.238464 0.815004
Si Si6 0.838387 0.949249 0.814572
O O1 0.247661 0.454709 0.762970
O O2 0.000000 0.500000 0.747636
O O3 0.155209 0.500000 0.000000
O O4 0.671821 0.420977 0.500000
O O5 0.500000 0.413603 0.257914
O O6 0.739953 0.365501 0.271756
O O7 0.226625 0.277459 0.243092
O O8 0.000000 0.331391 0.234233
O O9 0.184528 0.333713 0.000000
O O10 0.500000 0.870610 0.756238
O O11 0.283485 0.812652 0.758703
O O12 0.248144 0.906114 0.739177
O O13 0.329621 0.866417 0.000000
O O14 0.500000 0.248517 0.750339
O O15 0.654631 0.238810 0.000000
O O16 0.000000 0.945231 0.751567
O O17 0.774153 0.000000 0.764889
O O18 0.836040 0.945542 0.000000
#
# Coordination Sequence:
#
# PCOD8197673 Si02
#       6
#     4   8   8   8   8   8
#     4  11  24  41  62  88 114 139 170 207 246 288
#     4  11  24  40  58  81 108 139 174 207 243 290
#     4  10  20  33  51  76 102 129 165 206 248 295
#     4   8  13  20  30  45  65  92 130 176 225 275
#     4   8  14  25  40  58  82 112 146 188 238 287
#     4   8  13  19  25  35  55  86 125 170 221 275
#
# _framework density 19.238166
#
# number of rings (size 3 to 8) (size 9 to 14) (size 15 to 20)
#    0.000    2.818    0.000    3.818    0.000    7.636 
#    0.000    5.455    0.000    0.000    0.000    0.000 
#    0.000    0.000    0.000    0.000    0.000    0.909 
#
# Total GULP energy -545286.724040 kJ/mol
# GULP energy per Si atom -12392.880092 kJ/mol
# Density = 1.919438 g / cm^3
# Si number density = 19.238166 Si / 1000 Ang^3
#
#
#
# Elastic Constant Matrix: (Units=GPa)
#
#
# Indices 1 2 3 4 5 6 
#
# 1 138.4235 91.5605 21.0788 0.0000 0.0000 0.0000
# 2 91.5605 181.6045 16.8784 0.0000 0.0000 0.0000
# 3 21.0788 16.8784 21.1673 0.0000 0.0000 0.0000
# 4 0.0000 0.0000 0.0000 -16.2629 0.0000 0.0000
# 5 0.0000 0.0000 0.0000 0.0000 13.9439 0.0000
# 6 0.0000 0.0000 0.0000 0.0000 0.0000 38.6221
#
#
#
# Elastic Compliance Matrix: (Units=1/GPa)
#
#
# Indices 1 2 3 4 5 6 
#
# 1 0.011876 -0.005280 -0.007617 0.000000 0.000000 0.000000
# 2 -0.005280 0.008295 -0.001356 0.000000 0.000000 0.000000
# 3 -0.007617 -0.001356 0.055909 0.000000 0.000000 0.000000
# 4 0.000000 0.000000 0.000000 -0.061490 0.000000 0.000000
# 5 0.000000 0.000000 0.000000 0.000000 0.071716 0.000000
# 6 0.000000 0.000000 0.000000 0.000000 0.000000 0.025892
#
#
# Mechanical properties :
#
#
# Convention : Reuss Voigt Hill
#
# Bulk Modulus (GPa) = 21.01965 66.69230 43.85598
# Shear Modulus (GPa) = 31.93633 21.37245 26.65439
#
# Velocity S-wave (km/s) = 4.07879 3.33669 3.72626
# Velocity P-wave (km/s) = 5.75602 7.04178 6.43111
#
# Compressibility (1/GPa) = 0.04757452
#
# Stress axis : x y z
#
# Youngs Moduli (GPa) = 84.19994 120.56158 17.88625
#
# Poissons Ratio (x) = 0.63656 0.13623
# Poissons Ratio (y) = 0.44457 0.02425
# Poissons Ratio (z) = 0.64133 0.16348
#
# Static dielectric constant tensor:
#      x y z
#    x 3.770200 0.000000 0.000000 
#    y 0.000000 4.131360 0.000000 
#    z 0.000000 0.000000 2.910480 
# 
# 
# High freq. dielectric constant tensor:
#      x y z
#    x 1.749990 0.000000 0.000000 
#    y 0.000000 1.772880 0.000000 
#    z 0.000000 0.000000 1.684890 
# 
# From -- ./inp_files/2107.got.cif
#   From: 2010.03.12/outbox.cif.g09.slc.cpg/sg47_2_cif.got.tgz:2107.got - 2010.04.14 03:12:58.
