data_PCOD8197773
_publ_section_title
;
Structure prediction by ZEFSAII (Michael W. Deem and Ramdas Pophale) SiO2 
 PCOD8197773
Probable space group: P M M M
;
_chemical_formula_sum "Si O2"
_cell_formula_units_Z 32
_cell_length_a 7.813777
_cell_length_b 9.212609
_cell_length_c 21.900418
_cell_angle_alpha 90.000000
_cell_angle_beta 90.000000
_cell_angle_gamma 90.000000
_cell_volume 1576.507554
_symmetry_space_group_name_H-M "P M M M"
_symmetry_group_IT_number 47
_symmetry_cell_setting 'orthorhombic'
loop_
_space_group_symop_operation_xyz
x,y,z
-x,-y,z
x,-y,-z
-x,y,-z
-x,-y,-z
x,y,-z
-x,y,z
x,-y,z
loop_
_atom_site_type_symbol
_atom_site_label
_atom_site_fract_x
_atom_site_fract_y
_atom_site_fract_z
Si Si1 0.803915 0.338227 0.266340
Si Si2 0.704029 0.336189 0.500000
Si Si3 0.000000 0.168226 0.071706
Si Si4 0.307464 0.668808 0.864838
Si Si5 0.297437 0.835400 0.617072
O O1 0.748466 0.500000 0.288018
O O2 0.697426 0.290575 0.206949
O O3 0.775599 0.226339 0.320454
O O4 0.000000 0.336484 0.245907
O O5 0.774390 0.500000 0.500000
O O6 0.500000 0.333070 0.500000
O O7 0.775631 0.255626 0.559995
O O8 0.827151 0.237600 0.097644
O O9 0.000000 0.000000 0.089649
O O10 0.000000 0.193475 0.000000
O O11 0.500000 0.701783 0.888511
O O12 0.260424 0.500000 0.873472
O O13 0.500000 0.825864 0.618817
O O14 0.234028 0.000000 0.609689
#
# Coordination Sequence:
#
# PCOD8197773 Si02
#       5
#     8   4   4   8   8
#     4  10  20  36  58  83 113 149 191 242 297 352
#     4   9  17  31  52  75 102 141 190 242 294 350
#     4  11  25  43  63  91 131 172 205 246 301 363
#     4  10  21  40  67  95 123 160 208 259 307 358
#     4  10  20  33  51  78 111 146 186 235 294 358
#
# _framework density 20.298033
#
# number of rings (size 3 to 8) (size 9 to 14) (size 15 to 20)
#    0.000    2.000    1.250    2.250    0.000    7.500 
#    0.000    3.125    0.000    3.750    0.000    0.000 
#    0.000    0.000    0.000    0.000    0.000    0.000 
#
# Total GULP energy -396860.866301 kJ/mol
# GULP energy per Si atom -12401.902072 kJ/mol
# Density = 2.025183 g / cm^3
# Si number density = 20.298033 Si / 1000 Ang^3
#
#
#
# Elastic Constant Matrix: (Units=GPa)
#
#
# Indices 1 2 3 4 5 6 
#
# 1 89.4843 62.6796 54.7049 0.0000 0.0000 0.0000
# 2 62.6796 132.3619 75.5737 0.0000 0.0000 0.0000
# 3 54.7049 75.5737 114.9098 0.0000 0.0000 0.0000
# 4 0.0000 0.0000 0.0000 31.3543 0.0000 0.0000
# 5 0.0000 0.0000 0.0000 0.0000 22.3897 0.0000
# 6 0.0000 0.0000 0.0000 0.0000 0.0000 23.6849
#
#
#
# Elastic Compliance Matrix: (Units=1/GPa)
#
#
# Indices 1 2 3 4 5 6 
#
# 1 0.018243 -0.005893 -0.004809 0.000000 0.000000 0.000000
# 2 -0.005893 0.014002 -0.006403 0.000000 0.000000 0.000000
# 3 -0.004809 -0.006403 0.015203 0.000000 0.000000 0.000000
# 4 0.000000 0.000000 0.000000 0.031894 0.000000 0.000000
# 5 0.000000 0.000000 0.000000 0.000000 0.044663 0.000000
# 6 0.000000 0.000000 0.000000 0.000000 0.000000 0.042221
#
#
# Mechanical properties :
#
#
# Convention : Reuss Voigt Hill
#
# Bulk Modulus (GPa) = 75.54503 80.29694 77.92099
# Shear Modulus (GPa) = 24.40827 25.07229 24.74028
#
# Velocity S-wave (km/s) = 3.47146 3.51836 3.49499
# Velocity P-wave (km/s) = 7.30526 7.49333 7.39989
#
# Compressibility (1/GPa) = 0.01323714
#
# Stress axis : x y z
#
# Youngs Moduli (GPa) = 54.81568 71.42041 65.77592
#
# Poissons Ratio (x) = 0.42088 0.31633
# Poissons Ratio (y) = 0.32303 0.42117
# Poissons Ratio (z) = 0.26362 0.45731
#
# Static dielectric constant tensor:
#      x y z
#    x 3.660730 0.000000 0.000000 
#    y 0.000000 3.772580 0.000000 
#    z 0.000000 0.000000 3.623250 
# 
# 
# High freq. dielectric constant tensor:
#      x y z
#    x 1.789240 0.000000 0.000000 
#    y 0.000000 1.792310 0.000000 
#    z 0.000000 0.000000 1.793140 
# 
# From -- ./inp_files/31620.got.cif
#   From: 2010.03.12/outbox.cif.g09.slc.cpg/sg47_16_cif.got.tgz:31620.got - 2010.04.14 03:12:58.
