data_PCOD8198449
_publ_section_title
;
Structure prediction by ZEFSAII (Michael W. Deem and Ramdas Pophale) SiO2 
 PCOD8198449
Probable space group: P M M M
;
_chemical_formula_sum "Si O2"
_cell_formula_units_Z 56
_cell_length_a 8.845445
_cell_length_b 14.393858
_cell_length_c 22.593303
_cell_angle_alpha 90.000000
_cell_angle_beta 90.000000
_cell_angle_gamma 90.000000
_cell_volume 2876.581129
_symmetry_space_group_name_H-M "P M M M"
_symmetry_group_IT_number 47
_symmetry_cell_setting 'orthorhombic'
loop_
_space_group_symop_operation_xyz
x,y,z
-x,-y,z
x,-y,-z
-x,y,-z
-x,-y,-z
x,y,-z
-x,y,z
x,-y,z
loop_
_atom_site_type_symbol
_atom_site_label
_atom_site_fract_x
_atom_site_fract_y
_atom_site_fract_z
Si Si1 0.821768 0.601459 0.500000
Si Si2 0.821552 0.393649 0.822259
Si Si3 0.170231 0.103770 0.777744
Si Si4 0.325911 0.300492 0.934946
Si Si5 0.178500 0.253534 0.595563
Si Si6 0.820421 0.894533 0.500000
Si Si7 0.324027 0.269053 0.722010
Si Si8 0.670377 0.899268 0.898168
O O1 0.743984 0.500000 0.500000
O O2 0.772823 0.657070 0.557970
O O3 0.000000 0.591443 0.500000
O O4 0.765701 0.500000 0.822558
O O5 0.772907 0.345539 0.883517
O O6 0.754395 0.343701 0.764770
O O7 0.000000 0.386969 0.817859
O O8 0.291070 0.165600 0.743987
O O9 0.206894 0.105560 0.846698
O O10 0.000000 0.142525 0.768833
O O11 0.182640 0.000000 0.751853
O O12 0.500000 0.323622 0.920809
O O13 0.300765 0.188968 0.939970
O O14 0.280849 0.340284 0.000000
O O15 0.231340 0.160787 0.559489
O O16 0.264866 0.271415 0.655781
O O17 0.000000 0.248326 0.607689
O O18 0.000000 0.896929 0.500000
O O19 0.754143 0.000000 0.500000
O O20 0.500000 0.290197 0.723337
O O21 0.500000 0.892718 0.871690
O O22 0.689107 0.000000 0.931144
#
# Coordination Sequence:
#
# PCOD8198449 Si02
#       8
#     4   8   8   8   8   4   8   8
#     4   8  15  31  56  82 108 140 180 229 280 329
#     4  11  25  44  64  84 108 145 196 251 305 358
#     4  10  20  34  55  82 112 148 189 232 277 328
#     4  10  21  37  59  88 120 155 192 233 289 355
#     4   9  18  33  55  84 114 147 192 238 278 330
#     4   8  15  31  56  84 116 156 200 243 282 321
#     4  12  24  38  58  85 120 156 191 236 293 354
#     4   9  17  31  53  82 116 152 187 223 269 330
#
# _framework density 19.467555000000001
#
# number of rings (size 3 to 8) (size 9 to 14) (size 15 to 20)
#    0.000    2.143    1.429    3.000    0.000    4.000 
#    0.000    7.143    0.000    0.857    0.000    3.000 
#    0.000    0.000    0.000    0.000    0.000    0.000 
#
# Total GULP energy -694003.404928 kJ/mol
# GULP energy per Si atom -12392.917945 kJ/mol
# Density = 1.942325 g / cm^3
# Si number density = 19.467555 Si / 1000 Ang^3
#
#
#
# Elastic Constant Matrix: (Units=GPa)
#
#
# Indices 1 2 3 4 5 6 
#
# 1 68.6971 39.0780 41.2497 0.0000 0.0000 0.0000
# 2 39.0780 143.8009 63.9384 0.0000 0.0000 0.0000
# 3 41.2497 63.9384 133.1634 0.0000 0.0000 0.0000
# 4 0.0000 0.0000 0.0000 5.0293 0.0000 0.0000
# 5 0.0000 0.0000 0.0000 0.0000 -120.0581 0.0000
# 6 0.0000 0.0000 0.0000 0.0000 0.0000 20.8519
#
#
#
# Elastic Compliance Matrix: (Units=1/GPa)
#
#
# Indices 1 2 3 4 5 6 
#
# 1 0.018999 -0.003237 -0.004331 0.000000 0.000000 0.000000
# 2 -0.003237 0.009393 -0.003507 0.000000 0.000000 0.000000
# 3 -0.004331 -0.003507 0.010535 0.000000 0.000000 0.000000
# 4 0.000000 0.000000 0.000000 0.198836 0.000000 0.000000
# 5 0.000000 0.000000 0.000000 0.000000 -0.008329 0.000000
# 6 0.000000 0.000000 0.000000 0.000000 0.000000 0.047957
#
#
# Mechanical properties :
#
#
# Convention : Reuss Voigt Hill
#
# Bulk Modulus (GPa) = 59.60829 70.46597 65.03713
# Shear Modulus (GPa) = 16.38623 -5.40902 5.48860
#
# Velocity S-wave (km/s) = 2.90439 -1.66869 1.68092
# Velocity P-wave (km/s) = 6.47557 5.70636 6.10310
#
# Compressibility (1/GPa) = 0.01677619
#
# Stress axis : x y z
#
# Youngs Moduli (GPa) = 52.63543 106.45906 94.92025
#
# Poissons Ratio (x) = 0.34464 0.41108
# Poissons Ratio (y) = 0.17040 0.33292
# Poissons Ratio (z) = 0.22795 0.37339
#
# Static dielectric constant tensor:
#      x y z
#    x 3.377130 0.000000 0.000000 
#    y 0.000000 4.209070 0.000000 
#    z 0.000000 0.000000 3.522800 
# 
# 
# High freq. dielectric constant tensor:
#      x y z
#    x 1.738900 0.000000 0.000000 
#    y 0.000000 1.767890 0.000000 
#    z 0.000000 0.000000 1.752000 
# 
# From -- ./inp_files/29767.got.cif
#   From: 2010.03.12/outbox.cif.g09.slc.cpg/sg47_15_cif.got.tgz:29767.got - 2010.04.14 03:12:58.
