data_PCOD8198366
_publ_section_title
;
Structure prediction by ZEFSAII (Michael W. Deem and Ramdas Pophale) SiO2 
 PCOD8198366
Probable space group: P M M M
;
_chemical_formula_sum "Si O2"
_cell_formula_units_Z 48
_cell_length_a 8.897639
_cell_length_b 9.129350
_cell_length_c 30.809337
_cell_angle_alpha 90.000000
_cell_angle_beta 90.000000
_cell_angle_gamma 90.000000
_cell_volume 2502.631988
_symmetry_space_group_name_H-M "P M M M"
_symmetry_group_IT_number 47
_symmetry_cell_setting 'orthorhombic'
loop_
_space_group_symop_operation_xyz
x,y,z
-x,-y,z
x,-y,-z
-x,y,-z
-x,-y,-z
x,y,-z
-x,y,z
x,-y,z
loop_
_atom_site_type_symbol
_atom_site_label
_atom_site_fract_x
_atom_site_fract_y
_atom_site_fract_z
Si Si1 0.324119 0.331593 0.835734
Si Si2 0.829241 0.672833 0.253092
Si Si3 0.821550 0.665182 0.000000
Si Si4 0.825612 0.828162 0.085743
Si Si5 0.823439 0.168957 0.420507
Si Si6 0.674387 0.169471 0.331629
Si Si7 0.672649 0.327382 0.500000
O O1 0.500000 0.311342 0.827629
O O2 0.283802 0.500000 0.846722
O O3 0.238139 0.277731 0.792881
O O4 0.272095 0.228851 0.874543
O O5 0.820131 0.500000 0.258133
O O6 0.730365 0.741164 0.290705
O O7 0.000000 0.729787 0.256234
O O8 0.763602 0.749229 0.042585
O O9 0.757194 0.500000 0.000000
O O10 0.000000 0.664789 0.000000
O O11 0.000000 0.790056 0.094076
O O12 0.800873 0.000000 0.079862
O O13 0.762207 0.223277 0.374239
O O14 0.750008 0.265574 0.457399
O O15 0.000000 0.193515 0.421535
O O16 0.780089 0.000000 0.428570
O O17 0.500000 0.201126 0.339261
O O18 0.707271 0.000000 0.322507
O O19 0.692429 0.500000 0.500000
O O20 0.500000 0.279022 0.500000
#
# Coordination Sequence:
#
# PCOD8198366 Si02
#       7
#     8   8   4   8   8   8   4
#     4  10  21  37  56  78 106 142 183 225 270 322
#     4  10  21  37  58  83 110 143 183 226 273 324
#     4   9  17  31  54  81 108 141 180 222 268 319
#     4  10  20  34  54  81 111 142 178 222 271 322
#     4  10  21  38  60  84 110 144 186 229 274 326
#     4  10  21  37  58  84 113 146 183 223 270 324
#     4  11  24  39  56  82 114 147 184 227 276 328
#
# _framework density 19.179808000000001
#
# number of rings (size 3 to 8) (size 9 to 14) (size 15 to 20)
#    0.000    2.000    0.000    3.250    0.000    9.000 
#    0.000    0.417    0.000    2.500    0.000    0.000 
#    0.000    0.000    0.000    0.000    0.000    0.000 
#
# Total GULP energy -595439.589670 kJ/mol
# GULP energy per Si atom -12404.991451 kJ/mol
# Density = 1.913615 g / cm^3
# Si number density = 19.179808 Si / 1000 Ang^3
#
#
#
# Elastic Constant Matrix: (Units=GPa)
#
#
# Indices 1 2 3 4 5 6 
#
# 1 71.7423 33.2163 39.6799 0.0000 0.0000 0.0000
# 2 33.2163 66.6391 54.4632 0.0000 0.0000 0.0000
# 3 39.6799 54.4632 142.5361 0.0000 0.0000 0.0000
# 4 0.0000 0.0000 0.0000 -45.6207 0.0000 0.0000
# 5 0.0000 0.0000 0.0000 0.0000 47.8299 0.0000
# 6 0.0000 0.0000 0.0000 0.0000 0.0000 29.4996
#
#
#
# Elastic Compliance Matrix: (Units=1/GPa)
#
#
# Indices 1 2 3 4 5 6 
#
# 1 0.018663 -0.007352 -0.002386 0.000000 0.000000 0.000000
# 2 -0.007352 0.024717 -0.007398 0.000000 0.000000 0.000000
# 3 -0.002386 -0.007398 0.010507 0.000000 0.000000 0.000000
# 4 0.000000 0.000000 0.000000 -0.021920 0.000000 0.000000
# 5 0.000000 0.000000 0.000000 0.000000 0.020907 0.000000
# 6 0.000000 0.000000 0.000000 0.000000 0.000000 0.033899
#
#
# Mechanical properties :
#
#
# Convention : Reuss Voigt Hill
#
# Bulk Modulus (GPa) = 50.98338 59.51516 55.24927
# Shear Modulus (GPa) = 39.19039 16.57895 27.88467
#
# Velocity S-wave (km/s) = 4.52521 2.94325 3.81708
# Velocity P-wave (km/s) = 7.34458 6.53053 6.94948
#
# Compressibility (1/GPa) = 0.01961424
#
# Stress axis : x y z
#
# Youngs Moduli (GPa) = 53.58333 40.45819 95.17788
#
# Poissons Ratio (x) = 0.29746 0.22710
# Poissons Ratio (y) = 0.39396 0.70409
# Poissons Ratio (z) = 0.12785 0.29929
#
# Static dielectric constant tensor:
#      x y z
#    x 3.553340 0.000000 0.000000 
#    y 0.000000 3.475550 0.000000 
#    z 0.000000 0.000000 3.617240 
# 
# 
# High freq. dielectric constant tensor:
#      x y z
#    x 1.748210 0.000000 0.000000 
#    y 0.000000 1.742120 0.000000 
#    z 0.000000 0.000000 1.761620 
# 
# From -- ./inp_files/34194.got.cif
#   From: 2010.03.12/outbox.cif.g09.slc.cpg/sg47_18_cif.got.tgz:34194.got - 2010.04.14 03:12:58.
