data_PCOD8198335
_publ_section_title
;
Structure prediction by ZEFSAII (Michael W. Deem and Ramdas Pophale) SiO2 
 PCOD8198335
Probable space group: P M M M
;
_chemical_formula_sum "Si O2"
_cell_formula_units_Z 52
_cell_length_a 14.116986
_cell_length_b 8.918858
_cell_length_c 22.972181
_cell_angle_alpha 90.000000
_cell_angle_beta 90.000000
_cell_angle_gamma 90.000000
_cell_volume 2892.367433
_symmetry_space_group_name_H-M "P M M M"
_symmetry_group_IT_number 47
_symmetry_cell_setting 'orthorhombic'
loop_
_space_group_symop_operation_xyz
x,y,z
-x,-y,z
x,-y,-z
-x,y,-z
-x,-y,-z
x,y,-z
-x,y,z
x,-y,z
loop_
_atom_site_type_symbol
_atom_site_label
_atom_site_fract_x
_atom_site_fract_y
_atom_site_fract_z
Si Si1 0.106395 0.678453 0.500000
Si Si2 0.108835 0.173622 0.066781
Si Si3 0.394688 0.328926 0.227760
Si Si4 0.606902 0.825030 0.651777
Si Si5 0.785788 0.677564 0.386307
Si Si6 0.203198 0.673754 0.170492
Si Si7 0.889472 0.825705 0.721192
O O1 0.105384 0.500000 0.500000
O O2 0.158935 0.739295 0.557372
O O3 0.000000 0.742848 0.500000
O O4 0.177479 0.274529 0.105748
O O5 0.000000 0.214160 0.080386
O O6 0.127446 0.000000 0.080573
O O7 0.132836 0.209938 0.000000
O O8 0.500000 0.298432 0.201777
O O9 0.386697 0.500000 0.250386
O O10 0.374150 0.220820 0.281709
O O11 0.315694 0.296765 0.178923
O O12 0.500000 0.783437 0.633104
O O13 0.678143 0.736625 0.609538
O O14 0.626696 0.000000 0.645882
O O15 0.785827 0.500000 0.384597
O O16 0.834222 0.736452 0.328111
O O17 0.178099 0.500000 0.178657
O O18 0.141494 0.768014 0.215836
O O19 0.000000 0.795325 0.712962
O O20 0.864371 0.000000 0.715922
#
# Coordination Sequence:
#
# PCOD8198335 Si02
#       7
#     4   8   8   8   8   8   8
#     4   9  20  38  58  79 104 138 181 225 268 321
#     4   9  19  36  55  74 102 144 186 221 264 319
#     4   9  18  33  52  76 107 141 176 215 264 320
#     4  10  20  34  54  80 109 141 176 216 266 323
#     4  11  21  36  58  81 105 138 178 224 273 319
#     4  11  21  32  52  82 109 137 175 222 271 316
#     4  11  23  36  51  75 109 144 175 215 268 323
#
# _framework density 17.978352000000001
#
# number of rings (size 3 to 8) (size 9 to 14) (size 15 to 20)
#    0.000    1.923    1.538    3.231    0.000    5.846 
#    0.000    2.692    0.000    5.538    0.000    3.231 
#    0.000    0.000    0.000    0.000    0.000    0.000 
#
# Total GULP energy -644908.349147 kJ/mol
# GULP energy per Si atom -12402.083637 kJ/mol
# Density = 1.793743 g / cm^3
# Si number density = 17.978352 Si / 1000 Ang^3
#
#
#
# Elastic Constant Matrix: (Units=GPa)
#
#
# Indices 1 2 3 4 5 6 
#
# 1 133.9819 53.4088 59.8949 0.0000 0.0000 0.0000
# 2 53.4088 71.1670 32.3716 0.0000 0.0000 0.0000
# 3 59.8949 32.3716 91.1901 0.0000 0.0000 0.0000
# 4 0.0000 0.0000 0.0000 5.3584 0.0000 0.0000
# 5 0.0000 0.0000 0.0000 0.0000 31.0661 0.0000
# 6 0.0000 0.0000 0.0000 0.0000 0.0000 29.7179
#
#
#
# Elastic Compliance Matrix: (Units=1/GPa)
#
#
# Indices 1 2 3 4 5 6 
#
# 1 0.012932 -0.006967 -0.006021 0.000000 0.000000 0.000000
# 2 -0.006967 0.020510 -0.002705 0.000000 0.000000 0.000000
# 3 -0.006021 -0.002705 0.015881 0.000000 0.000000 0.000000
# 4 0.000000 0.000000 0.000000 0.186624 0.000000 0.000000
# 5 0.000000 0.000000 0.000000 0.000000 0.032189 0.000000
# 6 0.000000 0.000000 0.000000 0.000000 0.000000 0.033650
#
#
# Mechanical properties :
#
#
# Convention : Reuss Voigt Hill
#
# Bulk Modulus (GPa) = 55.74752 65.29884 60.52318
# Shear Modulus (GPa) = 14.74264 23.27274 19.00769
#
# Velocity S-wave (km/s) = 2.86671 3.60180 3.25507
# Velocity P-wave (km/s) = 6.48327 7.32782 6.91845
#
# Compressibility (1/GPa) = 0.01793802
#
# Stress axis : x y z
#
# Youngs Moduli (GPa) = 77.32497 48.75627 62.96771
#
# Poissons Ratio (x) = 0.33967 0.37914
# Poissons Ratio (y) = 0.53869 0.17034
# Poissons Ratio (z) = 0.46558 0.13189
#
# Static dielectric constant tensor:
#      x y z
#    x 3.622370 0.000000 0.000000 
#    y 0.000000 3.321630 0.000000 
#    z 0.000000 0.000000 3.175740 
# 
# 
# High freq. dielectric constant tensor:
#      x y z
#    x 1.708240 0.000000 0.000000 
#    y 0.000000 1.698500 0.000000 
#    z 0.000000 0.000000 1.674150 
# 
# From -- ./inp_files/25048.got.cif
#   From: 2010.03.12/outbox.cif.g09.slc.cpg/sg47_13_cif.got.tgz:25048.got - 2010.04.14 03:12:58.
