data_PCOD8198478
_publ_section_title
;
Structure prediction by ZEFSAII (Michael W. Deem and Ramdas Pophale) SiO2 
 PCOD8198478
Probable space group: P M M M
;
_chemical_formula_sum "Si O2"
_cell_formula_units_Z 64
_cell_length_a 9.198253
_cell_length_b 24.912352
_cell_length_c 14.616737
_cell_angle_alpha 90.000000
_cell_angle_beta 90.000000
_cell_angle_gamma 90.000000
_cell_volume 3349.426987
_symmetry_space_group_name_H-M "P M M M"
_symmetry_group_IT_number 47
_symmetry_cell_setting 'orthorhombic'
loop_
_space_group_symop_operation_xyz
x,y,z
-x,-y,z
x,-y,-z
-x,y,-z
-x,-y,-z
x,y,-z
-x,y,z
x,-y,z
loop_
_atom_site_type_symbol
_atom_site_label
_atom_site_fract_x
_atom_site_fract_y
_atom_site_fract_z
Si Si1 0.828990 0.633718 0.234500
Si Si2 0.661648 0.438838 0.892966
Si Si3 0.671611 0.744198 0.767788
Si Si4 0.163337 0.211525 0.603150
Si Si5 0.332376 0.059327 0.221272
Si Si6 0.672839 0.158533 0.896540
Si Si7 0.172648 0.560061 0.602287
Si Si8 0.834219 0.914838 0.601550
O O1 0.791004 0.594140 0.152401
O O2 0.748059 0.688501 0.210638
O O3 0.769826 0.605576 0.327878
O O4 0.000000 0.644393 0.238831
O O5 0.500000 0.418494 0.863884
O O6 0.680324 0.500000 0.862443
O O7 0.681052 0.432431 0.000000
O O8 0.500000 0.736829 0.772184
O O9 0.716891 0.761266 0.666246
O O10 0.724685 0.788796 0.841248
O O11 0.191727 0.231319 0.500000
O O12 0.181467 0.148441 0.610546
O O13 0.000000 0.228501 0.633431
O O14 0.500000 0.072874 0.237859
O O15 0.265817 0.104905 0.154150
O O16 0.260010 0.057458 0.320729
O O17 0.312174 0.000000 0.176634
O O18 0.500000 0.156018 0.900037
O O19 0.735784 0.160665 0.000000
O O20 0.225571 0.575384 0.500000
O O21 0.230248 0.500000 0.627852
O O22 0.000000 0.558980 0.606508
O O23 0.781498 0.932891 0.500000
O O24 0.000000 0.932748 0.615598
#
# Coordination Sequence:
#
# PCOD8198478 Si02
#       8
#     8   8   8   8   8   8   8   8
#     4  11  22  34  53  83 115 145 183 231 278 327
#     4   9  19  37  59  81 108 144 183 225 279 339
#     4  11  22  36  55  79 108 145 186 226 273 330
#     4   9  18  34  56  79 104 138 179 222 268 318
#     4  10  20  34  55  84 112 137 174 227 279 327
#     4   9  19  37  58  78 102 136 179 226 278 334
#     4   8  15  30  52  77 106 142 182 221 265 316
#     4   9  18  33  54  79 109 146 181 212 257 320
#
# _framework density 19.107745999999999
#
# number of rings (size 3 to 8) (size 9 to 14) (size 15 to 20)
#    0.000    2.500    1.250    2.625    0.000    3.250 
#    0.000    6.875    0.000    4.125    0.000    5.250 
#    0.000    0.000    0.000    0.000    0.000    0.000 
#
# Total GULP energy -793343.846300 kJ/mol
# GULP energy per Si atom -12395.997598 kJ/mol
# Density = 1.906426 g / cm^3
# Si number density = 19.107746 Si / 1000 Ang^3
#
#
#
# Elastic Constant Matrix: (Units=GPa)
#
#
# Indices 1 2 3 4 5 6 
#
# 1 51.6421 39.2586 33.6172 0.0000 0.0000 0.0000
# 2 39.2586 122.6117 68.9039 0.0000 0.0000 0.0000
# 3 33.6172 68.9039 104.0712 0.0000 0.0000 0.0000
# 4 0.0000 0.0000 0.0000 9.6790 0.0000 0.0000
# 5 0.0000 0.0000 0.0000 0.0000 25.5286 0.0000
# 6 0.0000 0.0000 0.0000 0.0000 0.0000 24.4999
#
#
#
# Elastic Compliance Matrix: (Units=1/GPa)
#
#
# Indices 1 2 3 4 5 6 
#
# 1 0.027006 -0.005963 -0.004775 0.000000 0.000000 0.000000
# 2 -0.005963 0.014305 -0.007545 0.000000 0.000000 0.000000
# 3 -0.004775 -0.007545 0.016147 0.000000 0.000000 0.000000
# 4 0.000000 0.000000 0.000000 0.103316 0.000000 0.000000
# 5 0.000000 0.000000 0.000000 0.000000 0.039172 0.000000
# 6 0.000000 0.000000 0.000000 0.000000 0.000000 0.040816
#
#
# Mechanical properties :
#
#
# Convention : Reuss Voigt Hill
#
# Bulk Modulus (GPa) = 47.86816 62.43159 55.14988
# Shear Modulus (GPa) = 17.58746 21.04452 19.31599
#
# Velocity S-wave (km/s) = 3.03716 3.32228 3.18291
# Velocity P-wave (km/s) = 6.11598 6.88920 6.51407
#
# Compressibility (1/GPa) = 0.02089071
#
# Stress axis : x y z
#
# Youngs Moduli (GPa) = 37.02888 69.90426 61.93205
#
# Poissons Ratio (x) = 0.41687 0.29574
# Poissons Ratio (y) = 0.22082 0.46728
# Poissons Ratio (z) = 0.17682 0.52743
#
# Static dielectric constant tensor:
#      x y z
#    x 3.274110 0.000000 0.000000 
#    y 0.000000 3.666790 0.000000 
#    z 0.000000 0.000000 3.933030 
# 
# 
# High freq. dielectric constant tensor:
#      x y z
#    x 1.711580 0.000000 0.000000 
#    y 0.000000 1.749380 0.000000 
#    z 0.000000 0.000000 1.743630 
# 
# From -- ./inp_files/7940.got.cif
#   From: 2010.03.12/outbox.cif.g09.slc.cpg/sg47_4_cif.got.tgz:7940.got - 2010.04.14 03:12:58.
