data_PCOD8198147
_publ_section_title
;
Structure prediction by ZEFSAII (Michael W. Deem and Ramdas Pophale) SiO2 
 PCOD8198147
Probable space group: P M M M
;
_chemical_formula_sum "Si O2"
_cell_formula_units_Z 52
_cell_length_a 8.740620
_cell_length_b 14.238612
_cell_length_c 23.461653
_cell_angle_alpha 90.000000
_cell_angle_beta 90.000000
_cell_angle_gamma 90.000000
_cell_volume 2919.903526
_symmetry_space_group_name_H-M "P M M M"
_symmetry_group_IT_number 47
_symmetry_cell_setting 'orthorhombic'
loop_
_space_group_symop_operation_xyz
x,y,z
-x,-y,z
x,-y,-z
-x,y,-z
-x,-y,-z
x,y,-z
-x,y,z
x,-y,z
loop_
_atom_site_type_symbol
_atom_site_label
_atom_site_fract_x
_atom_site_fract_y
_atom_site_fract_z
Si Si1 0.180576 0.213467 0.606643
Si Si2 0.819449 0.211966 0.829016
Si Si3 0.176765 0.395231 0.229967
Si Si4 0.680934 0.892377 0.500000
Si Si5 0.817953 0.105326 0.281388
Si Si6 0.678938 0.606351 0.649266
Si Si7 0.182007 0.893846 0.062759
O O1 0.257399 0.159712 0.555126
O O2 0.239311 0.164580 0.664572
O O3 0.232236 0.322322 0.607752
O O4 0.000000 0.207720 0.599248
O O5 0.777513 0.321681 0.819620
O O6 0.752595 0.152203 0.776192
O O7 0.748451 0.175053 0.888709
O O8 0.000000 0.197206 0.831331
O O9 0.205627 0.500000 0.205985
O O10 0.276921 0.374896 0.285340
O O11 0.000000 0.380562 0.248016
O O12 0.500000 0.887639 0.500000
O O13 0.739097 0.000000 0.500000
O O14 0.000000 0.104678 0.280178
O O15 0.752698 0.000000 0.286012
O O16 0.500000 0.623266 0.642071
O O17 0.724755 0.500000 0.631943
O O18 0.000000 0.889294 0.062837
O O19 0.235243 0.000000 0.076320
O O20 0.242578 0.863114 0.000000
#
# Coordination Sequence:
#
# PCOD8198147 Si02
#       7
#     8   8   8   4   8   8   8
#     4  11  21  36  57  80 104 133 172 214 251 297
#     4   9  14  22  37  60  89 122 160 201 246 291
#     4   9  16  27  44  67  94 124 162 204 248 302
#     4  11  25  43  60  79 108 145 177 206 248 299
#     4   9  16  25  41  68  96 120 153 201 249 288
#     4  10  20  34  53  77 105 135 165 203 256 312
#     4   8  13  20  31  51  84 126 165 199 239 291
#
# _framework density 17.808807999999999
#
# number of rings (size 3 to 8) (size 9 to 14) (size 15 to 20)
#    0.000    2.538    1.538    2.538    0.000    4.000 
#    0.000    0.385    0.000    2.769    0.000    3.231 
#    0.000    0.615    0.000    5.538    0.000    5.538 
#
# Total GULP energy -644605.137689 kJ/mol
# GULP energy per Si atom -12396.252648 kJ/mol
# Density = 1.776827 g / cm^3
# Si number density = 17.808808 Si / 1000 Ang^3
#
#
#
# Elastic Constant Matrix: (Units=GPa)
#
#
# Indices 1 2 3 4 5 6 
#
# 1 27.2992 26.3468 22.5194 0.0000 0.0000 0.0000
# 2 26.3468 154.5801 82.8009 0.0000 0.0000 0.0000
# 3 22.5194 82.8009 137.6805 0.0000 0.0000 0.0000
# 4 0.0000 0.0000 0.0000 -6.8989 0.0000 0.0000
# 5 0.0000 0.0000 0.0000 0.0000 4.8122 0.0000
# 6 0.0000 0.0000 0.0000 0.0000 0.0000 16.2858
#
#
#
# Elastic Compliance Matrix: (Units=1/GPa)
#
#
# Indices 1 2 3 4 5 6 
#
# 1 0.045349 -0.005541 -0.004085 0.000000 0.000000 0.000000
# 2 -0.005541 0.010221 -0.005240 0.000000 0.000000 0.000000
# 3 -0.004085 -0.005240 0.011083 0.000000 0.000000 0.000000
# 4 0.000000 0.000000 0.000000 -0.144951 0.000000 0.000000
# 5 0.000000 0.000000 0.000000 0.000000 0.207803 0.000000
# 6 0.000000 0.000000 0.000000 0.000000 0.000000 0.061403
#
#
# Mechanical properties :
#
#
# Convention : Reuss Voigt Hill
#
# Bulk Modulus (GPa) = 27.08615 64.76598 45.92606
# Shear Modulus (GPa) = 21.46419 15.36602 18.41511
#
# Velocity S-wave (km/s) = 3.47545 2.94059 3.21915
# Velocity P-wave (km/s) = 5.59888 6.92645 6.29774
#
# Compressibility (1/GPa) = 0.03691924
#
# Stress axis : x y z
#
# Youngs Moduli (GPa) = 22.05143 97.84211 90.22970
#
# Poissons Ratio (x) = 0.54216 0.36858
# Poissons Ratio (y) = 0.12219 0.47283
# Poissons Ratio (z) = 0.09008 0.51272
#
# Static dielectric constant tensor:
#      x y z
#    x 2.894250 0.000000 0.000000 
#    y 0.000000 3.610210 0.000000 
#    z 0.000000 0.000000 3.451240 
# 
# 
# High freq. dielectric constant tensor:
#      x y z
#    x 1.645370 0.000000 0.000000 
#    y 0.000000 1.701290 0.000000 
#    z 0.000000 0.000000 1.675440 
# 
# From -- ./inp_files/25020.got.cif
#   From: 2010.03.12/outbox.cif.g09.slc.cpg/sg47_13_cif.got.tgz:25020.got - 2010.04.14 03:12:58.
