data_PCOD8198867
_publ_section_title
;
Structure prediction by ZEFSAII (Michael W. Deem and Ramdas Pophale) SiO2 
 PCOD8198867
Probable space group: P M M M
;
_chemical_formula_sum "Si O2"
_cell_formula_units_Z 64
_cell_length_a 25.508328
_cell_length_b 9.596200
_cell_length_c 14.453028
_cell_angle_alpha 90.000000
_cell_angle_beta 90.000000
_cell_angle_gamma 90.000000
_cell_volume 3537.855801
_symmetry_space_group_name_H-M "P M M M"
_symmetry_group_IT_number 47
_symmetry_cell_setting 'orthorhombic'
loop_
_space_group_symop_operation_xyz
x,y,z
-x,-y,z
x,-y,-z
-x,y,-z
-x,-y,-z
x,y,-z
-x,y,z
x,-y,z
loop_
_atom_site_type_symbol
_atom_site_label
_atom_site_fract_x
_atom_site_fract_y
_atom_site_fract_z
Si Si1 0.790998 0.158852 0.397617
Si Si2 0.746207 0.160643 0.792815
Si Si3 0.558172 0.665960 0.204874
Si Si4 0.892211 0.339798 0.602344
Si Si5 0.940669 0.661660 0.208141
Si Si6 0.562124 0.344963 0.402616
Si Si7 0.660467 0.663630 0.105208
Si Si8 0.853473 0.161812 0.107640
O O1 0.767229 0.190861 0.500000
O O2 0.748058 0.185993 0.318013
O O3 0.840733 0.252535 0.376625
O O4 0.810661 0.000000 0.391404
O O5 0.699975 0.255327 0.829779
O O6 0.800962 0.207220 0.838835
O O7 0.734342 0.000000 0.817261
O O8 0.500000 0.722924 0.177405
O O9 0.554958 0.500000 0.214426
O O10 0.577895 0.728225 0.305146
O O11 0.600746 0.709492 0.128447
O O12 0.915437 0.303596 0.500000
O O13 0.875057 0.500000 0.606229
O O14 0.934101 0.305798 0.682257
O O15 0.928906 0.500000 0.188003
O O16 0.902383 0.751713 0.145221
O O17 0.000000 0.700473 0.181056
O O18 0.579716 0.268561 0.500000
O O19 0.500000 0.355635 0.400501
O O20 0.586322 0.500000 0.405292
O O21 0.668277 0.500000 0.122088
O O22 0.671669 0.705467 0.000000
O O23 0.865735 0.000000 0.124708
O O24 0.845271 0.195426 0.000000
#
# Coordination Sequence:
#
# PCOD8198867 Si02
#       8
#     8   8   8   8   8   8   8   8
#     4   9  17  31  54  80 102 127 162 203 248 299
#     4  10  20  36  57  77 100 131 166 206 252 305
#     4   8  14  26  44  66  95 131 167 203 246 297
#     4   9  17  30  50  76 105 136 167 200 243 296
#     4  10  21  35  51  75 107 139 170 206 250 303
#     4   7   9  15  31  56  85 118 155 192 232 281
#     4  10  21  34  49  74 104 132 168 215 260 299
#     4  10  21  37  56  76  96 125 171 220 262 304
#
# _framework density 18.090053000000001
#
# number of rings (size 3 to 8) (size 9 to 14) (size 15 to 20)
#    0.000    2.875    1.250    1.500    0.000    3.000 
#    0.000    4.375    0.000    1.125    0.000    3.500 
#    0.000    0.000    0.000    6.250    0.000    2.500 
#
# Total GULP energy -792951.443367 kJ/mol
# GULP energy per Si atom -12389.866303 kJ/mol
# Density = 1.804888 g / cm^3
# Si number density = 18.090053 Si / 1000 Ang^3
#
#
#
# Elastic Constant Matrix: (Units=GPa)
#
#
# Indices 1 2 3 4 5 6 
#
# 1 99.9418 38.0046 55.0551 0.0000 0.0000 0.0000
# 2 38.0046 38.5204 36.1328 0.0000 0.0000 0.0000
# 3 55.0551 36.1328 111.5932 0.0000 0.0000 0.0000
# 4 0.0000 0.0000 0.0000 23.0911 0.0000 0.0000
# 5 0.0000 0.0000 0.0000 0.0000 25.2750 0.0000
# 6 0.0000 0.0000 0.0000 0.0000 0.0000 -18.8854
#
#
#
# Elastic Compliance Matrix: (Units=1/GPa)
#
#
# Indices 1 2 3 4 5 6 
#
# 1 0.017361 -0.013061 -0.004336 0.000000 0.000000 0.000000
# 2 -0.013061 0.047111 -0.008810 0.000000 0.000000 0.000000
# 3 -0.004336 -0.008810 0.013953 0.000000 0.000000 0.000000
# 4 0.000000 0.000000 0.000000 0.043307 0.000000 0.000000
# 5 0.000000 0.000000 0.000000 0.000000 0.039565 0.000000
# 6 0.000000 0.000000 0.000000 0.000000 0.000000 -0.052951
#
#
# Mechanical properties :
#
#
# Convention : Reuss Voigt Hill
#
# Bulk Modulus (GPa) = 38.44702 56.49336 47.47019
# Shear Modulus (GPa) = 29.51050 13.95366 21.73208
#
# Velocity S-wave (km/s) = 4.04333 2.78032 3.46978
# Velocity P-wave (km/s) = 6.56485 6.45009 6.50773
#
# Compressibility (1/GPa) = 0.02600981
#
# Stress axis : x y z
#
# Youngs Moduli (GPa) = 57.59935 21.22648 71.66918
#
# Poissons Ratio (x) = 0.27725 0.31076
# Poissons Ratio (y) = 0.75233 0.63142
# Poissons Ratio (z) = 0.24976 0.18701
#
# Static dielectric constant tensor:
#      x y z
#    x 3.124040 0.000000 0.000000 
#    y 0.000000 3.050000 0.000000 
#    z 0.000000 0.000000 3.871510 
# 
# 
# High freq. dielectric constant tensor:
#      x y z
#    x 1.674450 0.000000 0.000000 
#    y 0.000000 1.663620 0.000000 
#    z 0.000000 0.000000 1.724550 
# 
# From -- ./inp_files/25519.got.cif
#   From: 2010.03.12/outbox.cif.g09.slc.cpg/sg47_13_cif.got.tgz:25519.got - 2010.04.14 03:12:58.
