data_PCOD8198387
_publ_section_title
;
Structure prediction by ZEFSAII (Michael W. Deem and Ramdas Pophale) SiO2 
 PCOD8198387
Probable space group: P M M M
;
_chemical_formula_sum "Si O2"
_cell_formula_units_Z 48
_cell_length_a 15.218673
_cell_length_b 19.002430
_cell_length_c 9.016803
_cell_angle_alpha 90.000000
_cell_angle_beta 90.000000
_cell_angle_gamma 90.000000
_cell_volume 2607.585205
_symmetry_space_group_name_H-M "P M M M"
_symmetry_group_IT_number 47
_symmetry_cell_setting 'orthorhombic'
loop_
_space_group_symop_operation_xyz
x,y,z
-x,-y,z
x,-y,-z
-x,y,-z
-x,-y,-z
x,y,-z
-x,y,z
x,-y,z
loop_
_atom_site_type_symbol
_atom_site_label
_atom_site_fract_x
_atom_site_fract_y
_atom_site_fract_z
Si Si1 0.398316 0.800560 0.673441
Si Si2 0.667372 0.663935 0.176403
Si Si3 0.500000 0.421936 0.824093
Si Si4 0.823671 0.581706 0.325073
Si Si5 0.095805 0.083601 0.832132
Si Si6 0.267168 0.921029 0.672994
Si Si7 0.000000 0.416821 0.833760
O O1 0.389505 0.782161 0.500000
O O2 0.500000 0.805650 0.721619
O O3 0.347335 0.742998 0.769505
O O4 0.352291 0.874632 0.712172
O O5 0.585226 0.618432 0.233615
O O6 0.751795 0.630918 0.251646
O O7 0.677946 0.662311 0.000000
O O8 0.500000 0.500000 0.755247
O O9 0.500000 0.425234 0.000000
O O10 0.826012 0.593568 0.500000
O O11 0.804949 0.500000 0.285867
O O12 0.915137 0.608281 0.256705
O O13 0.178336 0.113608 0.740401
O O14 0.000000 0.109925 0.771378
O O15 0.097627 0.000000 0.823006
O O16 0.106933 0.109696 0.000000
O O17 0.250554 0.923453 0.500000
O O18 0.284533 0.000000 0.734868
O O19 0.000000 0.500000 0.844404
O O20 0.000000 0.384338 0.000000
#
# Coordination Sequence:
#
# PCOD8198387 Si02
#       7
#     8   8   4   8   8   8   4
#     4  10  21  37  55  74 103 141 177 219 272 328
#     4  11  21  35  55  78 106 142 182 224 270 324
#     4   9  18  32  51  77 106 133 168 218 269 313
#     4  10  20  34  54  82 114 146 180 221 269 319
#     4   8  14  26  46  73 104 135 164 200 253 310
#     4   9  18  32  52  79 106 135 175 219 262 312
#     4   9  17  31  53  81 111 145 184 223 264 313
#
# _framework density 18.407836
#
# number of rings (size 3 to 8) (size 9 to 14) (size 15 to 20)
#    0.000    2.500    0.833    2.250    0.000    4.000 
#    0.000    3.333    1.833    2.000    0.000    3.500 
#    0.000    0.000    0.000    0.000    0.000    0.000 
#
# Total GULP energy -595077.791065 kJ/mol
# GULP energy per Si atom -12397.453981 kJ/mol
# Density = 1.836594 g / cm^3
# Si number density = 18.407836 Si / 1000 Ang^3
#
#
#
# Elastic Constant Matrix: (Units=GPa)
#
#
# Indices 1 2 3 4 5 6 
#
# 1 174.0358 63.3454 62.9044 0.0000 0.0000 0.0000
# 2 63.3454 80.6999 39.6505 0.0000 0.0000 0.0000
# 3 62.9044 39.6505 74.7153 0.0000 0.0000 0.0000
# 4 0.0000 0.0000 0.0000 21.4092 0.0000 0.0000
# 5 0.0000 0.0000 0.0000 0.0000 27.1866 0.0000
# 6 0.0000 0.0000 0.0000 0.0000 0.0000 -697.0291
#
#
#
# Elastic Compliance Matrix: (Units=1/GPa)
#
#
# Indices 1 2 3 4 5 6 
#
# 1 0.009432 -0.004737 -0.005427 0.000000 0.000000 0.000000
# 2 -0.004737 0.019141 -0.006170 0.000000 0.000000 0.000000
# 3 -0.005427 -0.006170 0.021227 0.000000 0.000000 0.000000
# 4 0.000000 0.000000 0.000000 0.046709 0.000000 0.000000
# 5 0.000000 0.000000 0.000000 0.000000 0.036783 0.000000
# 6 0.000000 0.000000 0.000000 0.000000 0.000000 -0.001435
#
#
# Mechanical properties :
#
#
# Convention : Reuss Voigt Hill
#
# Bulk Modulus (GPa) = 58.36716 73.47240 65.91978
# Shear Modulus (GPa) = 29.37102 -118.78327 -44.70612
#
# Velocity S-wave (km/s) = 3.99879 -8.04169 -4.93348
# Velocity P-wave (km/s) = 7.28677 6.79887 1.85370
#
# Compressibility (1/GPa) = 0.01713292
#
# Stress axis : x y z
#
# Youngs Moduli (GPa) = 106.02666 52.24290 47.10894
#
# Poissons Ratio (x) = 0.24747 0.25565
# Poissons Ratio (y) = 0.50224 0.29066
# Poissons Ratio (z) = 0.57539 0.32234
#
# Static dielectric constant tensor:
#      x y z
#    x 3.769540 0.000000 0.000000 
#    y 0.000000 3.246240 0.000000 
#    z 0.000000 0.000000 3.355570 
# 
# 
# High freq. dielectric constant tensor:
#      x y z
#    x 1.729500 0.000000 0.000000 
#    y 0.000000 1.684380 0.000000 
#    z 0.000000 0.000000 1.707350 
# 
# From -- ./inp_files/6425.got.cif
#   From: 2010.03.12/outbox.cif.g09.slc.cpg/sg47_4_cif.got.tgz:6425.got - 2010.04.14 03:12:58.
