data_PCOD8198706
_publ_section_title
;
Structure prediction by ZEFSAII (Michael W. Deem and Ramdas Pophale) SiO2 
 PCOD8198706
Probable space group: P M M M
;
_chemical_formula_sum "Si O2"
_cell_formula_units_Z 44
_cell_length_a 33.828581
_cell_length_b 7.786177
_cell_length_c 8.004431
_cell_angle_alpha 90.000000
_cell_angle_beta 90.000000
_cell_angle_gamma 90.000000
_cell_volume 2108.329659
_symmetry_space_group_name_H-M "P M M M"
_symmetry_group_IT_number 47
_symmetry_cell_setting 'orthorhombic'
loop_
_space_group_symop_operation_xyz
x,y,z
-x,-y,z
x,-y,-z
-x,y,-z
-x,-y,-z
x,y,-z
-x,y,z
x,-y,z
loop_
_atom_site_type_symbol
_atom_site_label
_atom_site_fract_x
_atom_site_fract_y
_atom_site_fract_z
Si Si1 0.093194 0.797032 0.684614
Si Si2 0.542565 0.303927 0.698009
Si Si3 0.820956 0.194932 0.197225
Si Si4 0.678487 0.500000 0.808476
Si Si5 0.044921 0.794901 0.000000
Si Si6 0.625437 0.810699 0.696235
Si Si7 0.765562 0.500000 0.801282
O O1 0.080622 0.727110 0.500000
O O2 0.138585 0.746905 0.715659
O O3 0.088616 0.000000 0.688279
O O4 0.065844 0.719751 0.832482
O O5 0.542202 0.288211 0.500000
O O6 0.500000 0.231915 0.765497
O O7 0.547130 0.500000 0.754162
O O8 0.580771 0.204858 0.770550
O O9 0.787395 0.326649 0.260486
O O10 0.808859 0.000000 0.248253
O O11 0.827725 0.206612 0.000000
O O12 0.654559 0.670890 0.769026
O O13 0.721506 0.500000 0.719860
O O14 0.688252 0.500000 0.000000
O O15 0.000000 0.729968 0.000000
O O16 0.047589 0.000000 0.000000
O O17 0.623570 0.780400 0.500000
O O18 0.641503 0.000000 0.742366
O O19 0.764602 0.500000 0.000000
#
# Coordination Sequence:
#
# PCOD8198706 Si02
#       7
#     8   8   8   4   4   8   4
#     4   9  16  27  45  71 104 142 184 229 278 332
#     4   8  13  24  47  78 107 134 173 230 284 325
#     4   9  16  31  54  76 102 133 169 222 282 333
#     4  11  23  39  56  78 113 148 183 229 274 335
#     4   9  16  26  42  69 107 151 194 231 275 328
#     4  10  20  35  57  81 107 145 186 225 279 338
#     4   9  20  35  55  82 102 133 184 223 269 332
#
# _framework density 20.869599999999998
#
# number of rings (size 3 to 8) (size 9 to 14) (size 15 to 20)
#    0.000    2.818    1.818    0.818    0.000    1.818 
#    0.000    7.727    0.000    3.273    0.000    2.545 
#    0.000    1.455    0.000    0.182    0.000    0.000 
#
# Total GULP energy -545193.752852 kJ/mol
# GULP energy per Si atom -12390.767110 kJ/mol
# Density = 2.082210 g / cm^3
# Si number density = 20.869600 Si / 1000 Ang^3
#
#
#
# Elastic Constant Matrix: (Units=GPa)
#
#
# Indices 1 2 3 4 5 6 
#
# 1 177.5785 66.1767 56.8789 0.0000 0.0000 0.0000
# 2 66.1767 90.0402 23.0851 0.0000 0.0000 0.0000
# 3 56.8789 23.0851 73.0052 0.0000 0.0000 0.0000
# 4 0.0000 0.0000 0.0000 7.8318 0.0000 0.0000
# 5 0.0000 0.0000 0.0000 0.0000 52.5785 0.0000
# 6 0.0000 0.0000 0.0000 0.0000 0.0000 3.4080
#
#
#
# Elastic Compliance Matrix: (Units=1/GPa)
#
#
# Indices 1 2 3 4 5 6 
#
# 1 0.009506 -0.005537 -0.005656 0.000000 0.000000 0.000000
# 2 -0.005537 0.015311 -0.000528 0.000000 0.000000 0.000000
# 3 -0.005656 -0.000528 0.018271 0.000000 0.000000 0.000000
# 4 0.000000 0.000000 0.000000 0.127684 0.000000 0.000000
# 5 0.000000 0.000000 0.000000 0.000000 0.019019 0.000000
# 6 0.000000 0.000000 0.000000 0.000000 0.000000 0.293429
#
#
# Mechanical properties :
#
#
# Convention : Reuss Voigt Hill
#
# Bulk Modulus (GPa) = 50.89648 70.32283 60.60965
# Shear Modulus (GPa) = 9.74261 25.72921 17.73591
#
# Velocity S-wave (km/s) = 2.16298 3.51501 2.91837
# Velocity P-wave (km/s) = 5.53884 7.08824 6.36089
#
# Compressibility (1/GPa) = 0.01964772
#
# Stress axis : x y z
#
# Youngs Moduli (GPa) = 105.19556 65.31351 54.73216
#
# Poissons Ratio (x) = 0.36162 0.30954
# Poissons Ratio (y) = 0.58244 0.02889
# Poissons Ratio (z) = 0.59493 0.03447
#
# Static dielectric constant tensor:
#      x y z
#    x 4.114940 0.000000 0.000000 
#    y 0.000000 3.600030 0.000000 
#    z 0.000000 0.000000 3.614640 
# 
# 
# High freq. dielectric constant tensor:
#      x y z
#    x 1.817190 0.000000 0.000000 
#    y 0.000000 1.796610 0.000000 
#    z 0.000000 0.000000 1.788330 
# 
# From -- ./inp_files/13738.got.cif
#   From: 2010.03.12/outbox.cif.g09.slc.cpg/sg47_7_cif.got.tgz:13738.got - 2010.04.14 03:12:58.
