data_PCOD8198852
_publ_section_title
;
Structure prediction by ZEFSAII (Michael W. Deem and Ramdas Pophale) SiO2 
 PCOD8198852
Probable space group: P M M M
;
_chemical_formula_sum "Si O2"
_cell_formula_units_Z 64
_cell_length_a 14.320279
_cell_length_b 25.365379
_cell_length_c 9.012343
_cell_angle_alpha 90.000000
_cell_angle_beta 90.000000
_cell_angle_gamma 90.000000
_cell_volume 3273.637201
_symmetry_space_group_name_H-M "P M M M"
_symmetry_group_IT_number 47
_symmetry_cell_setting 'orthorhombic'
loop_
_space_group_symop_operation_xyz
x,y,z
-x,-y,z
x,-y,-z
-x,y,-z
-x,-y,-z
x,y,-z
-x,y,z
x,-y,z
loop_
_atom_site_type_symbol
_atom_site_label
_atom_site_fract_x
_atom_site_fract_y
_atom_site_fract_z
Si Si1 0.783973 0.749971 0.824617
Si Si2 0.218090 0.558495 0.672740
Si Si3 0.891252 0.154186 0.325828
Si Si4 0.394619 0.219741 0.673124
Si Si5 0.601254 0.562664 0.833410
Si Si6 0.396576 0.111400 0.168712
Si Si7 0.108152 0.341250 0.328853
Si Si8 0.206404 0.059811 0.828340
O O1 0.833209 0.801248 0.757700
O O2 0.678243 0.744661 0.764236
O O3 0.837819 0.697574 0.778918
O O4 0.783116 0.755468 0.000000
O O5 0.233067 0.552921 0.500000
O O6 0.195888 0.500000 0.739610
O O7 0.313778 0.583972 0.735076
O O8 0.134396 0.598371 0.710831
O O9 0.872818 0.159803 0.500000
O O10 0.857493 0.097053 0.272166
O O11 0.000000 0.161244 0.287800
O O12 0.372447 0.224764 0.500000
O O13 0.500000 0.238777 0.709626
O O14 0.380948 0.159270 0.719323
O O15 0.500000 0.582535 0.772998
O O16 0.602416 0.500000 0.830168
O O17 0.615770 0.583495 0.000000
O O18 0.500000 0.086294 0.192985
O O19 0.316956 0.068435 0.201445
O O20 0.387320 0.132835 0.000000
O O21 0.132902 0.328400 0.500000
O O22 0.000000 0.333726 0.297472
O O23 0.182591 0.000000 0.784251
O O24 0.182571 0.070813 0.000000
#
# Coordination Sequence:
#
# PCOD8198852 Si02
#       8
#     8   8   8   8   8   8   8   8
#     4  12  24  39  62  89 116 146 185 235 288 342
#     4   9  18  33  55  84 115 148 188 232 279 333
#     4  11  24  41  61  83 108 145 193 241 294 352
#     4  10  20  35  59  89 119 151 186 226 276 336
#     4   8  14  26  46  73 106 145 186 225 268 321
#     4   9  17  31  53  82 116 153 191 229 273 330
#     4  10  22  40  60  83 114 151 190 235 287 340
#     4  10  21  36  55  83 118 155 194 237 286 339
#
# _framework density 19.550121000000001
#
# number of rings (size 3 to 8) (size 9 to 14) (size 15 to 20)
#    0.000    2.125    1.250    2.625    0.000    5.250 
#    0.000    5.625    0.000    0.750    0.000    5.250 
#    0.000    0.000    0.000    0.000    0.000    0.000 
#
# Total GULP energy -793492.216777 kJ/mol
# GULP energy per Si atom -12398.315887 kJ/mol
# Density = 1.950562 g / cm^3
# Si number density = 19.550121 Si / 1000 Ang^3
#
#
#
# Elastic Constant Matrix: (Units=GPa)
#
#
# Indices 1 2 3 4 5 6 
#
# 1 119.7836 49.7407 61.9631 0.0000 0.0000 0.0000
# 2 49.7407 85.1623 47.1532 0.0000 0.0000 0.0000
# 3 61.9631 47.1532 93.4243 0.0000 0.0000 0.0000
# 4 0.0000 0.0000 0.0000 25.2619 0.0000 0.0000
# 5 0.0000 0.0000 0.0000 0.0000 25.0606 0.0000
# 6 0.0000 0.0000 0.0000 0.0000 0.0000 27.4446
#
#
#
# Elastic Compliance Matrix: (Units=1/GPa)
#
#
# Indices 1 2 3 4 5 6 
#
# 1 0.013674 -0.004115 -0.006992 0.000000 0.000000 0.000000
# 2 -0.004115 0.017535 -0.006121 0.000000 0.000000 0.000000
# 3 -0.006992 -0.006121 0.018431 0.000000 0.000000 0.000000
# 4 0.000000 0.000000 0.000000 0.039585 0.000000 0.000000
# 5 0.000000 0.000000 0.000000 0.000000 0.039903 0.000000
# 6 0.000000 0.000000 0.000000 0.000000 0.000000 0.036437
#
#
# Mechanical properties :
#
#
# Convention : Reuss Voigt Hill
#
# Bulk Modulus (GPa) = 65.86234 68.45383 67.15808
# Shear Modulus (GPa) = 24.38031 24.85431 24.61731
#
# Velocity S-wave (km/s) = 3.53521 3.56941 3.55236
# Velocity P-wave (km/s) = 7.10111 7.21652 7.15905
#
# Compressibility (1/GPa) = 0.01518318
#
# Stress axis : x y z
#
# Youngs Moduli (GPa) = 73.12965 57.02926 54.25687
#
# Poissons Ratio (x) = 0.23468 0.37939
# Poissons Ratio (y) = 0.30094 0.33210
# Poissons Ratio (z) = 0.51135 0.34907
#
# Static dielectric constant tensor:
#      x y z
#    x 3.960380 0.000000 0.000000 
#    y 0.000000 3.407400 0.000000 
#    z 0.000000 0.000000 3.562180 
# 
# 
# High freq. dielectric constant tensor:
#      x y z
#    x 1.775450 0.000000 0.000000 
#    y 0.000000 1.739280 0.000000 
#    z 0.000000 0.000000 1.755780 
# 
# From -- ./inp_files/7787.got.cif
#   From: 2010.03.12/outbox.cif.g09.slc.cpg/sg47_4_cif.got.tgz:7787.got - 2010.04.14 03:12:58.
