data_PCOD8198789
_publ_section_title
;
Structure prediction by ZEFSAII (Michael W. Deem and Ramdas Pophale) SiO2 
 PCOD8198789
Probable space group: P M M M
;
_chemical_formula_sum "Si O2"
_cell_formula_units_Z 48
_cell_length_a 30.851008
_cell_length_b 9.015050
_cell_length_c 8.873483
_cell_angle_alpha 90.000000
_cell_angle_beta 90.000000
_cell_angle_gamma 90.000000
_cell_volume 2467.923081
_symmetry_space_group_name_H-M "P M M M"
_symmetry_group_IT_number 47
_symmetry_cell_setting 'orthorhombic'
loop_
_space_group_symop_operation_xyz
x,y,z
-x,-y,z
x,-y,-z
-x,y,-z
-x,-y,-z
x,y,-z
-x,y,z
x,-y,z
loop_
_atom_site_type_symbol
_atom_site_label
_atom_site_fract_x
_atom_site_fract_y
_atom_site_fract_z
Si Si1 0.413754 0.673951 0.825275
Si Si2 0.500000 0.167194 0.820888
Si Si3 0.666375 0.170001 0.677236
Si Si4 0.825840 0.828484 0.323675
Si Si5 0.000000 0.667219 0.179213
Si Si6 0.085229 0.172873 0.827668
Si Si7 0.253306 0.670243 0.822216
O O1 0.418646 0.500000 0.800892
O O2 0.457238 0.750056 0.761238
O O3 0.373641 0.732206 0.730788
O O4 0.406087 0.713571 0.000000
O O5 0.500000 0.000000 0.758055
O O6 0.500000 0.170609 0.000000
O O7 0.671506 0.185925 0.500000
O O8 0.710075 0.227568 0.751211
O O9 0.658763 0.000000 0.725708
O O10 0.820476 0.800149 0.500000
O O11 0.873842 0.781647 0.273220
O O12 0.793023 0.724482 0.234724
O O13 0.816787 0.000000 0.282135
O O14 0.956678 0.745302 0.241045
O O15 0.000000 0.500000 0.237884
O O16 0.000000 0.679138 0.000000
O O17 0.075368 0.000000 0.817383
O O18 0.094550 0.220963 0.000000
O O19 0.260573 0.500000 0.773298
O O20 0.255440 0.687602 0.000000
#
# Coordination Sequence:
#
# PCOD8198789 Si02
#       7
#     8   4   8   8   4   8   8
#     4  10  20  35  57  85 115 147 186 231 277 326
#     4   9  17  31  54  83 114 149 188 230 276 323
#     4  11  24  40  58  82 112 146 184 226 273 326
#     4  10  21  37  57  82 111 143 180 222 270 324
#     4   9  17  29  48  75 104 134 174 225 272 313
#     4   9  17  31  52  76 103 138 179 221 267 319
#     4  11  24  40  59  84 111 141 180 224 270 323
#
# _framework density 19.449551
#
# number of rings (size 3 to 8) (size 9 to 14) (size 15 to 20)
#    0.000    2.000    0.000    3.500    0.000   11.333 
#    0.000    2.500    0.000    5.000    0.000    0.000 
#    0.000    0.000    0.000    0.000    0.000    0.000 
#
# Total GULP energy -595396.391580 kJ/mol
# GULP energy per Si atom -12404.091491 kJ/mol
# Density = 1.940528 g / cm^3
# Si number density = 19.449551 Si / 1000 Ang^3
#
#
#
# Elastic Constant Matrix: (Units=GPa)
#
#
# Indices 1 2 3 4 5 6 
#
# 1 129.8831 53.1265 26.8937 0.0000 0.0000 0.0000
# 2 53.1265 86.8918 41.0461 0.0000 0.0000 0.0000
# 3 26.8937 41.0461 45.5910 0.0000 0.0000 0.0000
# 4 0.0000 0.0000 0.0000 23.4094 0.0000 0.0000
# 5 0.0000 0.0000 0.0000 0.0000 -89.4267 0.0000
# 6 0.0000 0.0000 0.0000 0.0000 0.0000 21.2942
#
#
#
# Elastic Compliance Matrix: (Units=1/GPa)
#
#
# Indices 1 2 3 4 5 6 
#
# 1 0.010280 -0.005952 -0.000705 0.000000 0.000000 0.000000
# 2 -0.005952 0.023471 -0.017620 0.000000 0.000000 0.000000
# 3 -0.000705 -0.017620 0.038214 0.000000 0.000000 0.000000
# 4 0.000000 0.000000 0.000000 0.042718 0.000000 0.000000
# 5 0.000000 0.000000 0.000000 0.000000 -0.011182 0.000000
# 6 0.000000 0.000000 0.000000 0.000000 0.000000 0.046961
#
#
# Mechanical properties :
#
#
# Convention : Reuss Voigt Hill
#
# Bulk Modulus (GPa) = 42.71737 56.05539 49.38638
# Shear Modulus (GPa) = 24.17556 0.47534 12.32545
#
# Velocity S-wave (km/s) = 3.52943 0.49490 2.52010
# Velocity P-wave (km/s) = 6.21450 5.40463 5.82366
#
# Compressibility (1/GPa) = 0.02340968
#
# Stress axis : x y z
#
# Youngs Moduli (GPa) = 97.27766 42.60536 26.16841
#
# Poissons Ratio (x) = 0.25359 0.01846
# Poissons Ratio (y) = 0.57900 0.46110
# Poissons Ratio (z) = 0.06861 0.75072
#
# Static dielectric constant tensor:
#      x y z
#    x 3.760730 0.000000 0.000000 
#    y 0.000000 3.685010 0.000000 
#    z 0.000000 0.000000 3.368130 
# 
# 
# High freq. dielectric constant tensor:
#      x y z
#    x 1.774930 0.000000 0.000000 
#    y 0.000000 1.764540 0.000000 
#    z 0.000000 0.000000 1.737740 
# 
# From -- ./inp_files/2547.got.cif
#   From: 2010.03.12/outbox.cif.g09.slc.cpg/sg47_2_cif.got.tgz:2547.got - 2010.04.14 03:12:58.
