data_PCOD8198645
_publ_section_title
;
Structure prediction by ZEFSAII (Michael W. Deem and Ramdas Pophale) SiO2 
 PCOD8198645
Probable space group: P M M M
;
_chemical_formula_sum "Si O2"
_cell_formula_units_Z 52
_cell_length_a 12.199002
_cell_length_b 18.345249
_cell_length_c 13.208628
_cell_angle_alpha 90.000000
_cell_angle_beta 90.000000
_cell_angle_gamma 90.000000
_cell_volume 2956.008118
_symmetry_space_group_name_H-M "P M M M"
_symmetry_group_IT_number 47
_symmetry_cell_setting 'orthorhombic'
loop_
_space_group_symop_operation_xyz
x,y,z
-x,-y,z
x,-y,-z
-x,y,-z
-x,-y,-z
x,y,-z
-x,y,z
x,-y,z
loop_
_atom_site_type_symbol
_atom_site_label
_atom_site_fract_x
_atom_site_fract_y
_atom_site_fract_z
Si Si1 0.752035 0.807004 0.750147
Si Si2 0.629291 0.688690 0.880983
Si Si3 0.000000 0.413555 0.888065
Si Si4 0.214997 0.586168 0.770746
Si Si5 0.870660 0.919470 0.112433
Si Si6 0.870555 0.309910 0.382626
Si Si7 0.629468 0.919050 0.613358
O O1 0.681146 0.758487 0.826673
O O2 0.830796 0.858348 0.812555
O O3 0.829668 0.761060 0.676417
O O4 0.670611 0.856256 0.686209
O O5 0.500000 0.688027 0.862442
O O6 0.678413 0.615848 0.829231
O O7 0.657557 0.689896 0.000000
O O8 0.891163 0.386251 0.832706
O O9 0.000000 0.500000 0.892431
O O10 0.000000 0.379404 0.000000
O O11 0.225538 0.500000 0.760930
O O12 0.197760 0.620343 0.659260
O O13 0.000000 0.916527 0.110082
O O14 0.831643 0.000000 0.148077
O O15 0.823985 0.904104 0.000000
O O16 0.840996 0.301407 0.500000
O O17 0.000000 0.321224 0.366623
O O18 0.674040 0.904609 0.500000
O O19 0.500000 0.915447 0.613756
O O20 0.667853 0.000000 0.648953
#
# Coordination Sequence:
#
# PCOD8198645 Si02
#       7
#     8   8   4   8   8   8   8
#     4  11  19  32  53  75 100 136 177 215 253 302
#     4  10  22  37  52  75 107 141 174 209 254 310
#     4   9  16  28  49  77 103 123 151 198 250 295
#     4  10  20  35  56  78 101 131 169 210 256 305
#     4   9  18  32  50  74 104 137 173 214 261 311
#     4  10  21  35  51  75 107 138 169 208 257 312
#     4   9  18  32  50  73  99 128 168 218 265 303
#
# _framework density 17.591291999999999
#
# number of rings (size 3 to 8) (size 9 to 14) (size 15 to 20)
#    0.000    2.231    0.769    3.692    0.000    1.538 
#    0.000    1.538    0.000    4.154    0.000   17.231 
#    0.000    0.000    0.000    0.000    0.000    0.000 
#
# Total GULP energy -644688.881107 kJ/mol
# GULP energy per Si atom -12397.863098 kJ/mol
# Density = 1.755125 g / cm^3
# Si number density = 17.591292 Si / 1000 Ang^3
#
#
#
# Elastic Constant Matrix: (Units=GPa)
#
#
# Indices 1 2 3 4 5 6 
#
# 1 63.8324 37.8456 50.0711 0.0000 0.0000 0.0000
# 2 37.8456 131.4664 74.5822 0.0000 0.0000 0.0000
# 3 50.0711 74.5822 130.0041 0.0000 0.0000 0.0000
# 4 0.0000 0.0000 0.0000 26.7204 0.0000 0.0000
# 5 0.0000 0.0000 0.0000 0.0000 29.1897 0.0000
# 6 0.0000 0.0000 0.0000 0.0000 0.0000 26.4729
#
#
#
# Elastic Compliance Matrix: (Units=1/GPa)
#
#
# Indices 1 2 3 4 5 6 
#
# 1 0.022931 -0.002358 -0.007479 0.000000 0.000000 0.000000
# 2 -0.002358 0.011519 -0.005700 0.000000 0.000000 0.000000
# 3 -0.007479 -0.005700 0.013843 0.000000 0.000000 0.000000
# 4 0.000000 0.000000 0.000000 0.037425 0.000000 0.000000
# 5 0.000000 0.000000 0.000000 0.000000 0.034259 0.000000
# 6 0.000000 0.000000 0.000000 0.000000 0.000000 0.037774
#
#
# Mechanical properties :
#
#
# Convention : Reuss Voigt Hill
#
# Bulk Modulus (GPa) = 58.07878 72.25562 65.16720
# Shear Modulus (GPa) = 25.69846 27.33020 26.51433
#
# Velocity S-wave (km/s) = 3.82627 3.94588 3.88653
# Velocity P-wave (km/s) = 7.25312 7.86916 7.56741
#
# Compressibility (1/GPa) = 0.01721799
#
# Stress axis : x y z
#
# Youngs Moduli (GPa) = 43.60954 86.81215 72.24055
#
# Poissons Ratio (x) = 0.20473 0.54028
# Poissons Ratio (y) = 0.10285 0.41178
# Poissons Ratio (z) = 0.32615 0.49484
#
# Static dielectric constant tensor:
#      x y z
#    x 3.129490 0.000000 0.000000 
#    y 0.000000 3.314330 0.000000 
#    z 0.000000 0.000000 3.570770 
# 
# 
# High freq. dielectric constant tensor:
#      x y z
#    x 1.671450 0.000000 0.000000 
#    y 0.000000 1.686120 0.000000 
#    z 0.000000 0.000000 1.688370 
# 
# From -- ./inp_files/22880.got.cif
#   From: 2010.03.12/outbox.cif.g09.slc.cpg/sg47_12_cif.got.tgz:22880.got - 2010.04.14 03:12:58.
