data_PCOD8198827
_publ_section_title
;
Structure prediction by ZEFSAII (Michael W. Deem and Ramdas Pophale) SiO2 
 PCOD8198827
Probable space group: P M M M
;
_chemical_formula_sum "Si O2"
_cell_formula_units_Z 64
_cell_length_a 14.590656
_cell_length_b 24.924825
_cell_length_c 8.737901
_cell_angle_alpha 90.000000
_cell_angle_beta 90.000000
_cell_angle_gamma 90.000000
_cell_volume 3177.708502
_symmetry_space_group_name_H-M "P M M M"
_symmetry_group_IT_number 47
_symmetry_cell_setting 'orthorhombic'
loop_
_space_group_symop_operation_xyz
x,y,z
-x,-y,z
x,-y,-z
-x,y,-z
-x,-y,-z
x,y,-z
-x,y,z
x,-y,z
loop_
_atom_site_type_symbol
_atom_site_label
_atom_site_fract_x
_atom_site_fract_y
_atom_site_fract_z
Si Si1 0.234451 0.747186 0.179770
Si Si2 0.106737 0.439191 0.171288
Si Si3 0.896251 0.156672 0.180998
Si Si4 0.213967 0.059667 0.324338
Si Si5 0.397215 0.560034 0.681806
Si Si6 0.397711 0.800489 0.326014
Si Si7 0.237457 0.363981 0.676925
Si Si8 0.602720 0.912730 0.821303
O O1 0.158665 0.790453 0.237106
O O2 0.329079 0.754986 0.270756
O O3 0.206787 0.687183 0.223202
O O4 0.250055 0.753183 0.000000
O O5 0.139614 0.500000 0.189900
O O6 0.154765 0.405204 0.303223
O O7 0.000000 0.434102 0.200005
O O8 0.131746 0.418697 0.000000
O O9 0.845577 0.102534 0.232334
O O10 0.000000 0.158505 0.247933
O O11 0.899960 0.155766 0.000000
O O12 0.212795 0.077356 0.500000
O O13 0.319345 0.055475 0.268959
O O14 0.171446 0.000000 0.302785
O O15 0.391399 0.559161 0.500000
O O16 0.500000 0.574857 0.736164
O O17 0.371431 0.500000 0.742584
O O18 0.328515 0.606166 0.743171
O O19 0.376326 0.818440 0.500000
O O20 0.500000 0.776791 0.313782
O O21 0.384354 0.850214 0.213057
O O22 0.248753 0.347690 0.500000
O O23 0.500000 0.931466 0.771021
O O24 0.617025 0.922847 0.000000
#
# Coordination Sequence:
#
# PCOD8198827 Si02
#       8
#     8   8   8   8   8   8   8   8
#     4  11  23  39  59  84 116 156 198 241 291 349
#     4   9  19  37  59  81 109 148 190 234 291 355
#     4  10  23  44  67  87 109 146 197 249 301 358
#     4  11  24  40  61  91 125 157 191 238 295 353
#     4   8  15  30  52  78 111 152 195 237 284 339
#     4  10  20  35  58  86 116 151 190 235 286 339
#     4  11  22  34  54  86 119 150 190 242 296 348
#     4  10  20  35  58  88 121 158 197 235 279 335
#
# _framework density 20.140298000000001
#
# number of rings (size 3 to 8) (size 9 to 14) (size 15 to 20)
#    0.000    2.000    1.250    3.000    0.000    5.750 
#    0.000    5.625    0.000    1.125    0.000    4.375 
#    0.000    0.000    0.000    0.000    0.000    0.000 
#
# Total GULP energy -793454.439156 kJ/mol
# GULP energy per Si atom -12397.725612 kJ/mol
# Density = 2.009446 g / cm^3
# Si number density = 20.140298 Si / 1000 Ang^3
#
#
#
# Elastic Constant Matrix: (Units=GPa)
#
#
# Indices 1 2 3 4 5 6 
#
# 1 108.6762 59.5550 26.8941 0.0000 0.0000 0.0000
# 2 59.5550 111.8433 20.1562 0.0000 0.0000 0.0000
# 3 26.8941 20.1562 36.1664 0.0000 0.0000 0.0000
# 4 0.0000 0.0000 0.0000 29.4226 0.0000 0.0000
# 5 0.0000 0.0000 0.0000 0.0000 26.7524 0.0000
# 6 0.0000 0.0000 0.0000 0.0000 0.0000 9.9604
#
#
#
# Elastic Compliance Matrix: (Units=1/GPa)
#
#
# Indices 1 2 3 4 5 6 
#
# 1 0.014506 -0.006426 -0.007206 0.000000 0.000000 0.000000
# 2 -0.006426 0.012786 -0.002347 0.000000 0.000000 0.000000
# 3 -0.007206 -0.002347 0.034317 0.000000 0.000000 0.000000
# 4 0.000000 0.000000 0.000000 0.033987 0.000000 0.000000
# 5 0.000000 0.000000 0.000000 0.000000 0.037380 0.000000
# 6 0.000000 0.000000 0.000000 0.000000 0.000000 0.100397
#
#
# Mechanical properties :
#
#
# Convention : Reuss Voigt Hill
#
# Bulk Modulus (GPa) = 33.72624 52.21071 42.96847
# Shear Modulus (GPa) = 18.16760 23.23245 20.70003
#
# Velocity S-wave (km/s) = 3.00668 3.40005 3.20940
# Velocity P-wave (km/s) = 5.36987 6.43378 5.92575
#
# Compressibility (1/GPa) = 0.02965051
#
# Stress axis : x y z
#
# Youngs Moduli (GPa) = 68.93592 78.21212 29.14025
#
# Poissons Ratio (x) = 0.50257 0.20998
# Poissons Ratio (y) = 0.44296 0.06841
# Poissons Ratio (z) = 0.49675 0.18360
#
# Static dielectric constant tensor:
#      x y z
#    x 3.854190 0.000000 0.000000 
#    y 0.000000 3.592360 0.000000 
#    z 0.000000 0.000000 3.485130 
# 
# 
# High freq. dielectric constant tensor:
#      x y z
#    x 1.789050 0.000000 0.000000 
#    y 0.000000 1.783890 0.000000 
#    z 0.000000 0.000000 1.772660 
# 
# From -- ./inp_files/7811.got.cif
#   From: 2010.03.12/outbox.cif.g09.slc.cpg/sg47_4_cif.got.tgz:7811.got - 2010.04.14 03:12:58.
