data_PCOD8198950
_publ_section_title
;
Structure prediction by ZEFSAII (Michael W. Deem and Ramdas Pophale) SiO2 
 PCOD8198950
Probable space group: P M M M
;
_chemical_formula_sum "Si O2"
_cell_formula_units_Z 56
_cell_length_a 14.610819
_cell_length_b 9.216401
_cell_length_c 20.235149
_cell_angle_alpha 90.000000
_cell_angle_beta 90.000000
_cell_angle_gamma 90.000000
_cell_volume 2724.848305
_symmetry_space_group_name_H-M "P M M M"
_symmetry_group_IT_number 47
_symmetry_cell_setting 'orthorhombic'
loop_
_space_group_symop_operation_xyz
x,y,z
-x,-y,z
x,-y,-z
-x,y,-z
-x,-y,-z
x,y,-z
-x,y,z
x,-y,z
loop_
_atom_site_type_symbol
_atom_site_label
_atom_site_fract_x
_atom_site_fract_y
_atom_site_fract_z
Si Si1 0.101256 0.657333 0.196376
Si Si2 0.654978 0.839803 0.879174
Si Si3 0.107663 0.171144 0.322445
Si Si4 0.605400 0.667736 0.750807
Si Si5 0.604838 0.327864 0.500000
Si Si6 0.399836 0.347225 0.000000
Si Si7 0.274338 0.670005 0.623491
Si Si8 0.860266 0.159950 0.075449
O O1 0.153946 0.500000 0.194764
O O2 0.142006 0.766096 0.251253
O O3 0.091988 0.726103 0.123568
O O4 0.000000 0.624645 0.220888
O O5 0.646213 0.762313 0.809474
O O6 0.758683 0.854187 0.899474
O O7 0.610200 0.000000 0.875465
O O8 0.608281 0.746457 0.934822
O O9 0.176524 0.244782 0.375602
O O10 0.000000 0.204336 0.338504
O O11 0.124207 0.000000 0.321118
O O12 0.500000 0.709079 0.736456
O O13 0.613443 0.500000 0.770701
O O14 0.665535 0.704846 0.687441
O O15 0.597055 0.500000 0.500000
O O16 0.500000 0.264814 0.500000
O O17 0.662892 0.274451 0.563127
O O18 0.340164 0.500000 0.000000
O O19 0.500000 0.407625 0.000000
O O20 0.251291 0.500000 0.617053
O O21 0.906531 0.000000 0.079615
O O22 0.865000 0.217911 0.000000
#
# Coordination Sequence:
#
# PCOD8198950 Si02
#       8
#     8   8   8   8   4   4   8   8
#     4  10  21  36  55  81 110 140 181 236 293 348
#     4  11  22  37  54  75 103 138 183 233 283 337
#     4  10  21  38  60  86 118 157 197 240 294 353
#     4  10  21  36  54  81 116 150 189 238 292 351
#     4   9  18  36  64  97 132 168 205 245 292 347
#     4  11  23  37  53  73  98 131 172 219 275 336
#     4  10  20  36  62  93 122 158 201 244 291 343
#     4  10  21  37  53  72 102 141 185 232 288 354
#
# _framework density 20.551604000000001
#
# number of rings (size 3 to 8) (size 9 to 14) (size 15 to 20)
#    0.000    1.857    0.714    3.214    0.000   10.571 
#    0.000    2.143    0.000    3.857    0.000    0.000 
#    0.000    0.000    0.000    0.000    0.000    0.000 
#
# Total GULP energy -693873.490183 kJ/mol
# GULP energy per Si atom -12390.598039 kJ/mol
# Density = 2.050483 g / cm^3
# Si number density = 20.551604 Si / 1000 Ang^3
#
#
#
# Elastic Constant Matrix: (Units=GPa)
#
#
# Indices 1 2 3 4 5 6 
#
# 1 190.1454 112.1531 62.7135 0.0000 0.0000 0.0000
# 2 112.1531 173.6256 75.3920 0.0000 0.0000 0.0000
# 3 62.7135 75.3920 142.7251 0.0000 0.0000 0.0000
# 4 0.0000 0.0000 0.0000 28.6710 0.0000 0.0000
# 5 0.0000 0.0000 0.0000 0.0000 33.0603 0.0000
# 6 0.0000 0.0000 0.0000 0.0000 0.0000 70.5447
#
#
#
# Elastic Compliance Matrix: (Units=1/GPa)
#
#
# Indices 1 2 3 4 5 6 
#
# 1 0.008627 -0.005095 -0.001099 0.000000 0.000000 0.000000
# 2 -0.005095 0.010483 -0.003299 0.000000 0.000000 0.000000
# 3 -0.001099 -0.003299 0.009232 0.000000 0.000000 0.000000
# 4 0.000000 0.000000 0.000000 0.034878 0.000000 0.000000
# 5 0.000000 0.000000 0.000000 0.000000 0.030248 0.000000
# 6 0.000000 0.000000 0.000000 0.000000 0.000000 0.014175
#
#
# Mechanical properties :
#
#
# Convention : Reuss Voigt Hill
#
# Bulk Modulus (GPa) = 106.88609 111.89037 109.38823
# Shear Modulus (GPa) = 38.53600 43.53769 41.03685
#
# Velocity S-wave (km/s) = 4.33492 4.60766 4.47337
# Velocity P-wave (km/s) = 8.78504 9.10325 8.94556
#
# Compressibility (1/GPa) = 0.00935575
#
# Stress axis : x y z
#
# Youngs Moduli (GPa) = 115.91468 95.39089 108.31959
#
# Poissons Ratio (x) = 0.48605 0.11907
# Poissons Ratio (y) = 0.59062 0.35731
# Poissons Ratio (z) = 0.12742 0.31466
#
# Static dielectric constant tensor:
#      x y z
#    x 3.815830 0.000000 0.000000 
#    y 0.000000 3.899120 0.000000 
#    z 0.000000 0.000000 3.884760 
# 
# 
# High freq. dielectric constant tensor:
#      x y z
#    x 1.809840 0.000000 0.000000 
#    y 0.000000 1.801630 0.000000 
#    z 0.000000 0.000000 1.790410 
# 
# From -- ./inp_files/31030.got.cif
#   From: 2010.03.12/outbox.cif.g09.slc.cpg/sg47_16_cif.got.tgz:31030.got - 2010.04.14 03:12:58.
