data_PCOD8198132
_publ_section_title
;
Structure prediction by ZEFSAII (Michael W. Deem and Ramdas Pophale) SiO2 
 PCOD8198132
Probable space group: P M M M
;
_chemical_formula_sum "Si O2"
_cell_formula_units_Z 40
_cell_length_a 8.728934
_cell_length_b 8.988306
_cell_length_c 25.957002
_cell_angle_alpha 90.000000
_cell_angle_beta 90.000000
_cell_angle_gamma 90.000000
_cell_volume 2036.543025
_symmetry_space_group_name_H-M "P M M M"
_symmetry_group_IT_number 47
_symmetry_cell_setting 'orthorhombic'
loop_
_space_group_symop_operation_xyz
x,y,z
-x,-y,z
x,-y,-z
-x,y,-z
-x,-y,-z
x,y,-z
-x,y,z
x,-y,z
loop_
_atom_site_type_symbol
_atom_site_label
_atom_site_fract_x
_atom_site_fract_y
_atom_site_fract_z
Si Si1 0.820766 0.329049 0.402959
Si Si2 0.678007 0.174757 0.306280
Si Si3 0.317940 0.667343 0.202485
Si Si4 0.317350 0.667843 0.000000
Si Si5 0.682817 0.167948 0.898465
Si Si6 0.319145 0.167776 0.500000
O O1 0.768587 0.500000 0.399195
O O2 0.778874 0.247015 0.350535
O O3 0.734100 0.252903 0.449632
O O4 0.000000 0.315216 0.413241
O O5 0.500000 0.212073 0.316090
O O6 0.736432 0.242122 0.252447
O O7 0.707245 0.000000 0.305179
O O8 0.500000 0.665019 0.199788
O O9 0.252477 0.500000 0.205263
O O10 0.252053 0.747206 0.151609
O O11 0.254190 0.750864 0.050573
O O12 0.254455 0.500000 0.000000
O O13 0.500000 0.668785 0.000000
O O14 0.500000 0.169006 0.898099
O O15 0.745353 0.000000 0.897918
O O16 0.500000 0.162584 0.500000
O O17 0.252306 0.000000 0.500000
#
# Coordination Sequence:
#
# PCOD8198132 Si02
#       6
#     8   8   8   4   8   4
#     4  11  24  40  58  82 111 142 176 213 255 304
#     4  10  20  34  53  77 103 133 172 215 258 307
#     4   9  16  26  41  61  86 118 157 202 251 301
#     4   9  15  21  29  43  67 103 148 195 244 301
#     4   9  15  22  32  48  73 107 149 197 247 299
#     4  11  24  41  62  88 114 141 176 215 254 300
#
# _framework density 19.641126
#
# number of rings (size 3 to 8) (size 9 to 14) (size 15 to 20)
#    0.000    2.200    0.000    3.900    0.000   13.200 
#    0.000    0.000    0.000    0.000    0.000    0.000 
#    0.000    0.000    0.000    0.900    0.000   17.600 
#
# Total GULP energy -496085.794174 kJ/mol
# GULP energy per Si atom -12402.144854 kJ/mol
# Density = 1.959642 g / cm^3
# Si number density = 19.641126 Si / 1000 Ang^3
#
#
#
# Elastic Constant Matrix: (Units=GPa)
#
#
# Indices 1 2 3 4 5 6 
#
# 1 23.6119 22.9256 18.8199 0.0000 0.0000 0.0000
# 2 22.9256 172.4593 83.1042 0.0000 0.0000 0.0000
# 3 18.8199 83.1042 178.0531 0.0000 0.0000 0.0000
# 4 0.0000 0.0000 0.0000 48.9336 0.0000 0.0000
# 5 0.0000 0.0000 0.0000 0.0000 -5.8809 0.0000
# 6 0.0000 0.0000 0.0000 0.0000 0.0000 16.3658
#
#
#
# Elastic Compliance Matrix: (Units=1/GPa)
#
#
# Indices 1 2 3 4 5 6 
#
# 1 0.049685 -0.005256 -0.002798 0.000000 0.000000 0.000000
# 2 -0.005256 0.008037 -0.003196 0.000000 0.000000 0.000000
# 3 -0.002798 -0.003196 0.007404 0.000000 0.000000 0.000000
# 4 0.000000 0.000000 0.000000 0.020436 0.000000 0.000000
# 5 0.000000 0.000000 0.000000 0.000000 -0.170041 0.000000
# 6 0.000000 0.000000 0.000000 0.000000 0.000000 0.061103
#
#
# Mechanical properties :
#
#
# Convention : Reuss Voigt Hill
#
# Bulk Modulus (GPa) = 23.46014 69.31374 46.38694
# Shear Modulus (GPa) = 375.00182 28.50200 201.75191
#
# Velocity S-wave (km/s) = 13.83262 3.81351 10.14604
# Velocity P-wave (km/s) = 16.34295 7.39981 12.68561
#
# Compressibility (1/GPa) = 0.04262548
#
# Stress axis : x y z
#
# Youngs Moduli (GPa) = 20.12663 124.42250 135.06929
#
# Poissons Ratio (x) = 0.65402 0.37796
# Poissons Ratio (y) = 0.10579 0.43163
# Poissons Ratio (z) = 0.05632 0.39761
#
# Static dielectric constant tensor:
#      x y z
#    x 2.972600 0.000000 0.000000 
#    y 0.000000 3.897590 0.000000 
#    z 0.000000 0.000000 3.697920 
# 
# 
# High freq. dielectric constant tensor:
#      x y z
#    x 1.702380 0.000000 0.000000 
#    y 0.000000 1.787780 0.000000 
#    z 0.000000 0.000000 1.786430 
# 
# From -- ./inp_files/33062.got.cif
#   From: 2010.03.12/outbox.cif.g09.slc.cpg/sg47_17_cif.got.tgz:33062.got - 2010.04.14 03:12:58.
