data_PCOD8198301
_publ_section_title
;
Structure prediction by ZEFSAII (Michael W. Deem and Ramdas Pophale) SiO2 
 PCOD8198301
Probable space group: P M M M
;
_chemical_formula_sum "Si O2"
_cell_formula_units_Z 48
_cell_length_a 14.002030
_cell_length_b 15.470204
_cell_length_c 12.781181
_cell_angle_alpha 90.000000
_cell_angle_beta 90.000000
_cell_angle_gamma 90.000000
_cell_volume 2768.586071
_symmetry_space_group_name_H-M "P M M M"
_symmetry_group_IT_number 47
_symmetry_cell_setting 'orthorhombic'
loop_
_space_group_symop_operation_xyz
x,y,z
-x,-y,z
x,-y,-z
-x,y,-z
-x,-y,-z
x,y,-z
-x,y,z
x,-y,z
loop_
_atom_site_type_symbol
_atom_site_label
_atom_site_fract_x
_atom_site_fract_y
_atom_site_fract_z
Si Si1 0.608464 0.755219 0.120983
Si Si2 0.896535 0.500000 0.623358
Si Si3 0.887519 0.092998 0.500000
Si Si4 0.609425 0.600542 0.272161
Si Si5 0.216292 0.665214 0.621056
Si Si6 0.886271 0.818458 0.286858
Si Si7 0.240920 0.099864 0.878100
O O1 0.500000 0.783710 0.145372
O O2 0.631571 0.662802 0.173773
O O3 0.673952 0.835910 0.158218
O O4 0.625591 0.737649 0.000000
O O5 0.906538 0.500000 0.500000
O O6 0.841102 0.416903 0.660339
O O7 0.000000 0.500000 0.677219
O O8 0.854269 0.138119 0.605203
O O9 0.000000 0.084750 0.500000
O O10 0.837809 0.000000 0.500000
O O11 0.500000 0.607667 0.308325
O O12 0.634393 0.500000 0.245882
O O13 0.672357 0.640287 0.366597
O O14 0.196142 0.691682 0.500000
O O15 0.176994 0.732396 0.706630
O O16 0.853871 0.876136 0.188176
O O17 0.000000 0.801086 0.279830
O O18 0.270177 0.000000 0.856253
O O19 0.215990 0.112720 0.000000
#
# Coordination Sequence:
#
# PCOD8198301 Si02
#       7
#     8   4   4   8   8   8   8
#     4   9  18  34  56  80 105 132 167 216 267 312
#     4   9  18  30  47  71 100 133 171 213 257 303
#     4   9  18  32  50  73  98 127 168 217 264 305
#     4  10  20  34  54  80 107 136 172 212 260 319
#     4  11  20  33  51  75 104 137 175 216 260 307
#     4  11  21  34  53  76 104 138 178 221 262 306
#     4  10  21  36  55  80 108 139 175 214 262 319
#
# _framework density 17.337368999999999
#
# number of rings (size 3 to 8) (size 9 to 14) (size 15 to 20)
#    0.000    2.000    3.333    1.000    0.000    3.000 
#    0.000    5.000    0.000    0.000    0.000    0.000 
#    0.000   10.667    0.000    0.000    0.000    0.000 
#
# Total GULP energy -594766.319763 kJ/mol
# GULP energy per Si atom -12390.964995 kJ/mol
# Density = 1.729791 g / cm^3
# Si number density = 17.337369 Si / 1000 Ang^3
#
#
#
# Elastic Constant Matrix: (Units=GPa)
#
#
# Indices 1 2 3 4 5 6 
#
# 1 96.4058 50.9166 35.0244 0.0000 0.0000 0.0000
# 2 50.9166 123.9518 39.6969 0.0000 0.0000 0.0000
# 3 35.0244 39.6969 63.3545 0.0000 0.0000 0.0000
# 4 0.0000 0.0000 0.0000 24.5061 0.0000 0.0000
# 5 0.0000 0.0000 0.0000 0.0000 24.4815 0.0000
# 6 0.0000 0.0000 0.0000 0.0000 0.0000 27.9163
#
#
#
# Elastic Compliance Matrix: (Units=1/GPa)
#
#
# Indices 1 2 3 4 5 6 
#
# 1 0.014583 -0.004264 -0.005390 0.000000 0.000000 0.000000
# 2 -0.004264 0.011340 -0.004748 0.000000 0.000000 0.000000
# 3 -0.005390 -0.004748 0.021739 0.000000 0.000000 0.000000
# 4 0.000000 0.000000 0.000000 0.040806 0.000000 0.000000
# 5 0.000000 0.000000 0.000000 0.000000 0.040847 0.000000
# 6 0.000000 0.000000 0.000000 0.000000 0.000000 0.035821
#
#
# Mechanical properties :
#
#
# Convention : Reuss Voigt Hill
#
# Bulk Modulus (GPa) = 53.02954 59.44308 56.23631
# Shear Modulus (GPa) = 24.97161 25.91907 25.44534
#
# Velocity S-wave (km/s) = 3.79929 3.87070 3.83516
# Velocity P-wave (km/s) = 7.06395 7.37136 7.21929
#
# Compressibility (1/GPa) = 0.01885741
#
# Stress axis : x y z
#
# Youngs Moduli (GPa) = 68.57206 88.18437 46.00012
#
# Poissons Ratio (x) = 0.37603 0.24795
# Poissons Ratio (y) = 0.29240 0.21841
# Poissons Ratio (z) = 0.36962 0.41870
#
# Static dielectric constant tensor:
#      x y z
#    x 3.297250 0.000000 0.000000 
#    y 0.000000 3.494620 0.000000 
#    z 0.000000 0.000000 3.064990 
# 
# 
# High freq. dielectric constant tensor:
#      x y z
#    x 1.665920 0.000000 0.000000 
#    y 0.000000 1.684330 0.000000 
#    z 0.000000 0.000000 1.649420 
# 
# From -- ./inp_files/17537.got.cif
#   From: 2010.03.12/outbox.cif.g09.slc.cpg/sg47_9_cif.got.tgz:17537.got - 2010.04.14 03:12:58.
