data_PCOD8198226
_publ_section_title
;
Structure prediction by ZEFSAII (Michael W. Deem and Ramdas Pophale) SiO2 
 PCOD8198226
Probable space group: P M M M
;
_chemical_formula_sum "Si O2"
_cell_formula_units_Z 64
_cell_length_a 8.513354
_cell_length_b 14.886835
_cell_length_c 25.138031
_cell_angle_alpha 90.000000
_cell_angle_beta 90.000000
_cell_angle_gamma 90.000000
_cell_volume 3185.916028
_symmetry_space_group_name_H-M "P M M M"
_symmetry_group_IT_number 47
_symmetry_cell_setting 'orthorhombic'
loop_
_space_group_symop_operation_xyz
x,y,z
-x,-y,z
x,-y,-z
-x,y,-z
-x,-y,-z
x,y,-z
-x,y,z
x,-y,z
loop_
_atom_site_type_symbol
_atom_site_label
_atom_site_fract_x
_atom_site_fract_y
_atom_site_fract_z
Si Si1 0.314878 0.749655 0.364962
Si Si2 0.813436 0.601873 0.839837
Si Si3 0.816620 0.739342 0.748990
Si Si4 0.816304 0.104205 0.560150
Si Si5 0.181792 0.097366 0.915555
Si Si6 0.686096 0.597899 0.558650
Si Si7 0.322902 0.098837 0.804555
Si Si8 0.186086 0.710204 0.941856
O O1 0.500000 0.744094 0.353720
O O2 0.221459 0.722660 0.312066
O O3 0.275911 0.844093 0.393097
O O4 0.246262 0.674186 0.403931
O O5 0.746093 0.500000 0.836189
O O6 0.759433 0.658087 0.787744
O O7 0.745292 0.649525 0.893700
O O8 0.000000 0.597962 0.842983
O O9 0.720826 0.829524 0.760431
O O10 0.000000 0.755558 0.757854
O O11 0.764073 0.133394 0.500000
O O12 0.000000 0.122156 0.567338
O O13 0.776488 0.000000 0.568213
O O14 0.202023 0.109127 0.852721
O O15 0.255478 0.187306 0.941720
O O16 0.000000 0.093109 0.929969
O O17 0.257334 0.000000 0.933671
O O18 0.757726 0.611676 0.500000
O O19 0.500000 0.605910 0.555725
O O20 0.735030 0.500000 0.580903
O O21 0.500000 0.114774 0.825422
O O22 0.307427 0.000000 0.778575
O O23 0.000000 0.716209 0.933856
O O24 0.228090 0.668158 0.000000
#
# Coordination Sequence:
#
# PCOD8198226 Si02
#       8
#     8   8   8   8   8   8   8   8
#     4  11  22  34  53  83 113 141 180 228 272 316
#     4   9  18  33  52  75 104 138 178 226 278 328
#     4  11  22  37  55  75 104 143 181 219 269 327
#     4   9  19  37  59  82 112 152 192 226 266 319
#     4   9  16  28  48  75 107 141 173 206 254 315
#     4   8  15  30  52  77 106 139 172 209 258 314
#     4  10  20  34  54  78 102 131 170 216 261 308
#     4   9  16  27  47  78 111 140 175 220 268 320
#
# _framework density 20.088412999999999
#
# number of rings (size 3 to 8) (size 9 to 14) (size 15 to 20)
#    0.000    2.500    1.250    2.250    0.000    3.250 
#    0.000    3.125    0.000    2.625    0.000    6.125 
#    0.000    1.000    0.000    0.000    0.000    0.000 
#
# Total GULP energy -792995.754835 kJ/mol
# GULP energy per Si atom -12390.558669 kJ/mol
# Density = 2.004269 g / cm^3
# Si number density = 20.088413 Si / 1000 Ang^3
#
#
#
# Elastic Constant Matrix: (Units=GPa)
#
#
# Indices 1 2 3 4 5 6 
#
# 1 26.2825 21.1602 11.1713 0.0000 0.0000 0.0000
# 2 21.1602 145.3713 73.6031 0.0000 0.0000 0.0000
# 3 11.1713 73.6031 133.3457 0.0000 0.0000 0.0000
# 4 0.0000 0.0000 0.0000 12.4152 0.0000 0.0000
# 5 0.0000 0.0000 0.0000 0.0000 10.3398 0.0000
# 6 0.0000 0.0000 0.0000 0.0000 0.0000 12.4694
#
#
#
# Elastic Compliance Matrix: (Units=1/GPa)
#
#
# Indices 1 2 3 4 5 6 
#
# 1 0.043103 -0.006170 -0.000205 0.000000 0.000000 0.000000
# 2 -0.006170 0.010430 -0.005240 0.000000 0.000000 0.000000
# 3 -0.000205 -0.005240 0.010409 0.000000 0.000000 0.000000
# 4 0.000000 0.000000 0.000000 0.080546 0.000000 0.000000
# 5 0.000000 0.000000 0.000000 0.000000 0.096713 0.000000
# 6 0.000000 0.000000 0.000000 0.000000 0.000000 0.080196
#
#
# Mechanical properties :
#
#
# Convention : Reuss Voigt Hill
#
# Bulk Modulus (GPa) = 24.56344 57.42985 40.99665
# Shear Modulus (GPa) = 13.95867 20.31587 17.13727
#
# Velocity S-wave (km/s) = 2.63888 3.18358 2.92394
# Velocity P-wave (km/s) = 4.64103 6.49340 5.64373
#
# Compressibility (1/GPa) = 0.04071090
#
# Stress axis : x y z
#
# Youngs Moduli (GPa) = 23.20019 95.87456 96.07054
#
# Poissons Ratio (x) = 0.59156 0.01972
# Poissons Ratio (y) = 0.14315 0.50344
# Poissons Ratio (z) = 0.00476 0.50241
#
# Static dielectric constant tensor:
#      x y z
#    x 3.163100 0.000000 0.000000 
#    y 0.000000 3.992360 0.000000 
#    z 0.000000 0.000000 3.672960 
# 
# 
# High freq. dielectric constant tensor:
#      x y z
#    x 1.737160 0.000000 0.000000 
#    y 0.000000 1.793980 0.000000 
#    z 0.000000 0.000000 1.780950 
# 
# From -- ./inp_files/32115.got.cif
#   From: 2010.03.12/outbox.cif.g09.slc.cpg/sg47_17_cif.got.tgz:32115.got - 2010.04.14 03:12:58.
