data_PCOD8198279
_publ_section_title
;
Structure prediction by ZEFSAII (Michael W. Deem and Ramdas Pophale) SiO2 
 PCOD8198279
Probable space group: P M M M
;
_chemical_formula_sum "Si O2"
_cell_formula_units_Z 48
_cell_length_a 9.194240
_cell_length_b 30.795826
_cell_length_c 9.060698
_cell_angle_alpha 90.000000
_cell_angle_beta 90.000000
_cell_angle_gamma 90.000000
_cell_volume 2565.484225
_symmetry_space_group_name_H-M "P M M M"
_symmetry_group_IT_number 47
_symmetry_cell_setting 'orthorhombic'
loop_
_space_group_symop_operation_xyz
x,y,z
-x,-y,z
x,-y,-z
-x,y,-z
-x,-y,-z
x,y,-z
-x,y,z
x,-y,z
loop_
_atom_site_type_symbol
_atom_site_label
_atom_site_fract_x
_atom_site_fract_y
_atom_site_fract_z
Si Si1 0.670861 0.162648 0.169862
Si Si2 0.169938 0.663135 0.329334
Si Si3 0.827160 0.000000 0.166423
Si Si4 0.167497 0.249497 0.830076
Si Si5 0.168043 0.914008 0.326926
Si Si6 0.328252 0.585582 0.830179
Si Si7 0.326924 0.500000 0.333417
O O1 0.500000 0.163941 0.195726
O O2 0.735437 0.208847 0.218240
O O3 0.739041 0.126431 0.273373
O O4 0.711017 0.152546 0.000000
O O5 0.212643 0.660140 0.500000
O O6 0.216382 0.710203 0.269793
O O7 0.257259 0.627516 0.240268
O O8 0.000000 0.655227 0.302810
O O9 0.769568 0.042842 0.248801
O O10 0.000000 0.000000 0.169737
O O11 0.766419 0.000000 0.000000
O O12 0.000000 0.237099 0.801959
O O13 0.194612 0.262172 0.000000
O O14 0.188232 0.920262 0.500000
O O15 0.000000 0.906026 0.284789
O O16 0.500000 0.589637 0.811035
O O17 0.267835 0.542686 0.748974
O O18 0.282497 0.582244 0.000000
O O19 0.500000 0.500000 0.330933
O O20 0.266592 0.500000 0.500000
#
# Coordination Sequence:
#
# PCOD8198279 Si02
#       7
#     8   8   4   8   8   8   4
#     4  10  21  36  54  78 108 140 175 216 261 310
#     4  10  21  36  54  78 108 139 172 214 264 315
#     4   9  17  31  54  81 106 135 174 218 260 305
#     4   9  18  34  55  76 101 137 178 217 258 308
#     4  10  20  34  54  80 109 140 175 216 261 309
#     4  10  20  34  54  79 106 138 177 218 259 307
#     4   9  17  31  52  77 106 139 174 214 260 309
#
# _framework density 18.709917000000001
#
# number of rings (size 3 to 8) (size 9 to 14) (size 15 to 20)
#    0.000    2.333    0.000    2.500    0.000    7.333 
#    0.000    4.167    0.000    5.000    0.000    0.000 
#    0.000    0.000    0.000    0.000    0.000    0.000 
#
# Total GULP energy -595373.967502 kJ/mol
# GULP energy per Si atom -12403.624323 kJ/mol
# Density = 1.866733 g / cm^3
# Si number density = 18.709917 Si / 1000 Ang^3
#
#
#
# Elastic Constant Matrix: (Units=GPa)
#
#
# Indices 1 2 3 4 5 6 
#
# 1 47.3369 53.3030 45.3601 0.0000 0.0000 0.0000
# 2 53.3030 155.2241 88.3992 0.0000 0.0000 0.0000
# 3 45.3601 88.3992 131.2024 0.0000 0.0000 0.0000
# 4 0.0000 0.0000 0.0000 23.9263 0.0000 0.0000
# 5 0.0000 0.0000 0.0000 0.0000 25.1088 0.0000
# 6 0.0000 0.0000 0.0000 0.0000 0.0000 45.4130
#
#
#
# Elastic Compliance Matrix: (Units=1/GPa)
#
#
# Indices 1 2 3 4 5 6 
#
# 1 0.038097 -0.009056 -0.007069 0.000000 0.000000 0.000000
# 2 -0.009056 0.012606 -0.005362 0.000000 0.000000 0.000000
# 3 -0.007069 -0.005362 0.013679 0.000000 0.000000 0.000000
# 4 0.000000 0.000000 0.000000 0.041795 0.000000 0.000000
# 5 0.000000 0.000000 0.000000 0.000000 0.039827 0.000000
# 6 0.000000 0.000000 0.000000 0.000000 0.000000 0.022020
#
#
# Mechanical properties :
#
#
# Convention : Reuss Voigt Hill
#
# Bulk Modulus (GPa) = 46.71651 78.65422 62.68536
# Shear Modulus (GPa) = 22.92154 28.66969 25.79561
#
# Velocity S-wave (km/s) = 3.50394 3.91874 3.71713
# Velocity P-wave (km/s) = 6.43375 7.91236 7.21105
#
# Compressibility (1/GPa) = 0.02140571
#
# Stress axis : x y z
#
# Youngs Moduli (GPa) = 26.24877 79.32665 73.10525
#
# Poissons Ratio (x) = 0.71841 0.51680
# Poissons Ratio (y) = 0.23772 0.39203
# Poissons Ratio (z) = 0.18556 0.42539
#
# Static dielectric constant tensor:
#      x y z
#    x 3.196810 0.000000 0.000000 
#    y 0.000000 3.559250 0.000000 
#    z 0.000000 0.000000 3.559040 
# 
# 
# High freq. dielectric constant tensor:
#      x y z
#    x 1.699910 0.000000 0.000000 
#    y 0.000000 1.741030 0.000000 
#    z 0.000000 0.000000 1.735830 
# 
# From -- ./inp_files/2677.got.cif
#   From: 2010.03.12/outbox.cif.g09.slc.cpg/sg47_2_cif.got.tgz:2677.got - 2010.04.14 03:12:58.
