data_PCOD8198360
_publ_section_title
;
Structure prediction by ZEFSAII (Michael W. Deem and Ramdas Pophale) SiO2 
 PCOD8198360
Probable space group: P M M M
;
_chemical_formula_sum "Si O2"
_cell_formula_units_Z 48
_cell_length_a 9.105448
_cell_length_b 9.062613
_cell_length_c 31.567391
_cell_angle_alpha 90.000000
_cell_angle_beta 90.000000
_cell_angle_gamma 90.000000
_cell_volume 2604.914318
_symmetry_space_group_name_H-M "P M M M"
_symmetry_group_IT_number 47
_symmetry_cell_setting 'orthorhombic'
loop_
_space_group_symop_operation_xyz
x,y,z
-x,-y,z
x,-y,-z
-x,y,-z
-x,-y,-z
x,y,-z
-x,y,z
x,-y,z
loop_
_atom_site_type_symbol
_atom_site_label
_atom_site_fract_x
_atom_site_fract_y
_atom_site_fract_z
Si Si1 0.827997 0.328838 0.916374
Si Si2 0.824775 0.832818 0.319188
Si Si3 0.669181 0.328866 0.754967
Si Si4 0.837274 0.175927 0.410698
Si Si5 0.176813 0.165914 0.500000
Si Si6 0.331404 0.173722 0.159334
Si Si7 0.334289 0.675343 0.000000
O O1 0.789677 0.500000 0.908808
O O2 0.772116 0.236461 0.876859
O O3 0.748547 0.266526 0.958315
O O4 0.000000 0.304095 0.922344
O O5 0.763255 0.720844 0.284969
O O6 0.760030 0.784024 0.365760
O O7 0.000000 0.824410 0.319739
O O8 0.774310 0.000000 0.308539
O O9 0.500000 0.294384 0.745172
O O10 0.697515 0.500000 0.763588
O O11 0.722213 0.241075 0.796312
O O12 0.764739 0.237809 0.455125
O O13 0.000000 0.243134 0.408547
O O14 0.846479 0.000000 0.414004
O O15 0.000000 0.169662 0.500000
O O16 0.235615 0.000000 0.500000
O O17 0.500000 0.218768 0.150005
O O18 0.311354 0.000000 0.161782
O O19 0.332195 0.500000 0.000000
O O20 0.500000 0.737339 0.000000
#
# Coordination Sequence:
#
# PCOD8198360 Si02
#       7
#     8   8   8   8   4   8   4
#     4  10  20  34  54  81 111 140 170 205 245 289
#     4   9  17  29  46  70  99 127 155 192 241 294
#     4  10  21  36  53  72  94 124 164 206 245 289
#     4   7  10  17  31  55  87 119 149 183 227 279
#     4   7   8  12  26  50  82 117 148 180 222 273
#     4  10  21  37  56  76  98 127 164 205 249 296
#     4   9  17  31  54  81 108 141 178 212 244 279
#
# _framework density 18.426708999999999
#
# number of rings (size 3 to 8) (size 9 to 14) (size 15 to 20)
#    0.000    3.000    0.000    3.750    0.000    5.000 
#    0.000    0.417    0.000    2.500    0.000    1.167 
#    0.000    8.000    0.000    0.000    0.000    0.000 
#
# Total GULP energy -594656.599002 kJ/mol
# GULP energy per Si atom -12388.679146 kJ/mol
# Density = 1.838477 g / cm^3
# Si number density = 18.426709 Si / 1000 Ang^3
#
#
#
# Elastic Constant Matrix: (Units=GPa)
#
#
# Indices 1 2 3 4 5 6 
#
# 1 51.1576 25.1107 51.5587 0.0000 0.0000 0.0000
# 2 25.1107 50.1032 45.9482 0.0000 0.0000 0.0000
# 3 51.5587 45.9482 182.4740 0.0000 0.0000 0.0000
# 4 0.0000 0.0000 0.0000 101.6588 0.0000 0.0000
# 5 0.0000 0.0000 0.0000 0.0000 -4.4679 0.0000
# 6 0.0000 0.0000 0.0000 0.0000 0.0000 20.9401
#
#
#
# Elastic Compliance Matrix: (Units=1/GPa)
#
#
# Indices 1 2 3 4 5 6 
#
# 1 0.030513 -0.009604 -0.006203 0.000000 0.000000 0.000000
# 2 -0.009604 0.028974 -0.004582 0.000000 0.000000 0.000000
# 3 -0.006203 -0.004582 0.008387 0.000000 0.000000 0.000000
# 4 0.000000 0.000000 0.000000 0.009837 0.000000 0.000000
# 5 0.000000 0.000000 0.000000 0.000000 -0.223816 0.000000
# 6 0.000000 0.000000 0.000000 0.000000 0.000000 0.047755
#
#
# Mechanical properties :
#
#
# Convention : Reuss Voigt Hill
#
# Bulk Modulus (GPa) = 36.90627 58.77445 47.84036
# Shear Modulus (GPa) = -103.01102 34.36734 -34.32184
#
# Velocity S-wave (km/s) = -7.48495 4.32335 -4.32048
# Velocity P-wave (km/s) = 7.39102 7.54237 1.06307
#
# Compressibility (1/GPa) = 0.02709566
#
# Stress axis : x y z
#
# Youngs Moduli (GPa) = 32.77239 34.51316 119.23369
#
# Poissons Ratio (x) = 0.33146 0.73965
# Poissons Ratio (y) = 0.31474 0.54637
# Poissons Ratio (z) = 0.20330 0.15815
#
# Static dielectric constant tensor:
#      x y z
#    x 3.078570 0.000000 0.000000 
#    y 0.000000 3.013180 0.000000 
#    z 0.000000 0.000000 3.922330 
# 
# 
# High freq. dielectric constant tensor:
#      x y z
#    x 1.677470 0.000000 0.000000 
#    y 0.000000 1.673070 0.000000 
#    z 0.000000 0.000000 1.746150 
# 
# From -- ./inp_files/34098.got.cif
#   From: 2010.03.12/outbox.cif.g09.slc.cpg/sg47_18_cif.got.tgz:34098.got - 2010.04.14 03:12:58.
