data_PCOD8198904
_publ_section_title
;
Structure prediction by ZEFSAII (Michael W. Deem and Ramdas Pophale) SiO2 
 PCOD8198904
Probable space group: P M M M
;
_chemical_formula_sum "Si O2"
_cell_formula_units_Z 48
_cell_length_a 15.461888
_cell_length_b 17.717128
_cell_length_c 9.003846
_cell_angle_alpha 90.000000
_cell_angle_beta 90.000000
_cell_angle_gamma 90.000000
_cell_volume 2466.515814
_symmetry_space_group_name_H-M "P M M M"
_symmetry_group_IT_number 47
_symmetry_cell_setting 'orthorhombic'
loop_
_space_group_symop_operation_xyz
x,y,z
-x,-y,z
x,-y,-z
-x,y,-z
-x,-y,-z
x,y,-z
-x,y,z
x,-y,z
loop_
_atom_site_type_symbol
_atom_site_label
_atom_site_fract_x
_atom_site_fract_y
_atom_site_fract_z
Si Si1 0.163103 0.412158 0.670964
Si Si2 0.339886 0.333758 0.673479
Si Si3 0.500000 0.413444 0.824393
Si Si4 0.828539 0.911505 0.827145
Si Si5 0.335839 0.158582 0.674311
Si Si6 0.000000 0.658250 0.175794
Si Si7 0.500000 0.089236 0.831073
Si Si8 0.000000 0.828785 0.823897
O O1 0.141249 0.394447 0.500000
O O2 0.178911 0.500000 0.697704
O O3 0.249041 0.369268 0.722836
O O4 0.084293 0.384949 0.769965
O O5 0.357676 0.347006 0.500000
O O6 0.415268 0.373014 0.764071
O O7 0.336825 0.246293 0.715422
O O8 0.500000 0.500000 0.770934
O O9 0.500000 0.407064 0.000000
O O10 0.750882 0.879200 0.731872
O O11 0.915154 0.871866 0.766125
O O12 0.838007 0.000000 0.799878
O O13 0.811968 0.893413 0.000000
O O14 0.342885 0.145380 0.500000
O O15 0.415885 0.119187 0.750835
O O16 0.000000 0.743586 0.238400
O O17 0.000000 0.658200 0.000000
O O18 0.500000 0.000000 0.823422
O O19 0.500000 0.118086 0.000000
O O20 0.000000 0.829842 0.000000
#
# Coordination Sequence:
#
# PCOD8198904 Si02
#       8
#     8   8   4   8   8   4   4   4
#     4  10  21  38  59  81 108 146 189 229 270 323
#     4  10  22  40  61  84 111 149 193 230 272 333
#     4  11  24  39  58  88 120 147 180 229 286 334
#     4  10  20  36  59  84 111 148 192 232 274 332
#     4  11  23  38  58  86 117 146 182 233 287 333
#     4  11  22  35  55  83 114 147 182 228 286 335
#     4  11  24  41  60  82 110 149 194 231 270 332
#     4   9  19  36  57  82 112 147 188 232 276 325
#
# _framework density 19.460647999999999
#
# number of rings (size 3 to 8) (size 9 to 14) (size 15 to 20)
#    0.000    1.667    0.000    4.250    0.000   10.667 
#    0.000    1.250    0.000    1.000    0.000    0.000 
#    0.000    0.000    0.000    0.000    0.000    0.000 
#
# Total GULP energy -595457.512196 kJ/mol
# GULP energy per Si atom -12405.364837 kJ/mol
# Density = 1.941636 g / cm^3
# Si number density = 19.460648 Si / 1000 Ang^3
#
#
#
# Elastic Constant Matrix: (Units=GPa)
#
#
# Indices 1 2 3 4 5 6 
#
# 1 155.4152 46.1531 51.0315 0.0000 0.0000 0.0000
# 2 46.1531 90.2477 42.2914 0.0000 0.0000 0.0000
# 3 51.0315 42.2914 68.7136 0.0000 0.0000 0.0000
# 4 0.0000 0.0000 0.0000 28.5448 0.0000 0.0000
# 5 0.0000 0.0000 0.0000 0.0000 246.7610 0.0000
# 6 0.0000 0.0000 0.0000 0.0000 0.0000 52.1292
#
#
#
# Elastic Compliance Matrix: (Units=1/GPa)
#
#
# Indices 1 2 3 4 5 6 
#
# 1 0.008762 -0.002012 -0.005269 0.000000 0.000000 0.000000
# 2 -0.002012 0.016034 -0.008374 0.000000 0.000000 0.000000
# 3 -0.005269 -0.008374 0.023620 0.000000 0.000000 0.000000
# 4 0.000000 0.000000 0.000000 0.035033 0.000000 0.000000
# 5 0.000000 0.000000 0.000000 0.000000 0.004053 0.000000
# 6 0.000000 0.000000 0.000000 0.000000 0.000000 0.019183
#
#
# Mechanical properties :
#
#
# Convention : Reuss Voigt Hill
#
# Bulk Modulus (GPa) = 58.45902 65.92541 62.19222
# Shear Modulus (GPa) = 34.79556 77.14704 55.97130
#
# Velocity S-wave (km/s) = 4.23306 6.30307 5.36877
# Velocity P-wave (km/s) = 7.34823 9.32316 8.39398
#
# Compressibility (1/GPa) = 0.01710600
#
# Stress axis : x y z
#
# Youngs Moduli (GPa) = 114.13025 62.36848 42.33615
#
# Poissons Ratio (x) = 0.12547 0.22307
# Poissons Ratio (y) = 0.22960 0.35453
# Poissons Ratio (z) = 0.60136 0.52229
#
# Static dielectric constant tensor:
#      x y z
#    x 3.439620 0.000000 0.000000 
#    y 0.000000 3.832320 0.000000 
#    z 0.000000 0.000000 3.499950 
# 
# 
# High freq. dielectric constant tensor:
#      x y z
#    x 1.777370 0.000000 0.000000 
#    y 0.000000 1.778210 0.000000 
#    z 0.000000 0.000000 1.749530 
# 
# From -- ./inp_files/6573.got.cif
#   From: 2010.03.12/outbox.cif.g09.slc.cpg/sg47_4_cif.got.tgz:6573.got - 2010.04.14 03:12:58.
