data_PCOD8198530
_publ_section_title
;
Structure prediction by ZEFSAII (Michael W. Deem and Ramdas Pophale) SiO2 
 PCOD8198530
Probable space group: P M M M
;
_chemical_formula_sum "Si O2"
_cell_formula_units_Z 64
_cell_length_a 15.432206
_cell_length_b 23.787517
_cell_length_c 8.824389
_cell_angle_alpha 90.000000
_cell_angle_beta 90.000000
_cell_angle_gamma 90.000000
_cell_volume 3239.379043
_symmetry_space_group_name_H-M "P M M M"
_symmetry_group_IT_number 47
_symmetry_cell_setting 'orthorhombic'
loop_
_space_group_symop_operation_xyz
x,y,z
-x,-y,z
x,-y,-z
-x,y,-z
-x,-y,-z
x,y,-z
-x,y,z
x,-y,z
loop_
_atom_site_type_symbol
_atom_site_label
_atom_site_fract_x
_atom_site_fract_y
_atom_site_fract_z
Si Si1 0.595900 0.936985 0.819886
Si Si2 0.252766 0.741979 0.678401
Si Si3 0.904214 0.664438 0.325979
Si Si4 0.099671 0.935594 0.323825
Si Si5 0.831869 0.437256 0.173707
Si Si6 0.246505 0.863500 0.179173
Si Si7 0.402909 0.327742 0.826607
Si Si8 0.649729 0.563344 0.323076
O O1 0.500000 0.916562 0.767084
O O2 0.669803 0.896244 0.753338
O O3 0.613159 0.000000 0.758806
O O4 0.600119 0.937279 0.000000
O O5 0.252853 0.751303 0.500000
O O6 0.167688 0.708116 0.732394
O O7 0.249030 0.801257 0.758695
O O8 0.339042 0.708859 0.724450
O O9 0.886263 0.648483 0.500000
O O10 0.902710 0.607716 0.226385
O O11 0.000000 0.691272 0.306210
O O12 0.118082 0.924901 0.500000
O O13 0.158751 0.894548 0.226142
O O14 0.000000 0.921863 0.285405
O O15 0.120733 0.000000 0.280872
O O16 0.870279 0.500000 0.193845
O O17 0.749523 0.428255 0.280661
O O18 0.804612 0.426714 0.000000
O O19 0.250823 0.861094 0.000000
O O20 0.500000 0.303052 0.811645
O O21 0.406395 0.392300 0.771029
O O22 0.371162 0.325389 0.000000
O O23 0.638058 0.575750 0.500000
O O24 0.618863 0.500000 0.282827
#
# Coordination Sequence:
#
# PCOD8198530 Si02
#       8
#     8   8   8   8   8   8   8   8
#     4   8  15  30  53  82 116 151 185 223 273 335
#     4  11  24  42  61  82 113 156 201 245 290 343
#     4  10  22  40  61  83 108 145 193 242 293 349
#     4   9  19  37  60  86 119 159 199 240 291 350
#     4  10  20  34  56  86 118 149 182 228 288 349
#     4  11  22  35  57  88 119 152 193 243 295 346
#     4  11  24  41  62  87 116 151 192 243 300 351
#     4  10  20  35  58  87 118 152 189 232 286 349
#
# _framework density 19.756872999999999
#
# number of rings (size 3 to 8) (size 9 to 14) (size 15 to 20)
#    0.000    2.000    1.250    3.000    0.000    5.750 
#    0.000    5.625    0.000    1.125    0.000    4.375 
#    0.000    0.000    0.000    0.000    0.000    0.000 
#
# Total GULP energy -793628.483630 kJ/mol
# GULP energy per Si atom -12400.445057 kJ/mol
# Density = 1.971191 g / cm^3
# Si number density = 19.756873 Si / 1000 Ang^3
#
#
#
# Elastic Constant Matrix: (Units=GPa)
#
#
# Indices 1 2 3 4 5 6 
#
# 1 123.2123 69.3697 31.8763 0.0000 0.0000 0.0000
# 2 69.3697 131.4912 35.8087 0.0000 0.0000 0.0000
# 3 31.8763 35.8087 50.0079 0.0000 0.0000 0.0000
# 4 0.0000 0.0000 0.0000 -8.5249 0.0000 0.0000
# 5 0.0000 0.0000 0.0000 0.0000 27.4955 0.0000
# 6 0.0000 0.0000 0.0000 0.0000 0.0000 11.1778
#
#
#
# Elastic Compliance Matrix: (Units=1/GPa)
#
#
# Indices 1 2 3 4 5 6 
#
# 1 0.012132 -0.005335 -0.003913 0.000000 0.000000 0.000000
# 2 -0.005335 0.011793 -0.005044 0.000000 0.000000 0.000000
# 3 -0.003913 -0.005044 0.026103 0.000000 0.000000 0.000000
# 4 0.000000 0.000000 0.000000 -0.117303 0.000000 0.000000
# 5 0.000000 0.000000 0.000000 0.000000 0.036370 0.000000
# 6 0.000000 0.000000 0.000000 0.000000 0.000000 0.089463
#
#
# Mechanical properties :
#
#
# Convention : Reuss Voigt Hill
#
# Bulk Modulus (GPa) = 46.63287 64.31339 55.47313
# Shear Modulus (GPa) = 53.02804 17.20680 35.11742
#
# Velocity S-wave (km/s) = 5.18638 2.95435 4.22059
# Velocity P-wave (km/s) = 7.71488 6.65287 7.20347
#
# Compressibility (1/GPa) = 0.02144410
#
# Stress axis : x y z
#
# Youngs Moduli (GPa) = 82.42711 84.79547 38.30953
#
# Poissons Ratio (x) = 0.45235 0.14992
# Poissons Ratio (y) = 0.43972 0.19324
# Poissons Ratio (z) = 0.32256 0.42772
#
# Static dielectric constant tensor:
#      x y z
#    x 3.649450 0.000000 0.000000 
#    y 0.000000 3.746890 0.000000 
#    z 0.000000 0.000000 3.458860 
# 
# 
# High freq. dielectric constant tensor:
#      x y z
#    x 1.773630 0.000000 0.000000 
#    y 0.000000 1.767750 0.000000 
#    z 0.000000 0.000000 1.761300 
# 
# From -- ./inp_files/7824.got.cif
#   From: 2010.03.12/outbox.cif.g09.slc.cpg/sg47_4_cif.got.tgz:7824.got - 2010.04.14 03:12:58.
