data_PCOD8198261
_publ_section_title
;
Structure prediction by ZEFSAII (Michael W. Deem and Ramdas Pophale) SiO2 
 PCOD8198261
Probable space group: P M M M
;
_chemical_formula_sum "Si O2"
_cell_formula_units_Z 48
_cell_length_a 30.920817
_cell_length_b 9.077741
_cell_length_c 9.459648
_cell_angle_alpha 90.000000
_cell_angle_beta 90.000000
_cell_angle_gamma 90.000000
_cell_volume 2655.239648
_symmetry_space_group_name_H-M "P M M M"
_symmetry_group_IT_number 47
_symmetry_cell_setting 'orthorhombic'
loop_
_space_group_symop_operation_xyz
x,y,z
-x,-y,z
x,-y,-z
-x,y,-z
-x,-y,-z
x,y,-z
-x,y,z
x,-y,z
loop_
_atom_site_type_symbol
_atom_site_label
_atom_site_fract_x
_atom_site_fract_y
_atom_site_fract_z
Si Si1 0.169268 0.328514 0.163565
Si Si2 0.339577 0.171004 0.335045
Si Si3 0.252229 0.669321 0.336348
Si Si4 0.084076 0.166086 0.168378
Si Si5 0.000000 0.666258 0.168718
Si Si6 0.585726 0.671787 0.834358
Si Si7 0.500000 0.166212 0.167943
O O1 0.160286 0.500000 0.188397
O O2 0.211240 0.274511 0.248050
O O3 0.127799 0.242323 0.223721
O O4 0.177442 0.292334 0.000000
O O5 0.348485 0.198285 0.500000
O O6 0.292467 0.229870 0.292307
O O7 0.373971 0.261715 0.246728
O O8 0.342671 0.000000 0.294940
O O9 0.240663 0.688314 0.500000
O O10 0.263541 0.500000 0.299957
O O11 0.042502 0.252322 0.228330
O O12 0.082472 0.000000 0.225866
O O13 0.083261 0.170117 0.000000
O O14 0.000000 0.500000 0.226059
O O15 0.000000 0.668641 0.000000
O O16 0.581776 0.500000 0.800663
O O17 0.542423 0.749884 0.776547
O O18 0.592260 0.701370 0.000000
O O19 0.500000 0.000000 0.227936
O O20 0.500000 0.166443 0.000000
#
# Coordination Sequence:
#
# PCOD8198261 Si02
#       7
#     8   8   8   8   4   8   4
#     4   9  17  29  45  66  92 120 152 192 235 278
#     4  10  21  36  53  74 101 132 166 206 251 296
#     4   9  18  33  51  69  92 125 162 198 239 289
#     4   9  16  25  38  59  88 119 150 186 229 275
#     4   9  15  23  37  57  84 119 154 185 222 272
#     4  10  20  34  54  79 105 134 169 206 244 290
#     4   9  17  31  52  77 106 137 166 200 244 291
#
# _framework density 18.077466000000001
#
# number of rings (size 3 to 8) (size 9 to 14) (size 15 to 20)
#    0.000    2.667    0.000    2.000    0.000    7.333 
#    0.000    2.083    0.000    2.500    0.000    0.583 
#    0.000    4.667    0.000    0.000    0.000    0.000 
#
# Total GULP energy -595274.548057 kJ/mol
# GULP energy per Si atom -12401.553085 kJ/mol
# Density = 1.803632 g / cm^3
# Si number density = 18.077466 Si / 1000 Ang^3
#
#
#
# Elastic Constant Matrix: (Units=GPa)
#
#
# Indices 1 2 3 4 5 6 
#
# 1 175.9964 91.3044 51.9332 0.0000 0.0000 0.0000
# 2 91.3044 131.4931 36.8471 0.0000 0.0000 0.0000
# 3 51.9332 36.8471 33.0781 0.0000 0.0000 0.0000
# 4 0.0000 0.0000 0.0000 18.0383 0.0000 0.0000
# 5 0.0000 0.0000 0.0000 0.0000 -6.2290 0.0000
# 6 0.0000 0.0000 0.0000 0.0000 0.0000 28.4864
#
#
#
# Elastic Compliance Matrix: (Units=1/GPa)
#
#
# Indices 1 2 3 4 5 6 
#
# 1 0.012182 -0.004506 -0.014107 0.000000 0.000000 0.000000
# 2 -0.004506 0.012723 -0.007098 0.000000 0.000000 0.000000
# 3 -0.014107 -0.007098 0.060287 0.000000 0.000000 0.000000
# 4 0.000000 0.000000 0.000000 0.055437 0.000000 0.000000
# 5 0.000000 0.000000 0.000000 0.000000 -0.160539 0.000000
# 6 0.000000 0.000000 0.000000 0.000000 0.000000 0.035104
#
#
# Mechanical properties :
#
#
# Convention : Reuss Voigt Hill
#
# Bulk Modulus (GPa) = 29.61237 77.85967 53.73602
# Shear Modulus (GPa) = 64.20692 18.75800 41.48246
#
# Velocity S-wave (km/s) = 5.96613 3.22475 4.79551
# Velocity P-wave (km/s) = 7.99225 7.55174 7.77512
#
# Compressibility (1/GPa) = 0.03376967
#
# Stress axis : x y z
#
# Youngs Moduli (GPa) = 82.08677 78.59964 16.58736
#
# Poissons Ratio (x) = 0.35416 0.23400
# Poissons Ratio (y) = 0.36987 0.11774
# Poissons Ratio (z) = 1.15801 0.55791
#
# Static dielectric constant tensor:
#      x y z
#    x 3.524450 0.000000 0.000000 
#    y 0.000000 3.481880 0.000000 
#    z 0.000000 0.000000 2.936580 
# 
# 
# High freq. dielectric constant tensor:
#      x y z
#    x 1.715620 0.000000 0.000000 
#    y 0.000000 1.710600 0.000000 
#    z 0.000000 0.000000 1.652640 
# 
# From -- ./inp_files/13902.got.cif
#   From: 2010.03.12/outbox.cif.g09.slc.cpg/sg47_7_cif.got.tgz:13902.got - 2010.04.14 03:12:58.
