data_PCOD8198153
_publ_section_title
;
Structure prediction by ZEFSAII (Michael W. Deem and Ramdas Pophale) SiO2 
 PCOD8198153
Probable space group: P M M M
;
_chemical_formula_sum "Si O2"
_cell_formula_units_Z 48
_cell_length_a 30.963463
_cell_length_b 9.119579
_cell_length_c 9.002251
_cell_angle_alpha 90.000000
_cell_angle_beta 90.000000
_cell_angle_gamma 90.000000
_cell_volume 2541.999346
_symmetry_space_group_name_H-M "P M M M"
_symmetry_group_IT_number 47
_symmetry_cell_setting 'orthorhombic'
loop_
_space_group_symop_operation_xyz
x,y,z
-x,-y,z
x,-y,-z
-x,y,-z
-x,-y,-z
x,y,-z
-x,y,z
x,-y,z
loop_
_atom_site_type_symbol
_atom_site_label
_atom_site_fract_x
_atom_site_fract_y
_atom_site_fract_z
Si Si1 0.421690 0.669954 0.826270
Si Si2 0.750548 0.165223 0.676548
Si Si3 0.000000 0.174124 0.667193
Si Si4 0.666237 0.329657 0.328250
Si Si5 0.500000 0.827026 0.329334
Si Si6 0.164147 0.672219 0.327835
Si Si7 0.913793 0.830918 0.174696
O O1 0.430420 0.500000 0.789922
O O2 0.375279 0.719241 0.765125
O O3 0.457606 0.765453 0.747494
O O4 0.423332 0.701516 0.000000
O O5 0.749660 0.168678 0.500000
O O6 0.706961 0.240643 0.736403
O O7 0.792131 0.253876 0.733482
O O8 0.753061 0.000000 0.738181
O O9 0.042581 0.231030 0.750877
O O10 0.000000 0.236569 0.500000
O O11 0.000000 0.000000 0.668479
O O12 0.657236 0.292152 0.500000
O O13 0.676793 0.500000 0.306752
O O14 0.500000 0.777811 0.500000
O O15 0.500000 0.000000 0.311303
O O16 0.156160 0.712058 0.500000
O O17 0.168476 0.500000 0.303741
O O18 0.125150 0.732821 0.231483
O O19 0.905395 0.000000 0.219349
O O20 0.918848 0.812981 0.000000
#
# Coordination Sequence:
#
# PCOD8198153 Si02
#       7
#     8   8   4   8   4   8   8
#     4  10  21  37  57  81 109 142 179 217 261 316
#     4   9  17  30  51  78 105 135 175 223 269 311
#     4   9  17  31  54  81 106 135 172 214 260 311
#     4   9  17  31  52  77 105 138 176 218 264 314
#     4  11  24  39  56  80 108 139 178 223 268 314
#     4  10  20  34  53  77 105 139 180 223 265 311
#     4  10  20  34  53  78 108 140 174 214 262 316
#
# _framework density 18.882773
#
# number of rings (size 3 to 8) (size 9 to 14) (size 15 to 20)
#    0.000    2.333    0.000    2.750    0.000    8.333 
#    0.000    2.917    0.000    5.500    0.000    0.000 
#    0.000    0.000    0.000    0.000    0.000    0.000 
#
# Total GULP energy -595342.178343 kJ/mol
# GULP energy per Si atom -12402.962049 kJ/mol
# Density = 1.883979 g / cm^3
# Si number density = 18.882773 Si / 1000 Ang^3
#
#
#
# Elastic Constant Matrix: (Units=GPa)
#
#
# Indices 1 2 3 4 5 6 
#
# 1 180.2365 71.2683 65.0946 0.0000 0.0000 0.0000
# 2 71.2683 83.0072 41.9487 0.0000 0.0000 0.0000
# 3 65.0946 41.9487 81.8311 0.0000 0.0000 0.0000
# 4 0.0000 0.0000 0.0000 21.7557 0.0000 0.0000
# 5 0.0000 0.0000 0.0000 0.0000 -24.9354 0.0000
# 6 0.0000 0.0000 0.0000 0.0000 0.0000 43.6210
#
#
#
# Elastic Compliance Matrix: (Units=1/GPa)
#
#
# Indices 1 2 3 4 5 6 
#
# 1 0.009515 -0.005863 -0.004563 0.000000 0.000000 0.000000
# 2 -0.005863 0.019872 -0.005523 0.000000 0.000000 0.000000
# 3 -0.004563 -0.005523 0.018681 0.000000 0.000000 0.000000
# 4 0.000000 0.000000 0.000000 0.045965 0.000000 0.000000
# 5 0.000000 0.000000 0.000000 0.000000 -0.040104 0.000000
# 6 0.000000 0.000000 0.000000 0.000000 0.000000 0.022925
#
#
# Mechanical properties :
#
#
# Convention : Reuss Voigt Hill
#
# Bulk Modulus (GPa) = 61.84384 77.96644 69.90514
# Shear Modulus (GPa) = 43.80478 19.20580 31.50529
#
# Velocity S-wave (km/s) = 4.82168 3.19267 4.08912
# Velocity P-wave (km/s) = 7.98879 7.41419 7.70685
#
# Compressibility (1/GPa) = 0.01616976
#
# Stress axis : x y z
#
# Youngs Moduli (GPa) = 105.10133 50.32149 53.52915
#
# Poissons Ratio (x) = 0.29504 0.24426
# Poissons Ratio (y) = 0.61621 0.29565
# Poissons Ratio (z) = 0.47959 0.27793
#
# Static dielectric constant tensor:
#      x y z
#    x 3.606990 0.000000 0.000000 
#    y 0.000000 3.396840 0.000000 
#    z 0.000000 0.000000 3.330790 
# 
# 
# High freq. dielectric constant tensor:
#      x y z
#    x 1.751520 0.000000 0.000000 
#    y 0.000000 1.723530 0.000000 
#    z 0.000000 0.000000 1.717630 
# 
# From -- ./inp_files/2531.got.cif
#   From: 2010.03.12/outbox.cif.g09.slc.cpg/sg47_2_cif.got.tgz:2531.got - 2010.04.14 03:12:58.
