data_PCOD8198185
_publ_section_title
;
Structure prediction by ZEFSAII (Michael W. Deem and Ramdas Pophale) SiO2 
 PCOD8198185
Probable space group: P M M M
;
_chemical_formula_sum "Si O2"
_cell_formula_units_Z 40
_cell_length_a 8.686605
_cell_length_b 20.213773
_cell_length_c 12.260823
_cell_angle_alpha 90.000000
_cell_angle_beta 90.000000
_cell_angle_gamma 90.000000
_cell_volume 2152.866405
_symmetry_space_group_name_H-M "P M M M"
_symmetry_group_IT_number 47
_symmetry_cell_setting 'orthorhombic'
loop_
_space_group_symop_operation_xyz
x,y,z
-x,-y,z
x,-y,-z
-x,y,-z
-x,-y,-z
x,y,-z
-x,y,z
x,-y,z
loop_
_atom_site_type_symbol
_atom_site_label
_atom_site_fract_x
_atom_site_fract_y
_atom_site_fract_z
Si Si1 0.815876 0.113925 0.733519
Si Si2 0.677746 0.000000 0.871901
Si Si3 0.673464 0.500000 0.129529
Si Si4 0.831959 0.107360 0.500000
Si Si5 0.823140 0.364658 0.128989
Si Si6 0.680489 0.743529 0.723825
Si Si7 0.829612 0.736083 0.500000
O O1 0.756905 0.065733 0.826665
O O2 0.750275 0.087886 0.614674
O O3 0.758726 0.187523 0.757593
O O4 0.000000 0.114775 0.730725
O O5 0.500000 0.000000 0.839074
O O6 0.703137 0.000000 0.000000
O O7 0.500000 0.500000 0.176584
O O8 0.763370 0.435480 0.171832
O O9 0.670071 0.500000 0.000000
O O10 0.846299 0.185796 0.500000
O O11 0.000000 0.074102 0.500000
O O12 0.719832 0.308043 0.181970
O O13 0.000000 0.356131 0.164318
O O14 0.803011 0.358668 0.000000
O O15 0.500000 0.755230 0.716371
O O16 0.739471 0.714155 0.608638
O O17 0.000000 0.703627 0.500000
#
# Coordination Sequence:
#
# PCOD8198185 Si02
#       7
#     8   4   4   4   8   8   4
#     4  10  20  37  59  80 104 136 175 217 264 321
#     4  11  25  42  55  72 104 143 180 221 269 317
#     4   9  17  31  51  76 107 140 175 221 274 319
#     4   7  14  30  54  81 103 124 157 208 261 305
#     4  10  20  34  53  78 108 144 184 222 264 318
#     4  11  21  34  55  83 112 141 177 222 270 316
#     4   9  17  33  54  77 108 143 178 216 262 316
#
# _framework density 18.579882000000001
#
# number of rings (size 3 to 8) (size 9 to 14) (size 15 to 20)
#    0.000    2.200    0.000    5.100    0.000    4.400 
#    0.000    3.500    0.000    0.600    0.000    4.200 
#    0.000    0.000    0.000    0.000    0.000    0.000 
#
# Total GULP energy -495863.734306 kJ/mol
# GULP energy per Si atom -12396.593358 kJ/mol
# Density = 1.853759 g / cm^3
# Si number density = 18.579882 Si / 1000 Ang^3
#
#
#
# Elastic Constant Matrix: (Units=GPa)
#
#
# Indices 1 2 3 4 5 6 
#
# 1 114.4562 38.2317 44.7891 0.0000 0.0000 0.0000
# 2 38.2317 104.9176 47.5757 0.0000 0.0000 0.0000
# 3 44.7891 47.5757 72.6417 0.0000 0.0000 0.0000
# 4 0.0000 0.0000 0.0000 7.6016 0.0000 0.0000
# 5 0.0000 0.0000 0.0000 0.0000 28.9077 0.0000
# 6 0.0000 0.0000 0.0000 0.0000 0.0000 30.4874
#
#
#
# Elastic Compliance Matrix: (Units=1/GPa)
#
#
# Indices 1 2 3 4 5 6 
#
# 1 0.011659 -0.001407 -0.006268 0.000000 0.000000 0.000000
# 2 -0.001407 0.013727 -0.008123 0.000000 0.000000 0.000000
# 3 -0.006268 -0.008123 0.022951 0.000000 0.000000 0.000000
# 4 0.000000 0.000000 0.000000 0.131551 0.000000 0.000000
# 5 0.000000 0.000000 0.000000 0.000000 0.034593 0.000000
# 6 0.000000 0.000000 0.000000 0.000000 0.000000 0.032800
#
#
# Mechanical properties :
#
#
# Convention : Reuss Voigt Hill
#
# Bulk Modulus (GPa) = 59.72774 61.46761 60.59767
# Shear Modulus (GPa) = 17.57725 24.16061 20.86893
#
# Velocity S-wave (km/s) = 3.07911 3.60997 3.35505
# Velocity P-wave (km/s) = 6.69757 7.10848 6.90608
#
# Compressibility (1/GPa) = 0.01674264
#
# Stress axis : x y z
#
# Youngs Moduli (GPa) = 85.76708 72.84691 43.57106
#
# Poissons Ratio (x) = 0.10246 0.27309
# Poissons Ratio (y) = 0.12063 0.35394
# Poissons Ratio (z) = 0.53757 0.59176
#
# Static dielectric constant tensor:
#      x y z
#    x 3.509990 0.000000 0.000000 
#    y 0.000000 3.278570 0.000000 
#    z 0.000000 0.000000 3.531060 
# 
# 
# High freq. dielectric constant tensor:
#      x y z
#    x 1.727030 0.000000 0.000000 
#    y 0.000000 1.708440 0.000000 
#    z 0.000000 0.000000 1.713240 
# 
# From -- ./inp_files/15159.got.cif
#   From: 2010.03.12/outbox.cif.g09.slc.cpg/sg47_8_cif.got.tgz:15159.got - 2010.04.14 03:12:58.
