data_PCOD8198158
_publ_section_title
;
Structure prediction by ZEFSAII (Michael W. Deem and Ramdas Pophale) SiO2 
 PCOD8198158
Probable space group: P M M M
;
_chemical_formula_sum "Si O2"
_cell_formula_units_Z 32
_cell_length_a 9.227532
_cell_length_b 7.897843
_cell_length_c 22.444799
_cell_angle_alpha 90.000000
_cell_angle_beta 90.000000
_cell_angle_gamma 90.000000
_cell_volume 1635.723061
_symmetry_space_group_name_H-M "P M M M"
_symmetry_group_IT_number 47
_symmetry_cell_setting 'orthorhombic'
loop_
_space_group_symop_operation_xyz
x,y,z
-x,-y,z
x,-y,-z
-x,y,-z
-x,-y,-z
x,y,-z
-x,y,z
x,-y,z
loop_
_atom_site_type_symbol
_atom_site_label
_atom_site_fract_x
_atom_site_fract_y
_atom_site_fract_z
Si Si1 0.832442 0.809447 0.646892
Si Si2 0.838207 0.697289 0.125261
Si Si3 0.171862 0.500000 0.566432
Si Si4 0.163889 0.801594 0.000000
Si Si5 0.332303 0.699773 0.761120
O O1 0.774180 0.670414 0.599755
O O2 0.741864 0.796592 0.707015
O O3 0.000000 0.772344 0.662077
O O4 0.813394 0.000000 0.620676
O O5 0.851253 0.500000 0.135011
O O6 0.762603 0.734833 0.061060
O O7 0.738716 0.770798 0.177939
O O8 0.000000 0.779790 0.128091
O O9 0.238972 0.500000 0.500000
O O10 0.000000 0.500000 0.562503
O O11 0.000000 0.730702 0.000000
O O12 0.171355 0.000000 0.000000
O O13 0.500000 0.747974 0.762693
O O14 0.308076 0.500000 0.753180
#
# Coordination Sequence:
#
# PCOD8198158 Si02
#       5
#     8   8   4   4   8
#     4  10  20  34  56  84 112 145 183 221 266 320
#     4   9  17  30  50  73  98 131 172 218 268 323
#     4   9  18  34  57  85 117 146 175 220 269 313
#     4   9  17  29  46  69  96 126 166 217 268 321
#     4  10  20  34  53  77 106 141 180 224 274 322
#
# _framework density 19.563215
#
# number of rings (size 3 to 8) (size 9 to 14) (size 15 to 20)
#    0.000    2.500    1.250    1.125    0.000    4.500 
#    0.000    5.625    0.000    5.250    0.000    1.750 
#    0.000    0.000    0.000    0.000    0.000    0.000 
#
# Total GULP energy -396685.710145 kJ/mol
# GULP energy per Si atom -12396.428442 kJ/mol
# Density = 1.951869 g / cm^3
# Si number density = 19.563215 Si / 1000 Ang^3
#
#
#
# Elastic Constant Matrix: (Units=GPa)
#
#
# Indices 1 2 3 4 5 6 
#
# 1 65.8992 30.8273 50.1132 0.0000 0.0000 0.0000
# 2 30.8273 86.0637 58.8816 0.0000 0.0000 0.0000
# 3 50.1132 58.8816 179.2366 0.0000 0.0000 0.0000
# 4 0.0000 0.0000 0.0000 13.4543 0.0000 0.0000
# 5 0.0000 0.0000 0.0000 0.0000 4.2370 0.0000
# 6 0.0000 0.0000 0.0000 0.0000 0.0000 14.3779
#
#
#
# Elastic Compliance Matrix: (Units=1/GPa)
#
#
# Indices 1 2 3 4 5 6 
#
# 1 0.020494 -0.004412 -0.004280 0.000000 0.000000 0.000000
# 2 -0.004412 0.015938 -0.004002 0.000000 0.000000 0.000000
# 3 -0.004280 -0.004002 0.008091 0.000000 0.000000 0.000000
# 4 0.000000 0.000000 0.000000 0.074326 0.000000 0.000000
# 5 0.000000 0.000000 0.000000 0.000000 0.236014 0.000000
# 6 0.000000 0.000000 0.000000 0.000000 0.000000 0.069551
#
#
# Mechanical properties :
#
#
# Convention : Reuss Voigt Hill
#
# Bulk Modulus (GPa) = 52.26637 67.87153 60.06895
# Shear Modulus (GPa) = 10.96058 19.17234 15.06646
#
# Velocity S-wave (km/s) = 2.36956 3.13392 2.77815
# Velocity P-wave (km/s) = 5.85330 6.91839 6.40801
#
# Compressibility (1/GPa) = 0.01913276
#
# Stress axis : x y z
#
# Youngs Moduli (GPa) = 48.79538 62.74369 123.59772
#
# Poissons Ratio (x) = 0.27684 0.52905
# Poissons Ratio (y) = 0.21529 0.49466
# Poissons Ratio (z) = 0.20887 0.25111
#
# Static dielectric constant tensor:
#      x y z
#    x 3.330010 0.000000 0.000000 
#    y 0.000000 3.477610 0.000000 
#    z 0.000000 0.000000 3.827740 
# 
# 
# High freq. dielectric constant tensor:
#      x y z
#    x 1.717880 0.000000 0.000000 
#    y 0.000000 1.759540 0.000000 
#    z 0.000000 0.000000 1.767810 
# 
# From -- ./inp_files/31605.got.cif
#   From: 2010.03.12/outbox.cif.g09.slc.cpg/sg47_16_cif.got.tgz:31605.got - 2010.04.14 03:12:58.
