data_PCOD8198811
_publ_section_title
;
Structure prediction by ZEFSAII (Michael W. Deem and Ramdas Pophale) SiO2 
 PCOD8198811
Probable space group: P M M M
;
_chemical_formula_sum "Si O2"
_cell_formula_units_Z 52
_cell_length_a 15.652828
_cell_length_b 9.022478
_cell_length_c 19.290642
_cell_angle_alpha 90.000000
_cell_angle_beta 90.000000
_cell_angle_gamma 90.000000
_cell_volume 2724.365213
_symmetry_space_group_name_H-M "P M M M"
_symmetry_group_IT_number 47
_symmetry_cell_setting 'orthorhombic'
loop_
_space_group_symop_operation_xyz
x,y,z
-x,-y,z
x,-y,-z
-x,y,-z
-x,-y,-z
x,y,-z
-x,y,z
x,-y,z
loop_
_atom_site_type_symbol
_atom_site_label
_atom_site_fract_x
_atom_site_fract_y
_atom_site_fract_z
Si Si1 0.405943 0.671536 0.209274
Si Si2 0.649105 0.173374 0.922447
Si Si3 0.246918 0.323994 0.700117
Si Si4 0.500000 0.333888 0.417847
Si Si5 0.328573 0.173941 0.580339
Si Si6 0.842219 0.824552 0.074676
Si Si7 0.096412 0.827323 0.220223
O O1 0.500000 0.698644 0.243872
O O2 0.388728 0.500000 0.197277
O O3 0.408745 0.746279 0.133968
O O4 0.328955 0.734923 0.256307
O O5 0.745885 0.232072 0.913881
O O6 0.644031 0.000000 0.907724
O O7 0.615558 0.209433 0.000000
O O8 0.246178 0.500000 0.691889
O O9 0.252524 0.248136 0.624417
O O10 0.158992 0.271493 0.734070
O O11 0.500000 0.500000 0.385491
O O12 0.500000 0.342960 0.500000
O O13 0.583528 0.247049 0.392844
O O14 0.310921 0.209047 0.500000
O O15 0.333599 0.000000 0.594123
O O16 0.898910 0.773219 0.139913
O O17 0.841646 0.000000 0.070085
O O18 0.877164 0.763141 0.000000
O O19 0.000000 0.801626 0.246541
O O20 0.122621 0.000000 0.226469
#
# Coordination Sequence:
#
# PCOD8198811 Si02
#       7
#     8   8   8   4   8   8   8
#     4  10  22  37  51  73 106 145 189 231 273 323
#     4   9  17  31  52  75 101 137 183 234 281 325
#     4  11  23  38  58  81 111 150 186 229 281 336
#     4   9  17  31  53  83 119 155 188 221 262 319
#     4  10  21  37  58  85 116 149 188 233 277 326
#     4   8  14  27  49  77 107 137 174 224 277 330
#     4  10  20  35  58  85 112 144 183 230 283 339
#
# _framework density 19.087015000000001
#
# number of rings (size 3 to 8) (size 9 to 14) (size 15 to 20)
#    0.000    2.385    1.538    2.077    1.077    4.000 
#    0.000    3.077    0.000    0.923    0.000    4.308 
#    0.000    0.000    0.000    0.000    0.000    0.000 
#
# Total GULP energy -644614.699937 kJ/mol
# GULP energy per Si atom -12396.436537 kJ/mol
# Density = 1.904357 g / cm^3
# Si number density = 19.087015 Si / 1000 Ang^3
#
#
#
# Elastic Constant Matrix: (Units=GPa)
#
#
# Indices 1 2 3 4 5 6 
#
# 1 94.9464 37.5150 49.7328 0.0000 0.0000 0.0000
# 2 37.5150 69.5784 46.1117 0.0000 0.0000 0.0000
# 3 49.7328 46.1117 95.4748 0.0000 0.0000 0.0000
# 4 0.0000 0.0000 0.0000 25.2559 0.0000 0.0000
# 5 0.0000 0.0000 0.0000 0.0000 18.2462 0.0000
# 6 0.0000 0.0000 0.0000 0.0000 0.0000 26.3859
#
#
#
# Elastic Compliance Matrix: (Units=1/GPa)
#
#
# Indices 1 2 3 4 5 6 
#
# 1 0.015340 -0.004376 -0.005877 0.000000 0.000000 0.000000
# 2 -0.004376 0.022387 -0.008533 0.000000 0.000000 0.000000
# 3 -0.005877 -0.008533 0.017656 0.000000 0.000000 0.000000
# 4 0.000000 0.000000 0.000000 0.039595 0.000000 0.000000
# 5 0.000000 0.000000 0.000000 0.000000 0.054806 0.000000
# 6 0.000000 0.000000 0.000000 0.000000 0.000000 0.037899
#
#
# Mechanical properties :
#
#
# Convention : Reuss Voigt Hill
#
# Bulk Modulus (GPa) = 56.14390 58.52431 57.33410
# Shear Modulus (GPa) = 21.62719 22.42026 22.02373
#
# Velocity S-wave (km/s) = 3.36978 3.43101 3.40054
# Velocity P-wave (km/s) = 6.67976 6.81353 6.74697
#
# Compressibility (1/GPa) = 0.01781138
#
# Stress axis : x y z
#
# Youngs Moduli (GPa) = 65.19075 44.66978 56.63697
#
# Poissons Ratio (x) = 0.19547 0.33285
# Poissons Ratio (y) = 0.28527 0.48326
# Poissons Ratio (z) = 0.38312 0.38115
#
# Static dielectric constant tensor:
#      x y z
#    x 3.356290 0.000000 0.000000 
#    y 0.000000 3.254540 0.000000 
#    z 0.000000 0.000000 3.630520 
# 
# 
# High freq. dielectric constant tensor:
#      x y z
#    x 1.723440 0.000000 0.000000 
#    y 0.000000 1.721380 0.000000 
#    z 0.000000 0.000000 1.744540 
# 
# From -- ./inp_files/30871.got.cif
#   From: 2010.03.12/outbox.cif.g09.slc.cpg/sg47_16_cif.got.tgz:30871.got - 2010.04.14 03:12:58.
