data_PCOD8198651
_publ_section_title
;
Structure prediction by ZEFSAII (Michael W. Deem and Ramdas Pophale) SiO2 
 PCOD8198651
Probable space group: P M M M
;
_chemical_formula_sum "Si O2"
_cell_formula_units_Z 64
_cell_length_a 9.453493
_cell_length_b 14.393508
_cell_length_c 25.228531
_cell_angle_alpha 90.000000
_cell_angle_beta 90.000000
_cell_angle_gamma 90.000000
_cell_volume 3432.819146
_symmetry_space_group_name_H-M "P M M M"
_symmetry_group_IT_number 47
_symmetry_cell_setting 'orthorhombic'
loop_
_space_group_symop_operation_xyz
x,y,z
-x,-y,z
x,-y,-z
-x,y,-z
-x,-y,-z
x,y,-z
-x,y,z
x,-y,z
loop_
_atom_site_type_symbol
_atom_site_label
_atom_site_fract_x
_atom_site_fract_y
_atom_site_fract_z
Si Si1 0.663788 0.608478 0.639166
Si Si2 0.162859 0.275069 0.437321
Si Si3 0.664787 0.608645 0.849711
Si Si4 0.837784 0.897259 0.110606
Si Si5 0.663907 0.897744 0.784548
Si Si6 0.164301 0.291828 0.059935
Si Si7 0.665540 0.705834 0.743773
Si Si8 0.341751 0.102658 0.437034
O O1 0.500000 0.634434 0.628909
O O2 0.682967 0.500000 0.648340
O O3 0.755369 0.638721 0.588563
O O4 0.728796 0.660084 0.690789
O O5 0.180075 0.285235 0.500000
O O6 0.232235 0.179248 0.415803
O O7 0.000000 0.275516 0.420070
O O8 0.500000 0.631707 0.857470
O O9 0.692046 0.500000 0.842923
O O10 0.745515 0.644483 0.901266
O O11 0.727114 0.659115 0.797244
O O12 0.746283 0.876869 0.162071
O O13 0.803319 0.817987 0.067772
O O14 0.000000 0.892227 0.128703
O O15 0.803144 0.000000 0.086932
O O16 0.500000 0.892520 0.799785
O O17 0.700636 0.816368 0.742662
O O18 0.702467 0.000000 0.761002
O O19 0.000000 0.312764 0.070496
O O20 0.206830 0.317382 0.000000
O O21 0.500000 0.684736 0.743179
O O22 0.341949 0.102814 0.500000
O O23 0.500000 0.126252 0.416226
O O24 0.296286 0.000000 0.416588
#
# Coordination Sequence:
#
# PCOD8198651 Si02
#       8
#     8   8   8   8   8   8   8   8
#     4  10  21  37  57  79 103 136 180 228 274 318
#     4  10  21  36  54  78 111 149 182 216 266 324
#     4  10  20  35  56  78  99 130 173 218 266 317
#     4   9  17  30  49  73 101 134 172 211 251 301
#     4   9  16  28  51  80 106 133 165 203 253 312
#     4  10  21  35  50  72 104 139 174 215 263 312
#     4   9  17  33  56  80 105 132 166 213 266 316
#     4   8  14  27  50  79 108 139 178 221 259 300
#
# _framework density 18.643567000000001
#
# number of rings (size 3 to 8) (size 9 to 14) (size 15 to 20)
#    0.000    2.625    1.250    1.125    0.000    4.000 
#    0.000    6.875    0.000    3.750    0.000    2.625 
#    0.000    0.000    0.000    0.000    0.000    0.000 
#
# Total GULP energy -793384.313004 kJ/mol
# GULP energy per Si atom -12396.629891 kJ/mol
# Density = 1.860113 g / cm^3
# Si number density = 18.643567 Si / 1000 Ang^3
#
#
#
# Elastic Constant Matrix: (Units=GPa)
#
#
# Indices 1 2 3 4 5 6 
#
# 1 68.3783 47.6710 40.4696 0.0000 0.0000 0.0000
# 2 47.6710 116.5729 49.5825 0.0000 0.0000 0.0000
# 3 40.4696 49.5825 70.9624 0.0000 0.0000 0.0000
# 4 0.0000 0.0000 0.0000 29.0933 0.0000 0.0000
# 5 0.0000 0.0000 0.0000 0.0000 15.7117 0.0000
# 6 0.0000 0.0000 0.0000 0.0000 0.0000 24.1823
#
#
#
# Elastic Compliance Matrix: (Units=1/GPa)
#
#
# Indices 1 2 3 4 5 6 
#
# 1 0.024565 -0.005815 -0.009946 0.000000 0.000000 0.000000
# 2 -0.005815 0.013582 -0.006174 0.000000 0.000000 0.000000
# 3 -0.009946 -0.006174 0.024078 0.000000 0.000000 0.000000
# 4 0.000000 0.000000 0.000000 0.034372 0.000000 0.000000
# 5 0.000000 0.000000 0.000000 0.000000 0.063647 0.000000
# 6 0.000000 0.000000 0.000000 0.000000 0.000000 0.041353
#
#
# Mechanical properties :
#
#
# Convention : Reuss Voigt Hill
#
# Bulk Modulus (GPa) = 54.48090 59.03998 56.76044
# Shear Modulus (GPa) = 19.87388 21.67682 20.77535
#
# Velocity S-wave (km/s) = 3.26849 3.41353 3.34180
# Velocity P-wave (km/s) = 6.59772 6.87552 6.73805
#
# Compressibility (1/GPa) = 0.01835506
#
# Stress axis : x y z
#
# Youngs Moduli (GPa) = 40.70757 73.62538 41.53148
#
# Poissons Ratio (x) = 0.42814 0.41309
# Poissons Ratio (y) = 0.23672 0.25641
# Poissons Ratio (z) = 0.40490 0.45455
#
# Static dielectric constant tensor:
#      x y z
#    x 3.305040 0.000000 0.000000 
#    y 0.000000 3.692980 0.000000 
#    z 0.000000 0.000000 3.274380 
# 
# 
# High freq. dielectric constant tensor:
#      x y z
#    x 1.702410 0.000000 0.000000 
#    y 0.000000 1.740240 0.000000 
#    z 0.000000 0.000000 1.700980 
# 
# From -- ./inp_files/7844.got.cif
#   From: 2010.03.12/outbox.cif.g09.slc.cpg/sg47_4_cif.got.tgz:7844.got - 2010.04.14 03:12:58.
