data_PCOD8198307
_publ_section_title
;
Structure prediction by ZEFSAII (Michael W. Deem and Ramdas Pophale) SiO2 
 PCOD8198307
Probable space group: P M M M
;
_chemical_formula_sum "Si O2"
_cell_formula_units_Z 44
_cell_length_a 28.437948
_cell_length_b 9.096939
_cell_length_c 9.364679
_cell_angle_alpha 90.000000
_cell_angle_beta 90.000000
_cell_angle_gamma 90.000000
_cell_volume 2422.626334
_symmetry_space_group_name_H-M "P M M M"
_symmetry_group_IT_number 47
_symmetry_cell_setting 'orthorhombic'
loop_
_space_group_symop_operation_xyz
x,y,z
-x,-y,z
x,-y,-z
-x,y,-z
-x,-y,-z
x,y,-z
-x,y,z
x,-y,z
loop_
_atom_site_type_symbol
_atom_site_label
_atom_site_fract_x
_atom_site_fract_y
_atom_site_fract_z
Si Si1 0.139092 0.327965 0.835310
Si Si2 0.767527 0.171635 0.163296
Si Si3 0.324779 0.170791 0.332374
Si Si4 0.948453 0.674805 0.660887
Si Si5 0.500000 0.165460 0.169354
Si Si6 0.406567 0.327010 0.834617
O O1 0.143980 0.500000 0.806287
O O2 0.186376 0.252926 0.776827
O O3 0.093467 0.260048 0.756865
O O4 0.132201 0.290136 0.000000
O O5 0.724348 0.219251 0.262549
O O6 0.777369 0.000000 0.173996
O O7 0.756458 0.218813 0.000000
O O8 0.322499 0.203093 0.500000
O O9 0.364486 0.269643 0.261777
O O10 0.335455 0.000000 0.300299
O O11 0.940464 0.730117 0.500000
O O12 0.947115 0.500000 0.667305
O O13 0.000000 0.728643 0.715636
O O14 0.546118 0.250405 0.223372
O O15 0.500000 0.000000 0.231796
O O16 0.500000 0.162876 0.000000
O O17 0.412404 0.500000 0.814540
O O18 0.396872 0.286362 0.000000
#
# Coordination Sequence:
#
# PCOD8198307 Si02
#       6
#     8   8   8   8   4   8
#     4   9  17  28  44  68  93 115 147 194 240 280
#     4   9  18  33  51  69  93 127 162 196 240 294
#     4  10  21  36  53  74 100 131 169 209 248 295
#     4   8  14  25  41  62  89 120 152 186 228 280
#     4   9  17  31  54  81 106 135 172 210 246 289
#     4  10  20  34  54  80 108 136 167 206 251 296
#
# _framework density 18.162106999999999
#
# number of rings (size 3 to 8) (size 9 to 14) (size 15 to 20)
#    0.000    2.818    0.000    1.909    0.000    5.091 
#    0.000    4.091    0.000    3.273    0.000    3.818 
#    0.000    0.000    0.000    0.000    0.000    0.000 
#
# Total GULP energy -545549.331192 kJ/mol
# GULP energy per Si atom -12398.848436 kJ/mol
# Density = 1.812077 g / cm^3
# Si number density = 18.162107 Si / 1000 Ang^3
#
#
#
# Elastic Constant Matrix: (Units=GPa)
#
#
# Indices 1 2 3 4 5 6 
#
# 1 189.3630 60.9987 77.2113 0.0000 0.0000 0.0000
# 2 60.9987 55.1851 36.0873 0.0000 0.0000 0.0000
# 3 77.2113 36.0873 76.2238 0.0000 0.0000 0.0000
# 4 0.0000 0.0000 0.0000 18.6130 0.0000 0.0000
# 5 0.0000 0.0000 0.0000 0.0000 3.6964 0.0000
# 6 0.0000 0.0000 0.0000 0.0000 0.0000 15.4727
#
#
#
# Elastic Compliance Matrix: (Units=1/GPa)
#
#
# Indices 1 2 3 4 5 6 
#
# 1 0.010475 -0.006720 -0.007429 0.000000 0.000000 0.000000
# 2 -0.006720 0.030558 -0.007660 0.000000 0.000000 0.000000
# 3 -0.007429 -0.007660 0.024271 0.000000 0.000000 0.000000
# 4 0.000000 0.000000 0.000000 0.053726 0.000000 0.000000
# 5 0.000000 0.000000 0.000000 0.000000 0.270533 0.000000
# 6 0.000000 0.000000 0.000000 0.000000 0.000000 0.064630
#
#
# Mechanical properties :
#
#
# Convention : Reuss Voigt Hill
#
# Bulk Modulus (GPa) = 46.11379 74.37405 60.24392
# Shear Modulus (GPa) = 9.90022 17.32139 13.61080
#
# Velocity S-wave (km/s) = 2.33728 3.09157 2.74050
# Velocity P-wave (km/s) = 5.72093 7.33367 6.57692
#
# Compressibility (1/GPa) = 0.02168549
#
# Stress axis : x y z
#
# Youngs Moduli (GPa) = 95.46896 32.72440 41.20171
#
# Poissons Ratio (x) = 0.21991 0.30608
# Poissons Ratio (y) = 0.64157 0.31561
# Poissons Ratio (z) = 0.70921 0.25067
#
# Static dielectric constant tensor:
#      x y z
#    x 3.689230 0.000000 0.000000 
#    y 0.000000 3.147910 0.000000 
#    z 0.000000 0.000000 3.268160 
# 
# 
# High freq. dielectric constant tensor:
#      x y z
#    x 1.720460 0.000000 0.000000 
#    y 0.000000 1.680830 0.000000 
#    z 0.000000 0.000000 1.686460 
# 
# From -- ./inp_files/2060.got.cif
#   From: 2010.03.12/outbox.cif.g09.slc.cpg/sg47_2_cif.got.tgz:2060.got - 2010.04.14 03:12:58.
