data_PCOD8198970
_publ_section_title
;
Structure prediction by ZEFSAII (Michael W. Deem and Ramdas Pophale) SiO2 
 PCOD8198970
Probable space group: P M M M
;
_chemical_formula_sum "Si O2"
_cell_formula_units_Z 40
_cell_length_a 9.723467
_cell_length_b 8.986904
_cell_length_c 24.283261
_cell_angle_alpha 90.000000
_cell_angle_beta 90.000000
_cell_angle_gamma 90.000000
_cell_volume 2121.965188
_symmetry_space_group_name_H-M "P M M M"
_symmetry_group_IT_number 47
_symmetry_cell_setting 'orthorhombic'
loop_
_space_group_symop_operation_xyz
x,y,z
-x,-y,z
x,-y,-z
-x,y,-z
-x,-y,-z
x,y,-z
-x,y,z
x,-y,z
loop_
_atom_site_type_symbol
_atom_site_label
_atom_site_fract_x
_atom_site_fract_y
_atom_site_fract_z
Si Si1 0.740742 0.326329 0.373825
Si Si2 0.153765 0.823244 0.061361
Si Si3 0.500000 0.824735 0.562895
Si Si4 0.000000 0.323744 0.439778
Si Si5 0.657954 0.822957 0.840583
Si Si6 0.159993 0.326097 0.747765
O O1 0.708416 0.500000 0.383090
O O2 0.624482 0.227956 0.400134
O O3 0.767275 0.292215 0.310103
O O4 0.870761 0.267788 0.406632
O O5 0.269264 0.763434 0.103491
O O6 0.000000 0.768002 0.078529
O O7 0.154692 0.000000 0.061385
O O8 0.189562 0.764271 0.000000
O O9 0.500000 0.758500 0.500000
O O10 0.500000 0.000000 0.558658
O O11 0.000000 0.500000 0.443762
O O12 0.000000 0.250325 0.500000
O O13 0.500000 0.764105 0.838177
O O14 0.749110 0.763303 0.790880
O O15 0.659206 0.000000 0.838126
O O16 0.166318 0.500000 0.761564
O O17 0.000000 0.273303 0.747840
#
# Coordination Sequence:
#
# PCOD8198970 Si02
#       6
#     8   8   4   4   8   8
#     4  10  20  37  60  84 106 137 182 225 268 319
#     4   8  14  27  49  76 106 142 184 228 270 313
#     4  11  25  41  55  79 117 151 176 211 264 325
#     4   9  16  30  57  87 107 125 166 229 276 310
#     4  10  21  34  51  80 114 147 183 221 268 326
#     4  10  21  38  58  80 107 139 180 229 277 323
#
# _framework density 18.850449999999999
#
# number of rings (size 3 to 8) (size 9 to 14) (size 15 to 20)
#    0.000    2.400    1.000    2.100    1.400    4.400 
#    0.000    2.500    0.000    2.400    0.000    4.200 
#    0.000    0.000    0.000    0.000    0.000    0.000 
#
# Total GULP energy -495729.998565 kJ/mol
# GULP energy per Si atom -12393.249964 kJ/mol
# Density = 1.880755 g / cm^3
# Si number density = 18.850450 Si / 1000 Ang^3
#
#
#
# Elastic Constant Matrix: (Units=GPa)
#
#
# Indices 1 2 3 4 5 6 
#
# 1 162.9711 36.5241 81.3056 0.0000 0.0000 0.0000
# 2 36.5241 27.1906 32.7333 0.0000 0.0000 0.0000
# 3 81.3056 32.7333 140.0487 0.0000 0.0000 0.0000
# 4 0.0000 0.0000 0.0000 19.0411 0.0000 0.0000
# 5 0.0000 0.0000 0.0000 0.0000 41.4899 0.0000
# 6 0.0000 0.0000 0.0000 0.0000 0.0000 22.7090
#
#
#
# Elastic Compliance Matrix: (Units=1/GPa)
#
#
# Indices 1 2 3 4 5 6 
#
# 1 0.009994 -0.008961 -0.003708 0.000000 0.000000 0.000000
# 2 -0.008961 0.059213 -0.008637 0.000000 0.000000 0.000000
# 3 -0.003708 -0.008637 0.011312 0.000000 0.000000 0.000000
# 4 0.000000 0.000000 0.000000 0.052518 0.000000 0.000000
# 5 0.000000 0.000000 0.000000 0.000000 0.024102 0.000000
# 6 0.000000 0.000000 0.000000 0.000000 0.000000 0.044035
#
#
# Mechanical properties :
#
#
# Convention : Reuss Voigt Hill
#
# Bulk Modulus (GPa) = 26.38085 70.14851 48.26468
# Shear Modulus (GPa) = 19.49911 28.62448 24.06180
#
# Velocity S-wave (km/s) = 3.21972 3.90103 3.57663
# Velocity P-wave (km/s) = 5.27705 7.58845 6.53574
#
# Compressibility (1/GPa) = 0.03790628
#
# Stress axis : x y z
#
# Youngs Moduli (GPa) = 100.05871 16.88822 88.40506
#
# Poissons Ratio (x) = 0.15134 0.32777
# Poissons Ratio (y) = 0.89667 0.76357
# Poissons Ratio (z) = 0.37098 0.14587
#
# Static dielectric constant tensor:
#      x y z
#    x 4.140980 0.000000 0.000000 
#    y 0.000000 3.024180 0.000000 
#    z 0.000000 0.000000 3.791780 
# 
# 
# High freq. dielectric constant tensor:
#      x y z
#    x 1.746530 0.000000 0.000000 
#    y 0.000000 1.687770 0.000000 
#    z 0.000000 0.000000 1.750110 
# 
# From -- ./inp_files/33026.got.cif
#   From: 2010.03.12/outbox.cif.g09.slc.cpg/sg47_17_cif.got.tgz:33026.got - 2010.04.14 03:12:58.
