data_PCOD8198463
_publ_section_title
;
Structure prediction by ZEFSAII (Michael W. Deem and Ramdas Pophale) SiO2 
 PCOD8198463
Probable space group: P M M M
;
_chemical_formula_sum "Si O2"
_cell_formula_units_Z 48
_cell_length_a 32.077912
_cell_length_b 8.024560
_cell_length_c 9.651444
_cell_angle_alpha 90.000000
_cell_angle_beta 90.000000
_cell_angle_gamma 90.000000
_cell_volume 2484.389102
_symmetry_space_group_name_H-M "P M M M"
_symmetry_group_IT_number 47
_symmetry_cell_setting 'orthorhombic'
loop_
_space_group_symop_operation_xyz
x,y,z
-x,-y,z
x,-y,-z
-x,y,-z
-x,-y,-z
x,y,-z
-x,y,z
x,-y,z
loop_
_atom_site_type_symbol
_atom_site_label
_atom_site_fract_x
_atom_site_fract_y
_atom_site_fract_z
Si Si1 0.760406 0.189516 0.845979
Si Si2 0.327414 0.689748 0.840456
Si Si3 0.925773 0.698476 0.654271
Si Si4 0.546569 0.500000 0.335645
Si Si5 0.832933 0.308661 0.338597
Si Si6 0.399271 0.812840 0.660513
Si Si7 0.000000 0.699009 0.843626
O O1 0.720679 0.294026 0.792060
O O2 0.799744 0.204016 0.746263
O O3 0.745618 0.000000 0.848949
O O4 0.773412 0.250281 0.000000
O O5 0.341718 0.500000 0.820988
O O6 0.356493 0.804167 0.745787
O O7 0.331580 0.747616 0.000000
O O8 0.937138 0.764231 0.500000
O O9 0.926336 0.500000 0.651251
O O10 0.879415 0.758449 0.696611
O O11 0.959120 0.768027 0.764525
O O12 0.500000 0.500000 0.272541
O O13 0.544423 0.500000 0.500000
O O14 0.569125 0.670044 0.284297
O O15 0.823681 0.284912 0.500000
O O16 0.828684 0.500000 0.294300
O O17 0.388714 0.780167 0.500000
O O18 0.418205 0.000000 0.680405
O O19 0.000000 0.500000 0.843684
O O20 0.000000 0.768944 0.000000
#
# Coordination Sequence:
#
# PCOD8198463 Si02
#       7
#     8   8   8   4   8   8   4
#     4  10  21  35  50  71  99 131 168 208 252 306
#     4  10  20  35  56  79 104 139 179 218 265 318
#     4   8  14  25  40  58  85 120 154 190 238 295
#     4   9  18  34  55  81 115 149 183 229 279 326
#     4   9  18  32  49  70  95 126 165 206 249 299
#     4  10  20  34  55  83 112 144 183 226 274 325
#     4   9  15  21  33  59  90 117 150 193 240 290
#
# _framework density 19.320643
#
# number of rings (size 3 to 8) (size 9 to 14) (size 15 to 20)
#    0.000    2.667    0.833    2.250    0.000    5.000 
#    0.000    3.333    0.000    1.000    0.000    1.750 
#    0.000    4.667    0.000    0.000    0.000    0.000 
#
# Total GULP energy -595067.971537 kJ/mol
# GULP energy per Si atom -12397.249407 kJ/mol
# Density = 1.927667 g / cm^3
# Si number density = 19.320643 Si / 1000 Ang^3
#
#
#
# Elastic Constant Matrix: (Units=GPa)
#
#
# Indices 1 2 3 4 5 6 
#
# 1 138.2594 38.4838 65.5091 0.0000 0.0000 0.0000
# 2 38.4838 74.1780 27.0280 0.0000 0.0000 0.0000
# 3 65.5091 27.0280 77.3673 0.0000 0.0000 0.0000
# 4 0.0000 0.0000 0.0000 18.2083 0.0000 0.0000
# 5 0.0000 0.0000 0.0000 0.0000 14.5826 0.0000
# 6 0.0000 0.0000 0.0000 0.0000 0.0000 13.5351
#
#
#
# Elastic Compliance Matrix: (Units=1/GPa)
#
#
# Indices 1 2 3 4 5 6 
#
# 1 0.012653 -0.003049 -0.009649 0.000000 0.000000 0.000000
# 2 -0.003049 0.016182 -0.003072 0.000000 0.000000 0.000000
# 3 -0.009649 -0.003072 0.022168 0.000000 0.000000 0.000000
# 4 0.000000 0.000000 0.000000 0.054920 0.000000 0.000000
# 5 0.000000 0.000000 0.000000 0.000000 0.068575 0.000000
# 6 0.000000 0.000000 0.000000 0.000000 0.000000 0.073882
#
#
# Mechanical properties :
#
#
# Convention : Reuss Voigt Hill
#
# Bulk Modulus (GPa) = 51.37384 61.31629 56.34507
# Shear Modulus (GPa) = 17.45769 19.85077 18.65423
#
# Velocity S-wave (km/s) = 3.00922 3.20885 3.11063
# Velocity P-wave (km/s) = 6.22268 6.74789 6.49060
#
# Compressibility (1/GPa) = 0.01946516
#
# Stress axis : x y z
#
# Youngs Moduli (GPa) = 79.03234 61.79700 45.10968
#
# Poissons Ratio (x) = 0.18841 0.43525
# Poissons Ratio (y) = 0.24095 0.13856
# Poissons Ratio (z) = 0.76255 0.18982
#
# Static dielectric constant tensor:
#      x y z
#    x 3.559390 0.000000 0.000000 
#    y 0.000000 3.332030 0.000000 
#    z 0.000000 0.000000 3.427520 
# 
# 
# High freq. dielectric constant tensor:
#      x y z
#    x 1.749520 0.000000 0.000000 
#    y 0.000000 1.736590 0.000000 
#    z 0.000000 0.000000 1.734710 
# 
# From -- ./inp_files/13973.got.cif
#   From: 2010.03.12/outbox.cif.g09.slc.cpg/sg47_7_cif.got.tgz:13973.got - 2010.04.14 03:12:58.
