data_PCOD8198903
_publ_section_title
;
Structure prediction by ZEFSAII (Michael W. Deem and Ramdas Pophale) SiO2 
 PCOD8198903
Probable space group: P M M M
;
_chemical_formula_sum "Si O2"
_cell_formula_units_Z 32
_cell_length_a 7.384050
_cell_length_b 14.977247
_cell_length_c 14.302437
_cell_angle_alpha 90.000000
_cell_angle_beta 90.000000
_cell_angle_gamma 90.000000
_cell_volume 1581.745707
_symmetry_space_group_name_H-M "P M M M"
_symmetry_group_IT_number 47
_symmetry_cell_setting 'orthorhombic'
loop_
_space_group_symop_operation_xyz
x,y,z
-x,-y,z
x,-y,-z
-x,y,-z
-x,-y,-z
x,y,-z
-x,y,z
x,-y,z
loop_
_atom_site_type_symbol
_atom_site_label
_atom_site_fract_x
_atom_site_fract_y
_atom_site_fract_z
Si Si1 0.212278 0.227153 0.609031
Si Si2 0.500000 0.100712 0.698117
Si Si3 0.786849 0.597041 0.710848
Si Si4 0.207542 0.687068 0.103128
Si Si5 0.500000 0.835706 0.896719
O O1 0.253986 0.220938 0.500000
O O2 0.319970 0.149552 0.661587
O O3 0.285429 0.323506 0.644776
O O4 0.000000 0.214745 0.631331
O O5 0.500000 0.094964 0.811341
O O6 0.500000 0.000000 0.659400
O O7 0.702983 0.500000 0.683249
O O8 0.732588 0.616013 0.818599
O O9 0.000000 0.591527 0.699080
O O10 0.321377 0.776408 0.114068
O O11 0.000000 0.715530 0.118740
O O12 0.237575 0.644319 0.000000
O O13 0.500000 0.882283 0.000000
#
# Coordination Sequence:
#
# PCOD8198903 Si02
#       5
#     8   4   8   8   4
#     4  10  22  41  62  85 117 153 191 239 290 337
#     4  12  25  41  64  89 113 145 190 240 291 350
#     4   9  17  31  55  86 117 152 192 230 277 338
#     4   9  17  31  53  80 113 152 191 231 276 331
#     4  10  20  36  59  84 111 147 187 229 283 343
#
# _framework density 20.230810999999999
#
# number of rings (size 3 to 8) (size 9 to 14) (size 15 to 20)
#    0.000    2.250    2.500    0.375    0.000    2.750 
#    0.000    8.750    0.000    3.750    0.000    5.250 
#    0.000    0.000    0.000    0.000    0.000    0.000 
#
# Total GULP energy -396597.982605 kJ/mol
# GULP energy per Si atom -12393.686956 kJ/mol
# Density = 2.018476 g / cm^3
# Si number density = 20.230811 Si / 1000 Ang^3
#
#
#
# Elastic Constant Matrix: (Units=GPa)
#
#
# Indices 1 2 3 4 5 6 
#
# 1 73.7378 32.0153 32.9456 0.0000 0.0000 0.0000
# 2 32.0153 140.0163 64.6967 0.0000 0.0000 0.0000
# 3 32.9456 64.6967 138.1591 0.0000 0.0000 0.0000
# 4 0.0000 0.0000 0.0000 12.1336 0.0000 0.0000
# 5 0.0000 0.0000 0.0000 0.0000 22.2219 0.0000
# 6 0.0000 0.0000 0.0000 0.0000 0.0000 42.8330
#
#
#
# Elastic Compliance Matrix: (Units=1/GPa)
#
#
# Indices 1 2 3 4 5 6 
#
# 1 0.015779 -0.002386 -0.002646 0.000000 0.000000 0.000000
# 2 -0.002386 0.009475 -0.003868 0.000000 0.000000 0.000000
# 3 -0.002646 -0.003868 0.009680 0.000000 0.000000 0.000000
# 4 0.000000 0.000000 0.000000 0.082416 0.000000 0.000000
# 5 0.000000 0.000000 0.000000 0.000000 0.045001 0.000000
# 6 0.000000 0.000000 0.000000 0.000000 0.000000 0.023347
#
#
# Mechanical properties :
#
#
# Convention : Reuss Voigt Hill
#
# Bulk Modulus (GPa) = 58.35671 67.91427 63.13549
# Shear Modulus (GPa) = 23.89971 30.25474 27.07723
#
# Velocity S-wave (km/s) = 3.44081 3.87134 3.66240
# Velocity P-wave (km/s) = 6.68533 7.32295 7.01139
#
# Compressibility (1/GPa) = 0.01713599
#
# Stress axis : x y z
#
# Youngs Moduli (GPa) = 63.37379 105.54395 103.30385
#
# Poissons Ratio (x) = 0.25178 0.27331
# Poissons Ratio (y) = 0.15118 0.39957
# Poissons Ratio (z) = 0.16767 0.40824
#
# Static dielectric constant tensor:
#      x y z
#    x 2.444920 0.000000 0.000000 
#    y 0.000000 3.543680 0.000000 
#    z 0.000000 0.000000 3.987420 
# 
# 
# High freq. dielectric constant tensor:
#      x y z
#    x 1.790130 0.000000 0.000000 
#    y 0.000000 1.757340 0.000000 
#    z 0.000000 0.000000 1.804140 
# 
# From -- ./inp_files/5237.got.cif
#   From: 2010.03.12/outbox.cif.g09.slc.cpg/sg47_3_cif.got.tgz:5237.got - 2010.04.14 03:12:58.
