data_PCOD8198183
_publ_section_title
;
Structure prediction by ZEFSAII (Michael W. Deem and Ramdas Pophale) SiO2 
 PCOD8198183
Probable space group: P M M M
;
_chemical_formula_sum "Si O2"
_cell_formula_units_Z 64
_cell_length_a 20.724874
_cell_length_b 19.748065
_cell_length_c 8.815097
_cell_angle_alpha 90.000000
_cell_angle_beta 90.000000
_cell_angle_gamma 90.000000
_cell_volume 3607.809040
_symmetry_space_group_name_H-M "P M M M"
_symmetry_group_IT_number 47
_symmetry_cell_setting 'orthorhombic'
loop_
_space_group_symop_operation_xyz
x,y,z
-x,-y,z
x,-y,-z
-x,y,-z
-x,-y,-z
x,y,-z
-x,y,z
x,-y,z
loop_
_atom_site_type_symbol
_atom_site_label
_atom_site_fract_x
_atom_site_fract_y
_atom_site_fract_z
Si Si1 0.690362 0.784139 0.320709
Si Si2 0.072577 0.785644 0.322625
Si Si3 0.734551 0.073496 0.320061
Si Si4 0.120080 0.073069 0.320182
Si Si5 0.572599 0.710926 0.824130
Si Si6 0.362332 0.425005 0.827368
Si Si7 0.188540 0.292735 0.821702
Si Si8 0.228379 0.423541 0.323334
O O1 0.698128 0.779293 0.500000
O O2 0.692635 0.862499 0.263285
O O3 0.621380 0.755599 0.272932
O O4 0.749008 0.742245 0.250427
O O5 0.090400 0.780436 0.500000
O O6 0.077039 0.863783 0.265564
O O7 0.121851 0.740590 0.228917
O O8 0.000000 0.759946 0.291619
O O9 0.735142 0.072571 0.500000
O O10 0.807247 0.083968 0.259570
O O11 0.707760 0.000000 0.261355
O O12 0.120494 0.070880 0.500000
O O13 0.093461 0.000000 0.259827
O O14 0.500000 0.728477 0.772687
O O15 0.583416 0.630936 0.793964
O O16 0.583332 0.728188 0.000000
O O17 0.392066 0.500000 0.800373
O O18 0.303227 0.411824 0.715066
O O19 0.336554 0.418123 0.000000
O O20 0.184986 0.371116 0.770804
O O21 0.195473 0.287544 0.000000
O O22 0.218355 0.409417 0.500000
O O23 0.207389 0.500000 0.279841
#
# Coordination Sequence:
#
# PCOD8198183 Si02
#       8
#     8   8   8   8   8   8   8   8
#     4  11  20  33  56  80 103 134 178 226 269 312
#     4  10  20  34  53  78 108 142 181 223 265 308
#     4   8  14  26  48  77 104 129 165 220 275 315
#     4   8  13  24  45  75 108 138 172 214 260 309
#     4  10  21  35  50  73 108 146 180 216 263 318
#     4   9  17  30  49  74 105 141 177 209 249 305
#     4  12  23  35  54  78 108 144 179 215 260 315
#     4  10  20  34  55  82 108 133 168 218 268 309
#
# _framework density 17.739297000000001
#
# number of rings (size 3 to 8) (size 9 to 14) (size 15 to 20)
#    0.000    2.250    2.500    2.625    0.000    1.750 
#    0.000    2.500    0.000    3.375    0.000    8.750 
#    0.000    0.000    0.000    0.000    0.000    0.000 
#
# Total GULP energy -793230.185384 kJ/mol
# GULP energy per Si atom -12394.221647 kJ/mol
# Density = 1.769892 g / cm^3
# Si number density = 17.739297 Si / 1000 Ang^3
#
#
#
# Elastic Constant Matrix: (Units=GPa)
#
#
# Indices 1 2 3 4 5 6 
#
# 1 92.4708 60.2988 37.7257 0.0000 0.0000 0.0000
# 2 60.2988 132.3507 45.6851 0.0000 0.0000 0.0000
# 3 37.7257 45.6851 65.9910 0.0000 0.0000 0.0000
# 4 0.0000 0.0000 0.0000 10.4992 0.0000 0.0000
# 5 0.0000 0.0000 0.0000 0.0000 22.8019 0.0000
# 6 0.0000 0.0000 0.0000 0.0000 0.0000 25.0801
#
#
#
# Elastic Compliance Matrix: (Units=1/GPa)
#
#
# Indices 1 2 3 4 5 6 
#
# 1 0.016862 -0.005722 -0.005678 0.000000 0.000000 0.000000
# 2 -0.005722 0.011870 -0.004946 0.000000 0.000000 0.000000
# 3 -0.005678 -0.004946 0.021824 0.000000 0.000000 0.000000
# 4 0.000000 0.000000 0.000000 0.095245 0.000000 0.000000
# 5 0.000000 0.000000 0.000000 0.000000 0.043856 0.000000
# 6 0.000000 0.000000 0.000000 0.000000 0.000000 0.039872
#
#
# Mechanical properties :
#
#
# Convention : Reuss Voigt Hill
#
# Bulk Modulus (GPa) = 55.98280 64.24796 60.11538
# Shear Modulus (GPa) = 18.64435 21.48311 20.06373
#
# Velocity S-wave (km/s) = 3.24546 3.48378 3.36673
# Velocity P-wave (km/s) = 6.75804 7.24423 7.00535
#
# Compressibility (1/GPa) = 0.01786263
#
# Stress axis : x y z
#
# Youngs Moduli (GPa) = 59.30390 84.24482 45.82118
#
# Poissons Ratio (x) = 0.48208 0.26018
# Poissons Ratio (y) = 0.33936 0.22664
# Poissons Ratio (z) = 0.33674 0.41670
#
# Static dielectric constant tensor:
#      x y z
#    x 3.039780 0.000000 0.000000 
#    y 0.000000 3.842660 0.000000 
#    z 0.000000 0.000000 3.060030 
# 
# 
# High freq. dielectric constant tensor:
#      x y z
#    x 1.654110 0.000000 0.000000 
#    y 0.000000 1.701300 0.000000 
#    z 0.000000 0.000000 1.662080 
# 
# From -- ./inp_files/11841.got.cif
#   From: 2010.03.12/outbox.cif.g09.slc.cpg/sg47_6_cif.got.tgz:11841.got - 2010.04.14 03:12:58.
