data_PCOD8198997
_publ_section_title
;
Structure prediction by ZEFSAII (Michael W. Deem and Ramdas Pophale) SiO2 
 PCOD8198997
Probable space group: P M M M
;
_chemical_formula_sum "Si O2"
_cell_formula_units_Z 48
_cell_length_a 17.421548
_cell_length_b 9.006727
_cell_length_c 15.687656
_cell_angle_alpha 90.000000
_cell_angle_beta 90.000000
_cell_angle_gamma 90.000000
_cell_volume 2461.567779
_symmetry_space_group_name_H-M "P M M M"
_symmetry_group_IT_number 47
_symmetry_cell_setting 'orthorhombic'
loop_
_space_group_symop_operation_xyz
x,y,z
-x,-y,z
x,-y,-z
-x,y,-z
-x,-y,-z
x,y,-z
-x,y,z
x,-y,z
loop_
_atom_site_type_symbol
_atom_site_label
_atom_site_fract_x
_atom_site_fract_y
_atom_site_fract_z
Si Si1 0.840819 0.673334 0.161676
Si Si2 0.089792 0.166188 0.000000
Si Si3 0.813612 0.822615 0.338345
Si Si4 0.349169 0.671061 0.661651
Si Si5 0.500000 0.164552 0.598934
Si Si6 0.588821 0.164114 0.000000
Si Si7 0.335331 0.662205 0.856787
Si Si8 0.086399 0.824545 0.500000
O O1 0.863053 0.500000 0.172483
O O2 0.851551 0.755618 0.252424
O O3 0.753912 0.693636 0.133534
O O4 0.889483 0.746262 0.086264
O O5 0.000000 0.149610 0.000000
O O6 0.126887 0.000000 0.000000
O O7 0.729380 0.757694 0.359789
O O8 0.868700 0.772395 0.415472
O O9 0.807190 0.000000 0.329303
O O10 0.341051 0.500000 0.630915
O O11 0.422957 0.745720 0.619944
O O12 0.364472 0.678603 0.761475
O O13 0.500000 0.139102 0.500000
O O14 0.500000 0.000000 0.642951
O O15 0.619159 0.224870 0.912499
O O16 0.500000 0.186575 0.000000
O O17 0.618338 0.000000 0.000000
O O18 0.354143 0.500000 0.892469
O O19 0.000000 0.756985 0.500000
O O20 0.081405 0.000000 0.500000
#
# Coordination Sequence:
#
# PCOD8198997 Si02
#       8
#     8   4   8   8   4   4   8   4
#     4  10  21  39  61  87 118 153 197 245 298 357
#     4  11  24  39  58  88 122 157 198 245 302 367
#     4  10  20  37  63  91 121 160 205 250 302 362
#     4  10  22  40  61  87 118 155 199 247 301 355
#     4  11  25  41  59  86 119 154 197 245 300 363
#     4  11  24  35  48  78 112 143 186 237 284 325
#     4   9  20  38  58  79 107 148 191 231 281 343
#     4   9  20  38  61  90 123 158 197 245 298 355
#
# _framework density 19.499768
#
# number of rings (size 3 to 8) (size 9 to 14) (size 15 to 20)
#    0.000    2.000    0.000    3.750    2.333    8.667 
#    0.000    2.917    0.000    3.500    0.000    0.000 
#    0.000    0.000    0.000    0.000    0.000    0.000 
#
# Total GULP energy -595040.375956 kJ/mol
# GULP energy per Si atom -12396.674499 kJ/mol
# Density = 1.945539 g / cm^3
# Si number density = 19.499768 Si / 1000 Ang^3
#
#
#
# Elastic Constant Matrix: (Units=GPa)
#
#
# Indices 1 2 3 4 5 6 
#
# 1 103.9108 65.7250 74.1307 0.0000 0.0000 0.0000
# 2 65.7250 125.6186 67.8162 0.0000 0.0000 0.0000
# 3 74.1307 67.8162 121.5240 0.0000 0.0000 0.0000
# 4 0.0000 0.0000 0.0000 24.2520 0.0000 0.0000
# 5 0.0000 0.0000 0.0000 0.0000 34.1992 0.0000
# 6 0.0000 0.0000 0.0000 0.0000 0.0000 11.7031
#
#
#
# Elastic Compliance Matrix: (Units=1/GPa)
#
#
# Indices 1 2 3 4 5 6 
#
# 1 0.019256 -0.005343 -0.008764 0.000000 0.000000 0.000000
# 2 -0.005343 0.012876 -0.003926 0.000000 0.000000 0.000000
# 3 -0.008764 -0.003926 0.015766 0.000000 0.000000 0.000000
# 4 0.000000 0.000000 0.000000 0.041234 0.000000 0.000000
# 5 0.000000 0.000000 0.000000 0.000000 0.029240 0.000000
# 6 0.000000 0.000000 0.000000 0.000000 0.000000 0.085448
#
#
# Mechanical properties :
#
#
# Convention : Reuss Voigt Hill
#
# Bulk Modulus (GPa) = 84.52736 85.15525 84.84131
# Shear Modulus (GPa) = 20.50608 23.58963 22.04786
#
# Velocity S-wave (km/s) = 3.24637 3.48190 3.36620
# Velocity P-wave (km/s) = 7.58247 7.74142 7.66236
#
# Compressibility (1/GPa) = 0.01183049
#
# Stress axis : x y z
#
# Youngs Moduli (GPa) = 51.93166 77.66597 63.42773
#
# Poissons Ratio (x) = 0.41500 0.55591
# Poissons Ratio (y) = 0.27749 0.24900
# Poissons Ratio (z) = 0.45515 0.30489
#
# Static dielectric constant tensor:
#      x y z
#    x 3.581190 0.000000 0.000000 
#    y 0.000000 3.805270 0.000000 
#    z 0.000000 0.000000 3.646050 
# 
# 
# High freq. dielectric constant tensor:
#      x y z
#    x 1.759270 0.000000 0.000000 
#    y 0.000000 1.769930 0.000000 
#    z 0.000000 0.000000 1.769060 
# 
# From -- ./inp_files/24530.got.cif
#   From: 2010.03.12/outbox.cif.g09.slc.cpg/sg47_13_cif.got.tgz:24530.got - 2010.04.14 03:12:58.
