data_PCOD8198946
_publ_section_title
;
Structure prediction by ZEFSAII (Michael W. Deem and Ramdas Pophale) SiO2 
 PCOD8198946
Probable space group: P M M M
;
_chemical_formula_sum "Si O2"
_cell_formula_units_Z 48
_cell_length_a 9.400667
_cell_length_b 14.724419
_cell_length_c 17.448075
_cell_angle_alpha 90.000000
_cell_angle_beta 90.000000
_cell_angle_gamma 90.000000
_cell_volume 2415.151371
_symmetry_space_group_name_H-M "P M M M"
_symmetry_group_IT_number 47
_symmetry_cell_setting 'orthorhombic'
loop_
_space_group_symop_operation_xyz
x,y,z
-x,-y,z
x,-y,-z
-x,y,-z
-x,-y,-z
x,y,-z
-x,y,z
x,-y,z
loop_
_atom_site_type_symbol
_atom_site_label
_atom_site_fract_x
_atom_site_fract_y
_atom_site_fract_z
Si Si1 0.340217 0.600756 0.218191
Si Si2 0.837978 0.859059 0.163521
Si Si3 0.831414 0.606616 0.500000
Si Si4 0.664853 0.705913 0.367447
Si Si5 0.337832 0.102544 0.686887
Si Si6 0.653048 0.000000 0.913353
Si Si7 0.838799 0.665683 0.912542
O O1 0.500000 0.626562 0.194698
O O2 0.330974 0.500000 0.254589
O O3 0.287836 0.672417 0.282500
O O4 0.252251 0.597432 0.138924
O O5 0.772290 0.878468 0.246026
O O6 0.828314 0.757130 0.135758
O O7 0.000000 0.893537 0.164825
O O8 0.746131 0.912363 0.102391
O O9 0.792943 0.500000 0.500000
O O10 0.765869 0.654848 0.426177
O O11 0.000000 0.621573 0.500000
O O12 0.500000 0.679853 0.383442
O O13 0.686335 0.815760 0.374554
O O14 0.500000 0.110001 0.717385
O O15 0.311746 0.000000 0.652930
O O16 0.500000 0.000000 0.868014
O O17 0.611545 0.000000 0.000000
O O18 0.000000 0.630480 0.916001
O O19 0.780230 0.674433 0.000000
#
# Coordination Sequence:
#
# PCOD8198946 Si02
#       7
#     8   8   4   8   8   4   8
#     4  10  21  37  59  87 115 149 199 252 301 359
#     4  11  21  34  54  79 110 149 196 251 307 362
#     4  11  25  43  66  99 132 160 197 247 300 355
#     4  10  21  40  66  93 125 162 198 241 296 361
#     4  10  20  36  61  91 122 156 199 244 289 349
#     4  11  23  35  49  73 107 148 197 254 311 363
#     4  10  22  38  54  76 111 155 201 249 304 365
#
# _framework density 19.874531000000001
#
# number of rings (size 3 to 8) (size 9 to 14) (size 15 to 20)
#    0.000    1.667    2.500    2.000    0.000    5.667 
#    0.000    2.083    0.000    2.500    0.000    0.000 
#    0.000    0.000    0.000    0.000    0.000    0.000 
#
# Total GULP energy -594825.971316 kJ/mol
# GULP energy per Si atom -12392.207736 kJ/mol
# Density = 1.982930 g / cm^3
# Si number density = 19.874531 Si / 1000 Ang^3
#
#
#
# Elastic Constant Matrix: (Units=GPa)
#
#
# Indices 1 2 3 4 5 6 
#
# 1 110.1131 49.7098 53.2377 0.0000 0.0000 0.0000
# 2 49.7098 126.2203 48.4275 0.0000 0.0000 0.0000
# 3 53.2377 48.4275 96.6600 0.0000 0.0000 0.0000
# 4 0.0000 0.0000 0.0000 31.7038 0.0000 0.0000
# 5 0.0000 0.0000 0.0000 0.0000 42.5060 0.0000
# 6 0.0000 0.0000 0.0000 0.0000 0.0000 28.6521
#
#
#
# Elastic Compliance Matrix: (Units=1/GPa)
#
#
# Indices 1 2 3 4 5 6 
#
# 1 0.013230 -0.002989 -0.005789 0.000000 0.000000 0.000000
# 2 -0.002989 0.010483 -0.003606 0.000000 0.000000 0.000000
# 3 -0.005789 -0.003606 0.015341 0.000000 0.000000 0.000000
# 4 0.000000 0.000000 0.000000 0.031542 0.000000 0.000000
# 5 0.000000 0.000000 0.000000 0.000000 0.023526 0.000000
# 6 0.000000 0.000000 0.000000 0.000000 0.000000 0.034902
#
#
# Mechanical properties :
#
#
# Convention : Reuss Voigt Hill
#
# Bulk Modulus (GPa) = 70.00085 70.63816 70.31951
# Shear Modulus (GPa) = 31.53505 32.68027 32.10766
#
# Velocity S-wave (km/s) = 3.98767 4.05943 4.02371
# Velocity P-wave (km/s) = 7.51664 7.58889 7.55285
#
# Compressibility (1/GPa) = 0.01428554
#
# Stress axis : x y z
#
# Youngs Moduli (GPa) = 75.58600 95.38870 65.18670
#
# Poissons Ratio (x) = 0.28515 0.37737
# Poissons Ratio (y) = 0.22595 0.23505
# Poissons Ratio (z) = 0.43757 0.34396
#
# Static dielectric constant tensor:
#      x y z
#    x 3.728130 0.000000 0.000000 
#    y 0.000000 3.594380 0.000000 
#    z 0.000000 0.000000 3.387440 
# 
# 
# High freq. dielectric constant tensor:
#      x y z
#    x 1.776790 0.000000 0.000000 
#    y 0.000000 1.789200 0.000000 
#    z 0.000000 0.000000 1.750960 
# 
# From -- ./inp_files/6410.got.cif
#   From: 2010.03.12/outbox.cif.g09.slc.cpg/sg47_4_cif.got.tgz:6410.got - 2010.04.14 03:12:58.
