data_PCOD8198571
_publ_section_title
;
Structure prediction by ZEFSAII (Michael W. Deem and Ramdas Pophale) SiO2 
 PCOD8198571
Probable space group: P M M M
;
_chemical_formula_sum "Si O2"
_cell_formula_units_Z 52
_cell_length_a 14.109445
_cell_length_b 9.240010
_cell_length_c 22.876952
_cell_angle_alpha 90.000000
_cell_angle_beta 90.000000
_cell_angle_gamma 90.000000
_cell_volume 2982.500555
_symmetry_space_group_name_H-M "P M M M"
_symmetry_group_IT_number 47
_symmetry_cell_setting 'orthorhombic'
loop_
_space_group_symop_operation_xyz
x,y,z
-x,-y,z
x,-y,-z
-x,y,-z
-x,-y,-z
x,y,-z
-x,y,z
x,-y,z
loop_
_atom_site_type_symbol
_atom_site_label
_atom_site_fract_x
_atom_site_fract_y
_atom_site_fract_z
Si Si1 0.890877 0.330785 0.668988
Si Si2 0.253198 0.339649 0.142170
Si Si3 0.744013 0.830040 0.743099
Si Si4 0.110094 0.835247 0.066655
Si Si5 0.607640 0.168878 0.362006
Si Si6 0.245859 0.668121 0.434060
Si Si7 0.390212 0.500000 0.068699
O O1 0.879463 0.500000 0.682912
O O2 0.841850 0.240223 0.720603
O O3 0.842714 0.290278 0.607070
O O4 0.000000 0.284233 0.665222
O O5 0.222666 0.500000 0.164722
O O6 0.285750 0.239782 0.195599
O O7 0.164546 0.270084 0.109693
O O8 0.341689 0.356639 0.097100
O O9 0.659000 0.793970 0.698835
O O10 0.760141 0.000000 0.751026
O O11 0.000000 0.820378 0.081449
O O12 0.143758 0.000000 0.076727
O O13 0.129935 0.788721 0.000000
O O14 0.500000 0.224636 0.357687
O O15 0.659491 0.248308 0.415218
O O16 0.612012 0.000000 0.375492
O O17 0.218472 0.712352 0.500000
O O18 0.269793 0.500000 0.429113
O O19 0.500000 0.500000 0.084691
O O20 0.372057 0.500000 0.000000
#
# Coordination Sequence:
#
# PCOD8198571 Si02
#       7
#     8   8   8   8   8   8   4
#     4   9  18  33  53  74 103 142 178 214 257 306
#     4  10  21  33  54  79 105 138 175 212 257 311
#     4  10  20  35  53  75 104 134 170 218 263 308
#     4   9  18  33  53  78 108 139 171 209 254 304
#     4   9  19  35  53  72  97 132 170 211 264 318
#     4   9  18  32  50  75 105 133 170 217 260 307
#     4   9  20  38  57  79 107 137 171 214 262 310
#
# _framework density 17.435034999999999
#
# number of rings (size 3 to 8) (size 9 to 14) (size 15 to 20)
#    0.462    2.231    0.000    1.846    0.000    3.692 
#    0.000    3.846    0.000    1.385    0.000    9.692 
#    0.000    0.000    0.000    0.000    0.000    0.000 
#
# Total GULP energy -644755.476549 kJ/mol
# GULP energy per Si atom -12399.143780 kJ/mol
# Density = 1.739535 g / cm^3
# Si number density = 17.435035 Si / 1000 Ang^3
#
#
#
# Elastic Constant Matrix: (Units=GPa)
#
#
# Indices 1 2 3 4 5 6 
#
# 1 115.7346 39.1294 48.0900 0.0000 0.0000 0.0000
# 2 39.1294 63.3095 40.3271 0.0000 0.0000 0.0000
# 3 48.0900 40.3271 104.4103 0.0000 0.0000 0.0000
# 4 0.0000 0.0000 0.0000 31.8855 0.0000 0.0000
# 5 0.0000 0.0000 0.0000 0.0000 15.3726 0.0000
# 6 0.0000 0.0000 0.0000 0.0000 0.0000 25.9045
#
#
#
# Elastic Compliance Matrix: (Units=1/GPa)
#
#
# Indices 1 2 3 4 5 6 
#
# 1 0.011802 -0.005082 -0.003473 0.000000 0.000000 0.000000
# 2 -0.005082 0.023138 -0.006596 0.000000 0.000000 0.000000
# 3 -0.003473 -0.006596 0.013725 0.000000 0.000000 0.000000
# 4 0.000000 0.000000 0.000000 0.031362 0.000000 0.000000
# 5 0.000000 0.000000 0.000000 0.000000 0.065051 0.000000
# 6 0.000000 0.000000 0.000000 0.000000 0.000000 0.038603
#
#
# Mechanical properties :
#
#
# Convention : Reuss Voigt Hill
#
# Bulk Modulus (GPa) = 54.45841 59.83861 57.14851
# Shear Modulus (GPa) = 22.71656 25.02636 23.87146
#
# Velocity S-wave (km/s) = 3.61352 3.79279 3.70424
# Velocity P-wave (km/s) = 6.97946 7.31954 7.15153
#
# Compressibility (1/GPa) = 0.01836264
#
# Stress axis : x y z
#
# Youngs Moduli (GPa) = 84.73340 43.21885 72.86102
#
# Poissons Ratio (x) = 0.21964 0.25303
# Poissons Ratio (y) = 0.43062 0.48059
# Poissons Ratio (z) = 0.29426 0.28507
#
# Static dielectric constant tensor:
#      x y z
#    x 3.190870 0.000000 0.000000 
#    y 0.000000 3.205310 0.000000 
#    z 0.000000 0.000000 3.276540 
# 
# 
# High freq. dielectric constant tensor:
#      x y z
#    x 1.667110 0.000000 0.000000 
#    y 0.000000 1.669630 0.000000 
#    z 0.000000 0.000000 1.677480 
# 
# From -- ./inp_files/32670.got.cif
#   From: 2010.03.12/outbox.cif.g09.slc.cpg/sg47_17_cif.got.tgz:32670.got - 2010.04.14 03:12:58.
