data_PCOD8198026
_publ_section_title
;
Structure prediction by ZEFSAII (Michael W. Deem and Ramdas Pophale) SiO2 
 PCOD8198026
Probable space group: P M M M
;
_chemical_formula_sum "Si O2"
_cell_formula_units_Z 44
_cell_length_a 14.320287
_cell_length_b 18.456389
_cell_length_c 8.759042
_cell_angle_alpha 90.000000
_cell_angle_beta 90.000000
_cell_angle_gamma 90.000000
_cell_volume 2315.021698
_symmetry_space_group_name_H-M "P M M M"
_symmetry_group_IT_number 47
_symmetry_cell_setting 'orthorhombic'
loop_
_space_group_symop_operation_xyz
x,y,z
-x,-y,z
x,-y,-z
-x,y,-z
-x,-y,-z
x,y,-z
-x,y,z
x,-y,z
loop_
_atom_site_type_symbol
_atom_site_label
_atom_site_fract_x
_atom_site_fract_y
_atom_site_fract_z
Si Si1 0.895395 0.420355 0.181353
Si Si2 0.389172 0.923992 0.329748
Si Si3 0.783307 0.716490 0.180994
Si Si4 0.605822 0.767770 0.682435
Si Si5 0.891535 0.148616 0.679608
Si Si6 0.110974 0.000000 0.174785
O O1 0.859769 0.500000 0.235542
O O2 0.829756 0.356988 0.246000
O O3 0.000000 0.407138 0.243479
O O4 0.896257 0.417497 0.000000
O O5 0.347319 0.925977 0.500000
O O6 0.500000 0.922142 0.340755
O O7 0.360454 0.847523 0.253736
O O8 0.357510 0.000000 0.245261
O O9 0.676384 0.711948 0.239057
O O10 0.836644 0.785202 0.247466
O O11 0.786935 0.720240 0.000000
O O12 0.613602 0.765441 0.500000
O O13 0.500000 0.749431 0.733587
O O14 0.876248 0.149405 0.500000
O O15 0.000000 0.156734 0.724473
O O16 0.850068 0.072622 0.743643
O O17 0.000000 0.000000 0.190713
O O18 0.143726 0.000000 0.000000
#
# Coordination Sequence:
#
# PCOD8198026 Si02
#       6
#     8   8   8   8   8   4
#     4   8  15  30  53  80 107 133 164 206 258 317
#     4   7  10  20  41  65  84 108 152 208 256 293
#     4  11  21  32  51  79 107 135 169 214 268 320
#     4   9  18  33  51  70  97 135 177 220 265 313
#     4  10  20  34  52  74 103 140 179 215 254 310
#     4   9  17  31  51  73 100 135 176 223 269 305
#
# _framework density 19.006302999999999
#
# number of rings (size 3 to 8) (size 9 to 14) (size 15 to 20)
#    0.000    3.000    0.000    4.091    0.000    3.273 
#    1.636    0.000    0.000    2.727    0.000   12.727 
#    0.000    0.000    0.000    0.000    0.000    0.000 
#
# Total GULP energy -545094.692561 kJ/mol
# GULP energy per Si atom -12388.515740 kJ/mol
# Density = 1.896304 g / cm^3
# Si number density = 19.006303 Si / 1000 Ang^3
#
#
#
# Elastic Constant Matrix: (Units=GPa)
#
#
# Indices 1 2 3 4 5 6 
#
# 1 88.7488 81.9890 29.5527 0.0000 0.0000 0.0000
# 2 81.9890 163.4338 35.6441 0.0000 0.0000 0.0000
# 3 29.5527 35.6441 50.8893 0.0000 0.0000 0.0000
# 4 0.0000 0.0000 0.0000 10.8161 0.0000 0.0000
# 5 0.0000 0.0000 0.0000 0.0000 24.1774 0.0000
# 6 0.0000 0.0000 0.0000 0.0000 0.0000 26.1026
#
#
#
# Elastic Compliance Matrix: (Units=1/GPa)
#
#
# Indices 1 2 3 4 5 6 
#
# 1 0.022493 -0.009956 -0.006089 0.000000 0.000000 0.000000
# 2 -0.009956 0.011629 -0.002363 0.000000 0.000000 0.000000
# 3 -0.006089 -0.002363 0.024842 0.000000 0.000000 0.000000
# 4 0.000000 0.000000 0.000000 0.092455 0.000000 0.000000
# 5 0.000000 0.000000 0.000000 0.000000 0.041361 0.000000
# 6 0.000000 0.000000 0.000000 0.000000 0.000000 0.038310
#
#
# Mechanical properties :
#
#
# Convention : Reuss Voigt Hill
#
# Bulk Modulus (GPa) = 45.15254 66.38262 55.76758
# Shear Modulus (GPa) = 18.16277 22.61163 20.38720
#
# Velocity S-wave (km/s) = 3.09466 3.45293 3.27869
# Velocity P-wave (km/s) = 6.04793 7.13438 6.61350
#
# Compressibility (1/GPa) = 0.02214715
#
# Stress axis : x y z
#
# Youngs Moduli (GPa) = 44.45834 85.99427 40.25479
#
# Poissons Ratio (x) = 0.85616 0.24510
# Poissons Ratio (y) = 0.44263 0.09513
# Poissons Ratio (z) = 0.27070 0.20323
#
# Static dielectric constant tensor:
#      x y z
#    x 3.498440 0.000000 0.000000 
#    y 0.000000 4.053970 0.000000 
#    z 0.000000 0.000000 3.095820 
# 
# 
# High freq. dielectric constant tensor:
#      x y z
#    x 1.733220 0.000000 0.000000 
#    y 0.000000 1.735080 0.000000 
#    z 0.000000 0.000000 1.699380 
# 
# From -- ./inp_files/6195.got.cif
#   From: 2010.03.12/outbox.cif.g09.slc.cpg/sg47_4_cif.got.tgz:6195.got - 2010.04.14 03:12:58.
