data_PCOD8198416
_publ_section_title
;
Structure prediction by ZEFSAII (Michael W. Deem and Ramdas Pophale) SiO2 
 PCOD8198416
Probable space group: P M M M
;
_chemical_formula_sum "Si O2"
_cell_formula_units_Z 52
_cell_length_a 20.279200
_cell_length_b 14.538406
_cell_length_c 9.137539
_cell_angle_alpha 90.000000
_cell_angle_beta 90.000000
_cell_angle_gamma 90.000000
_cell_volume 2693.995431
_symmetry_space_group_name_H-M "P M M M"
_symmetry_group_IT_number 47
_symmetry_cell_setting 'orthorhombic'
loop_
_space_group_symop_operation_xyz
x,y,z
-x,-y,z
x,-y,-z
-x,y,-z
-x,-y,-z
x,y,-z
-x,y,z
x,-y,z
loop_
_atom_site_type_symbol
_atom_site_label
_atom_site_fract_x
_atom_site_fract_y
_atom_site_fract_z
Si Si1 0.576750 0.314357 0.829910
Si Si2 0.927188 0.795693 0.828569
Si Si3 0.318771 0.780362 0.334006
Si Si4 0.578026 0.500000 0.334915
Si Si5 0.889516 0.400352 0.172172
Si Si6 0.806611 0.106358 0.327888
Si Si7 0.759439 0.600364 0.661266
O O1 0.500000 0.294228 0.803779
O O2 0.615444 0.224072 0.765280
O O3 0.599857 0.408139 0.750921
O O4 0.593675 0.324847 0.000000
O O5 0.930230 0.688795 0.775286
O O6 0.871693 0.851910 0.744311
O O7 0.000000 0.837516 0.796232
O O8 0.910377 0.801431 0.000000
O O9 0.336559 0.809948 0.500000
O O10 0.261050 0.846453 0.270727
O O11 0.295816 0.675722 0.324189
O O12 0.500000 0.500000 0.346118
O O13 0.608469 0.500000 0.500000
O O14 0.914905 0.500000 0.235970
O O15 0.814491 0.383226 0.217540
O O16 0.893085 0.406475 0.000000
O O17 0.813030 0.123705 0.500000
O O18 0.802577 0.000000 0.286217
O O19 0.792854 0.606546 0.500000
O O20 0.725647 0.500000 0.683494
#
# Coordination Sequence:
#
# PCOD8198416 Si02
#       7
#     8   8   8   4   8   8   8
#     4  10  21  35  51  77 114 151 187 227 269 318
#     4  10  21  36  55  81 112 145 182 224 271 327
#     4  10  20  34  55  80 105 139 181 224 275 333
#     4   9  17  31  51  75 109 155 198 229 262 309
#     4   9  17  30  49  74 106 144 182 218 258 310
#     4  10  22  41  62  83 107 136 177 231 287 340
#     4   9  17  29  47  73 104 136 173 220 268 313
#
# _framework density 19.302187
#
# number of rings (size 3 to 8) (size 9 to 14) (size 15 to 20)
#    0.000    2.385    1.538    0.692    1.077    4.308 
#    0.000    3.077    0.000    0.462    0.000    6.462 
#    0.000    0.000    0.000    0.000    0.000    0.000 
#
# Total GULP energy -644345.328465 kJ/mol
# GULP energy per Si atom -12391.256317 kJ/mol
# Density = 1.925825 g / cm^3
# Si number density = 19.302187 Si / 1000 Ang^3
#
#
#
# Elastic Constant Matrix: (Units=GPa)
#
#
# Indices 1 2 3 4 5 6 
#
# 1 99.3481 60.9342 45.2546 0.0000 0.0000 0.0000
# 2 60.9342 102.2356 44.8438 0.0000 0.0000 0.0000
# 3 45.2546 44.8438 58.0617 0.0000 0.0000 0.0000
# 4 0.0000 0.0000 0.0000 21.9216 0.0000 0.0000
# 5 0.0000 0.0000 0.0000 0.0000 29.8613 0.0000
# 6 0.0000 0.0000 0.0000 0.0000 0.0000 9.7692
#
#
#
# Elastic Compliance Matrix: (Units=1/GPa)
#
#
# Indices 1 2 3 4 5 6 
#
# 1 0.018488 -0.007106 -0.008922 0.000000 0.000000 0.000000
# 2 -0.007106 0.017524 -0.007996 0.000000 0.000000 0.000000
# 3 -0.008922 -0.007996 0.030353 0.000000 0.000000 0.000000
# 4 0.000000 0.000000 0.000000 0.045617 0.000000 0.000000
# 5 0.000000 0.000000 0.000000 0.000000 0.033488 0.000000
# 6 0.000000 0.000000 0.000000 0.000000 0.000000 0.102363
#
#
# Mechanical properties :
#
#
# Convention : Reuss Voigt Hill
#
# Bulk Modulus (GPa) = 54.59369 62.41228 58.50299
# Shear Modulus (GPa) = 16.55709 19.55126 18.05417
#
# Velocity S-wave (km/s) = 2.93197 3.18607 3.06166
# Velocity P-wave (km/s) = 6.30928 6.77785 6.54776
#
# Compressibility (1/GPa) = 0.01831713
#
# Stress axis : x y z
#
# Youngs Moduli (GPa) = 54.08969 57.06525 32.94598
#
# Poissons Ratio (x) = 0.40549 0.29394
# Poissons Ratio (y) = 0.38434 0.26344
# Poissons Ratio (z) = 0.48258 0.45630
#
# Static dielectric constant tensor:
#      x y z
#    x 3.486050 0.000000 0.000000 
#    y 0.000000 3.642390 0.000000 
#    z 0.000000 0.000000 3.511930 
# 
# 
# High freq. dielectric constant tensor:
#      x y z
#    x 1.749620 0.000000 0.000000 
#    y 0.000000 1.733810 0.000000 
#    z 0.000000 0.000000 1.739660 
# 
# From -- ./inp_files/11025.got.cif
#   From: 2010.03.12/outbox.cif.g09.slc.cpg/sg47_6_cif.got.tgz:11025.got - 2010.04.14 03:12:58.
