data_PCOD8198172
_publ_section_title
;
Structure prediction by ZEFSAII (Michael W. Deem and Ramdas Pophale) SiO2 
 PCOD8198172
Probable space group: P M M M
;
_chemical_formula_sum "Si O2"
_cell_formula_units_Z 48
_cell_length_a 30.993201
_cell_length_b 8.586428
_cell_length_c 8.972726
_cell_angle_alpha 90.000000
_cell_angle_beta 90.000000
_cell_angle_gamma 90.000000
_cell_volume 2387.829819
_symmetry_space_group_name_H-M "P M M M"
_symmetry_group_IT_number 47
_symmetry_cell_setting 'orthorhombic'
loop_
_space_group_symop_operation_xyz
x,y,z
-x,-y,z
x,-y,-z
-x,y,-z
-x,-y,-z
x,y,-z
-x,y,z
x,-y,z
loop_
_atom_site_type_symbol
_atom_site_label
_atom_site_fract_x
_atom_site_fract_y
_atom_site_fract_z
Si Si1 0.415567 0.683730 0.833444
Si Si2 0.500000 0.685931 0.668173
Si Si3 0.665463 0.180742 0.671011
Si Si4 0.828224 0.819307 0.324792
Si Si5 0.000000 0.814032 0.331685
Si Si6 0.084759 0.185094 0.832356
Si Si7 0.253450 0.680266 0.827505
O O1 0.419760 0.500000 0.843461
O O2 0.457757 0.752221 0.751521
O O3 0.373249 0.723067 0.741279
O O4 0.412576 0.754877 0.000000
O O5 0.500000 0.500000 0.667885
O O6 0.500000 0.750604 0.500000
O O7 0.671169 0.231763 0.500000
O O8 0.709388 0.215177 0.756916
O O9 0.654477 0.000000 0.685442
O O10 0.829437 0.791663 0.500000
O O11 0.873227 0.759289 0.257222
O O12 0.791092 0.715311 0.254141
O O13 0.819920 0.000000 0.285722
O O14 0.042267 0.748200 0.248458
O O15 0.000000 0.750698 0.500000
O O16 0.000000 0.000000 0.330552
O O17 0.082607 0.000000 0.834308
O O18 0.086748 0.251552 0.000000
O O19 0.265527 0.500000 0.806369
O O20 0.248752 0.724820 0.000000
#
# Coordination Sequence:
#
# PCOD8198172 Si02
#       7
#     8   4   8   8   4   8   8
#     4  10  20  35  57  85 115 147 185 227 269 316
#     4   9  17  31  54  83 114 149 186 224 268 315
#     4  11  24  40  58  82 111 143 180 222 269 321
#     4  10  20  34  53  78 107 139 176 218 266 319
#     4   9  15  23  37  61  96 135 174 217 262 309
#     4   9  16  26  42  66  98 136 175 215 262 314
#     4  11  24  40  58  81 107 137 176 220 266 319
#
# _framework density 20.101935999999998
#
# number of rings (size 3 to 8) (size 9 to 14) (size 15 to 20)
#    0.000    2.000    0.000    4.000    0.000   12.667 
#    0.000    0.417    0.000    2.500    0.000    0.583 
#    0.000    4.667    0.000    0.000    0.000    0.000 
#
# Total GULP energy -595368.491894 kJ/mol
# GULP energy per Si atom -12403.510248 kJ/mol
# Density = 2.005618 g / cm^3
# Si number density = 20.101936 Si / 1000 Ang^3
#
#
#
# Elastic Constant Matrix: (Units=GPa)
#
#
# Indices 1 2 3 4 5 6 
#
# 1 156.1292 6.9032 67.0927 0.0000 0.0000 0.0000
# 2 6.9032 16.9999 23.0930 0.0000 0.0000 0.0000
# 3 67.0927 23.0930 150.9510 0.0000 0.0000 0.0000
# 4 0.0000 0.0000 0.0000 20.6655 0.0000 0.0000
# 5 0.0000 0.0000 0.0000 0.0000 49.1693 0.0000
# 6 0.0000 0.0000 0.0000 0.0000 0.0000 21.3516
#
#
#
# Elastic Compliance Matrix: (Units=1/GPa)
#
#
# Indices 1 2 3 4 5 6 
#
# 1 0.007970 0.001989 -0.003847 0.000000 0.000000 0.000000
# 2 0.001989 0.074752 -0.012320 0.000000 0.000000 0.000000
# 3 -0.003847 -0.012320 0.010219 0.000000 0.000000 0.000000
# 4 0.000000 0.000000 0.000000 0.048390 0.000000 0.000000
# 5 0.000000 0.000000 0.000000 0.000000 0.020338 0.000000
# 6 0.000000 0.000000 0.000000 0.000000 0.000000 0.046835
#
#
# Mechanical properties :
#
#
# Convention : Reuss Voigt Hill
#
# Bulk Modulus (GPa) = 15.48327 57.58420 36.53374
# Shear Modulus (GPa) = 19.35081 33.37001 26.36041
#
# Velocity S-wave (km/s) = 3.10600 4.07878 3.62517
# Velocity P-wave (km/s) = 4.53675 7.13374 5.97797
#
# Compressibility (1/GPa) = 0.06458582
#
# Stress axis : x y z
#
# Youngs Moduli (GPa) = 125.46996 13.37763 97.85583
#
# Poissons Ratio (x) = -0.02661 0.37642
# Poissons Ratio (y) = -0.24956 1.20556
# Poissons Ratio (z) = 0.48265 0.16481
#
# Static dielectric constant tensor:
#      x y z
#    x 3.899540 0.000000 0.000000 
#    y 0.000000 3.174340 0.000000 
#    z 0.000000 0.000000 3.956850 
# 
# 
# High freq. dielectric constant tensor:
#      x y z
#    x 1.802400 0.000000 0.000000 
#    y 0.000000 1.738000 0.000000 
#    z 0.000000 0.000000 1.806270 
# 
# From -- ./inp_files/13918.got.cif
#   From: 2010.03.12/outbox.cif.g09.slc.cpg/sg47_7_cif.got.tgz:13918.got - 2010.04.14 03:12:58.
