data_PCOD8198617
_publ_section_title
;
Structure prediction by ZEFSAII (Michael W. Deem and Ramdas Pophale) SiO2 
 PCOD8198617
Probable space group: P M M M
;
_chemical_formula_sum "Si O2"
_cell_formula_units_Z 52
_cell_length_a 8.387232
_cell_length_b 19.300955
_cell_length_c 16.136040
_cell_angle_alpha 90.000000
_cell_angle_beta 90.000000
_cell_angle_gamma 90.000000
_cell_volume 2612.127770
_symmetry_space_group_name_H-M "P M M M"
_symmetry_group_IT_number 47
_symmetry_cell_setting 'orthorhombic'
loop_
_space_group_symop_operation_xyz
x,y,z
-x,-y,z
x,-y,-z
-x,y,-z
-x,-y,-z
x,y,-z
-x,y,z
x,-y,z
loop_
_atom_site_type_symbol
_atom_site_label
_atom_site_fract_x
_atom_site_fract_y
_atom_site_fract_z
Si Si1 0.188640 0.847472 0.337327
Si Si2 0.181777 0.705965 0.593085
Si Si3 0.679945 0.423741 0.334972
Si Si4 0.188590 0.921469 0.826917
Si Si5 0.316152 0.081214 0.000000
Si Si6 0.319028 0.918312 0.500000
Si Si7 0.174761 0.579534 0.163210
Si Si8 0.500000 0.422219 0.096628
O O1 0.245386 0.767475 0.347174
O O2 0.259010 0.877873 0.250943
O O3 0.238964 0.892061 0.416038
O O4 0.000000 0.849502 0.334256
O O5 0.197432 0.734674 0.500000
O O6 0.287707 0.636821 0.599547
O O7 0.000000 0.686739 0.614034
O O8 0.500000 0.416738 0.299794
O O9 0.701845 0.500000 0.376434
O O10 0.806565 0.414714 0.261604
O O11 0.241897 0.887725 0.914983
O O12 0.000000 0.921270 0.823741
O O13 0.254903 0.000000 0.819119
O O14 0.500000 0.099766 0.000000
O O15 0.279160 0.000000 0.000000
O O16 0.500000 0.892659 0.500000
O O17 0.302869 0.000000 0.500000
O O18 0.171029 0.500000 0.133501
O O19 0.332862 0.615740 0.122997
O O20 0.000000 0.612919 0.139540
O O21 0.500000 0.500000 0.136468
O O22 0.500000 0.426369 0.000000
#
# Coordination Sequence:
#
# PCOD8198617 Si02
#       8
#     8   8   8   8   4   4   8   4
#     4  10  20  37  57  78 108 148 191 233 277 331
#     4  10  21  37  55  78 108 140 179 229 281 335
#     4  10  20  35  55  78 104 136 179 228 278 340
#     4   9  17  30  52  81 109 142 188 234 274 322
#     4   9  17  29  47  75 113 149 178 223 282 329
#     4  11  23  35  51  79 114 151 190 233 275 320
#     4   9  16  28  47  71 101 135 171 214 264 319
#     4   9  16  26  42  70 107 139 169 209 260 325
#
# _framework density 19.907142
#
# number of rings (size 3 to 8) (size 9 to 14) (size 15 to 20)
#    0.000    2.385    1.538    1.385    0.000    5.231 
#    0.000    4.615    0.000    0.000    2.000    0.000 
#    0.000    0.000    0.000    0.000    0.000    0.000 
#
# Total GULP energy -644318.640690 kJ/mol
# GULP energy per Si atom -12390.743090 kJ/mol
# Density = 1.986183 g / cm^3
# Si number density = 19.907142 Si / 1000 Ang^3
#
#
#
# Elastic Constant Matrix: (Units=GPa)
#
#
# Indices 1 2 3 4 5 6 
#
# 1 91.3271 25.4290 30.5318 0.0000 0.0000 0.0000
# 2 25.4290 85.5605 51.0621 0.0000 0.0000 0.0000
# 3 30.5318 51.0621 130.8283 0.0000 0.0000 0.0000
# 4 0.0000 0.0000 0.0000 19.3768 0.0000 0.0000
# 5 0.0000 0.0000 0.0000 0.0000 20.3669 0.0000
# 6 0.0000 0.0000 0.0000 0.0000 0.0000 16.8872
#
#
#
# Elastic Compliance Matrix: (Units=1/GPa)
#
#
# Indices 1 2 3 4 5 6 
#
# 1 0.012282 -0.002529 -0.001879 0.000000 0.000000 0.000000
# 2 -0.002529 0.015757 -0.005560 0.000000 0.000000 0.000000
# 3 -0.001879 -0.005560 0.010252 0.000000 0.000000 0.000000
# 4 0.000000 0.000000 0.000000 0.051608 0.000000 0.000000
# 5 0.000000 0.000000 0.000000 0.000000 0.049099 0.000000
# 6 0.000000 0.000000 0.000000 0.000000 0.000000 0.059216
#
#
# Mechanical properties :
#
#
# Convention : Reuss Voigt Hill
#
# Bulk Modulus (GPa) = 54.47920 57.97352 56.22636
# Shear Modulus (GPa) = 22.29458 24.70573 23.50015
#
# Velocity S-wave (km/s) = 3.35016 3.52667 3.43955
# Velocity P-wave (km/s) = 6.51083 6.76524 6.63925
#
# Compressibility (1/GPa) = 0.01835563
#
# Stress axis : x y z
#
# Youngs Moduli (GPa) = 81.41978 63.46264 97.53984
#
# Poissons Ratio (x) = 0.16048 0.18331
# Poissons Ratio (y) = 0.20589 0.54231
# Poissons Ratio (z) = 0.15302 0.35285
#
# Static dielectric constant tensor:
#      x y z
#    x 3.744700 0.000000 0.000000 
#    y 0.000000 3.400020 0.000000 
#    z 0.000000 0.000000 3.666230 
# 
# 
# High freq. dielectric constant tensor:
#      x y z
#    x 1.780050 0.000000 0.000000 
#    y 0.000000 1.729640 0.000000 
#    z 0.000000 0.000000 1.773320 
# 
# From -- ./inp_files/21555.got.cif
#   From: 2010.03.12/outbox.cif.g09.slc.cpg/sg47_11_cif.got.tgz:21555.got - 2010.04.14 03:12:58.
