data_PCOD8198128
_publ_section_title
;
Structure prediction by ZEFSAII (Michael W. Deem and Ramdas Pophale) SiO2 
 PCOD8198128
Probable space group: P M M M
;
_chemical_formula_sum "Si O2"
_cell_formula_units_Z 52
_cell_length_a 17.954422
_cell_length_b 17.202449
_cell_length_c 9.296290
_cell_angle_alpha 90.000000
_cell_angle_beta 90.000000
_cell_angle_gamma 90.000000
_cell_volume 2871.252397
_symmetry_space_group_name_H-M "P M M M"
_symmetry_group_IT_number 47
_symmetry_cell_setting 'orthorhombic'
loop_
_space_group_symop_operation_xyz
x,y,z
-x,-y,z
x,-y,-z
-x,y,-z
-x,-y,-z
x,y,-z
-x,y,z
x,-y,z
loop_
_atom_site_type_symbol
_atom_site_label
_atom_site_fract_x
_atom_site_fract_y
_atom_site_fract_z
Si Si1 0.729740 0.823233 0.161382
Si Si2 0.792461 0.347412 0.158500
Si Si3 0.582086 0.746780 0.828941
Si Si4 0.853735 0.092196 0.664835
Si Si5 0.000000 0.907523 0.164868
Si Si6 0.917583 0.587412 0.667522
Si Si7 0.640139 0.414781 0.171073
O O1 0.769215 0.741143 0.153208
O O2 0.645733 0.807490 0.224480
O O3 0.776221 0.878869 0.266089
O O4 0.726588 0.859865 0.000000
O O5 0.862887 0.351584 0.261123
O O6 0.725584 0.400977 0.217998
O O7 0.815344 0.376318 0.000000
O O8 0.500000 0.776436 0.781558
O O9 0.592365 0.658242 0.768162
O O10 0.590084 0.742397 0.000000
O O11 0.859712 0.121643 0.500000
O O12 0.925755 0.123282 0.753556
O O13 0.851921 0.000000 0.669793
O O14 0.000000 0.000000 0.166306
O O15 0.000000 0.876610 0.000000
O O16 0.917669 0.603475 0.500000
O O17 0.891058 0.500000 0.702031
O O18 0.000000 0.601046 0.730068
O O19 0.613843 0.500000 0.230565
O O20 0.634054 0.414952 0.000000
#
# Coordination Sequence:
#
# PCOD8198128 Si02
#       7
#     8   8   8   8   4   8   8
#     4   9  18  32  49  71  98 128 162 199 243 294
#     4   9  17  29  44  63  88 118 154 194 236 285
#     4   8  14  25  42  65  94 127 162 201 244 291
#     4  10  20  34  53  77 103 130 163 200 236 282
#     4   9  17  31  53  79 105 131 156 185 228 279
#     4   9  18  31  44  59  82 114 154 199 242 281
#     4   8  13  21  36  61  91 120 151 191 239 288
#
# _framework density 18.110565000000001
#
# number of rings (size 3 to 8) (size 9 to 14) (size 15 to 20)
#    0.000    3.154    0.000    3.462    0.000    4.000 
#    1.385    2.308    0.000    0.923    0.000    3.231 
#    0.000    0.000    0.000   16.308    0.000   12.308 
#
# Total GULP energy -644298.057865 kJ/mol
# GULP energy per Si atom -12390.347267 kJ/mol
# Density = 1.806934 g / cm^3
# Si number density = 18.110565 Si / 1000 Ang^3
#
#
#
# Elastic Constant Matrix: (Units=GPa)
#
#
# Indices 1 2 3 4 5 6 
#
# 1 134.8096 27.3776 49.1967 0.0000 0.0000 0.0000
# 2 27.3776 24.3800 18.2764 0.0000 0.0000 0.0000
# 3 49.1967 18.2764 62.5231 0.0000 0.0000 0.0000
# 4 0.0000 0.0000 0.0000 17.4395 0.0000 0.0000
# 5 0.0000 0.0000 0.0000 0.0000 -20.2166 0.0000
# 6 0.0000 0.0000 0.0000 0.0000 0.0000 21.1147
#
#
#
# Elastic Compliance Matrix: (Units=1/GPa)
#
#
# Indices 1 2 3 4 5 6 
#
# 1 0.011464 -0.007827 -0.006733 0.000000 0.000000 0.000000
# 2 -0.007827 0.057871 -0.010758 0.000000 0.000000 0.000000
# 3 -0.006733 -0.010758 0.024437 0.000000 0.000000 0.000000
# 4 0.000000 0.000000 0.000000 0.057341 0.000000 0.000000
# 5 0.000000 0.000000 0.000000 0.000000 -0.049464 0.000000
# 6 0.000000 0.000000 0.000000 0.000000 0.000000 0.047360
#
#
# Mechanical properties :
#
#
# Convention : Reuss Voigt Hill
#
# Bulk Modulus (GPa) = 23.18216 45.71268 34.44742
# Shear Modulus (GPa) = 23.36194 12.12500 17.74347
#
# Velocity S-wave (km/s) = 3.59550 2.59027 3.13346
# Velocity P-wave (km/s) = 5.48315 5.85164 5.67039
#
# Compressibility (1/GPa) = 0.04313662
#
# Stress axis : x y z
#
# Youngs Moduli (GPa) = 87.22623 17.27987 40.92198
#
# Poissons Ratio (x) = 0.13524 0.27553
# Poissons Ratio (y) = 0.68269 0.44024
# Poissons Ratio (z) = 0.58730 0.18590
#
# Static dielectric constant tensor:
#      x y z
#    x 3.646480 0.000000 0.000000 
#    y 0.000000 3.189210 0.000000 
#    z 0.000000 0.000000 3.112050 
# 
# 
# High freq. dielectric constant tensor:
#      x y z
#    x 1.705950 0.000000 0.000000 
#    y 0.000000 1.675850 0.000000 
#    z 0.000000 0.000000 1.661880 
# 
# From -- ./inp_files/9558.got.cif
#   From: 2010.03.12/outbox.cif.g09.slc.cpg/sg47_5_cif.got.tgz:9558.got - 2010.04.14 03:12:58.
