data_PCOD8198083
_publ_section_title
;
Structure prediction by ZEFSAII (Michael W. Deem and Ramdas Pophale) SiO2 
 PCOD8198083
Probable space group: P M M M
;
_chemical_formula_sum "Si O2"
_cell_formula_units_Z 52
_cell_length_a 10.309063
_cell_length_b 9.252510
_cell_length_c 30.545587
_cell_angle_alpha 90.000000
_cell_angle_beta 90.000000
_cell_angle_gamma 90.000000
_cell_volume 2913.581912
_symmetry_space_group_name_H-M "P M M M"
_symmetry_group_IT_number 47
_symmetry_cell_setting 'orthorhombic'
loop_
_space_group_symop_operation_xyz
x,y,z
-x,-y,z
x,-y,-z
-x,y,-z
-x,-y,-z
x,y,-z
-x,y,z
x,-y,z
loop_
_atom_site_type_symbol
_atom_site_label
_atom_site_fract_x
_atom_site_fract_y
_atom_site_fract_z
Si Si1 0.348904 0.831507 0.208856
Si Si2 0.000000 0.661754 0.051673
Si Si3 0.353754 0.658480 0.125889
Si Si4 0.846146 0.338867 0.370422
Si Si5 0.746660 0.170357 0.050649
Si Si6 0.154255 0.837787 0.548295
Si Si7 0.851199 0.830977 0.284269
O O1 0.500000 0.795690 0.220411
O O2 0.293535 0.746657 0.166451
O O3 0.251982 0.784206 0.247461
O O4 0.334355 0.000000 0.198241
O O5 0.878017 0.754297 0.067213
O O6 0.000000 0.500000 0.072125
O O7 0.000000 0.649600 0.000000
O O8 0.500000 0.630145 0.139030
O O9 0.286063 0.500000 0.119284
O O10 0.358376 0.754369 0.081508
O O11 0.788676 0.500000 0.366949
O O12 0.786795 0.264588 0.413991
O O13 0.804764 0.250248 0.327740
O O14 0.000000 0.343031 0.374082
O O15 0.754758 0.000000 0.058688
O O16 0.714384 0.203786 0.000000
O O17 0.197158 0.781875 0.500000
O O18 0.000000 0.838831 0.551364
O O19 0.206645 0.000000 0.555810
O O20 0.000000 0.789267 0.270963
O O21 0.842499 0.000000 0.294108
#
# Coordination Sequence:
#
# PCOD8198083 Si02
#       7
#     8   4   8   8   8   8   8
#     4   9  18  34  54  72  93 124 160 198 241 289
#     4   9  17  31  51  73  99 129 159 193 233 275
#     4  10  21  36  53  73  98 128 160 195 239 289
#     4   9  16  24  36  57  86 119 152 190 236 280
#     4  10  20  34  53  76 101 130 163 197 234 279
#     4   8  13  21  33  50  76 114 157 194 229 275
#     4   9  17  30  48  69  93 121 154 193 238 286
#
# _framework density 17.847446999999999
#
# number of rings (size 3 to 8) (size 9 to 14) (size 15 to 20)
#    0.000    2.846    0.000    2.077    0.000    5.846 
#    1.385    3.077    0.000    0.000    0.000    0.000 
#    0.000    0.615    0.000    7.077    0.000    9.077 
#
# Total GULP energy -644387.934891 kJ/mol
# GULP energy per Si atom -12392.075671 kJ/mol
# Density = 1.780683 g / cm^3
# Si number density = 17.847447 Si / 1000 Ang^3
#
#
#
# Elastic Constant Matrix: (Units=GPa)
#
#
# Indices 1 2 3 4 5 6 
#
# 1 39.9282 24.4548 36.4567 0.0000 0.0000 0.0000
# 2 24.4548 114.4448 82.7431 0.0000 0.0000 0.0000
# 3 36.4567 82.7431 149.1566 0.0000 0.0000 0.0000
# 4 0.0000 0.0000 0.0000 24.2775 0.0000 0.0000
# 5 0.0000 0.0000 0.0000 0.0000 10.5284 0.0000
# 6 0.0000 0.0000 0.0000 0.0000 0.0000 15.4564
#
#
#
# Elastic Compliance Matrix: (Units=1/GPa)
#
#
# Indices 1 2 3 4 5 6 
#
# 1 0.032514 -0.002007 -0.006834 0.000000 0.000000 0.000000
# 2 -0.002007 0.014713 -0.007671 0.000000 0.000000 0.000000
# 3 -0.006834 -0.007671 0.012630 0.000000 0.000000 0.000000
# 4 0.000000 0.000000 0.000000 0.041190 0.000000 0.000000
# 5 0.000000 0.000000 0.000000 0.000000 0.094981 0.000000
# 6 0.000000 0.000000 0.000000 0.000000 0.000000 0.064698
#
#
# Mechanical properties :
#
#
# Convention : Reuss Voigt Hill
#
# Bulk Modulus (GPa) = 37.26741 65.64875 51.45808
# Shear Modulus (GPa) = 16.51828 20.71079 18.61454
#
# Velocity S-wave (km/s) = 3.04555 3.41021 3.23302
# Velocity P-wave (km/s) = 5.77006 7.23665 6.54457
#
# Compressibility (1/GPa) = 0.02683310
#
# Stress axis : x y z
#
# Youngs Moduli (GPa) = 30.75632 67.96674 79.17485
#
# Poissons Ratio (x) = 0.13640 0.54105
# Poissons Ratio (y) = 0.06173 0.60738
# Poissons Ratio (z) = 0.21018 0.52140
#
# Static dielectric constant tensor:
#      x y z
#    x 2.966340 0.000000 0.000000 
#    y 0.000000 3.585400 0.000000 
#    z 0.000000 0.000000 3.350340 
# 
# 
# High freq. dielectric constant tensor:
#      x y z
#    x 1.638500 0.000000 0.000000 
#    y 0.000000 1.700630 0.000000 
#    z 0.000000 0.000000 1.691190 
# 
# From -- ./inp_files/4555.got.cif
#   From: 2010.03.12/outbox.cif.g09.slc.cpg/sg47_3_cif.got.tgz:4555.got - 2010.04.14 03:12:58.
