data_PCOD8198020
_publ_section_title
;
Structure prediction by ZEFSAII (Michael W. Deem and Ramdas Pophale) SiO2 
 PCOD8198020
Probable space group: P M M M
;
_chemical_formula_sum "Si O2"
_cell_formula_units_Z 52
_cell_length_a 8.999043
_cell_length_b 11.777376
_cell_length_c 28.354192
_cell_angle_alpha 90.000000
_cell_angle_beta 90.000000
_cell_angle_gamma 90.000000
_cell_volume 3005.122245
_symmetry_space_group_name_H-M "P M M M"
_symmetry_group_IT_number 47
_symmetry_cell_setting 'orthorhombic'
loop_
_space_group_symop_operation_xyz
x,y,z
-x,-y,z
x,-y,-z
-x,y,-z
-x,-y,-z
x,y,-z
-x,y,z
x,-y,z
loop_
_atom_site_type_symbol
_atom_site_label
_atom_site_fract_x
_atom_site_fract_y
_atom_site_fract_z
Si Si1 0.176579 0.500000 0.095004
Si Si2 0.824143 0.267794 0.947983
Si Si3 0.835903 0.134724 0.410098
Si Si4 0.664967 0.135680 0.500000
Si Si5 0.177069 0.500000 0.203114
Si Si6 0.827087 0.132948 0.694900
Si Si7 0.173902 0.868403 0.141584
Si Si8 0.676053 0.730995 0.775843
O O1 0.241444 0.388554 0.069306
O O2 0.229285 0.500000 0.148902
O O3 0.000000 0.500000 0.093157
O O4 0.779932 0.169214 0.911241
O O5 0.000000 0.278089 0.950821
O O6 0.759642 0.238524 0.000000
O O7 0.737938 0.185632 0.452398
O O8 0.776573 0.167658 0.358125
O O9 0.000000 0.185118 0.416881
O O10 0.841491 0.000000 0.413835
O O11 0.500000 0.182474 0.500000
O O12 0.672330 0.000000 0.500000
O O13 0.244916 0.609728 0.228288
O O14 0.000000 0.500000 0.208527
O O15 0.719943 0.199301 0.729697
O O16 0.000000 0.164053 0.703446
O O17 0.803446 0.000000 0.703767
O O18 0.269191 0.796827 0.178017
O O19 0.000000 0.843558 0.150950
O O20 0.211787 0.000000 0.147650
O O21 0.500000 0.716004 0.778278
#
# Coordination Sequence:
#
# PCOD8198020 Si02
#       8
#     4   8   8   4   4   8   8   8
#     4   9  15  27  50  76  98 120 153 199 251 298
#     4   9  16  27  47  77 105 125 157 210 258 291
#     4   8  14  25  41  61  88 126 171 213 249 289
#     4   9  15  21  33  57  91 130 169 208 251 297
#     4  11  21  38  61  77  96 127 163 201 248 301
#     4   9  18  33  52  73  99 135 177 215 252 298
#     4  10  20  34  52  74 101 136 174 205 240 294
#     4  12  24  36  52  76 103 129 163 206 256 305
#
# _framework density 17.303788999999998
#
# number of rings (size 3 to 8) (size 9 to 14) (size 15 to 20)
#    0.000    2.385    1.538    3.462    0.000    5.231 
#    0.000    3.077    0.000    0.462    0.000    2.154 
#    0.000    0.615    0.000    6.462    0.000    4.923 
#
# Total GULP energy -644622.362889 kJ/mol
# GULP energy per Si atom -12396.583902 kJ/mol
# Density = 1.726440 g / cm^3
# Si number density = 17.303789 Si / 1000 Ang^3
#
#
#
# Elastic Constant Matrix: (Units=GPa)
#
#
# Indices 1 2 3 4 5 6 
#
# 1 82.5208 37.5244 52.7640 0.0000 0.0000 0.0000
# 2 37.5244 75.4725 35.7464 0.0000 0.0000 0.0000
# 3 52.7640 35.7464 131.0988 0.0000 0.0000 0.0000
# 4 0.0000 0.0000 0.0000 2.9157 0.0000 0.0000
# 5 0.0000 0.0000 0.0000 0.0000 7.3525 0.0000
# 6 0.0000 0.0000 0.0000 0.0000 0.0000 15.6457
#
#
#
# Elastic Compliance Matrix: (Units=1/GPa)
#
#
# Indices 1 2 3 4 5 6 
#
# 1 0.018818 -0.006625 -0.005768 0.000000 0.000000 0.000000
# 2 -0.006625 0.017547 -0.002118 0.000000 0.000000 0.000000
# 3 -0.005768 -0.002118 0.010527 0.000000 0.000000 0.000000
# 4 0.000000 0.000000 0.000000 0.342971 0.000000 0.000000
# 5 0.000000 0.000000 0.000000 0.000000 0.136008 0.000000
# 6 0.000000 0.000000 0.000000 0.000000 0.000000 0.063915
#
#
# Mechanical properties :
#
#
# Convention : Reuss Voigt Hill
#
# Bulk Modulus (GPa) = 55.95643 60.12909 58.04276
# Shear Modulus (GPa) = 8.00303 16.05328 12.02816
#
# Velocity S-wave (km/s) = 2.15292 3.04917 2.63937
# Velocity P-wave (km/s) = 6.21192 6.87176 6.55016
#
# Compressibility (1/GPa) = 0.01787105
#
# Stress axis : x y z
#
# Youngs Moduli (GPa) = 53.13958 56.99036 94.99637
#
# Poissons Ratio (x) = 0.37754 0.54790
# Poissons Ratio (y) = 0.35203 0.20122
# Poissons Ratio (z) = 0.30649 0.12072
#
# Static dielectric constant tensor:
#      x y z
#    x 3.031320 0.000000 0.000000 
#    y 0.000000 3.042020 0.000000 
#    z 0.000000 0.000000 3.504950 
# 
# 
# High freq. dielectric constant tensor:
#      x y z
#    x 1.640850 0.000000 0.000000 
#    y 0.000000 1.635360 0.000000 
#    z 0.000000 0.000000 1.680920 
# 
# From -- ./inp_files/33354.got.cif
#   From: 2010.03.12/outbox.cif.g09.slc.cpg/sg47_17_cif.got.tgz:33354.got - 2010.04.14 03:12:58.
