data_PCOD8198071
_publ_section_title
;
Structure prediction by ZEFSAII (Michael W. Deem and Ramdas Pophale) SiO2 
 PCOD8198071
Probable space group: P M M M
;
_chemical_formula_sum "Si O2"
_cell_formula_units_Z 52
_cell_length_a 26.737370
_cell_length_b 12.726978
_cell_length_c 9.051820
_cell_angle_alpha 90.000000
_cell_angle_beta 90.000000
_cell_angle_gamma 90.000000
_cell_volume 3080.206894
_symmetry_space_group_name_H-M "P M M M"
_symmetry_group_IT_number 47
_symmetry_cell_setting 'orthorhombic'
loop_
_space_group_symop_operation_xyz
x,y,z
-x,-y,z
x,-y,-z
-x,y,-z
-x,-y,-z
x,y,-z
-x,y,z
x,-y,z
loop_
_atom_site_type_symbol
_atom_site_label
_atom_site_fract_x
_atom_site_fract_y
_atom_site_fract_z
Si Si1 0.393254 0.381274 0.823429
Si Si2 0.882405 0.120704 0.673451
Si Si3 0.780131 0.880679 0.172937
Si Si4 0.941913 0.704892 0.171566
Si Si5 0.290134 0.301539 0.824677
Si Si6 0.228663 0.500000 0.823802
Si Si7 0.115658 0.500000 0.175708
Si Si8 0.500000 0.625274 0.837031
O O1 0.382066 0.500000 0.771006
O O2 0.347373 0.309226 0.765268
O O3 0.447350 0.341125 0.757977
O O4 0.397043 0.378887 0.000000
O O5 0.879279 0.137869 0.500000
O O6 0.829705 0.155659 0.742844
O O7 0.926305 0.191358 0.739750
O O8 0.894306 0.000000 0.714245
O O9 0.734058 0.808353 0.226613
O O10 0.765517 0.000000 0.211904
O O11 0.790747 0.865432 0.000000
O O12 0.912148 0.604156 0.234417
O O13 0.000000 0.683424 0.198255
O O14 0.929830 0.723914 0.000000
O O15 0.256866 0.397207 0.762135
O O16 0.291275 0.310063 0.000000
O O17 0.172113 0.500000 0.762947
O O18 0.227975 0.500000 0.000000
O O19 0.113724 0.500000 0.000000
O O20 0.500000 0.500000 0.849514
O O21 0.500000 0.675672 0.000000
#
# Coordination Sequence:
#
# PCOD8198071 Si02
#       8
#     8   8   8   8   8   4   4   4
#     4   8  11  16  25  43  73 105 139 175 210 248
#     4  10  21  36  52  69  91 119 149 183 225 271
#     4   9  17  29  45  64  85 110 141 176 215 261
#     4  10  20  34  53  75  96 118 147 183 220 259
#     4   9  14  20  33  55  81 105 133 174 216 250
#     4   9  14  19  32  55  80 103 128 162 207 250
#     4   9  17  30  48  70  95 120 145 176 215 260
#     4   7  10  14  22  36  63 107 144 169 203 248
#
# _framework density 16.881983000000002
#
# number of rings (size 3 to 8) (size 9 to 14) (size 15 to 20)
#    0.000    3.000    0.769    2.538    0.000    4.923 
#    0.000    1.923    0.000    0.923    0.000    0.538 
#    0.000    4.308    0.000    0.692    0.000   11.615 
#
# Total GULP energy -644421.255521 kJ/mol
# GULP energy per Si atom -12392.716452 kJ/mol
# Density = 1.684356 g / cm^3
# Si number density = 16.881983 Si / 1000 Ang^3
#
#
#
# Elastic Constant Matrix: (Units=GPa)
#
#
# Indices 1 2 3 4 5 6 
#
# 1 148.6846 60.7460 19.3293 0.0000 0.0000 0.0000
# 2 60.7460 84.3705 16.8979 0.0000 0.0000 0.0000
# 3 19.3293 16.8979 20.4358 0.0000 0.0000 0.0000
# 4 0.0000 0.0000 0.0000 8.9150 0.0000 0.0000
# 5 0.0000 0.0000 0.0000 0.0000 2.5262 0.0000
# 6 0.0000 0.0000 0.0000 0.0000 0.0000 21.4352
#
#
#
# Elastic Compliance Matrix: (Units=1/GPa)
#
#
# Indices 1 2 3 4 5 6 
#
# 1 0.009810 -0.006238 -0.004121 0.000000 0.000000 0.000000
# 2 -0.006238 0.018171 -0.009125 0.000000 0.000000 0.000000
# 3 -0.004121 -0.009125 0.060377 0.000000 0.000000 0.000000
# 4 0.000000 0.000000 0.000000 0.112171 0.000000 0.000000
# 5 0.000000 0.000000 0.000000 0.000000 0.395859 0.000000
# 6 0.000000 0.000000 0.000000 0.000000 0.000000 0.046652
#
#
# Mechanical properties :
#
#
# Convention : Reuss Voigt Hill
#
# Bulk Modulus (GPa) = 20.24698 49.71525 34.98112
# Shear Modulus (GPa) = 7.15849 17.00978 12.08413
#
# Velocity S-wave (km/s) = 2.06144 3.17767 2.67835
# Velocity P-wave (km/s) = 4.20539 6.55561 5.50733
#
# Compressibility (1/GPa) = 0.04939008
#
# Stress axis : x y z
#
# Youngs Moduli (GPa) = 101.93910 55.03224 16.56260
#
# Poissons Ratio (x) = 0.34327 0.06825
# Poissons Ratio (y) = 0.63586 0.15114
# Poissons Ratio (z) = 0.42008 0.50219
#
# Static dielectric constant tensor:
#      x y z
#    x 3.571880 0.000000 0.000000 
#    y 0.000000 3.137620 0.000000 
#    z 0.000000 0.000000 2.619640 
# 
# 
# High freq. dielectric constant tensor:
#      x y z
#    x 1.664880 0.000000 0.000000 
#    y 0.000000 1.634000 0.000000 
#    z 0.000000 0.000000 1.588580 
# 
# From -- ./inp_files/13358.got.cif
#   From: 2010.03.12/outbox.cif.g09.slc.cpg/sg47_7_cif.got.tgz:13358.got - 2010.04.14 03:12:58.
