data_PCOD8198325
_publ_section_title
;
Structure prediction by ZEFSAII (Michael W. Deem and Ramdas Pophale) SiO2 
 PCOD8198325
Probable space group: P M M M
;
_chemical_formula_sum "Si O2"
_cell_formula_units_Z 44
_cell_length_a 31.225668
_cell_length_b 7.743675
_cell_length_c 9.059622
_cell_angle_alpha 90.000000
_cell_angle_beta 90.000000
_cell_angle_gamma 90.000000
_cell_volume 2190.629506
_symmetry_space_group_name_H-M "P M M M"
_symmetry_group_IT_number 47
_symmetry_cell_setting 'orthorhombic'
loop_
_space_group_symop_operation_xyz
x,y,z
-x,-y,z
x,-y,-z
-x,y,-z
-x,-y,-z
x,y,-z
-x,y,z
x,-y,z
loop_
_atom_site_type_symbol
_atom_site_label
_atom_site_fract_x
_atom_site_fract_y
_atom_site_fract_z
Si Si1 0.000000 0.705494 0.666539
Si Si2 0.915711 0.295943 0.830608
Si Si3 0.549994 0.697207 0.170041
Si Si4 0.309897 0.000000 0.174034
Si Si5 0.599315 0.000000 0.325222
Si Si6 0.168430 0.803517 0.665996
Si Si7 0.750862 0.691742 0.167924
O O1 0.957979 0.775437 0.749457
O O2 0.000000 0.500000 0.668934
O O3 0.000000 0.777083 0.500000
O O4 0.911701 0.500000 0.813718
O O5 0.874780 0.209366 0.758074
O O6 0.918440 0.238976 0.000000
O O7 0.500000 0.728023 0.197644
O O8 0.562379 0.500000 0.210305
O O9 0.575867 0.826995 0.272334
O O10 0.561505 0.735191 0.000000
O O11 0.353048 0.000000 0.264717
O O12 0.283805 0.829887 0.223270
O O13 0.319948 0.000000 0.000000
O O14 0.600087 0.000000 0.500000
O O15 0.159952 0.736599 0.500000
O O16 0.206056 0.691699 0.736871
O O17 0.184155 0.000000 0.666574
O O18 0.730562 0.500000 0.180462
O O19 0.763912 0.735636 0.000000
#
# Coordination Sequence:
#
# PCOD8198325 Si02
#       7
#     4   8   8   4   4   8   8
#     4   9  17  31  52  77 108 143 178 222 276 334
#     4  10  20  34  54  80 108 141 183 227 274 332
#     4   9  19  38  64  91 120 161 215 266 307 356
#     4  10  22  41  61  84 118 158 203 252 294 349
#     4  12  25  37  56  89 130 168 203 249 312 375
#     4  11  23  37  55  81 113 146 182 227 283 344
#     4  10  21  39  64  89 111 143 190 242 296 349
#
# _framework density 20.085549
#
# number of rings (size 3 to 8) (size 9 to 14) (size 15 to 20)
#    0.000    1.909    0.909    3.545    0.000    9.091 
#    0.000    3.182    0.000    2.727    0.000    0.000 
#    0.000    0.000    0.000    0.000    0.000    0.000 
#
# Total GULP energy -545731.405967 kJ/mol
# GULP energy per Si atom -12402.986499 kJ/mol
# Density = 2.003983 g / cm^3
# Si number density = 20.085549 Si / 1000 Ang^3
#
#
#
# Elastic Constant Matrix: (Units=GPa)
#
#
# Indices 1 2 3 4 5 6 
#
# 1 134.4522 62.3971 73.0967 0.0000 0.0000 0.0000
# 2 62.3971 107.2004 50.4614 0.0000 0.0000 0.0000
# 3 73.0967 50.4614 137.3127 0.0000 0.0000 0.0000
# 4 0.0000 0.0000 0.0000 22.0678 0.0000 0.0000
# 5 0.0000 0.0000 0.0000 0.0000 -39.4804 0.0000
# 6 0.0000 0.0000 0.0000 0.0000 0.0000 50.0276
#
#
#
# Elastic Compliance Matrix: (Units=1/GPa)
#
#
# Indices 1 2 3 4 5 6 
#
# 1 0.012301 -0.004930 -0.004736 0.000000 0.000000 0.000000
# 2 -0.004930 0.013256 -0.002247 0.000000 0.000000 0.000000
# 3 -0.004736 -0.002247 0.010630 0.000000 0.000000 0.000000
# 4 0.000000 0.000000 0.000000 0.045315 0.000000 0.000000
# 5 0.000000 0.000000 0.000000 0.000000 -0.025329 0.000000
# 6 0.000000 0.000000 0.000000 0.000000 0.000000 0.019989
#
#
# Mechanical properties :
#
#
# Convention : Reuss Voigt Hill
#
# Bulk Modulus (GPa) = 80.91090 83.43065 82.17077
# Shear Modulus (GPa) = 48.02758 19.39034 33.70896
#
# Velocity S-wave (km/s) = 4.89524 3.11044 4.10111
# Velocity P-wave (km/s) = 8.50422 7.38428 7.96396
#
# Compressibility (1/GPa) = 0.01235927
#
# Stress axis : x y z
#
# Youngs Moduli (GPa) = 81.29733 75.43969 94.07698
#
# Poissons Ratio (x) = 0.37193 0.44557
# Poissons Ratio (y) = 0.40081 0.21137
# Poissons Ratio (z) = 0.38504 0.16950
#
# Static dielectric constant tensor:
#      x y z
#    x 3.539830 0.000000 0.000000 
#    y 0.000000 3.642100 0.000000 
#    z 0.000000 0.000000 3.682190 
# 
# 
# High freq. dielectric constant tensor:
#      x y z
#    x 1.779950 0.000000 0.000000 
#    y 0.000000 1.788160 0.000000 
#    z 0.000000 0.000000 1.782950 
# 
# From -- ./inp_files/13771.got.cif
#   From: 2010.03.12/outbox.cif.g09.slc.cpg/sg47_7_cif.got.tgz:13771.got - 2010.04.14 03:12:58.
