data_PCOD8198667
_publ_section_title
;
Structure prediction by ZEFSAII (Michael W. Deem and Ramdas Pophale) SiO2 
 PCOD8198667
Probable space group: P M M M
;
_chemical_formula_sum "Si O2"
_cell_formula_units_Z 52
_cell_length_a 14.191860
_cell_length_b 20.328663
_cell_length_c 9.312366
_cell_angle_alpha 90.000000
_cell_angle_beta 90.000000
_cell_angle_gamma 90.000000
_cell_volume 2686.631925
_symmetry_space_group_name_H-M "P M M M"
_symmetry_group_IT_number 47
_symmetry_cell_setting 'orthorhombic'
loop_
_space_group_symop_operation_xyz
x,y,z
-x,-y,z
x,-y,-z
-x,y,-z
-x,-y,-z
x,y,-z
-x,y,z
x,-y,z
loop_
_atom_site_type_symbol
_atom_site_label
_atom_site_fract_x
_atom_site_fract_y
_atom_site_fract_z
Si Si1 0.709339 0.074296 0.278392
Si Si2 0.397886 0.077396 0.000000
Si Si3 0.391930 0.802865 0.344592
Si Si4 0.278513 0.696796 0.172042
Si Si5 0.105002 0.878249 0.831808
Si Si6 0.395058 0.427642 0.829845
Si Si7 0.894289 0.258252 0.332985
O O1 0.667882 0.130038 0.381651
O O2 0.821567 0.073971 0.248774
O O3 0.681709 0.000000 0.327807
O O4 0.659347 0.100359 0.135728
O O5 0.500000 0.111584 0.000000
O O6 0.408535 0.000000 0.000000
O O7 0.392815 0.766557 0.500000
O O8 0.500000 0.817905 0.296238
O O9 0.340434 0.758451 0.225632
O O10 0.326613 0.629397 0.224936
O O11 0.177548 0.693760 0.251245
O O12 0.267045 0.701592 0.000000
O O13 0.111799 0.809640 0.751404
O O14 0.000000 0.908314 0.815100
O O15 0.130043 0.869594 0.000000
O O16 0.500000 0.414595 0.768672
O O17 0.359386 0.500000 0.778722
O O18 0.399164 0.425666 0.000000
O O19 0.865698 0.248178 0.500000
O O20 0.000000 0.287472 0.322082
#
# Coordination Sequence:
#
# PCOD8198667 Si02
#       7
#     8   4   8   8   8   8   8
#     4  11  22  36  54  76 103 141 184 230 284 339
#     4   9  18  32  49  71  99 133 175 223 275 330
#     4  11  25  41  56  78 110 148 188 232 280 330
#     4  11  21  34  59  91 117 145 185 231 278 327
#     4  10  20  35  56  81 108 139 180 231 286 344
#     4   8  15  30  53  84 122 157 186 219 264 320
#     4  10  21  37  57  80 110 149 188 228 278 333
#
# _framework density 19.355090000000001
#
# number of rings (size 3 to 8) (size 9 to 14) (size 15 to 20)
#    0.000    1.923    2.308    2.308    1.077    3.385 
#    0.000    1.538    0.000    2.308    0.000   11.846 
#    0.000    0.000    0.000    0.000    0.000    0.000 
#
# Total GULP energy -644241.307592 kJ/mol
# GULP energy per Si atom -12389.255915 kJ/mol
# Density = 1.931104 g / cm^3
# Si number density = 19.355090 Si / 1000 Ang^3
#
#
#
# Elastic Constant Matrix: (Units=GPa)
#
#
# Indices 1 2 3 4 5 6 
#
# 1 136.4939 47.5347 29.7028 0.0000 0.0000 0.0000
# 2 47.5347 109.5652 19.1910 0.0000 0.0000 0.0000
# 3 29.7028 19.1910 78.8220 0.0000 0.0000 0.0000
# 4 0.0000 0.0000 0.0000 2.6198 0.0000 0.0000
# 5 0.0000 0.0000 0.0000 0.0000 28.4539 0.0000
# 6 0.0000 0.0000 0.0000 0.0000 0.0000 30.8698
#
#
#
# Elastic Compliance Matrix: (Units=1/GPa)
#
#
# Indices 1 2 3 4 5 6 
#
# 1 0.009106 -0.003499 -0.002580 0.000000 0.000000 0.000000
# 2 -0.003499 0.010878 -0.001330 0.000000 0.000000 0.000000
# 3 -0.002580 -0.001330 0.013983 0.000000 0.000000 0.000000
# 4 0.000000 0.000000 0.000000 0.381711 0.000000 0.000000
# 5 0.000000 0.000000 0.000000 0.000000 0.035145 0.000000
# 6 0.000000 0.000000 0.000000 0.000000 0.000000 0.032394
#
#
# Mechanical properties :
#
#
# Convention : Reuss Voigt Hill
#
# Bulk Modulus (GPa) = 52.21974 57.52644 54.87309
# Shear Modulus (GPa) = 9.91245 27.61888 18.76566
#
# Velocity S-wave (km/s) = 2.26550 3.78161 3.11713
# Velocity P-wave (km/s) = 5.82080 6.98953 6.43177
#
# Compressibility (1/GPa) = 0.01914985
#
# Stress axis : x y z
#
# Youngs Moduli (GPa) = 109.81531 91.92934 71.51685
#
# Poissons Ratio (x) = 0.32165 0.18449
# Poissons Ratio (y) = 0.38423 0.09512
# Poissons Ratio (z) = 0.28328 0.12226
#
# Static dielectric constant tensor:
#      x y z
#    x 3.964320 0.000000 0.000000 
#    y 0.000000 3.388370 0.000000 
#    z 0.000000 0.000000 3.235100 
# 
# 
# High freq. dielectric constant tensor:
#      x y z
#    x 1.764990 0.000000 0.000000 
#    y 0.000000 1.721130 0.000000 
#    z 0.000000 0.000000 1.750440 
# 
# From -- ./inp_files/7085.got.cif
#   From: 2010.03.12/outbox.cif.g09.slc.cpg/sg47_4_cif.got.tgz:7085.got - 2010.04.14 03:12:58.
