data_PCOD8198491
_publ_section_title
;
Structure prediction by ZEFSAII (Michael W. Deem and Ramdas Pophale) SiO2 
 PCOD8198491
Probable space group: P M M M
;
_chemical_formula_sum "Si O2"
_cell_formula_units_Z 44
_cell_length_a 14.210689
_cell_length_b 18.008442
_cell_length_c 8.904037
_cell_angle_alpha 90.000000
_cell_angle_beta 90.000000
_cell_angle_gamma 90.000000
_cell_volume 2278.653199
_symmetry_space_group_name_H-M "P M M M"
_symmetry_group_IT_number 47
_symmetry_cell_setting 'orthorhombic'
loop_
_space_group_symop_operation_xyz
x,y,z
-x,-y,z
x,-y,-z
-x,y,-z
-x,-y,-z
x,y,-z
-x,y,z
x,-y,z
loop_
_atom_site_type_symbol
_atom_site_label
_atom_site_fract_x
_atom_site_fract_y
_atom_site_fract_z
Si Si1 0.104323 0.840936 0.829134
Si Si2 0.608953 0.218817 0.675567
Si Si3 0.894161 0.312683 0.324938
Si Si4 0.713713 0.355613 0.177753
Si Si5 0.605591 0.500000 0.821232
Si Si6 0.705910 0.915960 0.174130
O O1 0.121653 0.772812 0.717935
O O2 0.182995 0.902552 0.795524
O O3 0.000000 0.875434 0.802950
O O4 0.113737 0.811204 0.000000
O O5 0.627907 0.227536 0.500000
O O6 0.500000 0.229357 0.716013
O O7 0.668249 0.280406 0.761960
O O8 0.641254 0.137478 0.727084
O O9 0.874219 0.321558 0.500000
O O10 0.820896 0.363697 0.234554
O O11 0.000000 0.338211 0.283173
O O12 0.657219 0.426614 0.239930
O O13 0.712166 0.352803 0.000000
O O14 0.500000 0.500000 0.756852
O O15 0.605196 0.500000 0.000000
O O16 0.682910 0.000000 0.222119
O O17 0.681881 0.902424 0.000000
#
# Coordination Sequence:
#
# PCOD8198491 Si02
#       6
#     8   8   8   8   4   8
#     4   9  17  31  53  81 112 147 187 230 278 334
#     4  11  24  40  58  81 110 148 193 237 287 346
#     4  10  20  34  55  84 118 154 190 229 275 332
#     4  11  21  37  63  90 116 148 187 233 285 340
#     4   9  20  38  60  89 120 148 183 233 290 341
#     4  10  21  36  55  82 114 149 191 239 289 338
#
# _framework density 19.309653000000001
#
# number of rings (size 3 to 8) (size 9 to 14) (size 15 to 20)
#    0.000    1.909    1.818    2.182    0.000    4.364 
#    0.000    5.909    0.000    6.000    0.000    3.818 
#    0.000    0.000    0.000    0.000    0.000    0.000 
#
# Total GULP energy -545667.223587 kJ/mol
# GULP energy per Si atom -12401.527809 kJ/mol
# Density = 1.926570 g / cm^3
# Si number density = 19.309653 Si / 1000 Ang^3
#
#
#
# Elastic Constant Matrix: (Units=GPa)
#
#
# Indices 1 2 3 4 5 6 
#
# 1 133.3740 57.6688 52.0529 0.0000 0.0000 0.0000
# 2 57.6688 104.0980 33.6911 0.0000 0.0000 0.0000
# 3 52.0529 33.6911 67.8013 0.0000 0.0000 0.0000
# 4 0.0000 0.0000 0.0000 0.8293 0.0000 0.0000
# 5 0.0000 0.0000 0.0000 0.0000 32.2678 0.0000
# 6 0.0000 0.0000 0.0000 0.0000 0.0000 29.2888
#
#
#
# Elastic Compliance Matrix: (Units=1/GPa)
#
#
# Indices 1 2 3 4 5 6 
#
# 1 0.012220 -0.004449 -0.007171 0.000000 0.000000 0.000000
# 2 -0.004449 0.013067 -0.003078 0.000000 0.000000 0.000000
# 3 -0.007171 -0.003078 0.021784 0.000000 0.000000 0.000000
# 4 0.000000 0.000000 0.000000 1.205828 0.000000 0.000000
# 5 0.000000 0.000000 0.000000 0.000000 0.030991 0.000000
# 6 0.000000 0.000000 0.000000 0.000000 0.000000 0.034143
#
#
# Mechanical properties :
#
#
# Convention : Reuss Voigt Hill
#
# Bulk Modulus (GPa) = 56.57456 65.78876 61.18166
# Shear Modulus (GPa) = 3.69462 23.26787 13.48125
#
# Velocity S-wave (km/s) = 1.38474 3.47506 2.64514
# Velocity P-wave (km/s) = 5.64968 7.08842 6.40955
#
# Compressibility (1/GPa) = 0.01767579
#
# Stress axis : x y z
#
# Youngs Moduli (GPa) = 81.83321 76.52877 45.90603
#
# Poissons Ratio (x) = 0.34046 0.32919
# Poissons Ratio (y) = 0.36406 0.14128
# Poissons Ratio (z) = 0.58682 0.23553
#
# Static dielectric constant tensor:
#      x y z
#    x 3.889350 0.000000 0.000000 
#    y 0.000000 3.378890 0.000000 
#    z 0.000000 0.000000 3.444650 
# 
# 
# High freq. dielectric constant tensor:
#      x y z
#    x 1.770440 0.000000 0.000000 
#    y 0.000000 1.731110 0.000000 
#    z 0.000000 0.000000 1.743800 
# 
# From -- ./inp_files/6149.got.cif
#   From: 2010.03.12/outbox.cif.g09.slc.cpg/sg47_4_cif.got.tgz:6149.got - 2010.04.14 03:12:58.
