data_PCOD8198377
_publ_section_title
;
Structure prediction by ZEFSAII (Michael W. Deem and Ramdas Pophale) SiO2 
 PCOD8198377
Probable space group: P M M M
;
_chemical_formula_sum "Si O2"
_cell_formula_units_Z 48
_cell_length_a 8.971947
_cell_length_b 31.003714
_cell_length_c 9.059088
_cell_angle_alpha 90.000000
_cell_angle_beta 90.000000
_cell_angle_gamma 90.000000
_cell_volume 2519.909245
_symmetry_space_group_name_H-M "P M M M"
_symmetry_group_IT_number 47
_symmetry_cell_setting 'orthorhombic'
loop_
_space_group_symop_operation_xyz
x,y,z
-x,-y,z
x,-y,-z
-x,y,-z
-x,-y,-z
x,y,-z
-x,y,z
x,-y,z
loop_
_atom_site_type_symbol
_atom_site_label
_atom_site_fract_x
_atom_site_fract_y
_atom_site_fract_z
Si Si1 0.324152 0.500000 0.339411
Si Si2 0.329872 0.593169 0.676301
Si Si3 0.171967 0.670584 0.827981
Si Si4 0.674530 0.251552 0.669518
Si Si5 0.322820 0.000000 0.666525
Si Si6 0.824850 0.836962 0.331209
Si Si7 0.327809 0.085315 0.172924
O O1 0.500000 0.500000 0.362495
O O2 0.246646 0.500000 0.500000
O O3 0.282152 0.454565 0.260425
O O4 0.314917 0.594040 0.500000
O O5 0.500000 0.604310 0.721763
O O6 0.218221 0.626972 0.746836
O O7 0.269408 0.710026 0.770776
O O8 0.000000 0.680147 0.793316
O O9 0.202405 0.664647 0.000000
O O10 0.714627 0.262237 0.500000
O O11 0.500000 0.245680 0.692315
O O12 0.752568 0.207668 0.721507
O O13 0.263364 0.957411 0.748482
O O14 0.500000 0.000000 0.670873
O O15 0.261145 0.000000 0.500000
O O16 0.779345 0.847306 0.500000
O O17 0.766633 0.874289 0.226072
O O18 0.000000 0.832575 0.312540
O O19 0.500000 0.093046 0.214902
O O20 0.306470 0.078949 0.000000
#
# Coordination Sequence:
#
# PCOD8198377 Si02
#       7
#     4   8   8   8   4   8   8
#     4   7  12  26  50  79 106 130 164 215 266 309
#     4   9  17  32  56  82 105 133 173 219 265 313
#     4  11  24  38  51  73 108 146 179 213 259 314
#     4  10  21  38  61  85 105 131 173 222 268 315
#     4   9  17  31  54  81 108 141 182 228 272 311
#     4  10  21  37  57  81 109 141 176 215 262 316
#     4  10  20  34  54  81 112 145 181 221 266 316
#
# _framework density 19.048304000000002
#
# number of rings (size 3 to 8) (size 9 to 14) (size 15 to 20)
#    0.000    2.333    0.000    3.750    0.000    8.333 
#    0.000    1.250    0.000    6.500    0.000    0.000 
#    0.000    0.000    0.000    0.000    0.000    0.000 
#
# Total GULP energy -595161.196244 kJ/mol
# GULP energy per Si atom -12399.191588 kJ/mol
# Density = 1.900495 g / cm^3
# Si number density = 19.048304 Si / 1000 Ang^3
#
#
#
# Elastic Constant Matrix: (Units=GPa)
#
#
# Indices 1 2 3 4 5 6 
#
# 1 60.3088 43.8202 31.1316 0.0000 0.0000 0.0000
# 2 43.8202 155.6186 51.8716 0.0000 0.0000 0.0000
# 3 31.1316 51.8716 68.3173 0.0000 0.0000 0.0000
# 4 0.0000 0.0000 0.0000 -8.6028 0.0000 0.0000
# 5 0.0000 0.0000 0.0000 0.0000 26.6996 0.0000
# 6 0.0000 0.0000 0.0000 0.0000 0.0000 -10.4434
#
#
#
# Elastic Compliance Matrix: (Units=1/GPa)
#
#
# Indices 1 2 3 4 5 6 
#
# 1 0.023464 -0.004074 -0.007599 0.000000 0.000000 0.000000
# 2 -0.004074 0.009311 -0.005213 0.000000 0.000000 0.000000
# 3 -0.007599 -0.005213 0.022058 0.000000 0.000000 0.000000
# 4 0.000000 0.000000 0.000000 -0.116241 0.000000 0.000000
# 5 0.000000 0.000000 0.000000 0.000000 0.037454 0.000000
# 6 0.000000 0.000000 0.000000 0.000000 0.000000 -0.095754
#
#
# Mechanical properties :
#
#
# Convention : Reuss Voigt Hill
#
# Bulk Modulus (GPa) = 47.48055 59.76572 53.62313
# Shear Modulus (GPa) = -63.35902 12.02543 -25.66680
#
# Velocity S-wave (km/s) = -5.77360 2.51532 -3.67476
# Velocity P-wave (km/s) = 4.41197 6.31504 3.19486
#
# Compressibility (1/GPa) = 0.02106126
#
# Stress axis : x y z
#
# Youngs Moduli (GPa) = 42.61786 107.40192 45.33438
#
# Poissons Ratio (x) = 0.43759 0.34449
# Poissons Ratio (y) = 0.17364 0.23632
# Poissons Ratio (z) = 0.32385 0.55987
#
# Static dielectric constant tensor:
#      x y z
#    x 3.322680 0.000000 0.000000 
#    y 0.000000 3.793410 0.000000 
#    z 0.000000 0.000000 3.368600 
# 
# 
# High freq. dielectric constant tensor:
#      x y z
#    x 1.723910 0.000000 0.000000 
#    y 0.000000 1.761200 0.000000 
#    z 0.000000 0.000000 1.726350 
# 
# From -- ./inp_files/2536.got.cif
#   From: 2010.03.12/outbox.cif.g09.slc.cpg/sg47_2_cif.got.tgz:2536.got - 2010.04.14 03:12:58.
