data_PCOD8198171
_publ_section_title
;
Structure prediction by ZEFSAII (Michael W. Deem and Ramdas Pophale) SiO2 
 PCOD8198171
Probable space group: P M M M
;
_chemical_formula_sum "Si O2"
_cell_formula_units_Z 56
_cell_length_a 8.928088
_cell_length_b 14.163318
_cell_length_c 25.303266
_cell_angle_alpha 90.000000
_cell_angle_beta 90.000000
_cell_angle_gamma 90.000000
_cell_volume 3199.632132
_symmetry_space_group_name_H-M "P M M M"
_symmetry_group_IT_number 47
_symmetry_cell_setting 'orthorhombic'
loop_
_space_group_symop_operation_xyz
x,y,z
-x,-y,z
x,-y,-z
-x,y,-z
-x,-y,-z
x,y,-z
-x,y,z
x,-y,z
loop_
_atom_site_type_symbol
_atom_site_label
_atom_site_fract_x
_atom_site_fract_y
_atom_site_fract_z
Si Si1 0.674868 0.390812 0.752895
Si Si2 0.671645 0.609177 0.060759
Si Si3 0.674978 0.723934 0.351037
Si Si4 0.173621 0.892815 0.695868
Si Si5 0.171566 0.391225 0.560780
Si Si6 0.675666 0.893087 0.192924
Si Si7 0.176051 0.282581 0.848603
O O1 0.500000 0.377623 0.764814
O O2 0.719065 0.500000 0.747938
O O3 0.721614 0.341119 0.698413
O O4 0.764972 0.346039 0.800861
O O5 0.500000 0.629492 0.076686
O O6 0.709458 0.500000 0.070649
O O7 0.781668 0.671549 0.095709
O O8 0.699501 0.636170 0.000000
O O9 0.500000 0.745651 0.351546
O O10 0.764075 0.822918 0.348868
O O11 0.718599 0.672281 0.404816
O O12 0.264514 0.870992 0.748873
O O13 0.000000 0.873120 0.707152
O O14 0.199935 0.000000 0.676606
O O15 0.195604 0.362951 0.500000
O O16 0.214666 0.500000 0.569693
O O17 0.000000 0.373478 0.577599
O O18 0.500000 0.874147 0.193341
O O19 0.753570 0.822219 0.152136
O O20 0.714404 0.000000 0.175767
O O21 0.000000 0.273677 0.843902
#
# Coordination Sequence:
#
# PCOD8198171 Si02
#       7
#     8   8   8   8   8   8   8
#     4  10  21  35  49  70 105 145 179 212 255 310
#     4   9  19  37  59  79 102 139 184 224 262 308
#     4  11  21  33  53  79 107 141 178 217 264 314
#     4  10  20  34  53  78 107 138 174 216 263 316
#     4   9  19  36  56  77 104 141 182 222 265 314
#     4  10  20  35  55  77 103 138 179 219 260 311
#     4  12  23  33  51  79 110 142 174 214 267 318
#
# _framework density 17.502012000000001
#
# number of rings (size 3 to 8) (size 9 to 14) (size 15 to 20)
#    0.000    1.857    1.429    4.286    0.000    6.000 
#    0.000    1.429    0.000    0.857    0.000    6.000 
#    0.000    0.000    0.000    0.000    0.000    0.000 
#
# Total GULP energy -694623.711155 kJ/mol
# GULP energy per Si atom -12403.994842 kJ/mol
# Density = 1.746218 g / cm^3
# Si number density = 17.502012 Si / 1000 Ang^3
#
#
#
# Elastic Constant Matrix: (Units=GPa)
#
#
# Indices 1 2 3 4 5 6 
#
# 1 86.6859 54.8644 40.5440 0.0000 0.0000 0.0000
# 2 54.8644 114.6896 50.7443 0.0000 0.0000 0.0000
# 3 40.5440 50.7443 81.5444 0.0000 0.0000 0.0000
# 4 0.0000 0.0000 0.0000 23.3373 0.0000 0.0000
# 5 0.0000 0.0000 0.0000 0.0000 24.9866 0.0000
# 6 0.0000 0.0000 0.0000 0.0000 0.0000 28.1678
#
#
#
# Elastic Compliance Matrix: (Units=1/GPa)
#
#
# Indices 1 2 3 4 5 6 
#
# 1 0.017870 -0.006372 -0.004920 0.000000 0.000000 0.000000
# 2 -0.006372 0.014304 -0.005733 0.000000 0.000000 0.000000
# 3 -0.004920 -0.005733 0.018277 0.000000 0.000000 0.000000
# 4 0.000000 0.000000 0.000000 0.042850 0.000000 0.000000
# 5 0.000000 0.000000 0.000000 0.000000 0.040021 0.000000
# 6 0.000000 0.000000 0.000000 0.000000 0.000000 0.035502
#
#
# Mechanical properties :
#
#
# Convention : Reuss Voigt Hill
#
# Bulk Modulus (GPa) = 60.97048 63.91392 62.44220
# Shear Modulus (GPa) = 23.99929 24.41616 24.20773
#
# Velocity S-wave (km/s) = 3.70703 3.73909 3.72309
# Velocity P-wave (km/s) = 7.29621 7.43225 7.36454
#
# Compressibility (1/GPa) = 0.01640138
#
# Stress axis : x y z
#
# Youngs Moduli (GPa) = 55.96105 69.91150 54.71326
#
# Poissons Ratio (x) = 0.44544 0.26918
# Poissons Ratio (y) = 0.35656 0.31368
# Poissons Ratio (z) = 0.27532 0.40082
#
# Static dielectric constant tensor:
#      x y z
#    x 3.255090 0.000000 0.000000 
#    y 0.000000 3.404230 0.000000 
#    z 0.000000 0.000000 3.071840 
# 
# 
# High freq. dielectric constant tensor:
#      x y z
#    x 1.683050 0.000000 0.000000 
#    y 0.000000 1.681960 0.000000 
#    z 0.000000 0.000000 1.656040 
# 
# From -- ./inp_files/29710.got.cif
#   From: 2010.03.12/outbox.cif.g09.slc.cpg/sg47_15_cif.got.tgz:29710.got - 2010.04.14 03:12:58.
