data_PCOD8198639
_publ_section_title
;
Structure prediction by ZEFSAII (Michael W. Deem and Ramdas Pophale) SiO2 
 PCOD8198639
Probable space group: P M M M
;
_chemical_formula_sum "Si O2"
_cell_formula_units_Z 48
_cell_length_a 8.792834
_cell_length_b 16.036978
_cell_length_c 16.970194
_cell_angle_alpha 90.000000
_cell_angle_beta 90.000000
_cell_angle_gamma 90.000000
_cell_volume 2392.975294
_symmetry_space_group_name_H-M "P M M M"
_symmetry_group_IT_number 47
_symmetry_cell_setting 'orthorhombic'
loop_
_space_group_symop_operation_xyz
x,y,z
-x,-y,z
x,-y,-z
-x,y,-z
-x,-y,-z
x,y,-z
-x,y,z
x,-y,z
loop_
_atom_site_type_symbol
_atom_site_label
_atom_site_fract_x
_atom_site_fract_y
_atom_site_fract_z
Si Si1 0.181152 0.248844 0.088856
Si Si2 0.679338 0.406969 0.500000
Si Si3 0.823312 0.337919 0.655314
Si Si4 0.680323 0.907765 0.500000
Si Si5 0.179024 0.591083 0.818999
Si Si6 0.320459 0.166454 0.664143
Si Si7 0.823372 0.093140 0.808528
O O1 0.249878 0.331650 0.131701
O O2 0.236943 0.163633 0.130892
O O3 0.000000 0.251791 0.089753
O O4 0.244248 0.247912 0.000000
O O5 0.748567 0.500000 0.500000
O O6 0.500000 0.408794 0.500000
O O7 0.730994 0.359375 0.577492
O O8 0.785626 0.401511 0.725876
O O9 0.771041 0.248830 0.687721
O O10 0.000000 0.337705 0.634015
O O11 0.500000 0.914151 0.500000
O O12 0.736591 0.860245 0.577642
O O13 0.751748 0.000000 0.500000
O O14 0.242808 0.500000 0.846559
O O15 0.000000 0.593614 0.832781
O O16 0.500000 0.182073 0.665689
O O17 0.273600 0.097368 0.728056
O O18 0.000000 0.108563 0.788828
O O19 0.799343 0.000000 0.844282
#
# Coordination Sequence:
#
# PCOD8198639 Si02
#       7
#     8   4   8   4   8   8   8
#     4   9  17  31  52  80 114 146 180 229 287 344
#     4  11  24  39  54  80 118 155 198 246 289 340
#     4  11  21  36  57  80 112 151 194 239 288 341
#     4   9  19  34  50  72 102 135 176 224 267 319
#     4   9  17  30  51  80 112 144 181 229 283 338
#     4  11  21  35  57  81 109 146 189 234 287 342
#     4  10  20  35  55  81 114 149 188 234 284 340
#
# _framework density 20.058712
#
# number of rings (size 3 to 8) (size 9 to 14) (size 15 to 20)
#    0.000    2.000    1.667    2.750    0.000    3.667 
#    0.000    4.583    0.000    3.500    0.000    1.167 
#    0.000    1.333    0.000    0.000    0.000    0.000 
#
# Total GULP energy -595114.647295 kJ/mol
# GULP energy per Si atom -12398.221819 kJ/mol
# Density = 2.001306 g / cm^3
# Si number density = 20.058712 Si / 1000 Ang^3
#
#
#
# Elastic Constant Matrix: (Units=GPa)
#
#
# Indices 1 2 3 4 5 6 
#
# 1 28.6145 15.2602 23.8187 0.0000 0.0000 0.0000
# 2 15.2602 161.6641 64.2296 0.0000 0.0000 0.0000
# 3 23.8187 64.2296 132.6813 0.0000 0.0000 0.0000
# 4 0.0000 0.0000 0.0000 23.9156 0.0000 0.0000
# 5 0.0000 0.0000 0.0000 0.0000 8.6649 0.0000
# 6 0.0000 0.0000 0.0000 0.0000 0.0000 19.7676
#
#
#
# Elastic Compliance Matrix: (Units=1/GPa)
#
#
# Indices 1 2 3 4 5 6 
#
# 1 0.041268 -0.001179 -0.006838 0.000000 0.000000 0.000000
# 2 -0.001179 0.007692 -0.003512 0.000000 0.000000 0.000000
# 3 -0.006838 -0.003512 0.010465 0.000000 0.000000 0.000000
# 4 0.000000 0.000000 0.000000 0.041814 0.000000 0.000000
# 5 0.000000 0.000000 0.000000 0.000000 0.115408 0.000000
# 6 0.000000 0.000000 0.000000 0.000000 0.000000 0.050588
#
#
# Mechanical properties :
#
#
# Convention : Reuss Voigt Hill
#
# Bulk Modulus (GPa) = 27.49723 58.84189 43.16956
# Shear Modulus (GPa) = 16.53367 25.11307 20.82337
#
# Velocity S-wave (km/s) = 2.87411 3.54217 3.22548
# Velocity P-wave (km/s) = 4.97516 6.79174 5.95315
#
# Compressibility (1/GPa) = 0.03636730
#
# Stress axis : x y z
#
# Youngs Moduli (GPa) = 24.23204 129.99963 95.56092
#
# Poissons Ratio (x) = 0.15325 0.65341
# Poissons Ratio (y) = 0.02857 0.33562
# Poissons Ratio (z) = 0.16569 0.45658
#
# Static dielectric constant tensor:
#      x y z
#    x 3.144410 0.000000 0.000000 
#    y 0.000000 3.993730 0.000000 
#    z 0.000000 0.000000 3.667010 
# 
# 
# High freq. dielectric constant tensor:
#      x y z
#    x 1.734720 0.000000 0.000000 
#    y 0.000000 1.801370 0.000000 
#    z 0.000000 0.000000 1.782340 
# 
# From -- ./inp_files/26533.got.cif
#   From: 2010.03.12/outbox.cif.g09.slc.cpg/sg47_14_cif.got.tgz:26533.got - 2010.04.14 03:12:58.
