data_PCOD8198597
_publ_section_title
;
Structure prediction by ZEFSAII (Michael W. Deem and Ramdas Pophale) SiO2 
 PCOD8198597
Probable space group: P M M M
;
_chemical_formula_sum "Si O2"
_cell_formula_units_Z 40
_cell_length_a 7.849912
_cell_length_b 28.865997
_cell_length_c 9.356860
_cell_angle_alpha 90.000000
_cell_angle_beta 90.000000
_cell_angle_gamma 90.000000
_cell_volume 2120.222709
_symmetry_space_group_name_H-M "P M M M"
_symmetry_group_IT_number 47
_symmetry_cell_setting 'orthorhombic'
loop_
_space_group_symop_operation_xyz
x,y,z
-x,-y,z
x,-y,-z
-x,y,-z
-x,-y,-z
x,y,-z
-x,y,z
x,-y,z
loop_
_atom_site_type_symbol
_atom_site_label
_atom_site_fract_x
_atom_site_fract_y
_atom_site_fract_z
Si Si1 0.306194 0.136989 0.838338
Si Si2 0.200050 0.947553 0.337665
Si Si3 0.500000 0.387353 0.671011
Si Si4 0.810894 0.447961 0.330117
Si Si5 0.810093 0.778823 0.335369
Si Si6 0.500000 0.716609 0.330356
O O1 0.500000 0.154243 0.834581
O O2 0.296862 0.086340 0.769085
O O3 0.193743 0.173432 0.751200
O O4 0.237284 0.134317 0.000000
O O5 0.255798 0.936682 0.500000
O O6 0.000000 0.940199 0.320305
O O7 0.251204 0.000000 0.297514
O O8 0.500000 0.387505 0.500000
O O9 0.331701 0.413167 0.731168
O O10 0.500000 0.335254 0.732700
O O11 0.804201 0.447631 0.500000
O O12 0.772166 0.500000 0.275125
O O13 0.000000 0.432277 0.278783
O O14 0.770191 0.790732 0.500000
O O15 0.670574 0.742575 0.275753
O O16 0.000000 0.757317 0.318988
O O17 0.500000 0.714027 0.500000
#
# Coordination Sequence:
#
# PCOD8198597 Si02
#       6
#     8   8   4   8   8   4
#     4  11  23  36  52  76 104 132 165 207 252 299
#     4   9  19  36  56  78 104 134 168 203 243 296
#     4   9  15  22  35  53  77 110 149 198 251 292
#     4   8  13  20  30  47  74 110 152 195 238 287
#     4  10  20  35  55  74  95 128 167 207 255 308
#     4   9  18  31  45  66  92 118 158 212 259 301
#
# _framework density 18.865942
#
# number of rings (size 3 to 8) (size 9 to 14) (size 15 to 20)
#    0.000    2.600    1.000    2.700    0.000    7.200 
#    0.000    7.000    0.000    0.000    0.000    0.000 
#    0.000    0.000    0.000    0.000    0.000    8.000 
#
# Total GULP energy -495916.016868 kJ/mol
# GULP energy per Si atom -12397.900422 kJ/mol
# Density = 1.882300 g / cm^3
# Si number density = 18.865942 Si / 1000 Ang^3
#
#
#
# Elastic Constant Matrix: (Units=GPa)
#
#
# Indices 1 2 3 4 5 6 
#
# 1 125.4980 70.6441 28.8915 0.0000 0.0000 0.0000
# 2 70.6441 138.4078 38.6112 0.0000 0.0000 0.0000
# 3 28.8915 38.6112 54.7418 0.0000 0.0000 0.0000
# 4 0.0000 0.0000 0.0000 1.1488 0.0000 0.0000
# 5 0.0000 0.0000 0.0000 0.0000 13.8298 0.0000
# 6 0.0000 0.0000 0.0000 0.0000 0.0000 26.2249
#
#
#
# Elastic Compliance Matrix: (Units=1/GPa)
#
#
# Indices 1 2 3 4 5 6 
#
# 1 0.011426 -0.005166 -0.002386 0.000000 0.000000 0.000000
# 2 -0.005166 0.011331 -0.005265 0.000000 0.000000 0.000000
# 3 -0.002386 -0.005265 0.023241 0.000000 0.000000 0.000000
# 4 0.000000 0.000000 0.000000 0.870483 0.000000 0.000000
# 5 0.000000 0.000000 0.000000 0.000000 0.072308 0.000000
# 6 0.000000 0.000000 0.000000 0.000000 0.000000 0.038132
#
#
# Mechanical properties :
#
#
# Convention : Reuss Voigt Hill
#
# Bulk Modulus (GPa) = 49.11211 66.10458 57.60834
# Shear Modulus (GPa) = 4.71991 20.27408 12.49699
#
# Velocity S-wave (km/s) = 1.58343 3.28173 2.57653
# Velocity P-wave (km/s) = 5.42510 7.03383 6.28118
#
# Compressibility (1/GPa) = 0.02036158
#
# Stress axis : x y z
#
# Youngs Moduli (GPa) = 87.52261 88.25635 43.02751
#
# Poissons Ratio (x) = 0.45593 0.10268
# Poissons Ratio (y) = 0.45214 0.22656
# Poissons Ratio (z) = 0.20887 0.46470
#
# Static dielectric constant tensor:
#      x y z
#    x 3.626940 0.000000 0.000000 
#    y 0.000000 3.529750 0.000000 
#    z 0.000000 0.000000 2.971030 
# 
# 
# High freq. dielectric constant tensor:
#      x y z
#    x 1.745590 0.000000 0.000000 
#    y 0.000000 1.727700 0.000000 
#    z 0.000000 0.000000 1.674220 
# 
# From -- ./inp_files/1723.got.cif
#   From: 2010.03.12/outbox.cif.g09.slc.cpg/sg47_1_cif.got.tgz:1723.got - 2010.04.14 03:12:58.
