data_PCOD8198804
_publ_section_title
;
Structure prediction by ZEFSAII (Michael W. Deem and Ramdas Pophale) SiO2 
 PCOD8198804
Probable space group: P M M M
;
_chemical_formula_sum "Si O2"
_cell_formula_units_Z 48
_cell_length_a 14.577189
_cell_length_b 14.628420
_cell_length_c 11.940445
_cell_angle_alpha 90.000000
_cell_angle_beta 90.000000
_cell_angle_gamma 90.000000
_cell_volume 2546.195335
_symmetry_space_group_name_H-M "P M M M"
_symmetry_group_IT_number 47
_symmetry_cell_setting 'orthorhombic'
loop_
_space_group_symop_operation_xyz
x,y,z
-x,-y,z
x,-y,-z
-x,y,-z
-x,-y,-z
x,y,-z
-x,y,z
x,-y,z
loop_
_atom_site_type_symbol
_atom_site_label
_atom_site_fract_x
_atom_site_fract_y
_atom_site_fract_z
Si Si1 0.661694 0.600896 0.125988
Si Si2 0.154367 0.598915 0.762971
Si Si3 0.222528 0.103246 0.785108
Si Si4 0.897909 0.345533 0.000000
Si Si5 0.110886 0.855117 0.000000
Si Si6 0.399588 0.796852 0.871413
Si Si7 0.895558 0.775065 0.628297
O O1 0.613614 0.500000 0.137218
O O2 0.736794 0.611581 0.223458
O O3 0.594295 0.686241 0.142369
O O4 0.706667 0.607673 0.000000
O O5 0.131405 0.500000 0.708406
O O6 0.116661 0.596205 0.888972
O O7 0.110981 0.677207 0.688246
O O8 0.317680 0.157426 0.802515
O O9 0.170676 0.150761 0.682495
O O10 0.247541 0.000000 0.750914
O O11 0.154001 0.099038 0.890327
O O12 0.846126 0.247696 0.000000
O O13 0.000000 0.308452 0.000000
O O14 0.000000 0.867689 0.000000
O O15 0.500000 0.832881 0.831433
O O16 0.383690 0.824182 0.000000
O O17 0.866406 0.762309 0.500000
O O18 0.000000 0.809623 0.639507
#
# Coordination Sequence:
#
# PCOD8198804 Si02
#       7
#     8   8   8   4   4   8   8
#     4   9  16  29  52  83 118 153 189 228 276 337
#     4  11  20  33  55  84 119 157 193 234 285 346
#     4  12  24  40  61  85 116 150 193 250 302 355
#     4  11  19  29  49  79 116 151 187 231 281 340
#     4  11  21  35  58  86 116 153 192 237 295 353
#     4  10  20  35  57  88 126 160 188 226 288 363
#     4  11  25  43  61  83 114 155 203 250 296 348
#
# _framework density 18.851656999999999
#
# number of rings (size 3 to 8) (size 9 to 14) (size 15 to 20)
#    0.000    1.333    5.000    1.500    0.000    4.667 
#    0.000    4.167    0.000    0.500    0.000    1.167 
#    0.000    2.667    0.000    0.000    0.000    0.000 
#
# Total GULP energy -594824.205610 kJ/mol
# GULP energy per Si atom -12392.170950 kJ/mol
# Density = 1.880875 g / cm^3
# Si number density = 18.851657 Si / 1000 Ang^3
#
#
#
# Elastic Constant Matrix: (Units=GPa)
#
#
# Indices 1 2 3 4 5 6 
#
# 1 103.6341 41.1764 40.4185 0.0000 0.0000 0.0000
# 2 41.1764 127.3601 32.8237 0.0000 0.0000 0.0000
# 3 40.4185 32.8237 95.0965 0.0000 0.0000 0.0000
# 4 0.0000 0.0000 0.0000 3.9090 0.0000 0.0000
# 5 0.0000 0.0000 0.0000 0.0000 16.0999 0.0000
# 6 0.0000 0.0000 0.0000 0.0000 0.0000 9.4130
#
#
#
# Elastic Compliance Matrix: (Units=1/GPa)
#
#
# Indices 1 2 3 4 5 6 
#
# 1 0.012490 -0.002931 -0.004297 0.000000 0.000000 0.000000
# 2 -0.002931 0.009306 -0.001967 0.000000 0.000000 0.000000
# 3 -0.004297 -0.001967 0.013021 0.000000 0.000000 0.000000
# 4 0.000000 0.000000 0.000000 0.255818 0.000000 0.000000
# 5 0.000000 0.000000 0.000000 0.000000 0.062112 0.000000
# 6 0.000000 0.000000 0.000000 0.000000 0.000000 0.106236
#
#
# Mechanical properties :
#
#
# Convention : Reuss Voigt Hill
#
# Bulk Modulus (GPa) = 60.87030 61.65865 61.26447
# Shear Modulus (GPa) = 10.35526 19.99587 15.17556
#
# Velocity S-wave (km/s) = 2.34626 3.26037 2.84033
# Velocity P-wave (km/s) = 6.30072 6.85212 6.58220
#
# Compressibility (1/GPa) = 0.01642837
#
# Stress axis : x y z
#
# Youngs Moduli (GPa) = 80.06698 107.45708 76.80084
#
# Poissons Ratio (x) = 0.31491 0.33000
# Poissons Ratio (y) = 0.23464 0.15103
# Poissons Ratio (z) = 0.34404 0.21132
#
# Static dielectric constant tensor:
#      x y z
#    x 3.385580 0.000000 0.000000 
#    y 0.000000 3.561900 0.000000 
#    z 0.000000 0.000000 2.990470 
# 
# 
# High freq. dielectric constant tensor:
#      x y z
#    x 1.728260 0.000000 0.000000 
#    y 0.000000 1.744710 0.000000 
#    z 0.000000 0.000000 1.682620 
# 
# From -- ./inp_files/17562.got.cif
#   From: 2010.03.12/outbox.cif.g09.slc.cpg/sg47_9_cif.got.tgz:17562.got - 2010.04.14 03:12:58.
