data_PCOD8198324
_publ_section_title
;
Structure prediction by ZEFSAII (Michael W. Deem and Ramdas Pophale) SiO2 
 PCOD8198324
Probable space group: P M M M
;
_chemical_formula_sum "Si O2"
_cell_formula_units_Z 48
_cell_length_a 8.811512
_cell_length_b 9.353918
_cell_length_c 30.705033
_cell_angle_alpha 90.000000
_cell_angle_beta 90.000000
_cell_angle_gamma 90.000000
_cell_volume 2530.775164
_symmetry_space_group_name_H-M "P M M M"
_symmetry_group_IT_number 47
_symmetry_cell_setting 'orthorhombic'
loop_
_space_group_symop_operation_xyz
x,y,z
-x,-y,z
x,-y,-z
-x,y,-z
-x,-y,-z
x,y,-z
-x,y,z
x,-y,z
loop_
_atom_site_type_symbol
_atom_site_label
_atom_site_fract_x
_atom_site_fract_y
_atom_site_fract_z
Si Si1 0.826337 0.831883 0.255601
Si Si2 0.675849 0.335644 0.667643
Si Si3 0.676729 0.164554 0.834134
Si Si4 0.825840 0.669363 0.911760
Si Si5 0.671117 0.330182 0.000000
Si Si6 0.821983 0.335447 0.422129
Si Si7 0.679049 0.836650 0.500000
O O1 0.724128 0.757008 0.291437
O O2 0.768250 0.784406 0.208267
O O3 0.000000 0.782913 0.260670
O O4 0.807030 0.000000 0.261828
O O5 0.500000 0.310080 0.657534
O O6 0.710912 0.500000 0.678626
O O7 0.770263 0.285349 0.625620
O O8 0.500000 0.188512 0.824999
O O9 0.727730 0.260728 0.874055
O O10 0.713109 0.000000 0.845086
O O11 0.809621 0.500000 0.907807
O O12 0.000000 0.718149 0.908104
O O13 0.759867 0.725396 0.957579
O O14 0.667565 0.500000 0.000000
O O15 0.500000 0.268474 0.000000
O O16 0.775327 0.500000 0.430144
O O17 0.740022 0.238537 0.457108
O O18 0.000000 0.313239 0.426727
O O19 0.500000 0.825373 0.500000
O O20 0.734817 0.000000 0.500000
#
# Coordination Sequence:
#
# PCOD8198324 Si02
#       7
#     8   8   8   8   4   8   4
#     4  10  21  37  57  80 107 142 181 220 267 321
#     4  10  21  37  58  84 112 143 180 222 268 318
#     4  10  21  37  56  78 106 141 180 222 268 318
#     4  10  20  34  54  80 108 139 176 218 265 318
#     4   9  17  31  52  77 106 139 174 216 266 317
#     4  10  21  38  60  84 110 143 182 223 270 322
#     4  11  24  39  56  82 114 147 184 225 268 316
#
# _framework density 18.966522000000001
#
# number of rings (size 3 to 8) (size 9 to 14) (size 15 to 20)
#    0.000    2.000    0.000    3.250    0.000    9.000 
#    0.000    0.417    0.000    2.500    0.000    0.000 
#    0.000    0.000    0.000    0.000    0.000    0.000 
#
# Total GULP energy -595433.270814 kJ/mol
# GULP energy per Si atom -12404.859809 kJ/mol
# Density = 1.892335 g / cm^3
# Si number density = 18.966522 Si / 1000 Ang^3
#
#
#
# Elastic Constant Matrix: (Units=GPa)
#
#
# Indices 1 2 3 4 5 6 
#
# 1 66.2218 28.8894 23.7976 0.0000 0.0000 0.0000
# 2 28.8894 51.6845 50.4410 0.0000 0.0000 0.0000
# 3 23.7976 50.4410 123.5052 0.0000 0.0000 0.0000
# 4 0.0000 0.0000 0.0000 47.5992 0.0000 0.0000
# 5 0.0000 0.0000 0.0000 0.0000 44.9223 0.0000
# 6 0.0000 0.0000 0.0000 0.0000 0.0000 29.3991
#
#
#
# Elastic Compliance Matrix: (Units=1/GPa)
#
#
# Indices 1 2 3 4 5 6 
#
# 1 0.020075 -0.012381 0.001188 0.000000 0.000000 0.000000
# 2 -0.012381 0.039807 -0.013872 0.000000 0.000000 0.000000
# 3 0.001188 -0.013872 0.013533 0.000000 0.000000 0.000000
# 4 0.000000 0.000000 0.000000 0.021009 0.000000 0.000000
# 5 0.000000 0.000000 0.000000 0.000000 0.022261 0.000000
# 6 0.000000 0.000000 0.000000 0.000000 0.000000 0.034015
#
#
# Mechanical properties :
#
#
# Convention : Reuss Voigt Hill
#
# Bulk Modulus (GPa) = 42.94399 49.74083 46.34241
# Shear Modulus (GPa) = 23.97053 33.60301 28.78677
#
# Velocity S-wave (km/s) = 3.55890 4.21372 3.90008
# Velocity P-wave (km/s) = 6.29117 7.06799 6.69086
#
# Compressibility (1/GPa) = 0.02328615
#
# Stress axis : x y z
#
# Youngs Moduli (GPa) = 49.81356 25.12149 73.89184
#
# Poissons Ratio (x) = 0.31102 -0.08781
# Poissons Ratio (y) = 0.61673 1.02502
# Poissons Ratio (z) = -0.05919 0.34848
#
# Static dielectric constant tensor:
#      x y z
#    x 3.665360 0.000000 0.000000 
#    y 0.000000 3.334480 0.000000 
#    z 0.000000 0.000000 3.579280 
# 
# 
# High freq. dielectric constant tensor:
#      x y z
#    x 1.756100 0.000000 0.000000 
#    y 0.000000 1.719200 0.000000 
#    z 0.000000 0.000000 1.751130 
# 
# From -- ./inp_files/2592.got.cif
#   From: 2010.03.12/outbox.cif.g09.slc.cpg/sg47_2_cif.got.tgz:2592.got - 2010.04.14 03:12:58.
