data_PCOD8198358
_publ_section_title
;
Structure prediction by ZEFSAII (Michael W. Deem and Ramdas Pophale) SiO2 
 PCOD8198358
Probable space group: P M M M
;
_chemical_formula_sum "Si O2"
_cell_formula_units_Z 52
_cell_length_a 14.509224
_cell_length_b 8.914864
_cell_length_c 20.547379
_cell_angle_alpha 90.000000
_cell_angle_beta 90.000000
_cell_angle_gamma 90.000000
_cell_volume 2657.757421
_symmetry_space_group_name_H-M "P M M M"
_symmetry_group_IT_number 47
_symmetry_cell_setting 'orthorhombic'
loop_
_space_group_symop_operation_xyz
x,y,z
-x,-y,z
x,-y,-z
-x,y,-z
-x,-y,-z
x,y,-z
-x,y,z
x,-y,z
loop_
_atom_site_type_symbol
_atom_site_label
_atom_site_fract_x
_atom_site_fract_y
_atom_site_fract_z
Si Si1 0.189078 0.322698 0.573554
Si Si2 0.898597 0.331374 0.100299
Si Si3 0.102384 0.668219 0.745922
Si Si4 0.000000 0.828515 0.577407
Si Si5 0.396007 0.178932 0.194531
Si Si6 0.285057 0.175813 0.928820
Si Si7 0.269475 0.174687 0.311361
O O1 0.208469 0.267438 0.500000
O O2 0.183372 0.500000 0.576551
O O3 0.092535 0.256467 0.601397
O O4 0.272283 0.262519 0.619492
O O5 0.880426 0.500000 0.075648
O O6 0.895671 0.326526 0.177274
O O7 0.820592 0.226509 0.070914
O O8 0.000000 0.277376 0.076431
O O9 0.131096 0.500000 0.722168
O O10 0.170698 0.794755 0.720565
O O11 0.000000 0.707403 0.720079
O O12 0.000000 0.823008 0.500000
O O13 0.000000 0.000000 0.602751
O O14 0.500000 0.240750 0.194438
O O15 0.344381 0.246925 0.130598
O O16 0.347394 0.234269 0.261241
O O17 0.394186 0.000000 0.192049
O O18 0.285427 0.000000 0.918640
O O19 0.327882 0.217586 0.000000
O O20 0.282122 0.000000 0.325500
#
# Coordination Sequence:
#
# PCOD8198358 Si02
#       7
#     8   8   8   4   8   8   8
#     4  10  21  36  53  75 109 151 187 219 262 318
#     4   9  18  33  52  74 105 147 187 220 259 313
#     4   9  18  32  50  73 104 142 181 220 263 317
#     4   9  17  31  51  77 111 149 190 229 260 301
#     4   9  19  37  58  81 108 136 173 224 282 338
#     4  10  20  34  54  81 110 140 178 224 272 321
#     4  11  21  33  55  82 107 139 179 227 275 319
#
# _framework density 19.565366999999998
#
# number of rings (size 3 to 8) (size 9 to 14) (size 15 to 20)
#    0.000    2.385    1.538    2.077    1.077    3.385 
#    0.000    4.615    0.000    4.615    0.000    4.308 
#    0.000    0.000    0.000    0.000    0.000    0.000 
#
# Total GULP energy -644520.111229 kJ/mol
# GULP energy per Si atom -12394.617524 kJ/mol
# Density = 1.952084 g / cm^3
# Si number density = 19.565367 Si / 1000 Ang^3
#
#
#
# Elastic Constant Matrix: (Units=GPa)
#
#
# Indices 1 2 3 4 5 6 
#
# 1 113.9446 21.2051 70.2050 0.0000 0.0000 0.0000
# 2 21.2051 30.8699 24.0504 0.0000 0.0000 0.0000
# 3 70.2050 24.0504 123.7411 0.0000 0.0000 0.0000
# 4 0.0000 0.0000 0.0000 19.3844 0.0000 0.0000
# 5 0.0000 0.0000 0.0000 0.0000 -6.9445 0.0000
# 6 0.0000 0.0000 0.0000 0.0000 0.0000 8.3629
#
#
#
# Elastic Compliance Matrix: (Units=1/GPa)
#
#
# Indices 1 2 3 4 5 6 
#
# 1 0.013902 -0.004012 -0.007108 0.000000 0.000000 0.000000
# 2 -0.004012 0.039332 -0.005368 0.000000 0.000000 0.000000
# 3 -0.007108 -0.005368 0.013157 0.000000 0.000000 0.000000
# 4 0.000000 0.000000 0.000000 0.051588 0.000000 0.000000
# 5 0.000000 0.000000 0.000000 0.000000 -0.143999 0.000000
# 6 0.000000 0.000000 0.000000 0.000000 0.000000 0.119575
#
#
# Mechanical properties :
#
#
# Convention : Reuss Voigt Hill
#
# Bulk Modulus (GPa) = 29.92613 55.49742 42.71178
# Shear Modulus (GPa) = 36.31864 14.36691 25.34277
#
# Velocity S-wave (km/s) = 4.31312 2.71274 3.60291
# Velocity P-wave (km/s) = 6.33504 6.18374 6.25985
#
# Compressibility (1/GPa) = 0.03341561
#
# Stress axis : x y z
#
# Youngs Moduli (GPa) = 71.93161 25.42429 76.00336
#
# Poissons Ratio (x) = 0.10201 0.54020
# Poissons Ratio (y) = 0.28860 0.40801
# Poissons Ratio (z) = 0.51126 0.13649
#
# Static dielectric constant tensor:
#      x y z
#    x 3.587740 0.000000 0.000000 
#    y 0.000000 3.369380 0.000000 
#    z 0.000000 0.000000 3.953740 
# 
# 
# High freq. dielectric constant tensor:
#      x y z
#    x 1.729150 0.000000 0.000000 
#    y 0.000000 1.737870 0.000000 
#    z 0.000000 0.000000 1.784170 
# 
# From -- ./inp_files/30872.got.cif
#   From: 2010.03.12/outbox.cif.g09.slc.cpg/sg47_16_cif.got.tgz:30872.got - 2010.04.14 03:12:58.
