data_PCOD8198359
_publ_section_title
;
Structure prediction by ZEFSAII (Michael W. Deem and Ramdas Pophale) SiO2 
 PCOD8198359
Probable space group: P M M M
;
_chemical_formula_sum "Si O2"
_cell_formula_units_Z 52
_cell_length_a 8.919737
_cell_length_b 14.078565
_cell_length_c 22.954008
_cell_angle_alpha 90.000000
_cell_angle_beta 90.000000
_cell_angle_gamma 90.000000
_cell_volume 2882.497692
_symmetry_space_group_name_H-M "P M M M"
_symmetry_group_IT_number 47
_symmetry_cell_setting 'orthorhombic'
loop_
_space_group_symop_operation_xyz
x,y,z
-x,-y,z
x,-y,-z
-x,y,-z
-x,-y,-z
x,y,-z
-x,y,z
x,-y,z
loop_
_atom_site_type_symbol
_atom_site_label
_atom_site_fract_x
_atom_site_fract_y
_atom_site_fract_z
Si Si1 0.177299 0.785159 0.614122
Si Si2 0.674495 0.775461 0.164481
Si Si3 0.178283 0.106687 0.500000
Si Si4 0.173510 0.391947 0.780165
Si Si5 0.171943 0.890855 0.067066
Si Si6 0.673680 0.889652 0.279674
Si Si7 0.676182 0.392629 0.342281
O O1 0.237826 0.839544 0.557204
O O2 0.226177 0.842351 0.670938
O O3 0.246990 0.679457 0.612679
O O4 0.000000 0.775959 0.613417
O O5 0.500000 0.751385 0.162757
O O6 0.765664 0.676961 0.169573
O O7 0.720002 0.825165 0.104673
O O8 0.716232 0.844416 0.217834
O O9 0.000000 0.103400 0.500000
O O10 0.244032 0.000000 0.500000
O O11 0.199221 0.500000 0.800829
O O12 0.265877 0.369172 0.722067
O O13 0.000000 0.371819 0.767067
O O14 0.000000 0.874406 0.085638
O O15 0.217311 0.000000 0.077180
O O16 0.195383 0.862747 0.000000
O O17 0.500000 0.872556 0.294939
O O18 0.713917 0.000000 0.276137
O O19 0.500000 0.375958 0.342532
O O20 0.718667 0.500000 0.360637
#
# Coordination Sequence:
#
# PCOD8198359 Si02
#       7
#     8   8   4   8   8   8   8
#     4  11  21  35  57  80 104 139 181 225 272 321
#     4  11  21  33  53  81 113 146 179 219 272 326
#     4   9  20  38  56  77 106 140 181 225 268 321
#     4  10  20  34  54  81 110 141 180 222 266 321
#     4   9  19  36  56  78 108 148 191 231 269 314
#     4  10  21  35  50  74 110 144 175 217 268 321
#     4  10  20  35  55  79 109 142 174 215 270 327
#
# _framework density 18.039909999999999
#
# number of rings (size 3 to 8) (size 9 to 14) (size 15 to 20)
#    0.000    1.923    1.538    3.231    0.000    4.615 
#    0.000    2.692    0.000    5.538    0.000    3.231 
#    0.000    0.000    0.000    0.000    0.000    0.000 
#
# Total GULP energy -644998.029303 kJ/mol
# GULP energy per Si atom -12403.808256 kJ/mol
# Density = 1.799885 g / cm^3
# Si number density = 18.039910 Si / 1000 Ang^3
#
#
#
# Elastic Constant Matrix: (Units=GPa)
#
#
# Indices 1 2 3 4 5 6 
#
# 1 69.3017 47.7293 36.4336 0.0000 0.0000 0.0000
# 2 47.7293 134.1989 57.2581 0.0000 0.0000 0.0000
# 3 36.4336 57.2581 91.3703 0.0000 0.0000 0.0000
# 4 0.0000 0.0000 0.0000 31.1210 0.0000 0.0000
# 5 0.0000 0.0000 0.0000 0.0000 10.7652 0.0000
# 6 0.0000 0.0000 0.0000 0.0000 0.0000 32.4022
#
#
#
# Elastic Compliance Matrix: (Units=1/GPa)
#
#
# Indices 1 2 3 4 5 6 
#
# 1 0.020632 -0.005225 -0.004953 0.000000 0.000000 0.000000
# 2 -0.005225 0.011494 -0.005120 0.000000 0.000000 0.000000
# 3 -0.004953 -0.005120 0.016128 0.000000 0.000000 0.000000
# 4 0.000000 0.000000 0.000000 0.032133 0.000000 0.000000
# 5 0.000000 0.000000 0.000000 0.000000 0.092892 0.000000
# 6 0.000000 0.000000 0.000000 0.000000 0.000000 0.030862
#
#
# Mechanical properties :
#
#
# Convention : Reuss Voigt Hill
#
# Bulk Modulus (GPa) = 56.62686 64.19033 60.40860
# Shear Modulus (GPa) = 20.77956 25.08767 22.93361
#
# Velocity S-wave (km/s) = 3.39760 3.73322 3.56936
# Velocity P-wave (km/s) = 6.84467 7.36493 7.10956
#
# Compressibility (1/GPa) = 0.01765946
#
# Stress axis : x y z
#
# Youngs Moduli (GPa) = 48.46877 87.00003 62.00549
#
# Poissons Ratio (x) = 0.45456 0.30709
# Poissons Ratio (y) = 0.25324 0.31744
# Poissons Ratio (z) = 0.24005 0.44541
#
# Static dielectric constant tensor:
#      x y z
#    x 3.281040 0.000000 0.000000 
#    y 0.000000 3.558100 0.000000 
#    z 0.000000 0.000000 3.175570 
# 
# 
# High freq. dielectric constant tensor:
#      x y z
#    x 1.700900 0.000000 0.000000 
#    y 0.000000 1.710880 0.000000 
#    z 0.000000 0.000000 1.677630 
# 
# From -- ./inp_files/6914.got.cif
#   From: 2010.03.12/outbox.cif.g09.slc.cpg/sg47_4_cif.got.tgz:6914.got - 2010.04.14 03:12:58.
