data_PCOD8198151
_publ_section_title
;
Structure prediction by ZEFSAII (Michael W. Deem and Ramdas Pophale) SiO2 
 PCOD8198151
Probable space group: P M M M
;
_chemical_formula_sum "Si O2"
_cell_formula_units_Z 40
_cell_length_a 9.320839
_cell_length_b 27.071838
_cell_length_c 7.904030
_cell_angle_alpha 90.000000
_cell_angle_beta 90.000000
_cell_angle_gamma 90.000000
_cell_volume 1994.441622
_symmetry_space_group_name_H-M "P M M M"
_symmetry_group_IT_number 47
_symmetry_cell_setting 'orthorhombic'
loop_
_space_group_symop_operation_xyz
x,y,z
-x,-y,z
x,-y,-z
-x,y,-z
-x,-y,-z
x,y,-z
-x,y,z
x,-y,z
loop_
_atom_site_type_symbol
_atom_site_label
_atom_site_fract_x
_atom_site_fract_y
_atom_site_fract_z
Si Si1 0.165183 0.558349 0.000000
Si Si2 0.157353 0.194780 0.195072
Si Si3 0.669873 0.000000 0.808764
Si Si4 0.337782 0.895290 0.694395
Si Si5 0.667318 0.606647 0.692207
Si Si6 0.663937 0.714228 0.197544
O O1 0.239763 0.577122 0.171528
O O2 0.176856 0.500000 0.000000
O O3 0.000000 0.576098 0.000000
O O4 0.240359 0.143413 0.208518
O O5 0.243321 0.240801 0.275697
O O6 0.000000 0.190467 0.280919
O O7 0.139648 0.207031 0.000000
O O8 0.727471 0.049673 0.719073
O O9 0.500000 0.000000 0.793914
O O10 0.724814 0.000000 0.000000
O O11 0.336072 0.880846 0.500000
O O12 0.500000 0.892732 0.767648
O O13 0.702439 0.588917 0.500000
O O14 0.500000 0.597937 0.734881
O O15 0.704546 0.664586 0.703351
O O16 0.500000 0.729306 0.228792
O O17 0.693646 0.704648 0.000000
#
# Coordination Sequence:
#
# PCOD8198151 Si02
#       6
#     4   8   4   8   8   8
#     4  11  25  43  63  89 127 171 209 250 301 360
#     4  10  21  35  52  78 112 148 186 227 273 330
#     4   9  17  31  54  79 100 127 170 224 278 333
#     4  10  20  34  53  77 105 137 176 224 277 332
#     4  10  21  39  65  95 124 157 204 259 310 361
#     4   9  17  33  57  84 116 152 191 237 290 346
#
# _framework density 20.05574
#
# number of rings (size 3 to 8) (size 9 to 14) (size 15 to 20)
#    0.000    2.200    1.000    1.800    0.000    6.800 
#    0.000    4.500    0.000    3.000    0.000    0.000 
#    0.000    0.000    0.000    0.000    0.000    0.000 
#
# Total GULP energy -495923.613838 kJ/mol
# GULP energy per Si atom -12398.090346 kJ/mol
# Density = 2.001009 g / cm^3
# Si number density = 20.055740 Si / 1000 Ang^3
#
#
#
# Elastic Constant Matrix: (Units=GPa)
#
#
# Indices 1 2 3 4 5 6 
#
# 1 114.2113 70.8210 43.6595 0.0000 0.0000 0.0000
# 2 70.8210 114.9298 40.4898 0.0000 0.0000 0.0000
# 3 43.6595 40.4898 79.0863 0.0000 0.0000 0.0000
# 4 0.0000 0.0000 0.0000 11.1495 0.0000 0.0000
# 5 0.0000 0.0000 0.0000 0.0000 15.7312 0.0000
# 6 0.0000 0.0000 0.0000 0.0000 0.0000 6.8466
#
#
#
# Elastic Compliance Matrix: (Units=1/GPa)
#
#
# Indices 1 2 3 4 5 6 
#
# 1 0.015344 -0.007895 -0.004429 0.000000 0.000000 0.000000
# 2 -0.007895 0.014678 -0.003156 0.000000 0.000000 0.000000
# 3 -0.004429 -0.003156 0.016705 0.000000 0.000000 0.000000
# 4 0.000000 0.000000 0.000000 0.089690 0.000000 0.000000
# 5 0.000000 0.000000 0.000000 0.000000 0.063568 0.000000
# 6 0.000000 0.000000 0.000000 0.000000 0.000000 0.146057
#
#
# Mechanical properties :
#
#
# Convention : Reuss Voigt Hill
#
# Bulk Modulus (GPa) = 63.42215 68.68532 66.05374
# Shear Modulus (GPa) = 13.08014 16.96260 15.02137
#
# Velocity S-wave (km/s) = 2.55657 2.91137 2.73972
# Velocity P-wave (km/s) = 6.35660 6.75448 6.55856
#
# Compressibility (1/GPa) = 0.01576736
#
# Stress axis : x y z
#
# Youngs Moduli (GPa) = 65.17067 68.12952 59.86163
#
# Poissons Ratio (x) = 0.53789 0.26511
# Poissons Ratio (y) = 0.51453 0.18893
# Poissons Ratio (z) = 0.28863 0.21503
#
# Static dielectric constant tensor:
#      x y z
#    x 3.710200 0.000000 0.000000 
#    y 0.000000 3.685300 0.000000 
#    z 0.000000 0.000000 3.550370 
# 
# 
# High freq. dielectric constant tensor:
#      x y z
#    x 1.762300 0.000000 0.000000 
#    y 0.000000 1.789130 0.000000 
#    z 0.000000 0.000000 1.776660 
# 
# From -- ./inp_files/1741.got.cif
#   From: 2010.03.12/outbox.cif.g09.slc.cpg/sg47_1_cif.got.tgz:1741.got - 2010.04.14 03:12:58.
