data_PCOD8198626
_publ_section_title
;
Structure prediction by ZEFSAII (Michael W. Deem and Ramdas Pophale) SiO2 
 PCOD8198626
Probable space group: P M M M
;
_chemical_formula_sum "Si O2"
_cell_formula_units_Z 56
_cell_length_a 20.256244
_cell_length_b 15.407843
_cell_length_c 9.226449
_cell_angle_alpha 90.000000
_cell_angle_beta 90.000000
_cell_angle_gamma 90.000000
_cell_volume 2879.621117
_symmetry_space_group_name_H-M "P M M M"
_symmetry_group_IT_number 47
_symmetry_cell_setting 'orthorhombic'
loop_
_space_group_symop_operation_xyz
x,y,z
-x,-y,z
x,-y,-z
-x,y,-z
-x,-y,-z
x,y,-z
-x,y,z
x,-y,z
loop_
_atom_site_type_symbol
_atom_site_label
_atom_site_fract_x
_atom_site_fract_y
_atom_site_fract_z
Si Si1 0.426411 0.168056 0.667383
Si Si2 0.573318 0.500000 0.347177
Si Si3 0.605486 0.337087 0.839582
Si Si4 0.712482 0.095956 0.329218
Si Si5 0.923128 0.169540 0.830030
Si Si6 0.749040 0.600728 0.161019
Si Si7 0.922169 0.000000 0.661835
Si Si8 0.809654 0.749192 0.672154
O O1 0.417622 0.195291 0.500000
O O2 0.500000 0.125345 0.690301
O O3 0.422286 0.252421 0.764452
O O4 0.365151 0.106681 0.714019
O O5 0.500000 0.500000 0.400893
O O6 0.615247 0.500000 0.500000
O O7 0.584068 0.582821 0.252521
O O8 0.683884 0.341314 0.848281
O O9 0.574597 0.341777 0.000000
O O10 0.719194 0.096507 0.500000
O O11 0.758497 0.175398 0.271378
O O12 0.734803 0.000000 0.270211
O O13 0.879831 0.242630 0.753064
O O14 0.000000 0.189066 0.801648
O O15 0.898576 0.082158 0.752255
O O16 0.908112 0.162732 0.000000
O O17 0.736610 0.500000 0.208657
O O18 0.790525 0.651308 0.282393
O O19 0.782085 0.601756 0.000000
O O20 0.889928 0.000000 0.500000
O O21 0.000000 0.000000 0.646273
O O22 0.818426 0.753211 0.500000
#
# Coordination Sequence:
#
# PCOD8198626 Si02
#       8
#     8   4   8   8   8   8   4   8
#     4  10  20  35  55  78 107 146 194 245 294 343
#     4  11  23  35  49  73 105 139 176 223 282 347
#     4  11  21  35  54  77 106 142 182 229 287 349
#     4   9  19  35  54  81 115 150 194 244 291 340
#     4  10  21  37  57  84 121 163 201 238 287 349
#     4  10  21  39  60  82 111 148 189 236 291 355
#     4   9  17  31  53  83 119 157 198 241 282 331
#     4  11  22  36  60  89 118 154 192 241 295 344
#
# _framework density 19.447002000000001
#
# number of rings (size 3 to 8) (size 9 to 14) (size 15 to 20)
#    0.000    1.857    2.143    2.143    1.000    5.429 
#    0.000    1.429    0.000    2.571    0.000    4.000 
#    0.000    0.000    0.000    0.000    0.000    0.000 
#
# Total GULP energy -693781.509037 kJ/mol
# GULP energy per Si atom -12388.955519 kJ/mol
# Density = 1.940274 g / cm^3
# Si number density = 19.447002 Si / 1000 Ang^3
#
#
#
# Elastic Constant Matrix: (Units=GPa)
#
#
# Indices 1 2 3 4 5 6 
#
# 1 78.8261 23.7685 35.1592 0.0000 0.0000 0.0000
# 2 23.7685 76.9891 27.6194 0.0000 0.0000 0.0000
# 3 35.1592 27.6194 100.7922 0.0000 0.0000 0.0000
# 4 0.0000 0.0000 0.0000 32.6299 0.0000 0.0000
# 5 0.0000 0.0000 0.0000 0.0000 24.5212 0.0000
# 6 0.0000 0.0000 0.0000 0.0000 0.0000 29.7925
#
#
#
# Elastic Compliance Matrix: (Units=1/GPa)
#
#
# Indices 1 2 3 4 5 6 
#
# 1 0.015703 -0.003197 -0.004601 0.000000 0.000000 0.000000
# 2 -0.003197 0.015056 -0.003010 0.000000 0.000000 0.000000
# 3 -0.004601 -0.003010 0.012351 0.000000 0.000000 0.000000
# 4 0.000000 0.000000 0.000000 0.030647 0.000000 0.000000
# 5 0.000000 0.000000 0.000000 0.000000 0.040781 0.000000
# 6 0.000000 0.000000 0.000000 0.000000 0.000000 0.033565
#
#
# Mechanical properties :
#
#
# Convention : Reuss Voigt Hill
#
# Bulk Modulus (GPa) = 46.52888 47.74461 47.13674
# Shear Modulus (GPa) = 28.26697 28.72608 28.49652
#
# Velocity S-wave (km/s) = 3.81667 3.84754 3.83213
# Velocity P-wave (km/s) = 6.58791 6.65902 6.62356
#
# Compressibility (1/GPa) = 0.02149203
#
# Stress axis : x y z
#
# Youngs Moduli (GPa) = 63.68391 66.41943 80.96219
#
# Poissons Ratio (x) = 0.21235 0.37254
# Poissons Ratio (y) = 0.20360 0.24373
# Poissons Ratio (z) = 0.29304 0.19995
#
# Static dielectric constant tensor:
#      x y z
#    x 3.633570 0.000000 0.000000 
#    y 0.000000 3.408230 0.000000 
#    z 0.000000 0.000000 3.600040 
# 
# 
# High freq. dielectric constant tensor:
#      x y z
#    x 1.748920 0.000000 0.000000 
#    y 0.000000 1.743160 0.000000 
#    z 0.000000 0.000000 1.755080 
# 
# From -- ./inp_files/11302.got.cif
#   From: 2010.03.12/outbox.cif.g09.slc.cpg/sg47_6_cif.got.tgz:11302.got - 2010.04.14 03:12:58.
