data_PCOD8198842
_publ_section_title
;
Structure prediction by ZEFSAII (Michael W. Deem and Ramdas Pophale) SiO2 
 PCOD8198842
Probable space group: P M M M
;
_chemical_formula_sum "Si O2"
_cell_formula_units_Z 48
_cell_length_a 7.961187
_cell_length_b 15.533959
_cell_length_c 18.809035
_cell_angle_alpha 90.000000
_cell_angle_beta 90.000000
_cell_angle_gamma 90.000000
_cell_volume 2326.089893
_symmetry_space_group_name_H-M "P M M M"
_symmetry_group_IT_number 47
_symmetry_cell_setting 'orthorhombic'
loop_
_space_group_symop_operation_xyz
x,y,z
-x,-y,z
x,-y,-z
-x,y,-z
-x,-y,-z
x,y,-z
-x,y,z
x,-y,z
loop_
_atom_site_type_symbol
_atom_site_label
_atom_site_fract_x
_atom_site_fract_y
_atom_site_fract_z
Si Si1 0.185712 0.835451 0.669495
Si Si2 0.299978 0.500000 0.420198
Si Si3 0.801209 0.242525 0.080283
Si Si4 0.500000 0.101411 0.580837
Si Si5 0.692210 0.350685 0.680465
Si Si6 0.692232 0.097107 0.185434
Si Si7 0.195189 0.404164 0.829154
O O1 0.329556 0.865671 0.616314
O O2 0.194169 0.733475 0.680267
O O3 0.197902 0.879878 0.746233
O O4 0.000000 0.858090 0.638936
O O5 0.500000 0.500000 0.419638
O O6 0.227019 0.500000 0.500000
O O7 0.235923 0.415066 0.379517
O O8 0.725198 0.160906 0.120516
O O9 0.741030 0.332376 0.115247
O O10 0.000000 0.235272 0.082145
O O11 0.732553 0.240885 0.000000
O O12 0.500000 0.134531 0.500000
O O13 0.500000 0.000000 0.586138
O O14 0.500000 0.324965 0.664357
O O15 0.700803 0.396075 0.756788
O O16 0.500000 0.105301 0.209816
O O17 0.734859 0.000000 0.160344
O O18 0.226289 0.500000 0.861037
O O19 0.000000 0.389926 0.811598
#
# Coordination Sequence:
#
# PCOD8198842 Si02
#       7
#     8   4   8   4   8   8   8
#     4  12  24  42  69  99 131 171 222 269 319 388
#     4   9  20  36  57  89 128 170 212 258 319 384
#     4  10  22  39  59  88 126 170 219 268 324 392
#     4  11  26  48  70  97 134 170 211 269 332 388
#     4  11  20  36  61  91 124 167 213 264 318 380
#     4  11  23  40  64  94 127 165 213 268 328 392
#     4  10  20  35  58  87 122 164 214 268 322 386
#
# _framework density 20.635487999999999
#
# number of rings (size 3 to 8) (size 9 to 14) (size 15 to 20)
#    0.000    1.333    4.167    1.500    0.000    4.333 
#    0.000    4.167    0.000    3.500    0.000    2.333 
#    0.000    0.000    0.000    0.000    0.000    0.000 
#
# Total GULP energy -595314.975836 kJ/mol
# GULP energy per Si atom -12402.395330 kJ/mol
# Density = 2.058852 g / cm^3
# Si number density = 20.635488 Si / 1000 Ang^3
#
#
#
# Elastic Constant Matrix: (Units=GPa)
#
#
# Indices 1 2 3 4 5 6 
#
# 1 92.3397 35.3589 42.4635 0.0000 0.0000 0.0000
# 2 35.3589 164.5261 77.3319 0.0000 0.0000 0.0000
# 3 42.4635 77.3319 144.1183 0.0000 0.0000 0.0000
# 4 0.0000 0.0000 0.0000 58.0667 0.0000 0.0000
# 5 0.0000 0.0000 0.0000 0.0000 18.5351 0.0000
# 6 0.0000 0.0000 0.0000 0.0000 0.0000 20.2195
#
#
#
# Elastic Compliance Matrix: (Units=1/GPa)
#
#
# Indices 1 2 3 4 5 6 
#
# 1 0.012732 -0.001301 -0.003053 0.000000 0.000000 0.000000
# 2 -0.001301 0.008261 -0.004049 0.000000 0.000000 0.000000
# 3 -0.003053 -0.004049 0.010011 0.000000 0.000000 0.000000
# 4 0.000000 0.000000 0.000000 0.017222 0.000000 0.000000
# 5 0.000000 0.000000 0.000000 0.000000 0.053952 0.000000
# 6 0.000000 0.000000 0.000000 0.000000 0.000000 0.049457
#
#
# Mechanical properties :
#
#
# Convention : Reuss Voigt Hill
#
# Bulk Modulus (GPa) = 70.43921 79.03250 74.73586
# Shear Modulus (GPa) = 28.87266 35.75292 32.31279
#
# Velocity S-wave (km/s) = 3.74461 4.16696 3.96142
# Velocity P-wave (km/s) = 7.27360 7.84435 7.56436
#
# Compressibility (1/GPa) = 0.01419664
#
# Stress axis : x y z
#
# Youngs Moduli (GPa) = 78.54316 121.05043 99.88838
#
# Poissons Ratio (x) = 0.15751 0.30498
# Poissons Ratio (y) = 0.10220 0.40448
# Poissons Ratio (z) = 0.23981 0.49018
#
# Static dielectric constant tensor:
#      x y z
#    x 3.620050 0.000000 0.000000 
#    y 0.000000 3.949700 0.000000 
#    z 0.000000 0.000000 3.763110 
# 
# 
# High freq. dielectric constant tensor:
#      x y z
#    x 1.800660 0.000000 0.000000 
#    y 0.000000 1.823420 0.000000 
#    z 0.000000 0.000000 1.794130 
# 
# From -- ./inp_files/26566.got.cif
#   From: 2010.03.12/outbox.cif.g09.slc.cpg/sg47_14_cif.got.tgz:26566.got - 2010.04.14 03:12:58.
