data_PCOD8198829
_publ_section_title
;
Structure prediction by ZEFSAII (Michael W. Deem and Ramdas Pophale) SiO2 
 PCOD8198829
Probable space group: P M M M
;
_chemical_formula_sum "Si O2"
_cell_formula_units_Z 44
_cell_length_a 30.184073
_cell_length_b 9.146330
_cell_length_c 8.011160
_cell_angle_alpha 90.000000
_cell_angle_beta 90.000000
_cell_angle_gamma 90.000000
_cell_volume 2211.668919
_symmetry_space_group_name_H-M "P M M M"
_symmetry_group_IT_number 47
_symmetry_cell_setting 'orthorhombic'
loop_
_space_group_symop_operation_xyz
x,y,z
-x,-y,z
x,-y,-z
-x,y,-z
-x,-y,-z
x,y,-z
-x,y,z
x,-y,z
loop_
_atom_site_type_symbol
_atom_site_label
_atom_site_fract_x
_atom_site_fract_y
_atom_site_fract_z
Si Si1 0.893020 0.169844 0.312794
Si Si2 0.950441 0.826355 0.000000
Si Si3 0.639865 0.337488 0.693088
Si Si4 0.275698 0.832954 0.698238
Si Si5 0.810069 0.667491 0.191777
Si Si6 0.452499 0.671716 0.806885
O O1 0.913078 0.193162 0.500000
O O2 0.926400 0.228948 0.169676
O O3 0.846983 0.255565 0.304445
O O4 0.882671 0.000000 0.280971
O O5 0.000000 0.760639 0.000000
O O6 0.952382 0.000000 0.000000
O O7 0.649050 0.354309 0.500000
O O8 0.641907 0.500000 0.776725
O O9 0.678184 0.234393 0.767395
O O10 0.591411 0.262656 0.719840
O O11 0.271497 0.820139 0.500000
O O12 0.236629 0.744759 0.784289
O O13 0.273493 0.000000 0.757299
O O14 0.805595 0.500000 0.248831
O O15 0.824787 0.680416 0.000000
O O16 0.500000 0.735110 0.738612
O O17 0.452879 0.500000 0.773063
O O18 0.448866 0.709007 0.000000
#
# Coordination Sequence:
#
# PCOD8198829 Si02
#       6
#     8   4   8   8   8   8
#     4  10  20  35  58  86 116 153 193 233 281 332
#     4   9  18  34  57  87 123 157 191 237 282 323
#     4   9  17  29  46  69  97 127 162 208 258 309
#     4  10  21  36  53  74 102 137 175 215 265 324
#     4  11  23  37  55  80 109 142 182 227 275 328
#     4   8  14  25  42  65  92 121 155 199 251 305
#
# _framework density 19.894479
#
# number of rings (size 3 to 8) (size 9 to 14) (size 15 to 20)
#    0.000    2.455    0.909    2.182    0.000    6.182 
#    0.000    5.455    0.000    1.636    0.000    5.091 
#    0.000    0.000    0.000    0.000    0.000    0.000 
#
# Total GULP energy -545342.802833 kJ/mol
# GULP energy per Si atom -12394.154610 kJ/mol
# Density = 1.984920 g / cm^3
# Si number density = 19.894479 Si / 1000 Ang^3
#
#
#
# Elastic Constant Matrix: (Units=GPa)
#
#
# Indices 1 2 3 4 5 6 
#
# 1 163.2024 52.1552 48.3019 0.0000 0.0000 0.0000
# 2 52.1552 80.4827 27.5172 0.0000 0.0000 0.0000
# 3 48.3019 27.5172 74.1123 0.0000 0.0000 0.0000
# 4 0.0000 0.0000 0.0000 16.8971 0.0000 0.0000
# 5 0.0000 0.0000 0.0000 0.0000 30.8551 0.0000
# 6 0.0000 0.0000 0.0000 0.0000 0.0000 23.9592
#
#
#
# Elastic Compliance Matrix: (Units=1/GPa)
#
#
# Indices 1 2 3 4 5 6 
#
# 1 0.008691 -0.004233 -0.004093 0.000000 0.000000 0.000000
# 2 -0.004233 0.016293 -0.003291 0.000000 0.000000 0.000000
# 3 -0.004093 -0.003291 0.017382 0.000000 0.000000 0.000000
# 4 0.000000 0.000000 0.000000 0.059182 0.000000 0.000000
# 5 0.000000 0.000000 0.000000 0.000000 0.032410 0.000000
# 6 0.000000 0.000000 0.000000 0.000000 0.000000 0.041738
#
#
# Mechanical properties :
#
#
# Convention : Reuss Voigt Hill
#
# Bulk Modulus (GPa) = 52.26340 63.74956 58.00648
# Shear Modulus (GPa) = 24.35377 26.99715 25.67546
#
# Velocity S-wave (km/s) = 3.50258 3.68777 3.59636
# Velocity P-wave (km/s) = 6.53336 7.08846 6.81656
#
# Compressibility (1/GPa) = 0.01913385
#
# Stress axis : x y z
#
# Youngs Moduli (GPa) = 115.05560 61.37519 57.52958
#
# Poissons Ratio (x) = 0.25980 0.23546
# Poissons Ratio (y) = 0.48702 0.18931
# Poissons Ratio (z) = 0.47091 0.20197
#
# Static dielectric constant tensor:
#      x y z
#    x 3.847390 0.000000 0.000000 
#    y 0.000000 3.401650 0.000000 
#    z 0.000000 0.000000 3.537310 
# 
# 
# High freq. dielectric constant tensor:
#      x y z
#    x 1.786790 0.000000 0.000000 
#    y 0.000000 1.735170 0.000000 
#    z 0.000000 0.000000 1.768740 
# 
# From -- ./inp_files/13674.got.cif
#   From: 2010.03.12/outbox.cif.g09.slc.cpg/sg47_7_cif.got.tgz:13674.got - 2010.04.14 03:12:58.
