data_PCOD8198465
_publ_section_title
;
Structure prediction by ZEFSAII (Michael W. Deem and Ramdas Pophale) SiO2 
 PCOD8198465
Probable space group: P M M M
;
_chemical_formula_sum "Si O2"
_cell_formula_units_Z 48
_cell_length_a 32.140323
_cell_length_b 8.066383
_cell_length_c 9.538575
_cell_angle_alpha 90.000000
_cell_angle_beta 90.000000
_cell_angle_gamma 90.000000
_cell_volume 2472.934279
_symmetry_space_group_name_H-M "P M M M"
_symmetry_group_IT_number 47
_symmetry_cell_setting 'orthorhombic'
loop_
_space_group_symop_operation_xyz
x,y,z
-x,-y,z
x,-y,-z
-x,y,-z
-x,-y,-z
x,y,-z
-x,y,z
x,-y,z
loop_
_atom_site_type_symbol
_atom_site_label
_atom_site_fract_x
_atom_site_fract_y
_atom_site_fract_z
Si Si1 0.000000 0.697536 0.158911
Si Si2 0.239717 0.689356 0.156070
Si Si3 0.453456 0.000000 0.333605
Si Si4 0.672864 0.188987 0.837961
Si Si5 0.077059 0.303683 0.340356
Si Si6 0.166422 0.808537 0.659872
Si Si7 0.599869 0.313649 0.662846
O O1 0.959417 0.764390 0.240336
O O2 0.000000 0.500000 0.159663
O O3 0.000000 0.766181 0.000000
O O4 0.253695 0.500000 0.153451
O O5 0.279448 0.790984 0.213370
O O6 0.199735 0.706918 0.252881
O O7 0.227834 0.751772 0.000000
O O8 0.431182 0.169687 0.281104
O O9 0.500000 0.000000 0.270578
O O10 0.455219 0.000000 0.500000
O O11 0.643038 0.304009 0.746158
O O12 0.659033 0.000000 0.815974
O O13 0.669320 0.243612 0.000000
O O14 0.067910 0.246244 0.500000
O O15 0.080317 0.500000 0.332070
O O16 0.120057 0.226664 0.283755
O O17 0.169205 0.747109 0.500000
O O18 0.177242 0.000000 0.675138
O O19 0.609649 0.283111 0.500000
O O20 0.581115 0.500000 0.685511
#
# Coordination Sequence:
#
# PCOD8198465 Si02
#       7
#     4   8   4   8   8   8   8
#     4   9  17  29  48  75 100 122 158 207 254 301
#     4  10  21  36  54  77 104 136 176 219 263 315
#     4   9  18  34  55  81 115 149 183 231 285 334
#     4  10  20  35  56  80 108 145 184 223 272 326
#     4   9  17  31  51  72  96 128 164 203 250 305
#     4  10  21  36  53  75 103 136 173 213 260 312
#     4  10  20  34  55  83 112 145 186 230 278 331
#
# _framework density 19.410139000000001
#
# number of rings (size 3 to 8) (size 9 to 14) (size 15 to 20)
#    0.000    2.333    0.833    1.750    0.000    5.667 
#    0.000    3.750    0.000    3.500    0.000    1.167 
#    0.000    0.000    0.000    0.000    0.000    0.000 
#
# Total GULP energy -595200.730510 kJ/mol
# GULP energy per Si atom -12400.015219 kJ/mol
# Density = 1.936596 g / cm^3
# Si number density = 19.410139 Si / 1000 Ang^3
#
#
#
# Elastic Constant Matrix: (Units=GPa)
#
#
# Indices 1 2 3 4 5 6 
#
# 1 140.6368 41.5312 60.6901 0.0000 0.0000 0.0000
# 2 41.5312 79.4379 26.8533 0.0000 0.0000 0.0000
# 3 60.6901 26.8533 69.1825 0.0000 0.0000 0.0000
# 4 0.0000 0.0000 0.0000 19.3757 0.0000 0.0000
# 5 0.0000 0.0000 0.0000 0.0000 10.9924 0.0000
# 6 0.0000 0.0000 0.0000 0.0000 0.0000 29.2787
#
#
#
# Elastic Compliance Matrix: (Units=1/GPa)
#
#
# Indices 1 2 3 4 5 6 
#
# 1 0.012090 -0.003149 -0.009383 0.000000 0.000000 0.000000
# 2 -0.003149 0.015310 -0.003180 0.000000 0.000000 0.000000
# 3 -0.009383 -0.003180 0.023921 0.000000 0.000000 0.000000
# 4 0.000000 0.000000 0.000000 0.051611 0.000000 0.000000
# 5 0.000000 0.000000 0.000000 0.000000 0.090972 0.000000
# 6 0.000000 0.000000 0.000000 0.000000 0.000000 0.034154
#
#
# Mechanical properties :
#
#
# Convention : Reuss Voigt Hill
#
# Bulk Modulus (GPa) = 50.26380 60.82293 55.54337
# Shear Modulus (GPa) = 18.78898 22.60823 20.69861
#
# Velocity S-wave (km/s) = 3.11464 3.41657 3.26909
# Velocity P-wave (km/s) = 6.23591 6.85329 6.55187
#
# Compressibility (1/GPa) = 0.01989503
#
# Stress axis : x y z
#
# Youngs Moduli (GPa) = 82.71550 65.31815 41.80503
#
# Poissons Ratio (x) = 0.20566 0.39227
# Poissons Ratio (y) = 0.26044 0.13296
# Poissons Ratio (z) = 0.77616 0.20774
#
# Static dielectric constant tensor:
#      x y z
#    x 3.532740 0.000000 0.000000 
#    y 0.000000 3.499940 0.000000 
#    z 0.000000 0.000000 3.425220 
# 
# 
# High freq. dielectric constant tensor:
#      x y z
#    x 1.754370 0.000000 0.000000 
#    y 0.000000 1.755820 0.000000 
#    z 0.000000 0.000000 1.735530 
# 
# From -- ./inp_files/13937.got.cif
#   From: 2010.03.12/outbox.cif.g09.slc.cpg/sg47_7_cif.got.tgz:13937.got - 2010.04.14 03:12:58.
