data_PCOD8198310
_publ_section_title
;
Structure prediction by ZEFSAII (Michael W. Deem and Ramdas Pophale) SiO2 
 PCOD8198310
Probable space group: P M M M
;
_chemical_formula_sum "Si O2"
_cell_formula_units_Z 48
_cell_length_a 30.902870
_cell_length_b 9.358947
_cell_length_c 9.123431
_cell_angle_alpha 90.000000
_cell_angle_beta 90.000000
_cell_angle_gamma 90.000000
_cell_volume 2638.663409
_symmetry_space_group_name_H-M "P M M M"
_symmetry_group_IT_number 47
_symmetry_cell_setting 'orthorhombic'
loop_
_space_group_symop_operation_xyz
x,y,z
-x,-y,z
x,-y,-z
-x,y,-z
-x,-y,-z
x,y,-z
-x,y,z
x,-y,z
loop_
_atom_site_type_symbol
_atom_site_label
_atom_site_fract_x
_atom_site_fract_y
_atom_site_fract_z
Si Si1 0.500000 0.669696 0.334360
Si Si2 0.177926 0.667400 0.669453
Si Si3 0.081469 0.330439 0.662093
Si Si4 0.000000 0.329189 0.163047
Si Si5 0.414462 0.668490 0.170202
Si Si6 0.338542 0.167154 0.670513
Si Si7 0.748671 0.833810 0.831086
O O1 0.500000 0.500000 0.336629
O O2 0.500000 0.730965 0.500000
O O3 0.457796 0.725280 0.249069
O O4 0.185709 0.709988 0.500000
O O5 0.185541 0.500000 0.691038
O O6 0.129302 0.711663 0.718788
O O7 0.209832 0.749823 0.775702
O O8 0.074355 0.267617 0.500000
O O9 0.078182 0.500000 0.656288
O O10 0.043461 0.266995 0.762766
O O11 0.000000 0.500000 0.168441
O O12 0.000000 0.269747 0.000000
O O13 0.408731 0.500000 0.191960
O O14 0.374389 0.745651 0.243679
O O15 0.417255 0.709752 0.000000
O O16 0.339685 0.208308 0.500000
O O17 0.292466 0.213655 0.735644
O O18 0.346995 0.000000 0.695631
O O19 0.758313 0.000000 0.809851
O O20 0.739504 0.795589 0.000000
#
# Coordination Sequence:
#
# PCOD8198310 Si02
#       7
#     4   8   8   4   8   8   8
#     4   9  17  31  52  77 106 139 172 206 244 287
#     4   9  18  32  50  73  99 127 162 204 247 290
#     4   8  14  25  40  59  87 122 156 191 234 283
#     4   9  15  21  33  57  88 121 156 191 230 280
#     4  10  20  34  54  80 108 137 169 205 247 295
#     4  10  21  37  56  76  99 130 168 209 251 294
#     4  10  21  36  53  73  98 130 166 202 245 299
#
# _framework density 18.191026000000001
#
# number of rings (size 3 to 8) (size 9 to 14) (size 15 to 20)
#    0.000    2.667    0.000    3.000    0.000    6.667 
#    0.000    2.083    0.000    2.500    0.000    0.583 
#    0.000    4.667    0.000    0.000    0.000    0.000 
#
# Total GULP energy -595147.135367 kJ/mol
# GULP energy per Si atom -12398.898653 kJ/mol
# Density = 1.814962 g / cm^3
# Si number density = 18.191026 Si / 1000 Ang^3
#
#
#
# Elastic Constant Matrix: (Units=GPa)
#
#
# Indices 1 2 3 4 5 6 
#
# 1 163.5443 41.5816 92.0926 0.0000 0.0000 0.0000
# 2 41.5816 27.1495 37.6001 0.0000 0.0000 0.0000
# 3 92.0926 37.6001 145.3204 0.0000 0.0000 0.0000
# 4 0.0000 0.0000 0.0000 23.5924 0.0000 0.0000
# 5 0.0000 0.0000 0.0000 0.0000 27.1997 0.0000
# 6 0.0000 0.0000 0.0000 0.0000 0.0000 -25.1737
#
#
#
# Elastic Compliance Matrix: (Units=1/GPa)
#
#
# Indices 1 2 3 4 5 6 
#
# 1 0.011482 -0.011702 -0.004249 0.000000 0.000000 0.000000
# 2 -0.011702 0.069327 -0.010522 0.000000 0.000000 0.000000
# 3 -0.004249 -0.010522 0.012296 0.000000 0.000000 0.000000
# 4 0.000000 0.000000 0.000000 0.042387 0.000000 0.000000
# 5 0.000000 0.000000 0.000000 0.000000 0.036765 0.000000
# 6 0.000000 0.000000 0.000000 0.000000 0.000000 -0.039724
#
#
# Mechanical properties :
#
#
# Convention : Reuss Voigt Hill
#
# Bulk Modulus (GPa) = 24.89988 75.39586 50.14787
# Shear Modulus (GPa) = 25.14253 16.10634 20.62444
#
# Velocity S-wave (km/s) = 3.72175 2.97880 3.37080
# Velocity P-wave (km/s) = 5.67329 7.30532 6.54041
#
# Compressibility (1/GPa) = 0.04016083
#
# Stress axis : x y z
#
# Youngs Moduli (GPa) = 87.09059 14.42430 81.32412
#
# Poissons Ratio (x) = 0.16879 0.34554
# Poissons Ratio (y) = 1.01910 0.85571
# Poissons Ratio (z) = 0.37004 0.15178
#
# Static dielectric constant tensor:
#      x y z
#    x 3.576600 0.000000 0.000000 
#    y 0.000000 2.920240 0.000000 
#    z 0.000000 0.000000 3.556670 
# 
# 
# High freq. dielectric constant tensor:
#      x y z
#    x 1.722210 0.000000 0.000000 
#    y 0.000000 1.657480 0.000000 
#    z 0.000000 0.000000 1.715830 
# 
# From -- ./inp_files/13967.got.cif
#   From: 2010.03.12/outbox.cif.g09.slc.cpg/sg47_7_cif.got.tgz:13967.got - 2010.04.14 03:12:58.
