data_PCOD8198998
_publ_section_title
;
Structure prediction by ZEFSAII (Michael W. Deem and Ramdas Pophale) SiO2 
 PCOD8198998
Probable space group: P M M M
;
_chemical_formula_sum "Si O2"
_cell_formula_units_Z 48
_cell_length_a 17.674167
_cell_length_b 8.799791
_cell_length_c 15.483340
_cell_angle_alpha 90.000000
_cell_angle_beta 90.000000
_cell_angle_gamma 90.000000
_cell_volume 2408.108011
_symmetry_space_group_name_H-M "P M M M"
_symmetry_group_IT_number 47
_symmetry_cell_setting 'orthorhombic'
loop_
_space_group_symop_operation_xyz
x,y,z
-x,-y,z
x,-y,-z
-x,y,-z
-x,-y,-z
x,y,-z
-x,y,z
x,-y,z
loop_
_atom_site_type_symbol
_atom_site_label
_atom_site_fract_x
_atom_site_fract_y
_atom_site_fract_z
Si Si1 0.700448 0.675286 0.597517
Si Si2 0.157634 0.819881 0.672756
Si Si3 0.333932 0.173913 0.904566
Si Si4 0.910927 0.829037 0.000000
Si Si5 0.413981 0.822198 0.269183
Si Si6 0.000000 0.180839 0.597060
Si Si7 0.817596 0.321595 0.856929
O O1 0.670131 0.698118 0.500000
O O2 0.716205 0.500000 0.618423
O O3 0.779317 0.764903 0.605297
O O4 0.637905 0.733762 0.663805
O O5 0.180041 0.755928 0.764727
O O6 0.074951 0.758431 0.645271
O O7 0.158218 0.000000 0.675812
O O8 0.392880 0.219400 0.829732
O O9 0.261718 0.282944 0.901323
O O10 0.307178 0.000000 0.891161
O O11 0.371438 0.193818 0.000000
O O12 0.885431 0.741545 0.914566
O O13 0.000000 0.833981 0.000000
O O14 0.877309 0.000000 0.000000
O O15 0.500000 0.770647 0.284251
O O16 0.403357 0.000000 0.286433
O O17 0.000000 0.245460 0.500000
O O18 0.000000 0.000000 0.595512
O O19 0.826960 0.500000 0.846849
#
# Coordination Sequence:
#
# PCOD8198998 Si02
#       7
#     8   8   8   4   8   4   8
#     4  11  24  41  62  90 124 164 209 258 317 377
#     4  11  22  39  64  91 121 160 207 253 306 370
#     4  10  20  37  63  91 122 161 203 247 300 367
#     4  11  25  43  63  87 120 163 214 261 307 364
#     4  10  22  40  63  93 126 162 207 259 313 372
#     4   9  20  38  61  90 119 150 195 251 304 357
#     4  12  24  38  59  89 124 160 202 252 308 367
#
# _framework density 19.932659999999998
#
# number of rings (size 3 to 8) (size 9 to 14) (size 15 to 20)
#    0.000    1.333    2.500    3.250    1.167    3.667 
#    0.000    4.583    0.000    3.000    0.000    2.333 
#    0.000    0.000    0.000    0.000    0.000    0.000 
#
# Total GULP energy -595342.067079 kJ/mol
# GULP energy per Si atom -12402.959731 kJ/mol
# Density = 1.988729 g / cm^3
# Si number density = 19.932660 Si / 1000 Ang^3
#
#
#
# Elastic Constant Matrix: (Units=GPa)
#
#
# Indices 1 2 3 4 5 6 
#
# 1 113.3984 50.1535 45.1564 0.0000 0.0000 0.0000
# 2 50.1535 88.7342 45.0350 0.0000 0.0000 0.0000
# 3 45.1564 45.0350 134.7658 0.0000 0.0000 0.0000
# 4 0.0000 0.0000 0.0000 26.9068 0.0000 0.0000
# 5 0.0000 0.0000 0.0000 0.0000 26.9289 0.0000
# 6 0.0000 0.0000 0.0000 0.0000 0.0000 6.7180
#
#
#
# Elastic Compliance Matrix: (Units=1/GPa)
#
#
# Indices 1 2 3 4 5 6 
#
# 1 0.012258 -0.005833 -0.002158 0.000000 0.000000 0.000000
# 2 -0.005833 0.016347 -0.003508 0.000000 0.000000 0.000000
# 3 -0.002158 -0.003508 0.009316 0.000000 0.000000 0.000000
# 4 0.000000 0.000000 0.000000 0.037165 0.000000 0.000000
# 5 0.000000 0.000000 0.000000 0.000000 0.037135 0.000000
# 6 0.000000 0.000000 0.000000 0.000000 0.000000 0.148853
#
#
# Mechanical properties :
#
#
# Convention : Reuss Voigt Hill
#
# Bulk Modulus (GPa) = 67.01515 68.62089 67.81802
# Shear Modulus (GPa) = 17.29829 25.21430 21.25630
#
# Velocity S-wave (km/s) = 2.94910 3.56051 3.26913
# Velocity P-wave (km/s) = 6.72979 7.16966 6.95320
#
# Compressibility (1/GPa) = 0.01492200
#
# Stress axis : x y z
#
# Youngs Moduli (GPa) = 81.58251 61.17353 107.34536
#
# Poissons Ratio (x) = 0.35682 0.23165
# Poissons Ratio (y) = 0.47586 0.37660
# Poissons Ratio (z) = 0.17605 0.21461
#
# Static dielectric constant tensor:
#      x y z
#    x 3.686070 0.000000 0.000000 
#    y 0.000000 3.600210 0.000000 
#    z 0.000000 0.000000 3.802660 
# 
# 
# High freq. dielectric constant tensor:
#      x y z
#    x 1.773900 0.000000 0.000000 
#    y 0.000000 1.770550 0.000000 
#    z 0.000000 0.000000 1.794790 
# 
# From -- ./inp_files/21150.got.cif
#   From: 2010.03.12/outbox.cif.g09.slc.cpg/sg47_11_cif.got.tgz:21150.got - 2010.04.14 03:12:58.
