data_PCOD8198496
_publ_section_title
;
Structure prediction by ZEFSAII (Michael W. Deem and Ramdas Pophale) SiO2 
 PCOD8198496
Probable space group: P M M M
;
_chemical_formula_sum "Si O2"
_cell_formula_units_Z 56
_cell_length_a 14.194961
_cell_length_b 21.077461
_cell_length_c 8.889026
_cell_angle_alpha 90.000000
_cell_angle_beta 90.000000
_cell_angle_gamma 90.000000
_cell_volume 2659.540906
_symmetry_space_group_name_H-M "P M M M"
_symmetry_group_IT_number 47
_symmetry_cell_setting 'orthorhombic'
loop_
_space_group_symop_operation_xyz
x,y,z
-x,-y,z
x,-y,-z
-x,y,-z
-x,-y,-z
x,y,-z
-x,y,z
x,-y,z
loop_
_atom_site_type_symbol
_atom_site_label
_atom_site_fract_x
_atom_site_fract_y
_atom_site_fract_z
Si Si1 0.892210 0.262572 0.825839
Si Si2 0.295419 0.928750 0.673893
Si Si3 0.608044 0.188215 0.823395
Si Si4 0.287120 0.571229 0.174209
Si Si5 0.898092 0.573321 0.335782
Si Si6 0.712757 0.694373 0.324199
Si Si7 0.104544 0.867646 0.671001
O O1 0.823874 0.306631 0.723967
O O2 0.874566 0.189608 0.783901
O O3 0.000000 0.281418 0.792160
O O4 0.865748 0.271671 0.000000
O O5 0.320676 0.917040 0.500000
O O6 0.354907 0.880096 0.772260
O O7 0.183103 0.920896 0.700474
O O8 0.322513 0.000000 0.723239
O O9 0.500000 0.194715 0.774456
O O10 0.665766 0.244524 0.748260
O O11 0.621335 0.194063 0.000000
O O12 0.317855 0.500000 0.229179
O O13 0.176211 0.582601 0.201614
O O14 0.337234 0.628749 0.265972
O O15 0.311091 0.578887 0.000000
O O16 0.861878 0.600249 0.500000
O O17 0.914529 0.500000 0.359083
O O18 0.000000 0.604045 0.292074
O O19 0.699540 0.699712 0.500000
O O20 0.112074 0.841641 0.500000
O O21 0.000000 0.896415 0.700042
#
# Coordination Sequence:
#
# PCOD8198496 Si02
#       7
#     8   8   8   8   8   8   8
#     4  10  20  34  55  84 119 159 204 254 303 353
#     4  10  21  37  60  93 131 170 209 250 299 353
#     4  11  25  45  68  92 119 154 199 251 309 371
#     4  10  21  36  55  81 114 152 193 239 294 356
#     4   8  14  26  44  67 100 144 192 239 285 336
#     4  12  24  39  63  90 119 157 200 249 305 364
#     4   9  17  31  53  83 122 167 211 251 294 347
#
# _framework density 21.056266000000001
#
# number of rings (size 3 to 8) (size 9 to 14) (size 15 to 20)
#    0.000    2.000    1.429    3.000    0.000    4.571 
#    0.000    4.286    0.000    0.429    0.000    6.000 
#    0.000    0.000    0.000    0.000    0.000    0.000 
#
# Total GULP energy -694024.936666 kJ/mol
# GULP energy per Si atom -12393.302440 kJ/mol
# Density = 2.100834 g / cm^3
# Si number density = 21.056266 Si / 1000 Ang^3
#
#
#
# Elastic Constant Matrix: (Units=GPa)
#
#
# Indices 1 2 3 4 5 6 
#
# 1 66.2426 36.1564 33.2834 0.0000 0.0000 0.0000
# 2 36.1564 136.5509 47.4807 0.0000 0.0000 0.0000
# 3 33.2834 47.4807 87.1816 0.0000 0.0000 0.0000
# 4 0.0000 0.0000 0.0000 34.1732 0.0000 0.0000
# 5 0.0000 0.0000 0.0000 0.0000 21.3992 0.0000
# 6 0.0000 0.0000 0.0000 0.0000 0.0000 2.5298
#
#
#
# Elastic Compliance Matrix: (Units=1/GPa)
#
#
# Indices 1 2 3 4 5 6 
#
# 1 0.019763 -0.003219 -0.005792 0.000000 0.000000 0.000000
# 2 -0.003219 0.009558 -0.003977 0.000000 0.000000 0.000000
# 3 -0.005792 -0.003977 0.015847 0.000000 0.000000 0.000000
# 4 0.000000 0.000000 0.000000 0.029263 0.000000 0.000000
# 5 0.000000 0.000000 0.000000 0.000000 0.046731 0.000000
# 6 0.000000 0.000000 0.000000 0.000000 0.000000 0.395295
#
#
# Mechanical properties :
#
#
# Convention : Reuss Voigt Hill
#
# Bulk Modulus (GPa) = 52.10085 58.20181 55.15133
# Shear Modulus (GPa) = 9.11029 23.15741 16.13385
#
# Velocity S-wave (km/s) = 2.08231 3.31990 2.77108
# Velocity P-wave (km/s) = 5.52980 6.51128 6.04051
#
# Compressibility (1/GPa) = 0.01919355
#
# Stress axis : x y z
#
# Youngs Moduli (GPa) = 50.59932 104.62007 63.10238
#
# Poissons Ratio (x) = 0.33678 0.36548
# Poissons Ratio (y) = 0.16288 0.25094
# Poissons Ratio (z) = 0.29306 0.41605
#
# Static dielectric constant tensor:
#      x y z
#    x 3.738110 0.000000 0.000000 
#    y 0.000000 3.944330 0.000000 
#    z 0.000000 0.000000 3.720300 
# 
# 
# High freq. dielectric constant tensor:
#      x y z
#    x 1.795640 0.000000 0.000000 
#    y 0.000000 1.837040 0.000000 
#    z 0.000000 0.000000 1.821210 
# 
# From -- ./inp_files/7355.got.cif
#   From: 2010.03.12/outbox.cif.g09.slc.cpg/sg47_4_cif.got.tgz:7355.got - 2010.04.14 03:12:58.
