data_PCOD8198104
_publ_section_title
;
Structure prediction by ZEFSAII (Michael W. Deem and Ramdas Pophale) SiO2 
 PCOD8198104
Probable space group: P M M M
;
_chemical_formula_sum "Si O2"
_cell_formula_units_Z 64
_cell_length_a 25.414438
_cell_length_b 14.374409
_cell_length_c 9.094804
_cell_angle_alpha 90.000000
_cell_angle_beta 90.000000
_cell_angle_gamma 90.000000
_cell_volume 3322.491300
_symmetry_space_group_name_H-M "P M M M"
_symmetry_group_IT_number 47
_symmetry_cell_setting 'orthorhombic'
loop_
_space_group_symop_operation_xyz
x,y,z
-x,-y,z
x,-y,-z
-x,y,-z
-x,-y,-z
x,y,-z
-x,y,z
x,-y,z
loop_
_atom_site_type_symbol
_atom_site_label
_atom_site_fract_x
_atom_site_fract_y
_atom_site_fract_z
Si Si1 0.714379 0.602812 0.832639
Si Si2 0.339020 0.891181 0.671767
Si Si3 0.938287 0.782560 0.170174
Si Si4 0.557456 0.788467 0.674552
Si Si5 0.853603 0.107609 0.671840
Si Si6 0.393045 0.397993 0.673846
Si Si7 0.937520 0.602148 0.334965
Si Si8 0.757776 0.795481 0.829000
O O1 0.738677 0.500000 0.799074
O O2 0.665183 0.623147 0.729500
O O3 0.757202 0.683622 0.805089
O O4 0.694097 0.607662 0.000000
O O5 0.330627 0.867175 0.500000
O O6 0.396530 0.857702 0.727890
O O7 0.295322 0.839822 0.766663
O O8 0.334376 0.000000 0.700860
O O9 0.909255 0.864526 0.257156
O O10 0.917042 0.682329 0.226154
O O11 0.000000 0.794870 0.200007
O O12 0.924073 0.790164 0.000000
O O13 0.555790 0.790162 0.500000
O O14 0.500000 0.819350 0.736608
O O15 0.568415 0.683096 0.730944
O O16 0.855743 0.128671 0.500000
O O17 0.807642 0.167317 0.742820
O O18 0.842598 0.000000 0.704129
O O19 0.389973 0.395620 0.500000
O O20 0.412771 0.500000 0.728497
O O21 0.917308 0.623364 0.500000
O O22 0.916999 0.500000 0.283384
O O23 0.000000 0.601344 0.333498
O O24 0.762820 0.821865 0.000000
#
# Coordination Sequence:
#
# PCOD8198104 Si02
#       8
#     8   8   8   8   8   8   8   8
#     4   9  18  33  54  80 109 140 173 211 262 325
#     4  10  20  34  53  76 103 138 181 228 277 329
#     4  10  21  37  59  88 121 156 192 232 281 335
#     4   9  17  29  46  72 106 140 177 224 273 323
#     4  11  25  43  62  84 111 146 188 234 282 332
#     4   9  16  27  47  74 102 135 175 219 267 319
#     4   8  14  27  50  80 114 153 195 235 273 317
#     4  11  22  37  60  85 109 139 176 223 277 332
#
# _framework density 19.262654000000001
#
# number of rings (size 3 to 8) (size 9 to 14) (size 15 to 20)
#    0.000    2.375    1.250    1.875    0.000    5.000 
#    0.000    5.625    0.000    3.750    0.000    2.625 
#    0.000    0.000    0.000    0.000    0.000    0.000 
#
# Total GULP energy -793338.328634 kJ/mol
# GULP energy per Si atom -12395.911385 kJ/mol
# Density = 1.921881 g / cm^3
# Si number density = 19.262654 Si / 1000 Ang^3
#
#
#
# Elastic Constant Matrix: (Units=GPa)
#
#
# Indices 1 2 3 4 5 6 
#
# 1 86.1706 52.5065 39.9660 0.0000 0.0000 0.0000
# 2 52.5065 106.4916 46.7956 0.0000 0.0000 0.0000
# 3 39.9660 46.7956 66.8936 0.0000 0.0000 0.0000
# 4 0.0000 0.0000 0.0000 26.2687 0.0000 0.0000
# 5 0.0000 0.0000 0.0000 0.0000 11.7660 0.0000
# 6 0.0000 0.0000 0.0000 0.0000 0.0000 26.5402
#
#
#
# Elastic Compliance Matrix: (Units=1/GPa)
#
#
# Indices 1 2 3 4 5 6 
#
# 1 0.018477 -0.006150 -0.006737 0.000000 0.000000 0.000000
# 2 -0.006150 0.015605 -0.007242 0.000000 0.000000 0.000000
# 3 -0.006737 -0.007242 0.024041 0.000000 0.000000 0.000000
# 4 0.000000 0.000000 0.000000 0.038068 0.000000 0.000000
# 5 0.000000 0.000000 0.000000 0.000000 0.084991 0.000000
# 6 0.000000 0.000000 0.000000 0.000000 0.000000 0.037679
#
#
# Mechanical properties :
#
#
# Convention : Reuss Voigt Hill
#
# Bulk Modulus (GPa) = 55.97774 59.78799 57.88287
# Shear Modulus (GPa) = 18.86275 20.93417 19.89846
#
# Velocity S-wave (km/s) = 3.13268 3.30020 3.21753
# Velocity P-wave (km/s) = 6.49678 6.75481 6.62705
#
# Compressibility (1/GPa) = 0.01786424
#
# Stress axis : x y z
#
# Youngs Moduli (GPa) = 54.12224 64.08176 41.59614
#
# Poissons Ratio (x) = 0.39408 0.28024
# Poissons Ratio (y) = 0.33283 0.30126
# Poissons Ratio (z) = 0.36462 0.46411
#
# Static dielectric constant tensor:
#      x y z
#    x 3.453790 0.000000 0.000000 
#    y 0.000000 3.934680 0.000000 
#    z 0.000000 0.000000 3.430740 
# 
# 
# High freq. dielectric constant tensor:
#      x y z
#    x 1.729080 0.000000 0.000000 
#    y 0.000000 1.765050 0.000000 
#    z 0.000000 0.000000 1.734070 
# 
# From -- ./inp_files/12766.got.cif
#   From: 2010.03.12/outbox.cif.g09.slc.cpg/sg47_7_cif.got.tgz:12766.got - 2010.04.14 03:12:58.
