data_PCOD8198511
_publ_section_title
;
Structure prediction by ZEFSAII (Michael W. Deem and Ramdas Pophale) SiO2 
 PCOD8198511
Probable space group: P M M M
;
_chemical_formula_sum "Si O2"
_cell_formula_units_Z 52
_cell_length_a 18.580541
_cell_length_b 9.777556
_cell_length_c 16.095849
_cell_angle_alpha 90.000000
_cell_angle_beta 90.000000
_cell_angle_gamma 90.000000
_cell_volume 2924.169589
_symmetry_space_group_name_H-M "P M M M"
_symmetry_group_IT_number 47
_symmetry_cell_setting 'orthorhombic'
loop_
_space_group_symop_operation_xyz
x,y,z
-x,-y,z
x,-y,-z
-x,y,-z
-x,-y,-z
x,y,-z
-x,y,z
x,-y,z
loop_
_atom_site_type_symbol
_atom_site_label
_atom_site_fract_x
_atom_site_fract_y
_atom_site_fract_z
Si Si1 0.221102 0.339129 0.904214
Si Si2 0.782122 0.348060 0.500000
Si Si3 0.581104 0.155510 0.346853
Si Si4 0.155115 0.751440 0.665940
Si Si5 0.623933 0.666508 0.500000
Si Si6 0.920916 0.345376 0.822125
Si Si7 0.082773 0.000000 0.590785
Si Si8 0.289203 0.158095 0.229513
O O1 0.226990 0.500000 0.881137
O O2 0.140045 0.282911 0.883566
O O3 0.279233 0.254376 0.851051
O O4 0.238101 0.312625 0.000000
O O5 0.754131 0.500000 0.500000
O O6 0.830158 0.326251 0.580813
O O7 0.705520 0.271432 0.500000
O O8 0.500000 0.163266 0.311953
O O9 0.587423 0.268338 0.418943
O O10 0.633849 0.191437 0.270402
O O11 0.597660 0.000000 0.379169
O O12 0.111660 0.656202 0.729344
O O13 0.101920 0.873020 0.646680
O O14 0.229316 0.807558 0.702295
O O15 0.614633 0.500000 0.500000
O O16 0.933523 0.500000 0.848618
O O17 0.000000 0.271322 0.828878
O O18 0.123186 0.000000 0.500000
O O19 0.000000 0.000000 0.571776
O O20 0.283222 0.000000 0.202107
#
# Coordination Sequence:
#
# PCOD8198511 Si02
#       8
#     8   4   8   8   4   8   4   8
#     4   9  19  35  56  81 107 135 167 208 259 316
#     4  11  22  33  49  73 101 137 181 229 266 301
#     4  10  21  37  55  78 110 144 179 218 261 310
#     4  11  19  34  50  69  97 136 175 219 258 309
#     4  11  22  34  51  78 111 146 184 224 263 307
#     4   9  18  32  51  74 100 130 167 212 260 311
#     4  11  22  32  46  68  94 130 178 223 264 308
#     4  10  20  34  56  81 102 134 173 212 258 308
#
# _framework density 17.782826
#
# number of rings (size 3 to 8) (size 9 to 14) (size 15 to 20)
#    0.000    1.923    3.077    1.385    0.000    3.077 
#    1.385    1.538    0.000    2.308    0.000    5.385 
#    0.000    0.000    0.000    0.000    0.000    0.000 
#
# Total GULP energy -644441.525049 kJ/mol
# GULP energy per Si atom -12393.106251 kJ/mol
# Density = 1.774235 g / cm^3
# Si number density = 17.782826 Si / 1000 Ang^3
#
#
#
# Elastic Constant Matrix: (Units=GPa)
#
#
# Indices 1 2 3 4 5 6 
#
# 1 108.2705 37.1462 45.5213 0.0000 0.0000 0.0000
# 2 37.1462 74.6750 44.6285 0.0000 0.0000 0.0000
# 3 45.5213 44.6285 114.3241 0.0000 0.0000 0.0000
# 4 0.0000 0.0000 0.0000 28.3592 0.0000 0.0000
# 5 0.0000 0.0000 0.0000 0.0000 16.4829 0.0000
# 6 0.0000 0.0000 0.0000 0.0000 0.0000 33.5892
#
#
#
# Elastic Compliance Matrix: (Units=1/GPa)
#
#
# Indices 1 2 3 4 5 6 
#
# 1 0.011964 -0.004049 -0.003183 0.000000 0.000000 0.000000
# 2 -0.004049 0.018836 -0.005741 0.000000 0.000000 0.000000
# 3 -0.003183 -0.005741 0.012256 0.000000 0.000000 0.000000
# 4 0.000000 0.000000 0.000000 0.035262 0.000000 0.000000
# 5 0.000000 0.000000 0.000000 0.000000 0.060669 0.000000
# 6 0.000000 0.000000 0.000000 0.000000 0.000000 0.029772
#
#
# Mechanical properties :
#
#
# Convention : Reuss Voigt Hill
#
# Bulk Modulus (GPa) = 58.44608 61.31796 59.88202
# Shear Modulus (GPa) = 24.94925 27.01783 25.98354
#
# Velocity S-wave (km/s) = 3.74972 3.90208 3.82666
# Velocity P-wave (km/s) = 7.18924 7.40662 7.29874
#
# Compressibility (1/GPa) = 0.01710979
#
# Stress axis : x y z
#
# Youngs Moduli (GPa) = 83.58754 53.08863 81.59532
#
# Poissons Ratio (x) = 0.21494 0.25973
# Poissons Ratio (y) = 0.33843 0.46844
# Poissons Ratio (z) = 0.26607 0.30478
#
# Static dielectric constant tensor:
#      x y z
#    x 3.412000 0.000000 0.000000 
#    y 0.000000 3.228180 0.000000 
#    z 0.000000 0.000000 3.161520 
# 
# 
# High freq. dielectric constant tensor:
#      x y z
#    x 1.689850 0.000000 0.000000 
#    y 0.000000 1.678560 0.000000 
#    z 0.000000 0.000000 1.673990 
# 
# From -- ./inp_files/21499.got.cif
#   From: 2010.03.12/outbox.cif.g09.slc.cpg/sg47_11_cif.got.tgz:21499.got - 2010.04.14 03:12:58.
