data_PCOD8198080
_publ_section_title
;
Structure prediction by ZEFSAII (Michael W. Deem and Ramdas Pophale) SiO2 
 PCOD8198080
Probable space group: P M M M
;
_chemical_formula_sum "Si O2"
_cell_formula_units_Z 48
_cell_length_a 9.189661
_cell_length_b 9.072035
_cell_length_c 31.430743
_cell_angle_alpha 90.000000
_cell_angle_beta 90.000000
_cell_angle_gamma 90.000000
_cell_volume 2620.347295
_symmetry_space_group_name_H-M "P M M M"
_symmetry_group_IT_number 47
_symmetry_cell_setting 'orthorhombic'
loop_
_space_group_symop_operation_xyz
x,y,z
-x,-y,z
x,-y,-z
-x,y,-z
-x,-y,-z
x,y,-z
-x,y,z
x,-y,z
loop_
_atom_site_type_symbol
_atom_site_label
_atom_site_fract_x
_atom_site_fract_y
_atom_site_fract_z
Si Si1 0.829460 0.328114 0.916250
Si Si2 0.671285 0.830677 0.327254
Si Si3 0.672906 0.334306 0.755506
Si Si4 0.836548 0.176296 0.409026
Si Si5 0.173313 0.162119 0.500000
Si Si6 0.332152 0.173785 0.159598
Si Si7 0.664302 0.674929 0.000000
O O1 0.796288 0.500000 0.908346
O O2 0.768916 0.235504 0.877260
O O3 0.749131 0.268760 0.958429
O O4 0.000000 0.298934 0.921720
O O5 0.500000 0.813245 0.330479
O O6 0.735129 0.741188 0.287154
O O7 0.736860 0.764134 0.370781
O O8 0.717783 0.000000 0.321045
O O9 0.500000 0.333387 0.753542
O O10 0.734226 0.500000 0.758699
O O11 0.725232 0.243303 0.796458
O O12 0.781215 0.240856 0.455200
O O13 0.000000 0.230181 0.399692
O O14 0.830352 0.000000 0.411719
O O15 0.000000 0.147186 0.500000
O O16 0.244550 0.000000 0.500000
O O17 0.500000 0.217700 0.150727
O O18 0.313458 0.000000 0.162882
O O19 0.661928 0.500000 0.000000
O O20 0.500000 0.738665 0.000000
#
# Coordination Sequence:
#
# PCOD8198080 Si02
#       7
#     8   8   8   8   4   8   4
#     4  10  20  34  53  78 108 139 169 203 245 291
#     4   9  16  26  41  63  90 116 144 184 232 275
#     4   9  17  30  49  70  91 120 158 195 232 280
#     4   8  13  22  37  57  82 113 146 178 217 268
#     4   7  10  18  33  53  78 109 144 178 212 259
#     4  10  20  34  53  76 100 128 165 207 247 289
#     4   9  17  31  54  81 106 135 172 210 244 281
#
# _framework density 18.318180999999999
#
# number of rings (size 3 to 8) (size 9 to 14) (size 15 to 20)
#    0.000    3.000    0.000    2.750    0.000    5.000 
#    0.000    1.667    0.000    8.500    0.000    0.583 
#    0.000    4.667    0.000    0.000    0.000    0.000 
#
# Total GULP energy -594911.258115 kJ/mol
# GULP energy per Si atom -12393.984544 kJ/mol
# Density = 1.827649 g / cm^3
# Si number density = 18.318181 Si / 1000 Ang^3
#
#
#
# Elastic Constant Matrix: (Units=GPa)
#
#
# Indices 1 2 3 4 5 6 
#
# 1 57.2054 29.3452 55.9204 0.0000 0.0000 0.0000
# 2 29.3452 60.6438 56.1065 0.0000 0.0000 0.0000
# 3 55.9204 56.1065 198.9223 0.0000 0.0000 0.0000
# 4 0.0000 0.0000 0.0000 7.6611 0.0000 0.0000
# 5 0.0000 0.0000 0.0000 0.0000 17.4808 0.0000
# 6 0.0000 0.0000 0.0000 0.0000 0.0000 14.5728
#
#
#
# Elastic Compliance Matrix: (Units=1/GPa)
#
#
# Indices 1 2 3 4 5 6 
#
# 1 0.026756 -0.008103 -0.005236 0.000000 0.000000 0.000000
# 2 -0.008103 0.024766 -0.004707 0.000000 0.000000 0.000000
# 3 -0.005236 -0.004707 0.007827 0.000000 0.000000 0.000000
# 4 0.000000 0.000000 0.000000 0.130530 0.000000 0.000000
# 5 0.000000 0.000000 0.000000 0.000000 0.057205 0.000000
# 6 0.000000 0.000000 0.000000 0.000000 0.000000 0.068621
#
#
# Mechanical properties :
#
#
# Convention : Reuss Voigt Hill
#
# Bulk Modulus (GPa) = 42.99971 66.61285 54.80628
# Shear Modulus (GPa) = 13.90631 19.63626 16.77128
#
# Velocity S-wave (km/s) = 2.75826 3.27762 3.02909
# Velocity P-wave (km/s) = 5.80248 7.12510 6.49753
#
# Compressibility (1/GPa) = 0.02325597
#
# Stress axis : x y z
#
# Youngs Moduli (GPa) = 37.37494 40.37828 127.76605
#
# Poissons Ratio (x) = 0.32717 0.66900
# Poissons Ratio (y) = 0.30284 0.60145
# Poissons Ratio (z) = 0.19570 0.19008
#
# Static dielectric constant tensor:
#      x y z
#    x 3.135600 0.000000 0.000000 
#    y 0.000000 3.062730 0.000000 
#    z 0.000000 0.000000 3.840430 
# 
# 
# High freq. dielectric constant tensor:
#      x y z
#    x 1.678810 0.000000 0.000000 
#    y 0.000000 1.668740 0.000000 
#    z 0.000000 0.000000 1.735740 
# 
# From -- ./inp_files/34096.got.cif
#   From: 2010.03.12/outbox.cif.g09.slc.cpg/sg47_18_cif.got.tgz:34096.got - 2010.04.14 03:12:58.
