data_PCOD8198039
_publ_section_title
;
Structure prediction by ZEFSAII (Michael W. Deem and Ramdas Pophale) SiO2 
 PCOD8198039
Probable space group: P M M M
;
_chemical_formula_sum "Si O2"
_cell_formula_units_Z 52
_cell_length_a 29.412392
_cell_length_b 8.147044
_cell_length_c 11.876559
_cell_angle_alpha 90.000000
_cell_angle_beta 90.000000
_cell_angle_gamma 90.000000
_cell_volume 2845.909189
_symmetry_space_group_name_H-M "P M M M"
_symmetry_group_IT_number 47
_symmetry_cell_setting 'orthorhombic'
loop_
_space_group_symop_operation_xyz
x,y,z
-x,-y,z
x,-y,-z
-x,y,-z
-x,-y,-z
x,y,-z
-x,y,z
x,-y,z
loop_
_atom_site_type_symbol
_atom_site_label
_atom_site_fract_x
_atom_site_fract_y
_atom_site_fract_z
Si Si1 0.300147 0.309557 0.737535
Si Si2 0.050974 0.693894 0.627211
Si Si3 0.448873 0.000000 0.866219
Si Si4 0.215170 0.308181 0.874881
Si Si5 0.285436 0.190683 0.500000
Si Si6 0.391405 0.313242 0.866851
Si Si7 0.815103 0.195826 0.500000
Si Si8 0.138944 0.190873 0.275750
O O1 0.292161 0.500000 0.723497
O O2 0.254495 0.230538 0.793791
O O3 0.311546 0.240541 0.613586
O O4 0.342528 0.269530 0.816683
O O5 0.061979 0.756554 0.500000
O O6 0.055179 0.500000 0.631540
O O7 0.085100 0.771855 0.719232
O O8 0.000000 0.749166 0.660404
O O9 0.425426 0.830118 0.823372
O O10 0.500000 0.000000 0.818128
O O11 0.448940 0.000000 0.000000
O O12 0.223947 0.500000 0.884228
O O13 0.164490 0.276032 0.828189
O O14 0.218859 0.230299 0.000000
O O15 0.235411 0.271436 0.500000
O O16 0.279115 0.000000 0.500000
O O17 0.407139 0.500000 0.831359
O O18 0.386633 0.305201 0.000000
O O19 0.840150 0.265127 0.609762
O O20 0.816049 0.000000 0.500000
O O21 0.147982 0.000000 0.263413
#
# Coordination Sequence:
#
# PCOD8198039 Si02
#       8
#     8   8   4   8   4   8   4   8
#     4  10  20  34  52  75 104 139 179 218 258 309
#     4   9  18  32  50  74 101 128 162 203 249 304
#     4   9  18  32  52  81 113 145 185 228 272 327
#     4  10  21  36  53  73  99 135 177 215 252 302
#     4  11  21  33  49  72 106 142 175 213 257 306
#     4   9  18  33  53  78 110 146 182 225 275 323
#     4   9  18  31  44  68 103 134 163 202 251 302
#     4  11  20  33  51  73 103 134 166 205 253 305
#
# _framework density 18.271841999999999
#
# number of rings (size 3 to 8) (size 9 to 14) (size 15 to 20)
#    0.000    2.231    2.308    1.615    1.077    2.769 
#    0.000    2.308    0.000    0.462    0.000    4.308 
#    0.000    2.462    0.000    0.000    0.000    0.000 
#
# Total GULP energy -644559.782049 kJ/mol
# GULP energy per Si atom -12395.380424 kJ/mol
# Density = 1.823025 g / cm^3
# Si number density = 18.271842 Si / 1000 Ang^3
#
#
#
# Elastic Constant Matrix: (Units=GPa)
#
#
# Indices 1 2 3 4 5 6 
#
# 1 111.5253 43.2608 33.5488 0.0000 0.0000 0.0000
# 2 43.2608 56.2175 25.4323 0.0000 0.0000 0.0000
# 3 33.5488 25.4323 83.7448 0.0000 0.0000 0.0000
# 4 0.0000 0.0000 0.0000 16.4517 0.0000 0.0000
# 5 0.0000 0.0000 0.0000 0.0000 41.2860 0.0000
# 6 0.0000 0.0000 0.0000 0.0000 0.0000 27.2976
#
#
#
# Elastic Compliance Matrix: (Units=1/GPa)
#
#
# Indices 1 2 3 4 5 6 
#
# 1 0.013240 -0.009029 -0.002562 0.000000 0.000000 0.000000
# 2 -0.009029 0.026779 -0.004515 0.000000 0.000000 0.000000
# 3 -0.002562 -0.004515 0.014339 0.000000 0.000000 0.000000
# 4 0.000000 0.000000 0.000000 0.060784 0.000000 0.000000
# 5 0.000000 0.000000 0.000000 0.000000 0.024221 0.000000
# 6 0.000000 0.000000 0.000000 0.000000 0.000000 0.036633
#
#
# Mechanical properties :
#
#
# Convention : Reuss Voigt Hill
#
# Bulk Modulus (GPa) = 45.15799 50.66346 47.91073
# Shear Modulus (GPa) = 23.19215 26.95676 25.07446
#
# Velocity S-wave (km/s) = 3.56657 3.84515 3.70848
# Velocity P-wave (km/s) = 6.45978 6.89213 6.67945
#
# Compressibility (1/GPa) = 0.02214447
#
# Stress axis : x y z
#
# Youngs Moduli (GPa) = 75.53040 37.34265 69.74205
#
# Poissons Ratio (x) = 0.33718 0.17867
# Poissons Ratio (y) = 0.68199 0.31490
# Poissons Ratio (z) = 0.19350 0.16861
#
# Static dielectric constant tensor:
#      x y z
#    x 3.434120 0.000000 0.000000 
#    y 0.000000 3.283240 0.000000 
#    z 0.000000 0.000000 2.766850 
# 
# 
# High freq. dielectric constant tensor:
#      x y z
#    x 1.698010 0.000000 0.000000 
#    y 0.000000 1.703290 0.000000 
#    z 0.000000 0.000000 1.680240 
# 
# From -- ./inp_files/19824.got.cif
#   From: 2010.03.12/outbox.cif.g09.slc.cpg/sg47_10_cif.got.tgz:19824.got - 2010.04.14 03:12:58.
