data_PCOD8198200
_publ_section_title
;
Structure prediction by ZEFSAII (Michael W. Deem and Ramdas Pophale) SiO2 
 PCOD8198200
Probable space group: P M M M
;
_chemical_formula_sum "Si O2"
_cell_formula_units_Z 56
_cell_length_a 22.226049
_cell_length_b 9.080771
_cell_length_c 14.939250
_cell_angle_alpha 90.000000
_cell_angle_beta 90.000000
_cell_angle_gamma 90.000000
_cell_volume 3015.183766
_symmetry_space_group_name_H-M "P M M M"
_symmetry_group_IT_number 47
_symmetry_cell_setting 'orthorhombic'
loop_
_space_group_symop_operation_xyz
x,y,z
-x,-y,z
x,-y,-z
-x,y,-z
-x,-y,-z
x,y,-z
-x,y,z
x,-y,z
loop_
_atom_site_type_symbol
_atom_site_label
_atom_site_fract_x
_atom_site_fract_y
_atom_site_fract_z
Si Si1 0.223585 0.669349 0.900141
Si Si2 0.164077 0.672394 0.720242
Si Si3 0.500000 0.673950 0.396432
Si Si4 0.272383 0.333597 0.400829
Si Si5 0.617841 0.831421 0.337919
Si Si6 0.653124 0.169089 0.135000
Si Si7 0.069235 0.172728 0.600434
Si Si8 0.430030 0.326436 0.000000
O O1 0.243144 0.500000 0.884713
O O2 0.173498 0.712500 0.825412
O O3 0.282269 0.768643 0.891767
O O4 0.195920 0.691018 0.000000
O O5 0.154806 0.500000 0.705102
O O6 0.223137 0.728911 0.667823
O O7 0.106164 0.751242 0.679715
O O8 0.500000 0.500000 0.384670
O O9 0.500000 0.720805 0.500000
O O10 0.557515 0.739075 0.347162
O O11 0.244008 0.329481 0.500000
O O12 0.290970 0.500000 0.373996
O O13 0.331478 0.233064 0.402913
O O14 0.643719 0.813392 0.239439
O O15 0.604615 0.000000 0.363377
O O16 0.600083 0.258511 0.087821
O O17 0.650125 0.000000 0.104158
O O18 0.088549 0.224915 0.500000
O O19 0.000000 0.214108 0.616490
O O20 0.079589 0.000000 0.608402
O O21 0.419522 0.500000 0.000000
O O22 0.500000 0.284819 0.000000
#
# Coordination Sequence:
#
# PCOD8198200 Si02
#       8
#     8   8   4   8   8   8   8   4
#     4  10  20  36  59  84 111 147 188 229 279 340
#     4  10  20  34  55  85 118 149 189 238 281 331
#     4  11  25  43  61  78  99 136 185 231 276 333
#     4  10  20  34  53  79 111 145 182 225 275 331
#     4  11  24  39  56  80 108 139 178 225 278 334
#     4  11  23  38  57  82 110 139 176 226 280 335
#     4   9  19  36  57  83 118 159 199 238 283 338
#     4  11  25  41  59  83 107 139 182 225 280 347
#
# _framework density 18.572666000000002
#
# number of rings (size 3 to 8) (size 9 to 14) (size 15 to 20)
#    0.000    1.714    2.143    2.571    1.000    7.143 
#    0.000    0.714    0.000    0.429    0.000    3.000 
#    0.000    0.000    0.000    0.000    0.000    0.000 
#
# Total GULP energy -694465.395910 kJ/mol
# GULP energy per Si atom -12401.167784 kJ/mol
# Density = 1.853039 g / cm^3
# Si number density = 18.572666 Si / 1000 Ang^3
#
#
#
# Elastic Constant Matrix: (Units=GPa)
#
#
# Indices 1 2 3 4 5 6 
#
# 1 105.8593 45.2169 56.4333 0.0000 0.0000 0.0000
# 2 45.2169 75.1075 41.8683 0.0000 0.0000 0.0000
# 3 56.4333 41.8683 122.3607 0.0000 0.0000 0.0000
# 4 0.0000 0.0000 0.0000 26.9951 0.0000 0.0000
# 5 0.0000 0.0000 0.0000 0.0000 31.4093 0.0000
# 6 0.0000 0.0000 0.0000 0.0000 0.0000 37.9686
#
#
#
# Elastic Compliance Matrix: (Units=1/GPa)
#
#
# Indices 1 2 3 4 5 6 
#
# 1 0.014537 -0.006196 -0.004584 0.000000 0.000000 0.000000
# 2 -0.006196 0.019093 -0.003676 0.000000 0.000000 0.000000
# 3 -0.004584 -0.003676 0.011545 0.000000 0.000000 0.000000
# 4 0.000000 0.000000 0.000000 0.037044 0.000000 0.000000
# 5 0.000000 0.000000 0.000000 0.000000 0.031838 0.000000
# 6 0.000000 0.000000 0.000000 0.000000 0.000000 0.026338
#
#
# Mechanical properties :
#
#
# Convention : Reuss Voigt Hill
#
# Bulk Modulus (GPa) = 61.48981 65.59605 63.54293
# Shear Modulus (GPa) = 28.61601 29.92852 29.27227
#
# Velocity S-wave (km/s) = 3.92951 4.01861 3.97431
# Velocity P-wave (km/s) = 7.33264 7.54504 7.43960
#
# Compressibility (1/GPa) = 0.01626286
#
# Stress axis : x y z
#
# Youngs Moduli (GPa) = 68.78955 52.37409 86.62079
#
# Poissons Ratio (x) = 0.32452 0.39711
# Poissons Ratio (y) = 0.42623 0.31838
# Poissons Ratio (z) = 0.31536 0.19250
#
# Static dielectric constant tensor:
#      x y z
#    x 3.223270 0.000000 0.000000 
#    y 0.000000 3.447390 0.000000 
#    z 0.000000 0.000000 3.706750 
# 
# 
# High freq. dielectric constant tensor:
#      x y z
#    x 1.701410 0.000000 0.000000 
#    y 0.000000 1.722840 0.000000 
#    z 0.000000 0.000000 1.732600 
# 
# From -- ./inp_files/21684.got.cif
#   From: 2010.03.12/outbox.cif.g09.slc.cpg/sg47_11_cif.got.tgz:21684.got - 2010.04.14 03:12:58.
