data_PCOD8198942
_publ_section_title
;
Structure prediction by ZEFSAII (Michael W. Deem and Ramdas Pophale) SiO2 
 PCOD8198942
Probable space group: P M M M
;
_chemical_formula_sum "Si O2"
_cell_formula_units_Z 48
_cell_length_a 15.011030
_cell_length_b 18.902379
_cell_length_c 8.502701
_cell_angle_alpha 90.000000
_cell_angle_beta 90.000000
_cell_angle_gamma 90.000000
_cell_volume 2412.591908
_symmetry_space_group_name_H-M "P M M M"
_symmetry_group_IT_number 47
_symmetry_cell_setting 'orthorhombic'
loop_
_space_group_symop_operation_xyz
x,y,z
-x,-y,z
x,-y,-z
-x,y,-z
-x,-y,-z
x,y,-z
-x,y,z
x,-y,z
loop_
_atom_site_type_symbol
_atom_site_label
_atom_site_fract_x
_atom_site_fract_y
_atom_site_fract_z
Si Si1 0.846207 0.823641 0.183069
Si Si2 0.898848 0.674454 0.684255
Si Si3 0.000000 0.083036 0.316457
Si Si4 0.500000 0.083478 0.822175
Si Si5 0.749288 0.421336 0.185401
Si Si6 0.658182 0.832750 0.682862
Si Si7 0.601463 0.686195 0.182202
O O1 0.862577 0.751760 0.276887
O O2 0.746353 0.848951 0.216980
O O3 0.912396 0.884684 0.238373
O O4 0.860096 0.808585 0.000000
O O5 0.891621 0.662354 0.500000
O O6 0.842123 0.614336 0.768873
O O7 0.000000 0.667405 0.744110
O O8 0.000000 0.101404 0.500000
O O9 0.000000 0.000000 0.283760
O O10 0.413000 0.108664 0.730615
O O11 0.500000 0.000000 0.824597
O O12 0.500000 0.114462 0.000000
O O13 0.744121 0.500000 0.259639
O O14 0.665709 0.375469 0.247576
O O15 0.743928 0.426670 0.000000
O O16 0.681061 0.839544 0.500000
O O17 0.618539 0.755679 0.716584
O O18 0.500000 0.660747 0.204363
O O19 0.622484 0.703414 0.000000
#
# Coordination Sequence:
#
# PCOD8198942 Si02
#       7
#     8   8   4   4   8   8   8
#     4  12  24  40  66  95 126 166 213 260 309 373
#     4  11  23  39  62  90 123 162 209 261 315 375
#     4  11  25  45  67  95 132 167 204 257 317 373
#     4  11  25  45  67  93 128 167 210 261 315 374
#     4  10  22  39  60  90 127 166 210 261 316 373
#     4  12  24  39  64  95 128 165 209 260 314 375
#     4  10  20  36  61  90 124 163 208 257 307 372
#
# _framework density 19.895614999999999
#
# number of rings (size 3 to 8) (size 9 to 14) (size 15 to 20)
#    0.000    1.000    3.333    4.000    0.000    4.000 
#    0.000    3.333    0.000    0.000    0.000    2.333 
#    0.000    0.000    0.000    0.000    0.000    0.000 
#
# Total GULP energy -595494.937418 kJ/mol
# GULP energy per Si atom -12406.144530 kJ/mol
# Density = 1.985033 g / cm^3
# Si number density = 19.895615 Si / 1000 Ang^3
#
#
#
# Elastic Constant Matrix: (Units=GPa)
#
#
# Indices 1 2 3 4 5 6 
#
# 1 142.9308 44.6677 8.1050 0.0000 0.0000 0.0000
# 2 44.6677 105.8557 11.5207 0.0000 0.0000 0.0000
# 3 8.1050 11.5207 32.0092 0.0000 0.0000 0.0000
# 4 0.0000 0.0000 0.0000 16.8418 0.0000 0.0000
# 5 0.0000 0.0000 0.0000 0.0000 26.9425 0.0000
# 6 0.0000 0.0000 0.0000 0.0000 0.0000 46.6376
#
#
#
# Elastic Compliance Matrix: (Units=1/GPa)
#
#
# Indices 1 2 3 4 5 6 
#
# 1 0.008081 -0.003317 -0.000852 0.000000 0.000000 0.000000
# 2 -0.003317 0.011194 -0.003189 0.000000 0.000000 0.000000
# 3 -0.000852 -0.003189 0.032605 0.000000 0.000000 0.000000
# 4 0.000000 0.000000 0.000000 0.059376 0.000000 0.000000
# 5 0.000000 0.000000 0.000000 0.000000 0.037116 0.000000
# 6 0.000000 0.000000 0.000000 0.000000 0.000000 0.021442
#
#
# Mechanical properties :
#
#
# Convention : Reuss Voigt Hill
#
# Bulk Modulus (GPa) = 26.90872 45.48693 36.19782
# Shear Modulus (GPa) = 25.39123 32.51786 28.95454
#
# Velocity S-wave (km/s) = 3.57630 4.04719 3.81901
# Velocity P-wave (km/s) = 5.53241 6.68970 6.13839
#
# Compressibility (1/GPa) = 0.03716268
#
# Stress axis : x y z
#
# Youngs Moduli (GPa) = 123.74034 89.33603 30.67059
#
# Poissons Ratio (x) = 0.29636 0.02614
# Poissons Ratio (y) = 0.41049 0.09780
# Poissons Ratio (z) = 0.10546 0.28488
#
# Static dielectric constant tensor:
#      x y z
#    x 3.959200 0.000000 0.000000 
#    y 0.000000 3.684110 0.000000 
#    z 0.000000 0.000000 3.652780 
# 
# 
# High freq. dielectric constant tensor:
#      x y z
#    x 1.794430 0.000000 0.000000 
#    y 0.000000 1.771800 0.000000 
#    z 0.000000 0.000000 1.777420 
# 
# From -- ./inp_files/6536.got.cif
#   From: 2010.03.12/outbox.cif.g09.slc.cpg/sg47_4_cif.got.tgz:6536.got - 2010.04.14 03:12:58.
