data_PCOD8198736
_publ_section_title
;
Structure prediction by ZEFSAII (Michael W. Deem and Ramdas Pophale) SiO2 
 PCOD8198736
Probable space group: P M M M
;
_chemical_formula_sum "Si O2"
_cell_formula_units_Z 44
_cell_length_a 28.249490
_cell_length_b 9.054301
_cell_length_c 9.249846
_cell_angle_alpha 90.000000
_cell_angle_beta 90.000000
_cell_angle_gamma 90.000000
_cell_volume 2365.919926
_symmetry_space_group_name_H-M "P M M M"
_symmetry_group_IT_number 47
_symmetry_cell_setting 'orthorhombic'
loop_
_space_group_symop_operation_xyz
x,y,z
-x,-y,z
x,-y,-z
-x,y,-z
-x,-y,-z
x,y,-z
-x,y,z
x,-y,z
loop_
_atom_site_type_symbol
_atom_site_label
_atom_site_fract_x
_atom_site_fract_y
_atom_site_fract_z
Si Si1 0.414544 0.326810 0.169242
Si Si2 0.773216 0.671760 0.831261
Si Si3 0.054100 0.828135 0.164175
Si Si4 0.500000 0.172914 0.670089
Si Si5 0.319920 0.166140 0.171602
Si Si6 0.865213 0.325701 0.664310
O O1 0.415775 0.500000 0.202045
O O2 0.454156 0.245960 0.260852
O O3 0.364458 0.262662 0.223012
O O4 0.423140 0.294936 0.000000
O O5 0.764415 0.500000 0.799064
O O6 0.728040 0.759668 0.769252
O O7 0.819492 0.733116 0.750434
O O8 0.780937 0.701495 0.000000
O O9 0.086911 0.738694 0.271620
O O10 0.000000 0.794250 0.206521
O O11 0.065203 0.000000 0.180982
O O12 0.063878 0.777214 0.000000
O O13 0.500000 0.203584 0.500000
O O14 0.500000 0.000000 0.705910
O O15 0.324398 0.000000 0.233161
O O16 0.318104 0.164785 0.000000
O O17 0.860272 0.272919 0.500000
O O18 0.868465 0.500000 0.677983
#
# Coordination Sequence:
#
# PCOD8198736 Si02
#       6
#     8   8   8   4   8   8
#     4  10  20  35  57  83 108 137 176 218 260 310
#     4   9  17  31  51  73  99 133 172 213 257 305
#     4   9  19  36  56  77 101 131 170 215 261 310
#     4  11  24  39  54  76 108 143 178 217 262 312
#     4   9  17  30  51  79 106 132 168 216 265 308
#     4  10  21  35  51  75 107 140 174 212 255 306
#
# _framework density 18.597418999999999
#
# number of rings (size 3 to 8) (size 9 to 14) (size 15 to 20)
#    0.000    2.455    0.000    2.727    0.000    8.000 
#    0.000    5.455    0.000    3.273    0.000    0.000 
#    0.000    0.000    0.000    0.000    0.000    0.000 
#
# Total GULP energy -545676.811829 kJ/mol
# GULP energy per Si atom -12401.745723 kJ/mol
# Density = 1.855509 g / cm^3
# Si number density = 18.597419 Si / 1000 Ang^3
#
#
#
# Elastic Constant Matrix: (Units=GPa)
#
#
# Indices 1 2 3 4 5 6 
#
# 1 156.4858 61.0534 68.8878 0.0000 0.0000 0.0000
# 2 61.0534 81.8261 50.0057 0.0000 0.0000 0.0000
# 3 68.8878 50.0057 78.4955 0.0000 0.0000 0.0000
# 4 0.0000 0.0000 0.0000 23.0690 0.0000 0.0000
# 5 0.0000 0.0000 0.0000 0.0000 -2.4188 0.0000
# 6 0.0000 0.0000 0.0000 0.0000 0.0000 -51.1407
#
#
#
# Elastic Compliance Matrix: (Units=1/GPa)
#
#
# Indices 1 2 3 4 5 6 
#
# 1 0.011095 -0.003812 -0.007309 0.000000 0.000000 0.000000
# 2 -0.003812 0.021322 -0.010238 0.000000 0.000000 0.000000
# 3 -0.007309 -0.010238 0.025675 0.000000 0.000000 0.000000
# 4 0.000000 0.000000 0.000000 0.043348 0.000000 0.000000
# 5 0.000000 0.000000 0.000000 0.000000 -0.413434 0.000000
# 6 0.000000 0.000000 0.000000 0.000000 0.000000 -0.019554
#
#
# Mechanical properties :
#
#
# Convention : Reuss Voigt Hill
#
# Bulk Modulus (GPa) = 65.03701 75.18902 70.11301
# Shear Modulus (GPa) = -17.62387 3.02594 -7.29897
#
# Velocity S-wave (km/s) = -3.08173 1.27695 -1.98324
# Velocity P-wave (km/s) = 4.73119 6.53389 5.70420
#
# Compressibility (1/GPa) = 0.01537586
#
# Stress axis : x y z
#
# Youngs Moduli (GPa) = 90.13119 46.90051 38.94769
#
# Poissons Ratio (x) = 0.17878 0.28465
# Poissons Ratio (y) = 0.34357 0.39873
# Poissons Ratio (z) = 0.65873 0.48015
#
# Static dielectric constant tensor:
#      x y z
#    x 3.646110 0.000000 0.000000 
#    y 0.000000 3.443750 0.000000 
#    z 0.000000 0.000000 3.237520 
# 
# 
# High freq. dielectric constant tensor:
#      x y z
#    x 1.738420 0.000000 0.000000 
#    y 0.000000 1.723400 0.000000 
#    z 0.000000 0.000000 1.696330 
# 
# From -- ./inp_files/2168.got.cif
#   From: 2010.03.12/outbox.cif.g09.slc.cpg/sg47_2_cif.got.tgz:2168.got - 2010.04.14 03:12:58.
