data_PCOD8198534
_publ_section_title
;
Structure prediction by ZEFSAII (Michael W. Deem and Ramdas Pophale) SiO2 
 PCOD8198534
Probable space group: P M M M
;
_chemical_formula_sum "Si O2"
_cell_formula_units_Z 44
_cell_length_a 17.900694
_cell_length_b 14.182936
_cell_length_c 8.767180
_cell_angle_alpha 90.000000
_cell_angle_beta 90.000000
_cell_angle_gamma 90.000000
_cell_volume 2225.850211
_symmetry_space_group_name_H-M "P M M M"
_symmetry_group_IT_number 47
_symmetry_cell_setting 'orthorhombic'
loop_
_space_group_symop_operation_xyz
x,y,z
-x,-y,z
x,-y,-z
-x,y,-z
-x,-y,-z
x,y,-z
-x,y,z
x,-y,z
loop_
_atom_site_type_symbol
_atom_site_label
_atom_site_fract_x
_atom_site_fract_y
_atom_site_fract_z
Si Si1 0.584555 0.286320 0.175059
Si Si2 0.860165 0.703221 0.824394
Si Si3 0.638473 0.893422 0.322670
Si Si4 0.000000 0.605524 0.320807
Si Si5 0.205763 0.104597 0.174161
Si Si6 0.281454 0.609984 0.323150
O O1 0.500000 0.322481 0.196936
O O2 0.587960 0.177085 0.225095
O O3 0.637839 0.349517 0.279449
O O4 0.609827 0.295396 0.000000
O O5 0.926599 0.661046 0.726902
O O6 0.857113 0.816227 0.795205
O O7 0.781600 0.658560 0.777910
O O8 0.875948 0.680050 0.000000
O O9 0.625736 0.872971 0.500000
O O10 0.725327 0.876059 0.285858
O O11 0.615111 0.000000 0.279865
O O12 0.000000 0.500000 0.249679
O O13 0.000000 0.597587 0.500000
O O14 0.171763 0.000000 0.203975
O O15 0.234841 0.113199 0.000000
O O16 0.265659 0.630809 0.500000
O O17 0.280781 0.500000 0.287140
#
# Coordination Sequence:
#
# PCOD8198534 Si02
#       6
#     8   8   8   4   8   8
#     4  11  24  40  58  83 116 155 200 250 301 353
#     4  11  22  38  64  94 122 156 197 242 293 351
#     4  10  20  34  56  86 118 154 196 243 295 351
#     4  11  25  43  62  87 122 162 201 247 302 351
#     4   9  18  34  58  88 121 156 194 236 286 348
#     4  11  24  41  62  87 116 153 196 244 302 364
#
# _framework density 19.767728000000002
#
# number of rings (size 3 to 8) (size 9 to 14) (size 15 to 20)
#    0.000    1.545    1.818    3.000    0.000    8.364 
#    0.000    4.091    0.000    2.727    0.000    0.000 
#    0.000    0.000    0.000    0.000    0.000    0.000 
#
# Total GULP energy -545716.052009 kJ/mol
# GULP energy per Si atom -12402.637546 kJ/mol
# Density = 1.972274 g / cm^3
# Si number density = 19.767728 Si / 1000 Ang^3
#
#
#
# Elastic Constant Matrix: (Units=GPa)
#
#
# Indices 1 2 3 4 5 6 
#
# 1 88.8515 44.2207 18.8184 0.0000 0.0000 0.0000
# 2 44.2207 114.3105 31.9588 0.0000 0.0000 0.0000
# 3 18.8184 31.9588 53.9339 0.0000 0.0000 0.0000
# 4 0.0000 0.0000 0.0000 30.9071 0.0000 0.0000
# 5 0.0000 0.0000 0.0000 0.0000 -2.4411 0.0000
# 6 0.0000 0.0000 0.0000 0.0000 0.0000 15.3907
#
#
#
# Elastic Compliance Matrix: (Units=1/GPa)
#
#
# Indices 1 2 3 4 5 6 
#
# 1 0.014121 -0.004896 -0.002026 0.000000 0.000000 0.000000
# 2 -0.004896 0.012183 -0.005511 0.000000 0.000000 0.000000
# 3 -0.002026 -0.005511 0.022513 0.000000 0.000000 0.000000
# 4 0.000000 0.000000 0.000000 0.032355 0.000000 0.000000
# 5 0.000000 0.000000 0.000000 0.000000 -0.409646 0.000000
# 6 0.000000 0.000000 0.000000 0.000000 0.000000 0.064974
#
#
# Mechanical properties :
#
#
# Convention : Reuss Voigt Hill
#
# Bulk Modulus (GPa) = 41.75046 49.67685 45.71366
# Shear Modulus (GPa) = -21.67777 19.57789 -1.04994
#
# Velocity S-wave (km/s) = -3.31512 3.15047 -0.72958
# Velocity P-wave (km/s) = 2.55205 6.19829 4.73982
#
# Compressibility (1/GPa) = 0.02395183
#
# Stress axis : x y z
#
# Youngs Moduli (GPa) = 70.81883 82.08279 44.41811
#
# Poissons Ratio (x) = 0.40189 0.08997
# Poissons Ratio (y) = 0.34674 0.24477
# Poissons Ratio (z) = 0.14345 0.45233
#
# Static dielectric constant tensor:
#      x y z
#    x 3.408470 0.000000 0.000000 
#    y 0.000000 3.938680 0.000000 
#    z 0.000000 0.000000 3.656210 
# 
# 
# High freq. dielectric constant tensor:
#      x y z
#    x 1.749510 0.000000 0.000000 
#    y 0.000000 1.786570 0.000000 
#    z 0.000000 0.000000 1.779720 
# 
# From -- ./inp_files/8997.got.cif
#   From: 2010.03.12/outbox.cif.g09.slc.cpg/sg47_5_cif.got.tgz:8997.got - 2010.04.14 03:12:58.
