data_PCOD8198508
_publ_section_title
;
Structure prediction by ZEFSAII (Michael W. Deem and Ramdas Pophale) SiO2 
 PCOD8198508
Probable space group: P M M M
;
_chemical_formula_sum "Si O2"
_cell_formula_units_Z 48
_cell_length_a 9.895280
_cell_length_b 7.684985
_cell_length_c 34.119425
_cell_angle_alpha 90.000000
_cell_angle_beta 90.000000
_cell_angle_gamma 90.000000
_cell_volume 2594.614348
_symmetry_space_group_name_H-M "P M M M"
_symmetry_group_IT_number 47
_symmetry_cell_setting 'orthorhombic'
loop_
_space_group_symop_operation_xyz
x,y,z
-x,-y,z
x,-y,-z
-x,y,-z
-x,-y,-z
x,y,-z
-x,y,z
x,-y,z
loop_
_atom_site_type_symbol
_atom_site_label
_atom_site_fract_x
_atom_site_fract_y
_atom_site_fract_z
Si Si1 0.655043 0.000000 0.672527
Si Si2 0.853127 0.298888 0.110903
Si Si3 0.150981 0.293684 0.456681
Si Si4 0.349729 0.794728 0.043428
Si Si5 0.160589 0.305670 0.195790
Si Si6 0.838675 0.000000 0.252079
Si Si7 0.655040 0.299543 0.388519
O O1 0.761345 0.000000 0.707298
O O2 0.683564 0.175704 0.648245
O O3 0.500000 0.000000 0.687656
O O4 0.877521 0.500000 0.117629
O O5 0.752781 0.273147 0.075329
O O6 0.793541 0.232431 0.152719
O O7 0.000000 0.211858 0.101385
O O8 0.190098 0.222252 0.500000
O O9 0.155212 0.500000 0.457622
O O10 0.256182 0.225648 0.424463
O O11 0.000000 0.229690 0.445530
O O12 0.500000 0.723501 0.052850
O O13 0.351148 0.000000 0.044393
O O14 0.305369 0.730200 0.000000
O O15 0.219031 0.500000 0.204727
O O16 0.210467 0.171323 0.228648
O O17 0.000000 0.312685 0.195413
O O18 0.000000 0.000000 0.259075
O O19 0.500000 0.285709 0.401901
O O20 0.692034 0.500000 0.377472
#
# Coordination Sequence:
#
# PCOD8198508 Si02
#       7
#     4   8   8   8   8   4   8
#     4  10  22  38  51  71 104 130 159 208 252 291
#     4   9  18  32  51  75 100 126 159 202 248 292
#     4   8  14  26  46  73 103 132 164 206 252 291
#     4   9  19  34  48  66  97 135 171 205 241 284
#     4   8  16  32  52  77 106 128 155 201 249 295
#     4  10  20  34  56  79  96 127 166 196 242 304
#     4   9  18  33  52  71  95 133 172 203 243 292
#
# _framework density 18.499858
#
# number of rings (size 3 to 8) (size 9 to 14) (size 15 to 20)
#    0.000    3.167    0.000    2.000    1.167    3.000 
#    0.000    5.417    0.000    3.500    0.000    0.000 
#    0.000    0.000    0.000    0.000    0.000    0.000 
#
# Total GULP energy -594762.824516 kJ/mol
# GULP energy per Si atom -12390.892177 kJ/mol
# Density = 1.845775 g / cm^3
# Si number density = 18.499858 Si / 1000 Ang^3
#
#
#
# Elastic Constant Matrix: (Units=GPa)
#
#
# Indices 1 2 3 4 5 6 
#
# 1 84.9023 29.6731 83.3539 0.0000 0.0000 0.0000
# 2 29.6731 70.0637 49.2197 0.0000 0.0000 0.0000
# 3 83.3539 49.2197 155.2409 0.0000 0.0000 0.0000
# 4 0.0000 0.0000 0.0000 16.0179 0.0000 0.0000
# 5 0.0000 0.0000 0.0000 0.0000 -39.9780 0.0000
# 6 0.0000 0.0000 0.0000 0.0000 0.0000 16.1630
#
#
#
# Elastic Compliance Matrix: (Units=1/GPa)
#
#
# Indices 1 2 3 4 5 6 
#
# 1 0.025029 -0.001492 -0.012966 0.000000 0.000000 0.000000
# 2 -0.001492 0.018452 -0.005049 0.000000 0.000000 0.000000
# 3 -0.012966 -0.005049 0.015004 0.000000 0.000000 0.000000
# 4 0.000000 0.000000 0.000000 0.062430 0.000000 0.000000
# 5 0.000000 0.000000 0.000000 0.000000 -0.025014 0.000000
# 6 0.000000 0.000000 0.000000 0.000000 0.000000 0.061870
#
#
# Mechanical properties :
#
#
# Convention : Reuss Voigt Hill
#
# Bulk Modulus (GPa) = 51.35771 70.52224 60.93998
# Shear Modulus (GPa) = 24.59718 8.30460 16.45089
#
# Velocity S-wave (km/s) = 3.65031 2.12103 2.98525
# Velocity P-wave (km/s) = 6.75187 6.64842 6.70034
#
# Compressibility (1/GPa) = 0.01947127
#
# Stress axis : x y z
#
# Youngs Moduli (GPa) = 39.95351 54.19612 66.64733
#
# Poissons Ratio (x) = 0.08084 0.86415
# Poissons Ratio (y) = 0.05959 0.33652
# Poissons Ratio (z) = 0.51804 0.27365
#
# Static dielectric constant tensor:
#      x y z
#    x 3.042610 0.000000 0.000000 
#    y 0.000000 3.493860 0.000000 
#    z 0.000000 0.000000 4.978290 
# 
# 
# High freq. dielectric constant tensor:
#      x y z
#    x 1.694940 0.000000 0.000000 
#    y 0.000000 1.714550 0.000000 
#    z 0.000000 0.000000 1.714900 
# 
# From -- ./inp_files/34067.got.cif
#   From: 2010.03.12/outbox.cif.g09.slc.cpg/sg47_18_cif.got.tgz:34067.got - 2010.04.14 03:12:58.
