data_PCOD8198727
_publ_section_title
;
Structure prediction by ZEFSAII (Michael W. Deem and Ramdas Pophale) SiO2 
 PCOD8198727
Probable space group: P M M M
;
_chemical_formula_sum "Si O2"
_cell_formula_units_Z 48
_cell_length_a 9.102750
_cell_length_b 8.997150
_cell_length_c 31.248763
_cell_angle_alpha 90.000000
_cell_angle_beta 90.000000
_cell_angle_gamma 90.000000
_cell_volume 2559.236415
_symmetry_space_group_name_H-M "P M M M"
_symmetry_group_IT_number 47
_symmetry_cell_setting 'orthorhombic'
loop_
_space_group_symop_operation_xyz
x,y,z
-x,-y,z
x,-y,-z
-x,y,-z
-x,-y,-z
x,y,-z
-x,y,z
x,-y,z
loop_
_atom_site_type_symbol
_atom_site_label
_atom_site_fract_x
_atom_site_fract_y
_atom_site_fract_z
Si Si1 0.825452 0.832720 0.664266
Si Si2 0.665786 0.677037 0.833386
Si Si3 0.672887 0.172454 0.500000
Si Si4 0.166037 0.322697 0.916506
Si Si5 0.170969 0.673438 0.250937
Si Si6 0.828016 0.326310 0.578723
Si Si7 0.333959 0.677202 0.000000
O O1 0.765713 0.758241 0.707666
O O2 0.770332 0.739029 0.623631
O O3 0.000000 0.830874 0.665440
O O4 0.764160 0.000000 0.660760
O O5 0.500000 0.737925 0.835000
O O6 0.668259 0.500000 0.834225
O O7 0.753291 0.739683 0.874321
O O8 0.742933 0.734898 0.790267
O O9 0.500000 0.197961 0.500000
O O10 0.739321 0.247313 0.541666
O O11 0.715439 0.000000 0.500000
O O12 0.166501 0.500000 0.916338
O O13 0.250870 0.261873 0.958112
O O14 0.000000 0.261836 0.917238
O O15 0.199374 0.500000 0.258417
O O16 0.000000 0.706519 0.243361
O O17 0.793754 0.500000 0.577941
O O18 0.000000 0.294192 0.571998
O O19 0.334154 0.500000 0.000000
O O20 0.500000 0.738413 0.000000
#
# Coordination Sequence:
#
# PCOD8198727 Si02
#       7
#     8   8   4   8   8   8   4
#     4   9  17  30  50  75 100 126 158 198 243 289
#     4   9  16  25  37  54  77 106 142 184 229 277
#     4  11  24  39  54  76 108 143 176 211 254 302
#     4   9  15  22  32  47  69 100 140 184 228 275
#     4   9  16  27  44  65  88 115 149 189 231 277
#     4  10  20  35  57  83 107 134 172 214 253 297
#     4   9  15  21  29  43  67 101 140 181 226 277
#
# _framework density 18.755593999999999
#
# number of rings (size 3 to 8) (size 9 to 14) (size 15 to 20)
#    0.000    2.667    0.000    2.750    0.000    9.667 
#    0.000    0.833    0.000    3.500    0.000    0.000 
#    0.000    0.000    0.000    0.750    0.000   16.333 
#
# Total GULP energy -595208.015472 kJ/mol
# GULP energy per Si atom -12400.166989 kJ/mol
# Density = 1.871291 g / cm^3
# Si number density = 18.755594 Si / 1000 Ang^3
#
#
#
# Elastic Constant Matrix: (Units=GPa)
#
#
# Indices 1 2 3 4 5 6 
#
# 1 111.0815 38.5387 86.9347 0.0000 0.0000 0.0000
# 2 38.5387 67.9609 59.7470 0.0000 0.0000 0.0000
# 3 86.9347 59.7470 216.4589 0.0000 0.0000 0.0000
# 4 0.0000 0.0000 0.0000 -2.4071 0.0000 0.0000
# 5 0.0000 0.0000 0.0000 0.0000 2.7344 0.0000
# 6 0.0000 0.0000 0.0000 0.0000 0.0000 11.6553
#
#
#
# Elastic Compliance Matrix: (Units=1/GPa)
#
#
# Indices 1 2 3 4 5 6 
#
# 1 0.013878 -0.003921 -0.004491 0.000000 0.000000 0.000000
# 2 -0.003921 0.020537 -0.004094 0.000000 0.000000 0.000000
# 3 -0.004491 -0.004094 0.007554 0.000000 0.000000 0.000000
# 4 0.000000 0.000000 0.000000 -0.415440 0.000000 0.000000
# 5 0.000000 0.000000 0.000000 0.000000 0.365708 0.000000
# 6 0.000000 0.000000 0.000000 0.000000 0.000000 0.085798
#
#
# Mechanical properties :
#
#
# Convention : Reuss Voigt Hill
#
# Bulk Modulus (GPa) = 58.97705 85.10468 72.04086
# Shear Modulus (GPa) = 45.99850 16.41524 31.20687
#
# Velocity S-wave (km/s) = 4.95767 2.96162 4.08348
# Velocity P-wave (km/s) = 8.01777 7.56102 7.79274
#
# Compressibility (1/GPa) = 0.01695575
#
# Stress axis : x y z
#
# Youngs Moduli (GPa) = 72.05738 48.69275 132.38759
#
# Poissons Ratio (x) = 0.19094 0.59459
# Poissons Ratio (y) = 0.28255 0.54196
# Poissons Ratio (z) = 0.32363 0.19934
#
# Static dielectric constant tensor:
#      x y z
#    x 3.360200 0.000000 0.000000 
#    y 0.000000 3.050100 0.000000 
#    z 0.000000 0.000000 3.755270 
# 
# 
# High freq. dielectric constant tensor:
#      x y z
#    x 1.713360 0.000000 0.000000 
#    y 0.000000 1.680980 0.000000 
#    z 0.000000 0.000000 1.750320 
# 
# From -- ./inp_files/13979.got.cif
#   From: 2010.03.12/outbox.cif.g09.slc.cpg/sg47_7_cif.got.tgz:13979.got - 2010.04.14 03:12:58.
