data_PCOD8198450
_publ_section_title
;
Structure prediction by ZEFSAII (Michael W. Deem and Ramdas Pophale) SiO2 
 PCOD8198450
Probable space group: P M M M
;
_chemical_formula_sum "Si O2"
_cell_formula_units_Z 56
_cell_length_a 8.731560
_cell_length_b 17.016760
_cell_length_c 20.419136
_cell_angle_alpha 90.000000
_cell_angle_beta 90.000000
_cell_angle_gamma 90.000000
_cell_volume 3033.933645
_symmetry_space_group_name_H-M "P M M M"
_symmetry_group_IT_number 47
_symmetry_cell_setting 'orthorhombic'
loop_
_space_group_symop_operation_xyz
x,y,z
-x,-y,z
x,-y,-z
-x,y,-z
-x,-y,-z
x,y,-z
-x,y,z
x,-y,z
loop_
_atom_site_type_symbol
_atom_site_label
_atom_site_fract_x
_atom_site_fract_y
_atom_site_fract_z
Si Si1 0.679852 0.660067 0.308671
Si Si2 0.679098 0.500000 0.875083
Si Si3 0.175729 0.653726 0.074375
Si Si4 0.181329 0.084536 0.623908
Si Si5 0.179080 0.248076 0.574011
Si Si6 0.178238 0.088711 0.772678
Si Si7 0.180374 0.500000 0.267414
Si Si8 0.679470 0.759001 0.182069
O O1 0.500000 0.646915 0.306323
O O2 0.725470 0.697745 0.377618
O O3 0.760303 0.576308 0.304903
O O4 0.733254 0.715286 0.248561
O O5 0.500000 0.500000 0.860142
O O6 0.722851 0.576322 0.916225
O O7 0.765614 0.500000 0.806802
O O8 0.231994 0.722996 0.120882
O O9 0.000000 0.633049 0.090529
O O10 0.194730 0.683018 0.000000
O O11 0.237660 0.157664 0.580356
O O12 0.236431 0.096998 0.698244
O O13 0.000000 0.079826 0.622997
O O14 0.245666 0.000000 0.597628
O O15 0.209930 0.276215 0.500000
O O16 0.000000 0.253779 0.592116
O O17 0.276733 0.149281 0.815472
O O18 0.000000 0.110673 0.778482
O O19 0.207627 0.000000 0.798193
O O20 0.000000 0.500000 0.269429
O O21 0.500000 0.748907 0.170670
#
# Coordination Sequence:
#
# PCOD8198450 Si02
#       8
#     8   4   8   8   8   8   4   8
#     4  11  23  39  58  83 114 148 187 233 284 341
#     4  12  23  37  58  88 123 157 188 223 277 340
#     4  11  24  40  59  85 118 156 195 233 277 333
#     4   8  14  26  47  77 111 145 182 228 281 331
#     4  10  20  34  55  82 112 149 193 239 285 337
#     4   9  17  31  54  82 112 148 191 238 285 334
#     4  12  24  39  64  89 112 144 184 238 286 329
#     4  11  22  35  57  85 115 152 191 235 284 337
#
# _framework density 18.457885000000001
#
# number of rings (size 3 to 8) (size 9 to 14) (size 15 to 20)
#    0.000    1.714    2.857    3.643    0.000    4.000 
#    0.000    1.786    0.000    3.000    0.000    4.000 
#    0.000    0.000    0.000    0.000    0.000    0.000 
#
# Total GULP energy -694445.498081 kJ/mol
# GULP energy per Si atom -12400.812466 kJ/mol
# Density = 1.841587 g / cm^3
# Si number density = 18.457885 Si / 1000 Ang^3
#
#
#
# Elastic Constant Matrix: (Units=GPa)
#
#
# Indices 1 2 3 4 5 6 
#
# 1 68.4738 48.2506 39.4185 0.0000 0.0000 0.0000
# 2 48.2506 118.2485 51.7991 0.0000 0.0000 0.0000
# 3 39.4185 51.7991 99.8673 0.0000 0.0000 0.0000
# 4 0.0000 0.0000 0.0000 36.7489 0.0000 0.0000
# 5 0.0000 0.0000 0.0000 0.0000 21.4729 0.0000
# 6 0.0000 0.0000 0.0000 0.0000 0.0000 20.1798
#
#
#
# Elastic Compliance Matrix: (Units=1/GPa)
#
#
# Indices 1 2 3 4 5 6 
#
# 1 0.022495 -0.006845 -0.005329 0.000000 0.000000 0.000000
# 2 -0.006845 0.013026 -0.004055 0.000000 0.000000 0.000000
# 3 -0.005329 -0.004055 0.014220 0.000000 0.000000 0.000000
# 4 0.000000 0.000000 0.000000 0.027212 0.000000 0.000000
# 5 0.000000 0.000000 0.000000 0.000000 0.046570 0.000000
# 6 0.000000 0.000000 0.000000 0.000000 0.000000 0.049555
#
#
# Mechanical properties :
#
#
# Convention : Reuss Voigt Hill
#
# Bulk Modulus (GPa) = 57.85576 62.83623 60.34599
# Shear Modulus (GPa) = 23.66369 25.48841 24.57605
#
# Velocity S-wave (km/s) = 3.58444 3.72007 3.65288
# Velocity P-wave (km/s) = 6.96733 7.25044 7.11029
#
# Compressibility (1/GPa) = 0.01728436
#
# Stress axis : x y z
#
# Youngs Moduli (GPa) = 44.45460 76.77073 70.32530
#
# Poissons Ratio (x) = 0.52547 0.37475
# Poissons Ratio (y) = 0.30427 0.28514
# Poissons Ratio (z) = 0.23689 0.31127
#
# Static dielectric constant tensor:
#      x y z
#    x 3.285250 0.000000 0.000000 
#    y 0.000000 4.521940 0.000000 
#    z 0.000000 0.000000 3.252300 
# 
# 
# High freq. dielectric constant tensor:
#      x y z
#    x 1.706320 0.000000 0.000000 
#    y 0.000000 1.722850 0.000000 
#    z 0.000000 0.000000 1.698490 
# 
# From -- ./inp_files/29818.got.cif
#   From: 2010.03.12/outbox.cif.g09.slc.cpg/sg47_15_cif.got.tgz:29818.got - 2010.04.14 03:12:58.
