data_PCOD8198630
_publ_section_title
;
Structure prediction by ZEFSAII (Michael W. Deem and Ramdas Pophale) SiO2 
 PCOD8198630
Probable space group: P M M M
;
_chemical_formula_sum "Si O2"
_cell_formula_units_Z 32
_cell_length_a 8.901713
_cell_length_b 22.136397
_cell_length_c 9.115969
_cell_angle_alpha 90.000000
_cell_angle_beta 90.000000
_cell_angle_gamma 90.000000
_cell_volume 1796.318583
_symmetry_space_group_name_H-M "P M M M"
_symmetry_group_IT_number 47
_symmetry_cell_setting 'orthorhombic'
loop_
_space_group_symop_operation_xyz
x,y,z
-x,-y,z
x,-y,-z
-x,y,-z
-x,-y,-z
x,y,-z
-x,y,z
x,-y,z
loop_
_atom_site_type_symbol
_atom_site_label
_atom_site_fract_x
_atom_site_fract_y
_atom_site_fract_z
Si Si1 0.834547 0.838456 0.662354
Si Si2 0.677772 0.500000 0.668044
Si Si3 0.326521 0.279167 0.327692
Si Si4 0.175972 0.611637 0.829497
Si Si5 0.000000 0.931333 0.172658
O O1 0.784573 0.860081 0.500000
O O2 0.717440 0.788838 0.722317
O O3 0.000000 0.807291 0.655157
O O4 0.849026 0.897726 0.766533
O O5 0.500000 0.500000 0.678116
O O6 0.732349 0.500000 0.500000
O O7 0.737798 0.440789 0.746260
O O8 0.292775 0.287944 0.500000
O O9 0.500000 0.290490 0.291365
O O10 0.226305 0.324552 0.234813
O O11 0.000000 0.602833 0.804684
O O12 0.218406 0.608858 0.000000
O O13 0.000000 0.000000 0.228739
O O14 0.000000 0.927451 0.000000
#
# Coordination Sequence:
#
# PCOD8198630 Si02
#       5
#     8   4   8   8   4
#     4   8  16  30  49  74 102 134 171 211 257 306
#     4  11  24  41  60  82 106 137 178 221 268 320
#     4  10  20  35  55  79 107 139 176 218 265 317
#     4  11  24  39  56  80 109 140 177 220 265 315
#     4   9  17  29  49  77 105 134 173 218 259 303
#
# _framework density 17.814211
#
# number of rings (size 3 to 8) (size 9 to 14) (size 15 to 20)
#    0.750    1.500    0.000    3.000    0.000   11.000 
#    0.000    0.000    0.000    0.750    0.000    5.250 
#    0.000    0.000    0.000    0.000    0.000    0.000 
#
# Total GULP energy -396636.869896 kJ/mol
# GULP energy per Si atom -12394.902184 kJ/mol
# Density = 1.777367 g / cm^3
# Si number density = 17.814211 Si / 1000 Ang^3
#
#
#
# Elastic Constant Matrix: (Units=GPa)
#
#
# Indices 1 2 3 4 5 6 
#
# 1 49.0252 28.9398 38.9149 0.0000 0.0000 0.0000
# 2 28.9398 132.2351 69.8828 0.0000 0.0000 0.0000
# 3 38.9149 69.8828 100.9928 0.0000 0.0000 0.0000
# 4 0.0000 0.0000 0.0000 49.2030 0.0000 0.0000
# 5 0.0000 0.0000 0.0000 0.0000 20.9907 0.0000
# 6 0.0000 0.0000 0.0000 0.0000 0.0000 -6.7192
#
#
#
# Elastic Compliance Matrix: (Units=1/GPa)
#
#
# Indices 1 2 3 4 5 6 
#
# 1 0.029427 -0.000706 -0.010851 0.000000 0.000000 0.000000
# 2 -0.000706 0.011939 -0.007989 0.000000 0.000000 0.000000
# 3 -0.010851 -0.007989 0.019611 0.000000 0.000000 0.000000
# 4 0.000000 0.000000 0.000000 0.020324 0.000000 0.000000
# 5 0.000000 0.000000 0.000000 0.000000 0.047640 0.000000
# 6 0.000000 0.000000 0.000000 0.000000 0.000000 -0.148826
#
#
# Mechanical properties :
#
#
# Convention : Reuss Voigt Hill
#
# Bulk Modulus (GPa) = 45.69206 61.96979 53.83092
# Shear Modulus (GPa) = 188.67101 22.32928 105.50015
#
# Velocity S-wave (km/s) = 10.30244 3.54426 7.70396
# Velocity P-wave (km/s) = 12.93156 7.18410 10.46032
#
# Compressibility (1/GPa) = 0.02188564
#
# Stress axis : x y z
#
# Youngs Moduli (GPa) = 33.98208 83.76024 50.99231
#
# Poissons Ratio (x) = 0.05913 0.55329
# Poissons Ratio (y) = 0.02399 0.40738
# Poissons Ratio (z) = 0.36872 0.66917
#
# Static dielectric constant tensor:
#      x y z
#    x 3.222860 0.000000 0.000000 
#    y 0.000000 3.368740 0.000000 
#    z 0.000000 0.000000 3.338860 
# 
# 
# High freq. dielectric constant tensor:
#      x y z
#    x 1.676100 0.000000 0.000000 
#    y 0.000000 1.687330 0.000000 
#    z 0.000000 0.000000 1.692760 
# 
# From -- ./inp_files/1288.got.cif
#   From: 2010.03.12/outbox.cif.g09.slc.cpg/sg47_1_cif.got.tgz:1288.got - 2010.04.14 03:12:58.
