data_PCOD8198362
_publ_section_title
;
Structure prediction by ZEFSAII (Michael W. Deem and Ramdas Pophale) SiO2 
 PCOD8198362
Probable space group: P M M M
;
_chemical_formula_sum "Si O2"
_cell_formula_units_Z 40
_cell_length_a 26.006827
_cell_length_b 9.125818
_cell_length_c 9.027502
_cell_angle_alpha 90.000000
_cell_angle_beta 90.000000
_cell_angle_gamma 90.000000
_cell_volume 2142.529277
_symmetry_space_group_name_H-M "P M M M"
_symmetry_group_IT_number 47
_symmetry_cell_setting 'orthorhombic'
loop_
_space_group_symop_operation_xyz
x,y,z
-x,-y,z
x,-y,-z
-x,y,-z
-x,-y,-z
x,y,-z
-x,y,z
x,-y,z
loop_
_atom_site_type_symbol
_atom_site_label
_atom_site_fract_x
_atom_site_fract_y
_atom_site_fract_z
Si Si1 0.797302 0.173147 0.167262
Si Si2 0.305912 0.168904 0.325739
Si Si3 0.000000 0.673294 0.661759
Si Si4 0.110998 0.332209 0.676170
Si Si5 0.398372 0.328143 0.827917
Si Si6 0.500000 0.165278 0.175886
O O1 0.746559 0.226998 0.252530
O O2 0.847514 0.231371 0.247342
O O3 0.800500 0.000000 0.170755
O O4 0.794831 0.233260 0.000000
O O5 0.300574 0.188907 0.500000
O O6 0.351251 0.269585 0.266704
O O7 0.316826 0.000000 0.282444
O O8 0.054211 0.716153 0.740023
O O9 0.000000 0.500000 0.640591
O O10 0.000000 0.747641 0.500000
O O11 0.112560 0.310231 0.500000
O O12 0.122776 0.500000 0.717857
O O13 0.405026 0.500000 0.802129
O O14 0.449565 0.249365 0.766911
O O15 0.388757 0.291054 0.000000
O O16 0.500000 0.000000 0.239308
O O17 0.500000 0.164804 0.000000
#
# Coordination Sequence:
#
# PCOD8198362 Si02
#       6
#     8   8   4   8   8   4
#     4  10  21  36  53  74 102 136 172 211 257 308
#     4  10  21  37  56  76  99 132 174 216 258 306
#     4   7  12  26  48  73 100 130 166 207 250 299
#     4   9  17  31  53  78 102 131 169 212 256 303
#     4  10  20  34  54  81 111 140 171 210 255 302
#     4   9  17  31  54  81 108 141 178 212 248 295
#
# _framework density 18.669523000000002
#
# number of rings (size 3 to 8) (size 9 to 14) (size 15 to 20)
#    0.000    2.600    0.000    3.300    0.000    6.000 
#    0.000    1.500    0.000    7.800    0.000    0.000 
#    0.000    0.000    0.000    0.000    0.000    0.000 
#
# Total GULP energy -495857.887851 kJ/mol
# GULP energy per Si atom -12396.447196 kJ/mol
# Density = 1.862703 g / cm^3
# Si number density = 18.669523 Si / 1000 Ang^3
#
#
#
# Elastic Constant Matrix: (Units=GPa)
#
#
# Indices 1 2 3 4 5 6 
#
# 1 177.1973 48.6993 47.9300 0.0000 0.0000 0.0000
# 2 48.6993 53.0172 23.7235 0.0000 0.0000 0.0000
# 3 47.9300 23.7235 56.7353 0.0000 0.0000 0.0000
# 4 0.0000 0.0000 0.0000 25.1514 0.0000 0.0000
# 5 0.0000 0.0000 0.0000 0.0000 28.8433 0.0000
# 6 0.0000 0.0000 0.0000 0.0000 0.0000 41.3929
#
#
#
# Elastic Compliance Matrix: (Units=1/GPa)
#
#
# Indices 1 2 3 4 5 6 
#
# 1 0.008500 -0.005652 -0.004817 0.000000 0.000000 0.000000
# 2 -0.005652 0.026962 -0.006499 0.000000 0.000000 0.000000
# 3 -0.004817 -0.006499 0.024413 0.000000 0.000000 0.000000
# 4 0.000000 0.000000 0.000000 0.039759 0.000000 0.000000
# 5 0.000000 0.000000 0.000000 0.000000 0.034670 0.000000
# 6 0.000000 0.000000 0.000000 0.000000 0.000000 0.024159
#
#
# Mechanical properties :
#
#
# Convention : Reuss Voigt Hill
#
# Bulk Modulus (GPa) = 38.55397 58.62838 48.59118
# Shear Modulus (GPa) = 24.87007 30.18397 27.52702
#
# Velocity S-wave (km/s) = 3.65378 4.02525 3.84400
# Velocity P-wave (km/s) = 6.20450 7.28525 6.76649
#
# Compressibility (1/GPa) = 0.02593767
#
# Stress axis : x y z
#
# Youngs Moduli (GPa) = 117.65011 37.08983 40.96192
#
# Poissons Ratio (x) = 0.20963 0.19733
# Poissons Ratio (y) = 0.66495 0.26621
# Poissons Ratio (z) = 0.56675 0.24105
#
# Static dielectric constant tensor:
#      x y z
#    x 3.739620 0.000000 0.000000 
#    y 0.000000 3.288690 0.000000 
#    z 0.000000 0.000000 3.250770 
# 
# 
# High freq. dielectric constant tensor:
#      x y z
#    x 1.747080 0.000000 0.000000 
#    y 0.000000 1.710430 0.000000 
#    z 0.000000 0.000000 1.700430 
# 
# From -- ./inp_files/1878.got.cif
#   From: 2010.03.12/outbox.cif.g09.slc.cpg/sg47_1_cif.got.tgz:1878.got - 2010.04.14 03:12:58.
