data_PCOD8198075
_publ_section_title
;
Structure prediction by ZEFSAII (Michael W. Deem and Ramdas Pophale) SiO2 
 PCOD8198075
Probable space group: P M M M
;
_chemical_formula_sum "Si O2"
_cell_formula_units_Z 64
_cell_length_a 31.238285
_cell_length_b 14.158635
_cell_length_c 9.149116
_cell_angle_alpha 90.000000
_cell_angle_beta 90.000000
_cell_angle_gamma 90.000000
_cell_volume 4046.576014
_symmetry_space_group_name_H-M "P M M M"
_symmetry_group_IT_number 47
_symmetry_cell_setting 'orthorhombic'
loop_
_space_group_symop_operation_xyz
x,y,z
-x,-y,z
x,-y,-z
-x,y,-z
-x,-y,-z
x,y,-z
-x,y,z
x,-y,z
loop_
_atom_site_type_symbol
_atom_site_label
_atom_site_fract_x
_atom_site_fract_y
_atom_site_fract_z
Si Si1 0.912758 0.606755 0.831479
Si Si2 0.176007 0.393002 0.329431
Si Si3 0.288794 0.891710 0.829542
Si Si4 0.452968 0.887695 0.164327
Si Si5 0.372022 0.112638 0.335944
Si Si6 0.871248 0.109079 0.670318
Si Si7 0.047702 0.769223 0.666880
Si Si8 0.204288 0.781237 0.826723
O O1 0.930012 0.500000 0.814020
O O2 0.870876 0.623122 0.734913
O O3 0.948263 0.678269 0.771697
O O4 0.901817 0.628881 0.000000
O O5 0.174655 0.367669 0.500000
O O6 0.191882 0.500000 0.302937
O O7 0.207821 0.322589 0.244999
O O8 0.330204 0.849704 0.747987
O O9 0.247191 0.834859 0.779563
O O10 0.280663 0.000000 0.785347
O O11 0.297890 0.881311 0.000000
O O12 0.500000 0.855602 0.222401
O O13 0.415277 0.845106 0.264297
O O14 0.450496 0.000000 0.165347
O O15 0.446150 0.850295 0.000000
O O16 0.369866 0.150765 0.500000
O O17 0.373107 0.000000 0.329319
O O18 0.860073 0.122014 0.500000
O O19 0.918081 0.150221 0.707950
O O20 0.836434 0.163285 0.765690
O O21 0.871206 0.000000 0.716283
O O22 0.054361 0.735896 0.500000
O O23 0.000000 0.811254 0.689500
O O24 0.199910 0.772939 0.000000
#
# Coordination Sequence:
#
# PCOD8198075 Si02
#       8
#     8   8   8   8   8   8   8   8
#     4  10  20  34  53  76  99 122 147 177 216 260
#     4  10  20  34  53  75  98 122 146 175 215 265
#     4   9  18  31  44  60  86 120 153 184 223 269
#     4   8  13  21  33  48  68 100 142 185 230 278
#     4   9  16  24  35  53  77 106 143 189 234 269
#     4  10  21  36  53  72  94 122 154 187 223 262
#     4  10  21  36  53  73  97 125 154 182 217 263
#     4  11  21  33  52  75  96 119 149 186 226 267
#
# _framework density 15.815839
#
# number of rings (size 3 to 8) (size 9 to 14) (size 15 to 20)
#    0.000    2.375    1.250    2.250    0.000    5.750 
#    0.000    5.000    0.000    0.000    0.000    1.750 
#    0.000    0.000    0.000    0.000    0.000    0.625 
#
# Total GULP energy -793525.129140 kJ/mol
# GULP energy per Si atom -12398.830143 kJ/mol
# Density = 1.577984 g / cm^3
# Si number density = 15.815839 Si / 1000 Ang^3
#
#
#
# Elastic Constant Matrix: (Units=GPa)
#
#
# Indices 1 2 3 4 5 6 
#
# 1 130.3915 42.4548 59.0912 0.0000 0.0000 0.0000
# 2 42.4548 71.0775 38.0300 0.0000 0.0000 0.0000
# 3 59.0912 38.0300 82.9123 0.0000 0.0000 0.0000
# 4 0.0000 0.0000 0.0000 20.2296 0.0000 0.0000
# 5 0.0000 0.0000 0.0000 0.0000 21.7248 0.0000
# 6 0.0000 0.0000 0.0000 0.0000 0.0000 6.3860
#
#
#
# Elastic Compliance Matrix: (Units=1/GPa)
#
#
# Indices 1 2 3 4 5 6 
#
# 1 0.011921 -0.003412 -0.006931 0.000000 0.000000 0.000000
# 2 -0.003412 0.019621 -0.006568 0.000000 0.000000 0.000000
# 3 -0.006931 -0.006568 0.020013 0.000000 0.000000 0.000000
# 4 0.000000 0.000000 0.000000 0.049433 0.000000 0.000000
# 5 0.000000 0.000000 0.000000 0.000000 0.046030 0.000000
# 6 0.000000 0.000000 0.000000 0.000000 0.000000 0.156593
#
#
# Mechanical properties :
#
#
# Convention : Reuss Voigt Hill
#
# Bulk Modulus (GPa) = 56.39097 62.61480 59.50289
# Shear Modulus (GPa) = 14.56256 19.32177 16.94216
#
# Velocity S-wave (km/s) = 3.03769 3.49903 3.27649
# Velocity P-wave (km/s) = 6.93077 7.48333 7.21234
#
# Compressibility (1/GPa) = 0.01773334
#
# Stress axis : x y z
#
# Youngs Moduli (GPa) = 83.88383 50.96454 49.96654
#
# Poissons Ratio (x) = 0.17390 0.34633
# Poissons Ratio (y) = 0.28622 0.32819
# Poissons Ratio (z) = 0.58141 0.33474
#
# Static dielectric constant tensor:
#      x y z
#    x 3.081290 0.000000 0.000000 
#    y 0.000000 2.856740 0.000000 
#    z 0.000000 0.000000 3.108700 
# 
# 
# High freq. dielectric constant tensor:
#      x y z
#    x 1.600810 0.000000 0.000000 
#    y 0.000000 1.566680 0.000000 
#    z 0.000000 0.000000 1.617000 
# 
# From -- ./inp_files/14355.got.cif
#   From: 2010.03.12/outbox.cif.g09.slc.cpg/sg47_8_cif.got.tgz:14355.got - 2010.04.14 03:12:58.
