data_PCOD8198576
_publ_section_title
;
Structure prediction by ZEFSAII (Michael W. Deem and Ramdas Pophale) SiO2 
 PCOD8198576
Probable space group: P M M M
;
_chemical_formula_sum "Si O2"
_cell_formula_units_Z 64
_cell_length_a 19.943197
_cell_length_b 20.300696
_cell_length_c 9.102404
_cell_angle_alpha 90.000000
_cell_angle_beta 90.000000
_cell_angle_gamma 90.000000
_cell_volume 3685.206379
_symmetry_space_group_name_H-M "P M M M"
_symmetry_group_IT_number 47
_symmetry_cell_setting 'orthorhombic'
loop_
_space_group_symop_operation_xyz
x,y,z
-x,-y,z
x,-y,-z
-x,y,-z
-x,-y,-z
x,y,-z
-x,y,z
x,-y,z
loop_
_atom_site_type_symbol
_atom_site_label
_atom_site_fract_x
_atom_site_fract_y
_atom_site_fract_z
Si Si1 0.422918 0.303135 0.173755
Si Si2 0.340943 0.572795 0.174690
Si Si3 0.926811 0.634402 0.670929
Si Si4 0.344135 0.185835 0.326761
Si Si5 0.071642 0.769339 0.832738
Si Si6 0.798041 0.373317 0.168706
Si Si7 0.577352 0.923688 0.831957
Si Si8 0.785154 0.217521 0.833793
O O1 0.500000 0.297756 0.220708
O O2 0.395474 0.373898 0.228644
O O3 0.381602 0.246236 0.251322
O O4 0.413448 0.294611 0.000000
O O5 0.361587 0.500000 0.231736
O O6 0.267328 0.591078 0.236331
O O7 0.338457 0.574278 0.000000
O O8 0.911277 0.631973 0.500000
O O9 0.929825 0.709771 0.720185
O O10 0.864866 0.598716 0.751991
O O11 0.000000 0.601513 0.705253
O O12 0.348910 0.193482 0.500000
O O13 0.377383 0.117512 0.278843
O O14 0.266498 0.184368 0.278091
O O15 0.139393 0.812042 0.803382
O O16 0.000000 0.808658 0.816329
O O17 0.077896 0.741328 0.000000
O O18 0.788434 0.295618 0.192714
O O19 0.806166 0.391956 0.000000
O O20 0.500000 0.906574 0.801649
O O21 0.591604 0.000000 0.801093
O O22 0.595300 0.905739 0.000000
O O23 0.761639 0.202041 0.000000
#
# Coordination Sequence:
#
# PCOD8198576 Si02
#       8
#     8   8   8   8   8   8   8   8
#     4  10  20  35  54  73  95 124 158 199 249 302
#     4   9  17  31  51  73  93 114 151 205 257 300
#     4   9  16  24  37  60  88 116 148 188 232 282
#     4  12  23  32  48  75 107 138 167 201 238 281
#     4   8  14  25  41  62  89 122 158 197 243 288
#     4   9  16  28  46  65  88 118 152 195 244 292
#     4   9  19  37  59  79 100 131 169 205 244 291
#     4   9  16  28  46  67  95 129 164 201 242 289
#
# _framework density 17.366734999999998
#
# number of rings (size 3 to 8) (size 9 to 14) (size 15 to 20)
#    0.000    2.625    1.250    3.000    0.000    5.250 
#    0.000    1.875    0.000    1.875    0.000    3.500 
#    0.000    0.500    0.000    5.750    0.000    1.750 
#
# Total GULP energy -793049.000923 kJ/mol
# GULP energy per Si atom -12391.390639 kJ/mol
# Density = 1.732721 g / cm^3
# Si number density = 17.366735 Si / 1000 Ang^3
#
#
#
# Elastic Constant Matrix: (Units=GPa)
#
#
# Indices 1 2 3 4 5 6 
#
# 1 143.6514 40.5420 42.5053 0.0000 0.0000 0.0000
# 2 40.5420 55.7319 19.1382 0.0000 0.0000 0.0000
# 3 42.5053 19.1382 51.0979 0.0000 0.0000 0.0000
# 4 0.0000 0.0000 0.0000 5.9676 0.0000 0.0000
# 5 0.0000 0.0000 0.0000 0.0000 15.2485 0.0000
# 6 0.0000 0.0000 0.0000 0.0000 0.0000 14.9477
#
#
#
# Elastic Compliance Matrix: (Units=1/GPa)
#
#
# Indices 1 2 3 4 5 6 
#
# 1 0.010437 -0.005292 -0.006700 0.000000 0.000000 0.000000
# 2 -0.005292 0.023274 -0.004315 0.000000 0.000000 0.000000
# 3 -0.006700 -0.004315 0.026760 0.000000 0.000000 0.000000
# 4 0.000000 0.000000 0.000000 0.167570 0.000000 0.000000
# 5 0.000000 0.000000 0.000000 0.000000 0.065580 0.000000
# 6 0.000000 0.000000 0.000000 0.000000 0.000000 0.066900
#
#
# Mechanical properties :
#
#
# Convention : Reuss Voigt Hill
#
# Bulk Modulus (GPa) = 35.89735 50.53914 43.21824
# Shear Modulus (GPa) = 12.42476 17.11916 14.77196
#
# Velocity S-wave (km/s) = 2.67766 3.14306 2.91965
# Velocity P-wave (km/s) = 5.50226 6.50662 6.02540
#
# Compressibility (1/GPa) = 0.02785721
#
# Stress axis : x y z
#
# Youngs Moduli (GPa) = 95.81031 42.96579 37.36923
#
# Poissons Ratio (x) = 0.22736 0.25038
# Poissons Ratio (y) = 0.50700 0.16126
# Poissons Ratio (z) = 0.64195 0.18541
#
# Static dielectric constant tensor:
#      x y z
#    x 3.815600 0.000000 0.000000 
#    y 0.000000 2.871580 0.000000 
#    z 0.000000 0.000000 3.049360 
# 
# 
# High freq. dielectric constant tensor:
#      x y z
#    x 1.694520 0.000000 0.000000 
#    y 0.000000 1.616600 0.000000 
#    z 0.000000 0.000000 1.650390 
# 
# From -- ./inp_files/11649.got.cif
#   From: 2010.03.12/outbox.cif.g09.slc.cpg/sg47_6_cif.got.tgz:11649.got - 2010.04.14 03:12:58.
