data_PCOD8198947
_publ_section_title
;
Structure prediction by ZEFSAII (Michael W. Deem and Ramdas Pophale) SiO2 
 PCOD8198947
Probable space group: P M M M
;
_chemical_formula_sum "Si O2"
_cell_formula_units_Z 44
_cell_length_a 9.304490
_cell_length_b 7.992981
_cell_length_c 30.271918
_cell_angle_alpha 90.000000
_cell_angle_beta 90.000000
_cell_angle_gamma 90.000000
_cell_volume 2251.341062
_symmetry_space_group_name_H-M "P M M M"
_symmetry_group_IT_number 47
_symmetry_cell_setting 'orthorhombic'
loop_
_space_group_symop_operation_xyz
x,y,z
-x,-y,z
x,-y,-z
-x,y,-z
-x,-y,-z
x,y,-z
-x,y,z
x,-y,z
loop_
_atom_site_type_symbol
_atom_site_label
_atom_site_fract_x
_atom_site_fract_y
_atom_site_fract_z
Si Si1 0.334564 0.500000 0.947784
Si Si2 0.837383 0.803992 0.721666
Si Si3 0.168700 0.687519 0.813136
Si Si4 0.839650 0.302988 0.629367
Si Si5 0.169724 0.810636 0.905583
Si Si6 0.660973 0.698939 0.548415
O O1 0.500000 0.500000 0.931096
O O2 0.256734 0.670362 0.932212
O O3 0.327987 0.500000 0.000000
O O4 0.758423 0.734879 0.765994
O O5 0.762282 0.743827 0.676052
O O6 0.000000 0.733522 0.719936
O O7 0.833577 0.000000 0.725001
O O8 0.211748 0.500000 0.826292
O O9 0.217360 0.803038 0.854002
O O10 0.000000 0.710330 0.806339
O O11 0.844123 0.500000 0.624133
O O12 0.755088 0.222634 0.587979
O O13 0.000000 0.226089 0.628279
O O14 0.000000 0.771500 0.910595
O O15 0.204214 0.000000 0.922532
O O16 0.721708 0.752521 0.500000
O O17 0.500000 0.768159 0.553844
O O18 0.660240 0.500000 0.551856
#
# Coordination Sequence:
#
# PCOD8198947 Si02
#       6
#     4   8   8   8   8   8
#     4  11  25  43  61  83 117 161 203 241 286 345
#     4   9  16  25  39  64  98 131 160 193 240 300
#     4   9  15  26  48  78 110 139 170 214 266 318
#     4   9  16  25  39  62  89 114 145 188 235 281
#     4  10  20  36  61  92 121 150 191 244 296 341
#     4   8  14  25  41  60  81 107 142 185 234 288
#
# _framework density 19.543904999999999
#
# number of rings (size 3 to 8) (size 9 to 14) (size 15 to 20)
#    0.000    2.818    0.909    1.909    0.000    6.182 
#    0.000    3.636    0.000    2.182    0.000    3.818 
#    0.000    0.000    0.000    0.000    0.000    0.000 
#
# Total GULP energy -545133.111432 kJ/mol
# GULP energy per Si atom -12389.388896 kJ/mol
# Density = 1.949942 g / cm^3
# Si number density = 19.543905 Si / 1000 Ang^3
#
#
#
# Elastic Constant Matrix: (Units=GPa)
#
#
# Indices 1 2 3 4 5 6 
#
# 1 56.4279 29.8297 47.0025 0.0000 0.0000 0.0000
# 2 29.8297 71.7591 43.3789 0.0000 0.0000 0.0000
# 3 47.0025 43.3789 135.4210 0.0000 0.0000 0.0000
# 4 0.0000 0.0000 0.0000 11.8210 0.0000 0.0000
# 5 0.0000 0.0000 0.0000 0.0000 4.2510 0.0000
# 6 0.0000 0.0000 0.0000 0.0000 0.0000 10.2360
#
#
#
# Elastic Compliance Matrix: (Units=1/GPa)
#
#
# Indices 1 2 3 4 5 6 
#
# 1 0.027516 -0.007025 -0.007300 0.000000 0.000000 0.000000
# 2 -0.007025 0.019076 -0.003672 0.000000 0.000000 0.000000
# 3 -0.007300 -0.003672 0.011094 0.000000 0.000000 0.000000
# 4 0.000000 0.000000 0.000000 0.084595 0.000000 0.000000
# 5 0.000000 0.000000 0.000000 0.000000 0.235238 0.000000
# 6 0.000000 0.000000 0.000000 0.000000 0.000000 0.097695
#
#
# Mechanical properties :
#
#
# Convention : Reuss Voigt Hill
#
# Bulk Modulus (GPa) = 46.10123 56.00336 51.05230
# Shear Modulus (GPa) = 9.64433 14.82140 12.23286
#
# Velocity S-wave (km/s) = 2.22383 2.75683 2.50455
# Velocity P-wave (km/s) = 5.49851 6.23304 5.87726
#
# Compressibility (1/GPa) = 0.02169140
#
# Stress axis : x y z
#
# Youngs Moduli (GPa) = 36.34215 52.42281 90.13577
#
# Poissons Ratio (x) = 0.36829 0.65800
# Poissons Ratio (y) = 0.25532 0.33098
# Poissons Ratio (z) = 0.26530 0.19250
#
# Static dielectric constant tensor:
#      x y z
#    x 3.323230 0.000000 0.000000 
#    y 0.000000 3.328340 0.000000 
#    z 0.000000 0.000000 4.001420 
# 
# 
# High freq. dielectric constant tensor:
#      x y z
#    x 1.694690 0.000000 0.000000 
#    y 0.000000 1.749050 0.000000 
#    z 0.000000 0.000000 1.783840 
# 
# From -- ./inp_files/33918.got.cif
#   From: 2010.03.12/outbox.cif.g09.slc.cpg/sg47_17_cif.got.tgz:33918.got - 2010.04.14 03:12:58.
