data_PCOD8198242
_publ_section_title
;
Structure prediction by ZEFSAII (Michael W. Deem and Ramdas Pophale) SiO2 
 PCOD8198242
Probable space group: P M M M
;
_chemical_formula_sum "Si O2"
_cell_formula_units_Z 40
_cell_length_a 9.192620
_cell_length_b 27.799417
_cell_length_c 7.836017
_cell_angle_alpha 90.000000
_cell_angle_beta 90.000000
_cell_angle_gamma 90.000000
_cell_volume 2002.490044
_symmetry_space_group_name_H-M "P M M M"
_symmetry_group_IT_number 47
_symmetry_cell_setting 'orthorhombic'
loop_
_space_group_symop_operation_xyz
x,y,z
-x,-y,z
x,-y,-z
-x,y,-z
-x,-y,-z
x,y,-z
-x,y,z
x,-y,z
loop_
_atom_site_type_symbol
_atom_site_label
_atom_site_fract_x
_atom_site_fract_y
_atom_site_fract_z
Si Si1 0.673623 0.945716 0.500000
Si Si2 0.661168 0.775252 0.201770
Si Si3 0.835256 0.500000 0.701099
Si Si4 0.836648 0.315174 0.203947
Si Si5 0.673445 0.881707 0.809651
Si Si6 0.661769 0.593893 0.800639
O O1 0.500000 0.944877 0.500000
O O2 0.733413 0.919489 0.670503
O O3 0.733478 0.000000 0.500000
O O4 0.500000 0.768561 0.281587
O O5 0.766517 0.734117 0.275786
O O6 0.724780 0.828159 0.246029
O O7 0.649265 0.770136 0.000000
O O8 0.835414 0.500000 0.500000
O O9 0.753061 0.546407 0.768048
O O10 0.000000 0.500000 0.772902
O O11 0.745419 0.360199 0.277986
O O12 0.000000 0.318990 0.275519
O O13 0.837374 0.315533 0.000000
O O14 0.500000 0.881991 0.814231
O O15 0.732232 0.895031 0.000000
O O16 0.500000 0.589647 0.718850
O O17 0.645452 0.601965 0.000000
#
# Coordination Sequence:
#
# PCOD8198242 Si02
#       6
#     4   8   4   8   8   8
#     4   9  16  24  36  58  89 123 159 200 245 294
#     4   8  13  23  40  61  87 121 157 191 233 288
#     4  11  24  39  54  72  98 133 168 207 256 302
#     4   9  16  26  44  72 101 125 154 197 246 293
#     4   8  14  24  38  57  84 120 159 198 242 293
#     4  10  20  34  54  79 103 129 166 208 247 296
#
# _framework density 19.975128999999999
#
# number of rings (size 3 to 8) (size 9 to 14) (size 15 to 20)
#    0.000    3.000    0.000    3.000    0.000    6.000 
#    0.000    2.000    2.200    0.000    0.000    0.000 
#    0.000    1.600    0.000    7.800    0.000    8.000 
#
# Total GULP energy -495782.049616 kJ/mol
# GULP energy per Si atom -12394.551240 kJ/mol
# Density = 1.992967 g / cm^3
# Si number density = 19.975129 Si / 1000 Ang^3
#
#
#
# Elastic Constant Matrix: (Units=GPa)
#
#
# Indices 1 2 3 4 5 6 
#
# 1 120.6762 72.6634 20.0108 0.0000 0.0000 0.0000
# 2 72.6634 201.9003 47.3655 0.0000 0.0000 0.0000
# 3 20.0108 47.3655 54.2190 0.0000 0.0000 0.0000
# 4 0.0000 0.0000 0.0000 -12.3262 0.0000 0.0000
# 5 0.0000 0.0000 0.0000 0.0000 6.0755 0.0000
# 6 0.0000 0.0000 0.0000 0.0000 0.0000 4.8409
#
#
#
# Elastic Compliance Matrix: (Units=1/GPa)
#
#
# Indices 1 2 3 4 5 6 
#
# 1 0.010602 -0.003645 -0.000729 0.000000 0.000000 0.000000
# 2 -0.003645 0.007483 -0.005192 0.000000 0.000000 0.000000
# 3 -0.000729 -0.005192 0.023248 0.000000 0.000000 0.000000
# 4 0.000000 0.000000 0.000000 -0.081128 0.000000 0.000000
# 5 0.000000 0.000000 0.000000 0.000000 0.164596 0.000000
# 6 0.000000 0.000000 0.000000 0.000000 0.000000 0.206573
#
#
# Mechanical properties :
#
#
# Convention : Reuss Voigt Hill
#
# Bulk Modulus (GPa) = 45.04037 72.98610 59.01323
# Shear Modulus (GPa) = 13.97017 15.50176 14.73597
#
# Velocity S-wave (km/s) = 2.64745 2.78880 2.71904
# Velocity P-wave (km/s) = 5.65177 6.85475 6.28212
#
# Compressibility (1/GPa) = 0.02220231
#
# Stress axis : x y z
#
# Youngs Moduli (GPa) = 94.32105 133.64373 43.01416
#
# Poissons Ratio (x) = 0.48708 0.03136
# Poissons Ratio (y) = 0.34377 0.22331
# Poissons Ratio (z) = 0.06876 0.69383
#
# Static dielectric constant tensor:
#      x y z
#    x 3.587320 0.000000 0.000000 
#    y 0.000000 3.882260 0.000000 
#    z 0.000000 0.000000 3.395990 
# 
# 
# High freq. dielectric constant tensor:
#      x y z
#    x 1.744060 0.000000 0.000000 
#    y 0.000000 1.788160 0.000000 
#    z 0.000000 0.000000 1.749620 
# 
# From -- ./inp_files/1774.got.cif
#   From: 2010.03.12/outbox.cif.g09.slc.cpg/sg47_1_cif.got.tgz:1774.got - 2010.04.14 03:12:58.
