data_PCOD8198838
_publ_section_title
;
Structure prediction by ZEFSAII (Michael W. Deem and Ramdas Pophale) SiO2 
 PCOD8198838
Probable space group: P M M M
;
_chemical_formula_sum "Si O2"
_cell_formula_units_Z 36
_cell_length_a 24.297611
_cell_length_b 7.954751
_cell_length_c 9.228067
_cell_angle_alpha 90.000000
_cell_angle_beta 90.000000
_cell_angle_gamma 90.000000
_cell_volume 1783.614128
_symmetry_space_group_name_H-M "P M M M"
_symmetry_group_IT_number 47
_symmetry_cell_setting 'orthorhombic'
loop_
_space_group_symop_operation_xyz
x,y,z
-x,-y,z
x,-y,-z
-x,y,-z
-x,-y,-z
x,y,-z
-x,y,z
x,-y,z
loop_
_atom_site_type_symbol
_atom_site_label
_atom_site_fract_x
_atom_site_fract_y
_atom_site_fract_z
Si Si1 0.562379 0.302886 0.665024
Si Si2 0.235221 0.691422 0.664657
Si Si3 0.336411 0.192038 0.163644
Si Si4 0.061517 0.500000 0.827863
Si Si5 0.133773 0.188093 0.832238
O O1 0.574773 0.248909 0.500000
O O2 0.500000 0.254298 0.706436
O O3 0.571987 0.500000 0.683820
O O4 0.602463 0.204638 0.772132
O O5 0.240903 0.755266 0.500000
O O6 0.214689 0.500000 0.670413
O O7 0.294387 0.701173 0.740324
O O8 0.190824 0.805167 0.746281
O O9 0.317097 0.000000 0.166098
O O10 0.336424 0.262544 0.000000
O O11 0.091725 0.329933 0.773053
O O12 0.000000 0.500000 0.762251
O O13 0.058779 0.500000 0.000000
O O14 0.108586 0.000000 0.811480
O O15 0.147208 0.223047 0.000000
#
# Coordination Sequence:
#
# PCOD8198838 Si02
#       5
#     8   8   8   4   8
#     4   9  19  37  59  81 106 139 182 230 279 335
#     4  11  23  38  58  83 111 146 189 236 288 345
#     4  11  24  38  53  79 113 146 183 229 282 340
#     4   9  18  34  57  87 123 159 194 237 286 333
#     4  10  20  35  58  87 118 154 195 238 287 342
#
# _framework density 20.183738000000002
#
# number of rings (size 3 to 8) (size 9 to 14) (size 15 to 20)
#    0.000    1.889    1.111    3.333    0.000   10.667 
#    0.000    5.556    0.000    1.333    0.000    1.556 
#    0.000    0.000    0.000    0.000    0.000    0.000 
#
# Total GULP energy -446493.994237 kJ/mol
# GULP energy per Si atom -12402.610951 kJ/mol
# Density = 2.013780 g / cm^3
# Si number density = 20.183738 Si / 1000 Ang^3
#
#
#
# Elastic Constant Matrix: (Units=GPa)
#
#
# Indices 1 2 3 4 5 6 
#
# 1 128.7631 42.0656 56.9432 0.0000 0.0000 0.0000
# 2 42.0656 95.3117 35.6221 0.0000 0.0000 0.0000
# 3 56.9432 35.6221 110.0022 0.0000 0.0000 0.0000
# 4 0.0000 0.0000 0.0000 22.7820 0.0000 0.0000
# 5 0.0000 0.0000 0.0000 0.0000 13.8483 0.0000
# 6 0.0000 0.0000 0.0000 0.0000 0.0000 25.2058
#
#
#
# Elastic Compliance Matrix: (Units=1/GPa)
#
#
# Indices 1 2 3 4 5 6 
#
# 1 0.010796 -0.003045 -0.004603 0.000000 0.000000 0.000000
# 2 -0.003045 0.012795 -0.002567 0.000000 0.000000 0.000000
# 3 -0.004603 -0.002567 0.012305 0.000000 0.000000 0.000000
# 4 0.000000 0.000000 0.000000 0.043894 0.000000 0.000000
# 5 0.000000 0.000000 0.000000 0.000000 0.072211 0.000000
# 6 0.000000 0.000000 0.000000 0.000000 0.000000 0.039673
#
#
# Mechanical properties :
#
#
# Convention : Reuss Voigt Hill
#
# Bulk Modulus (GPa) = 64.65555 67.03765 65.84660
# Shear Modulus (GPa) = 23.01382 25.66360 24.33871
#
# Velocity S-wave (km/s) = 3.38037 3.56968 3.47631
# Velocity P-wave (km/s) = 6.88033 7.09055 6.98623
#
# Compressibility (1/GPa) = 0.01546658
#
# Stress axis : x y z
#
# Youngs Moduli (GPa) = 92.62348 78.15430 81.26906
#
# Poissons Ratio (x) = 0.23796 0.37407
# Poissons Ratio (y) = 0.28201 0.20865
# Poissons Ratio (z) = 0.42633 0.20065
#
# Static dielectric constant tensor:
#      x y z
#    x 3.606870 0.000000 0.000000 
#    y 0.000000 3.629200 0.000000 
#    z 0.000000 0.000000 3.553920 
# 
# 
# High freq. dielectric constant tensor:
#      x y z
#    x 1.782510 0.000000 0.000000 
#    y 0.000000 1.792640 0.000000 
#    z 0.000000 0.000000 1.773150 
# 
# From -- ./inp_files/12059.got.cif
#   From: 2010.03.12/outbox.cif.g09.slc.cpg/sg47_7_cif.got.tgz:12059.got - 2010.04.14 03:12:58.
