data_PCOD8198218
_publ_section_title
;
Structure prediction by ZEFSAII (Michael W. Deem and Ramdas Pophale) SiO2 
 PCOD8198218
Probable space group: P M M M
;
_chemical_formula_sum "Si O2"
_cell_formula_units_Z 64
_cell_length_a 31.144651
_cell_length_b 9.160197
_cell_length_c 14.122201
_cell_angle_alpha 90.000000
_cell_angle_beta 90.000000
_cell_angle_gamma 90.000000
_cell_volume 4028.938804
_symmetry_space_group_name_H-M "P M M M"
_symmetry_group_IT_number 47
_symmetry_cell_setting 'orthorhombic'
loop_
_space_group_symop_operation_xyz
x,y,z
-x,-y,z
x,-y,-z
-x,y,-z
-x,-y,-z
x,y,-z
-x,y,z
x,-y,z
loop_
_atom_site_type_symbol
_atom_site_label
_atom_site_fract_x
_atom_site_fract_y
_atom_site_fract_z
Si Si1 0.721574 0.169380 0.389134
Si Si2 0.546652 0.336701 0.612488
Si Si3 0.951658 0.168143 0.278074
Si Si4 0.626137 0.838914 0.387571
Si Si5 0.120278 0.330534 0.609230
Si Si6 0.082459 0.329996 0.107030
Si Si7 0.827907 0.830784 0.892766
Si Si8 0.205850 0.671716 0.723074
O O1 0.729494 0.190403 0.500000
O O2 0.673363 0.221318 0.360988
O O3 0.753359 0.275697 0.335103
O O4 0.728764 0.000000 0.361232
O O5 0.550891 0.336828 0.500000
O O6 0.500000 0.267814 0.640803
O O7 0.548844 0.500000 0.652053
O O8 0.587120 0.252844 0.658062
O O9 0.919696 0.237023 0.354319
O O10 0.950443 0.253602 0.178203
O O11 0.000000 0.181865 0.317950
O O12 0.939067 0.000000 0.261077
O O13 0.622006 0.843317 0.500000
O O14 0.621202 0.000000 0.345359
O O15 0.128441 0.292544 0.500000
O O16 0.109157 0.500000 0.623675
O O17 0.162848 0.286647 0.666126
O O18 0.087419 0.500000 0.132820
O O19 0.128042 0.254890 0.121628
O O20 0.065408 0.309260 0.000000
O O21 0.793534 0.757133 0.822928
O O22 0.834972 0.000000 0.866866
O O23 0.810956 0.813559 0.000000
O O24 0.209424 0.500000 0.741080
#
# Coordination Sequence:
#
# PCOD8198218 Si02
#       8
#     8   8   8   8   8   8   8   8
#     4   9  18  31  45  63  90 124 159 195 236 277
#     4   8  13  20  30  46  69  99 138 185 235 281
#     4  11  24  39  55  76 100 126 156 187 222 267
#     4   8  14  24  36  51  74 106 146 190 232 273
#     4  10  22  39  56  74  96 123 155 190 227 266
#     4  10  20  35  56  80 103 126 151 179 216 263
#     4  10  20  34  54  78 101 124 149 178 216 263
#     4  11  21  33  52  76  98 121 152 187 224 270
#
# _framework density 15.885076
#
# number of rings (size 3 to 8) (size 9 to 14) (size 15 to 20)
#    0.000    2.375    1.250    3.000    0.000    5.250 
#    0.000    5.000    0.000    0.000    0.000    0.000 
#    0.000    0.000    0.000    0.000    0.000    0.625 
#
# Total GULP energy -793386.385517 kJ/mol
# GULP energy per Si atom -12396.662274 kJ/mol
# Density = 1.584892 g / cm^3
# Si number density = 15.885076 Si / 1000 Ang^3
#
#
#
# Elastic Constant Matrix: (Units=GPa)
#
#
# Indices 1 2 3 4 5 6 
#
# 1 110.5677 57.1488 34.0864 0.0000 0.0000 0.0000
# 2 57.1488 96.2717 38.4148 0.0000 0.0000 0.0000
# 3 34.0864 38.4148 63.5524 0.0000 0.0000 0.0000
# 4 0.0000 0.0000 0.0000 22.4825 0.0000 0.0000
# 5 0.0000 0.0000 0.0000 0.0000 4.2134 0.0000
# 6 0.0000 0.0000 0.0000 0.0000 0.0000 28.8151
#
#
#
# Elastic Compliance Matrix: (Units=1/GPa)
#
#
# Indices 1 2 3 4 5 6 
#
# 1 0.013513 -0.006760 -0.003162 0.000000 0.000000 0.000000
# 2 -0.006760 0.017071 -0.006693 0.000000 0.000000 0.000000
# 3 -0.003162 -0.006693 0.021476 0.000000 0.000000 0.000000
# 4 0.000000 0.000000 0.000000 0.044479 0.000000 0.000000
# 5 0.000000 0.000000 0.000000 0.000000 0.237336 0.000000
# 6 0.000000 0.000000 0.000000 0.000000 0.000000 0.034704
#
#
# Mechanical properties :
#
#
# Convention : Reuss Voigt Hill
#
# Bulk Modulus (GPa) = 53.10329 58.85465 55.97897
# Shear Modulus (GPa) = 12.25235 20.48499 16.36867
#
# Velocity S-wave (km/s) = 2.78026 3.59496 3.21353
# Velocity P-wave (km/s) = 6.61882 7.37308 7.00611
#
# Compressibility (1/GPa) = 0.01883122
#
# Stress axis : x y z
#
# Youngs Moduli (GPa) = 74.00331 58.57977 46.56298
#
# Poissons Ratio (x) = 0.39600 0.14721
# Poissons Ratio (y) = 0.50026 0.31164
# Poissons Ratio (z) = 0.23396 0.39206
#
# Static dielectric constant tensor:
#      x y z
#    x 3.075760 0.000000 0.000000 
#    y 0.000000 3.178540 0.000000 
#    z 0.000000 0.000000 2.830470 
# 
# 
# High freq. dielectric constant tensor:
#      x y z
#    x 1.602640 0.000000 0.000000 
#    y 0.000000 1.620580 0.000000 
#    z 0.000000 0.000000 1.571500 
# 
# From -- ./inp_files/14288.got.cif
#   From: 2010.03.12/outbox.cif.g09.slc.cpg/sg47_8_cif.got.tgz:14288.got - 2010.04.14 03:12:58.
