data_PCOD8198854
_publ_section_title
;
Structure prediction by ZEFSAII (Michael W. Deem and Ramdas Pophale) SiO2 
 PCOD8198854
Probable space group: P M M M
;
_chemical_formula_sum "Si O2"
_cell_formula_units_Z 48
_cell_length_a 13.906968
_cell_length_b 8.663326
_cell_length_c 20.530463
_cell_angle_alpha 90.000000
_cell_angle_beta 90.000000
_cell_angle_gamma 90.000000
_cell_volume 2473.522448
_symmetry_space_group_name_H-M "P M M M"
_symmetry_group_IT_number 47
_symmetry_cell_setting 'orthorhombic'
loop_
_space_group_symop_operation_xyz
x,y,z
-x,-y,z
x,-y,-z
-x,y,-z
-x,-y,-z
x,y,-z
-x,y,z
x,-y,z
loop_
_atom_site_type_symbol
_atom_site_label
_atom_site_fract_x
_atom_site_fract_y
_atom_site_fract_z
Si Si1 0.797482 0.678257 0.124423
Si Si2 0.608823 0.179731 0.669075
Si Si3 0.113886 0.822117 0.500000
Si Si4 0.107546 0.819360 0.000000
Si Si5 0.207781 0.680799 0.626436
Si Si6 0.607625 0.677635 0.806679
Si Si7 0.888634 0.822630 0.751588
O O1 0.812028 0.500000 0.107871
O O2 0.684904 0.717368 0.137328
O O3 0.859795 0.718525 0.187502
O O4 0.832961 0.773997 0.063306
O O5 0.500000 0.226803 0.651007
O O6 0.678860 0.278127 0.622268
O O7 0.629624 0.216403 0.744648
O O8 0.627273 0.000000 0.657192
O O9 0.154255 0.736300 0.562527
O O10 0.000000 0.807732 0.500000
O O11 0.146770 0.000000 0.500000
O O12 0.000000 0.744538 0.000000
O O13 0.095607 0.000000 0.000000
O O14 0.191525 0.500000 0.635577
O O15 0.168033 0.772245 0.687998
O O16 0.500000 0.708646 0.833989
O O17 0.619511 0.500000 0.784300
O O18 0.000000 0.797943 0.736713
O O19 0.864574 0.000000 0.767598
#
# Coordination Sequence:
#
# PCOD8198854 Si02
#       7
#     8   8   4   4   8   8   8
#     4  11  22  37  60  89 117 152 196 246 300 354
#     4  10  20  35  59  90 122 158 199 244 295 351
#     4  11  25  45  66  87 118 161 203 248 304 361
#     4  11  25  43  60  79 112 160 203 245 302 363
#     4  12  24  39  61  90 122 158 199 247 299 354
#     4   9  18  34  57  87 121 154 190 237 296 356
#     4  11  23  38  58  85 118 155 197 247 299 353
#
# _framework density 19.405524
#
# number of rings (size 3 to 8) (size 9 to 14) (size 15 to 20)
#    0.000    1.333    1.667    4.500    0.000    8.333 
#    0.000    0.833    0.000    5.000    0.000    0.000 
#    0.000    0.000    0.000    0.000    0.000    0.000 
#
# Total GULP energy -595373.658537 kJ/mol
# GULP energy per Si atom -12403.617886 kJ/mol
# Density = 1.936136 g / cm^3
# Si number density = 19.405524 Si / 1000 Ang^3
#
#
#
# Elastic Constant Matrix: (Units=GPa)
#
#
# Indices 1 2 3 4 5 6 
#
# 1 117.0896 41.1428 36.5237 0.0000 0.0000 0.0000
# 2 41.1428 47.3966 7.3367 0.0000 0.0000 0.0000
# 3 36.5237 7.3367 87.6572 0.0000 0.0000 0.0000
# 4 0.0000 0.0000 0.0000 35.3211 0.0000 0.0000
# 5 0.0000 0.0000 0.0000 0.0000 29.7476 0.0000
# 6 0.0000 0.0000 0.0000 0.0000 0.0000 31.0805
#
#
#
# Elastic Compliance Matrix: (Units=1/GPa)
#
#
# Indices 1 2 3 4 5 6 
#
# 1 0.014111 -0.011488 -0.004918 0.000000 0.000000 0.000000
# 2 -0.011488 0.030728 0.002215 0.000000 0.000000 0.000000
# 3 -0.004918 0.002215 0.013272 0.000000 0.000000 0.000000
# 4 0.000000 0.000000 0.000000 0.028312 0.000000 0.000000
# 5 0.000000 0.000000 0.000000 0.000000 0.033616 0.000000
# 6 0.000000 0.000000 0.000000 0.000000 0.000000 0.032174
#
#
# Mechanical properties :
#
#
# Convention : Reuss Voigt Hill
#
# Bulk Modulus (GPa) = 33.63785 46.90552 40.27169
# Shear Modulus (GPa) = 26.24595 30.37253 28.30924
#
# Velocity S-wave (km/s) = 3.68162 3.96049 3.82360
# Velocity P-wave (km/s) = 5.95351 6.71846 6.34752
#
# Compressibility (1/GPa) = 0.02972841
#
# Stress axis : x y z
#
# Youngs Moduli (GPa) = 70.86556 32.54365 75.34702
#
# Poissons Ratio (x) = 0.37386 0.37057
# Poissons Ratio (y) = 0.81410 -0.16688
# Poissons Ratio (z) = 0.34853 -0.07208
#
# Static dielectric constant tensor:
#      x y z
#    x 3.971500 0.000000 0.000000 
#    y 0.000000 3.669310 0.000000 
#    z 0.000000 0.000000 3.368690 
# 
# 
# High freq. dielectric constant tensor:
#      x y z
#    x 1.777370 0.000000 0.000000 
#    y 0.000000 1.766080 0.000000 
#    z 0.000000 0.000000 1.733220 
# 
# From -- ./inp_files/28040.got.cif
#   From: 2010.03.12/outbox.cif.g09.slc.cpg/sg47_15_cif.got.tgz:28040.got - 2010.04.14 03:12:58.
