data_PCOD8198878
_publ_section_title
;
Structure prediction by ZEFSAII (Michael W. Deem and Ramdas Pophale) SiO2 
 PCOD8198878
Probable space group: P M M M
;
_chemical_formula_sum "Si O2"
_cell_formula_units_Z 44
_cell_length_a 16.891564
_cell_length_b 9.342491
_cell_length_c 15.455169
_cell_angle_alpha 90.000000
_cell_angle_beta 90.000000
_cell_angle_gamma 90.000000
_cell_volume 2438.969164
_symmetry_space_group_name_H-M "P M M M"
_symmetry_group_IT_number 47
_symmetry_cell_setting 'orthorhombic'
loop_
_space_group_symop_operation_xyz
x,y,z
-x,-y,z
x,-y,-z
-x,y,-z
-x,-y,-z
x,y,-z
-x,y,z
x,-y,z
loop_
_atom_site_type_symbol
_atom_site_label
_atom_site_fract_x
_atom_site_fract_y
_atom_site_fract_z
Si Si1 0.242556 0.335652 0.741517
Si Si2 0.332191 0.167952 0.598193
Si Si3 0.910559 0.335462 0.835332
Si Si4 0.500000 0.831504 0.659019
Si Si5 0.652577 0.663888 0.095831
Si Si6 0.500000 0.830522 0.858003
Si Si7 0.093881 0.840252 0.000000
O O1 0.261151 0.500000 0.719577
O O2 0.269399 0.241280 0.661022
O O3 0.148427 0.310489 0.754622
O O4 0.285840 0.288633 0.830298
O O5 0.307309 0.201444 0.500000
O O6 0.420615 0.230353 0.614513
O O7 0.330551 0.000000 0.618256
O O8 0.907081 0.500000 0.865885
O O9 0.877910 0.241730 0.914519
O O10 0.000000 0.293010 0.807198
O O11 0.500000 0.785038 0.758122
O O12 0.500000 0.000000 0.646376
O O13 0.625731 0.500000 0.110873
O O14 0.576963 0.765927 0.097639
O O15 0.691537 0.680819 0.000000
O O16 0.500000 0.000000 0.870948
O O17 0.000000 0.844747 0.000000
O O18 0.130044 0.000000 0.000000
#
# Coordination Sequence:
#
# PCOD8198878 Si02
#       7
#     8   8   8   4   8   4   4
#     4  10  21  35  54  78 105 135 172 220 262 304
#     4  10  20  36  58  80 104 135 169 208 261 319
#     4   9  18  33  53  75 102 140 180 214 255 309
#     4   9  17  32  53  76 102 131 166 208 253 307
#     4  10  21  35  50  70 102 143 178 210 254 304
#     4  11  20  33  53  73  99 136 179 220 249 290
#     4   9  17  29  47  75 107 136 169 212 259 303
#
# _framework density 18.040406999999998
#
# number of rings (size 3 to 8) (size 9 to 14) (size 15 to 20)
#    0.000    2.273    1.818    1.091    1.273    4.727 
#    0.000    0.455    0.000    1.636    0.000    3.818 
#    0.000    0.000    0.000    0.000    0.000    0.000 
#
# Total GULP energy -545541.101137 kJ/mol
# GULP energy per Si atom -12398.661389 kJ/mol
# Density = 1.799935 g / cm^3
# Si number density = 18.040407 Si / 1000 Ang^3
#
#
#
# Elastic Constant Matrix: (Units=GPa)
#
#
# Indices 1 2 3 4 5 6 
#
# 1 98.6364 38.3014 57.6068 0.0000 0.0000 0.0000
# 2 38.3014 63.4700 52.0913 0.0000 0.0000 0.0000
# 3 57.6068 52.0913 122.8359 0.0000 0.0000 0.0000
# 4 0.0000 0.0000 0.0000 30.6730 0.0000 0.0000
# 5 0.0000 0.0000 0.0000 0.0000 6.7826 0.0000
# 6 0.0000 0.0000 0.0000 0.0000 0.0000 19.3056
#
#
#
# Elastic Compliance Matrix: (Units=1/GPa)
#
#
# Indices 1 2 3 4 5 6 
#
# 1 0.014932 -0.005006 -0.004880 0.000000 0.000000 0.000000
# 2 -0.005006 0.025845 -0.008612 0.000000 0.000000 0.000000
# 3 -0.004880 -0.008612 0.014082 0.000000 0.000000 0.000000
# 4 0.000000 0.000000 0.000000 0.032602 0.000000 0.000000
# 5 0.000000 0.000000 0.000000 0.000000 0.147436 0.000000
# 6 0.000000 0.000000 0.000000 0.000000 0.000000 0.051798
#
#
# Mechanical properties :
#
#
# Convention : Reuss Voigt Hill
#
# Bulk Modulus (GPa) = 55.98398 64.54903 60.26650
# Shear Modulus (GPa) = 15.16781 20.48176 17.82478
#
# Velocity S-wave (km/s) = 2.90275 3.37312 3.14673
# Velocity P-wave (km/s) = 6.50650 7.14342 6.83239
#
# Compressibility (1/GPa) = 0.01786225
#
# Stress axis : x y z
#
# Youngs Moduli (GPa) = 66.96997 38.69271 71.01372
#
# Poissons Ratio (x) = 0.19369 0.34654
# Poissons Ratio (y) = 0.33524 0.61160
# Poissons Ratio (z) = 0.32681 0.33324
#
# Static dielectric constant tensor:
#      x y z
#    x 3.359450 0.000000 0.000000 
#    y 0.000000 3.282030 0.000000 
#    z 0.000000 0.000000 3.226750 
# 
# 
# High freq. dielectric constant tensor:
#      x y z
#    x 1.691700 0.000000 0.000000 
#    y 0.000000 1.687230 0.000000 
#    z 0.000000 0.000000 1.686020 
# 
# From -- ./inp_files/6242.got.cif
#   From: 2010.03.12/outbox.cif.g09.slc.cpg/sg47_4_cif.got.tgz:6242.got - 2010.04.14 03:12:58.
