data_PCOD8198768
_publ_section_title
;
Structure prediction by ZEFSAII (Michael W. Deem and Ramdas Pophale) SiO2 
 PCOD8198768
Probable space group: P M M M
;
_chemical_formula_sum "Si O2"
_cell_formula_units_Z 48
_cell_length_a 30.721815
_cell_length_b 9.011658
_cell_length_c 9.037577
_cell_angle_alpha 90.000000
_cell_angle_beta 90.000000
_cell_angle_gamma 90.000000
_cell_volume 2502.093770
_symmetry_space_group_name_H-M "P M M M"
_symmetry_group_IT_number 47
_symmetry_cell_setting 'orthorhombic'
loop_
_space_group_symop_operation_xyz
x,y,z
-x,-y,z
x,-y,-z
-x,y,-z
-x,-y,-z
x,y,-z
-x,y,z
x,-y,z
loop_
_atom_site_type_symbol
_atom_site_label
_atom_site_fract_x
_atom_site_fract_y
_atom_site_fract_z
Si Si1 0.586675 0.325818 0.328629
Si Si2 0.167042 0.328990 0.830098
Si Si3 0.500000 0.167206 0.675831
Si Si4 0.744686 0.329010 0.326262
Si Si5 0.333880 0.828551 0.826519
Si Si6 0.000000 0.668978 0.674662
Si Si7 0.920856 0.826796 0.828555
O O1 0.594587 0.285068 0.500000
O O2 0.581684 0.500000 0.306332
O O3 0.542946 0.250066 0.265786
O O4 0.626857 0.268292 0.235022
O O5 0.154312 0.500000 0.806748
O O6 0.207575 0.283121 0.728823
O O7 0.126308 0.231096 0.778458
O O8 0.179543 0.296546 0.000000
O O9 0.500000 0.170318 0.500000
O O10 0.500000 0.000000 0.737741
O O11 0.741779 0.302838 0.500000
O O12 0.734634 0.500000 0.284819
O O13 0.710644 0.222770 0.247450
O O14 0.342225 0.000000 0.787744
O O15 0.330066 0.801432 0.000000
O O16 0.042886 0.747316 0.733304
O O17 0.000000 0.500000 0.729820
O O18 0.000000 0.680483 0.500000
O O19 0.923374 0.000000 0.796565
O O20 0.929126 0.789549 0.000000
#
# Coordination Sequence:
#
# PCOD8198768 Si02
#       7
#     8   8   4   8   8   4   8
#     4  10  20  35  57  84 112 143 182 226 271 323
#     4   9  18  34  56  81 111 148 186 223 266 319
#     4   9  17  31  54  83 114 147 180 218 268 323
#     4  10  21  37  58  84 112 143 181 225 272 324
#     4  11  24  39  55  78 109 145 185 229 276 325
#     4  11  24  39  56  80 110 145 186 231 276 322
#     4  10  21  37  58  84 113 145 182 224 271 325
#
# _framework density 19.183934000000001
#
# number of rings (size 3 to 8) (size 9 to 14) (size 15 to 20)
#    0.000    2.000    0.000    3.250    0.000   10.333 
#    0.000    3.750    0.000    2.500    0.000    0.000 
#    0.000    0.000    0.000    0.000    0.000    0.000 
#
# Total GULP energy -595432.457836 kJ/mol
# GULP energy per Si atom -12404.842872 kJ/mol
# Density = 1.914027 g / cm^3
# Si number density = 19.183934 Si / 1000 Ang^3
#
#
#
# Elastic Constant Matrix: (Units=GPa)
#
#
# Indices 1 2 3 4 5 6 
#
# 1 133.5706 64.7381 50.0569 0.0000 0.0000 0.0000
# 2 64.7381 95.4590 44.6138 0.0000 0.0000 0.0000
# 3 50.0569 44.6138 65.0764 0.0000 0.0000 0.0000
# 4 0.0000 0.0000 0.0000 27.1212 0.0000 0.0000
# 5 0.0000 0.0000 0.0000 0.0000 35.8572 0.0000
# 6 0.0000 0.0000 0.0000 0.0000 0.0000 207.5648
#
#
#
# Elastic Compliance Matrix: (Units=1/GPa)
#
#
# Indices 1 2 3 4 5 6 
#
# 1 0.012376 -0.005803 -0.005541 0.000000 0.000000 0.000000
# 2 -0.005803 0.018136 -0.007969 0.000000 0.000000 0.000000
# 3 -0.005541 -0.007969 0.025092 0.000000 0.000000 0.000000
# 4 0.000000 0.000000 0.000000 0.036871 0.000000 0.000000
# 5 0.000000 0.000000 0.000000 0.000000 0.027888 0.000000
# 6 0.000000 0.000000 0.000000 0.000000 0.000000 0.004818
#
#
# Mechanical properties :
#
#
# Convention : Reuss Voigt Hill
#
# Bulk Modulus (GPa) = 58.90455 68.10261 63.50358
# Shear Modulus (GPa) = 29.50403 63.08845 46.29624
#
# Velocity S-wave (km/s) = 3.92593 5.74086 4.91785
# Velocity P-wave (km/s) = 7.16396 8.91741 8.08834
#
# Compressibility (1/GPa) = 0.01697662
#
# Stress axis : x y z
#
# Youngs Moduli (GPa) = 80.80133 55.13897 39.85305
#
# Poissons Ratio (x) = 0.32000 0.22083
# Poissons Ratio (y) = 0.46893 0.31760
# Poissons Ratio (z) = 0.44773 0.43942
#
# Static dielectric constant tensor:
#      x y z
#    x 3.631730 0.000000 0.000000 
#    y 0.000000 3.628290 0.000000 
#    z 0.000000 0.000000 3.410930 
# 
# 
# High freq. dielectric constant tensor:
#      x y z
#    x 1.761710 0.000000 0.000000 
#    y 0.000000 1.754470 0.000000 
#    z 0.000000 0.000000 1.734600 
# 
# From -- ./inp_files/2633.got.cif
#   From: 2010.03.12/outbox.cif.g09.slc.cpg/sg47_2_cif.got.tgz:2633.got - 2010.04.14 03:12:58.
