data_PCOD8198098
_publ_section_title
;
Structure prediction by ZEFSAII (Michael W. Deem and Ramdas Pophale) SiO2 
 PCOD8198098
Probable space group: P M M M
;
_chemical_formula_sum "Si O2"
_cell_formula_units_Z 44
_cell_length_a 30.080617
_cell_length_b 8.007443
_cell_length_c 9.674035
_cell_angle_alpha 90.000000
_cell_angle_beta 90.000000
_cell_angle_gamma 90.000000
_cell_volume 2330.173453
_symmetry_space_group_name_H-M "P M M M"
_symmetry_group_IT_number 47
_symmetry_cell_setting 'orthorhombic'
loop_
_space_group_symop_operation_xyz
x,y,z
-x,-y,z
x,-y,-z
-x,y,-z
-x,-y,-z
x,y,-z
-x,y,z
x,-y,z
loop_
_atom_site_type_symbol
_atom_site_label
_atom_site_fract_x
_atom_site_fract_y
_atom_site_fract_z
Si Si1 0.392109 0.312202 0.160124
Si Si2 0.781667 0.698266 0.656280
Si Si3 0.047705 0.807871 0.162976
Si Si4 0.549613 0.000000 0.163862
Si Si5 0.314607 0.192672 0.340782
Si Si6 0.859498 0.306811 0.846407
O O1 0.412176 0.500000 0.179189
O O2 0.346934 0.302639 0.246941
O O3 0.426141 0.170022 0.214776
O O4 0.380591 0.279030 0.000000
O O5 0.791151 0.756519 0.500000
O O6 0.778475 0.500000 0.665963
O O7 0.735620 0.776326 0.709873
O O8 0.821525 0.773042 0.749706
O O9 0.091536 0.716990 0.222630
O O10 0.000000 0.738415 0.221594
O O11 0.051790 0.000000 0.203070
O O12 0.047095 0.780740 0.000000
O O13 0.500000 0.000000 0.227384
O O14 0.547031 0.000000 0.000000
O O15 0.319767 0.249617 0.500000
O O16 0.327175 0.000000 0.321523
O O17 0.849365 0.500000 0.859310
O O18 0.857483 0.224111 0.000000
#
# Coordination Sequence:
#
# PCOD8198098 Si02
#       6
#     8   8   8   4   8   8
#     4  10  20  34  55  82 110 142 179 219 264 310
#     4   9  18  32  47  64  91 127 161 193 238 297
#     4   8  14  25  41  61  85 112 142 179 227 283
#     4   9  18  34  55  81 115 147 177 219 264 309
#     4  10  20  34  53  76 102 135 175 216 259 309
#     4   9  17  28  43  65  90 114 147 193 238 280
#
# _framework density 18.882714
#
# number of rings (size 3 to 8) (size 9 to 14) (size 15 to 20)
#    0.000    2.818    0.909    1.091    0.000    3.273 
#    0.000    5.455    0.000    1.636    0.000    5.091 
#    0.000    0.000    0.000    0.000    0.000    0.000 
#
# Total GULP energy -545281.816439 kJ/mol
# GULP energy per Si atom -12392.768555 kJ/mol
# Density = 1.883974 g / cm^3
# Si number density = 18.882714 Si / 1000 Ang^3
#
#
#
# Elastic Constant Matrix: (Units=GPa)
#
#
# Indices 1 2 3 4 5 6 
#
# 1 161.2451 47.6766 56.6602 0.0000 0.0000 0.0000
# 2 47.6766 67.9045 21.5777 0.0000 0.0000 0.0000
# 3 56.6602 21.5777 48.4262 0.0000 0.0000 0.0000
# 4 0.0000 0.0000 0.0000 14.1847 0.0000 0.0000
# 5 0.0000 0.0000 0.0000 0.0000 8.2460 0.0000
# 6 0.0000 0.0000 0.0000 0.0000 0.0000 29.7601
#
#
#
# Elastic Compliance Matrix: (Units=1/GPa)
#
#
# Indices 1 2 3 4 5 6 
#
# 1 0.011585 -0.004458 -0.011568 0.000000 0.000000 0.000000
# 2 -0.004458 0.018871 -0.003193 0.000000 0.000000 0.000000
# 3 -0.011568 -0.003193 0.035608 0.000000 0.000000 0.000000
# 4 0.000000 0.000000 0.000000 0.070498 0.000000 0.000000
# 5 0.000000 0.000000 0.000000 0.000000 0.121271 0.000000
# 6 0.000000 0.000000 0.000000 0.000000 0.000000 0.033602
#
#
# Mechanical properties :
#
#
# Convention : Reuss Voigt Hill
#
# Bulk Modulus (GPa) = 36.19779 58.82278 47.51029
# Shear Modulus (GPa) = 14.74571 20.54891 17.64731
#
# Velocity S-wave (km/s) = 2.79751 3.30243 3.06040
# Velocity P-wave (km/s) = 5.44483 6.76466 6.14031
#
# Compressibility (1/GPa) = 0.02762599
#
# Stress axis : x y z
#
# Youngs Moduli (GPa) = 86.31976 52.99132 28.08372
#
# Poissons Ratio (x) = 0.23623 0.32488
# Poissons Ratio (y) = 0.38480 0.08966
# Poissons Ratio (z) = 0.99857 0.16918
#
# Static dielectric constant tensor:
#      x y z
#    x 3.664980 0.000000 0.000000 
#    y 0.000000 3.381170 0.000000 
#    z 0.000000 0.000000 3.271860 
# 
# 
# High freq. dielectric constant tensor:
#      x y z
#    x 1.741120 0.000000 0.000000 
#    y 0.000000 1.728320 0.000000 
#    z 0.000000 0.000000 1.688610 
# 
# From -- ./inp_files/1964.got.cif
#   From: 2010.03.12/outbox.cif.g09.slc.cpg/sg47_1_cif.got.tgz:1964.got - 2010.04.14 03:12:58.
