data_PCOD8198609
_publ_section_title
;
Structure prediction by ZEFSAII (Michael W. Deem and Ramdas Pophale) SiO2 
 PCOD8198609
Probable space group: P M M M
;
_chemical_formula_sum "Si O2"
_cell_formula_units_Z 48
_cell_length_a 8.773794
_cell_length_b 15.770032
_cell_length_c 17.349960
_cell_angle_alpha 90.000000
_cell_angle_beta 90.000000
_cell_angle_gamma 90.000000
_cell_volume 2400.592726
_symmetry_space_group_name_H-M "P M M M"
_symmetry_group_IT_number 47
_symmetry_cell_setting 'orthorhombic'
loop_
_space_group_symop_operation_xyz
x,y,z
-x,-y,z
x,-y,-z
-x,y,-z
-x,-y,-z
x,y,-z
-x,y,z
x,-y,z
loop_
_atom_site_type_symbol
_atom_site_label
_atom_site_fract_x
_atom_site_fract_y
_atom_site_fract_z
Si Si1 0.818065 0.337693 0.836853
Si Si2 0.830333 0.149241 0.000000
Si Si3 0.167549 0.648570 0.000000
Si Si4 0.320573 0.155573 0.156664
Si Si5 0.175318 0.905687 0.695454
Si Si6 0.819313 0.407373 0.676338
Si Si7 0.181697 0.244637 0.586570
O O1 0.746871 0.246645 0.821696
O O2 0.771235 0.396989 0.765794
O O3 0.000000 0.325950 0.843624
O O4 0.753898 0.377907 0.918341
O O5 0.837513 0.250189 0.000000
O O6 0.743866 0.117851 0.076629
O O7 0.000000 0.110450 0.000000
O O8 0.000000 0.607955 0.000000
O O9 0.500000 0.161620 0.148897
O O10 0.273127 0.094579 0.226447
O O11 0.239281 0.837012 0.634320
O O12 0.000000 0.884307 0.715632
O O13 0.189820 0.000000 0.659150
O O14 0.758997 0.500000 0.648556
O O15 0.751759 0.331394 0.624403
O O16 0.000000 0.404439 0.669899
O O17 0.246437 0.238035 0.500000
O O18 0.000000 0.247007 0.585759
#
# Coordination Sequence:
#
# PCOD8198609 Si02
#       7
#     8   4   4   8   8   8   8
#     4   9  15  28  47  68 100 140 182 221 264 319
#     4   9  17  31  52  77 108 146 186 223 265 312
#     4   7  12  21  40  66  90 127 170 209 247 291
#     4  11  20  31  51  79 110 142 181 225 269 313
#     4  10  20  35  55  77 103 139 179 219 270 328
#     4   9  16  26  45  74 107 140 174 217 269 323
#     4   9  17  30  50  77 107 136 171 222 277 326
#
# _framework density 19.995062999999998
#
# number of rings (size 3 to 8) (size 9 to 14) (size 15 to 20)
#    0.000    2.667    1.667    2.750    0.000    1.000 
#    0.000    4.167    0.000    6.000    0.000    1.167 
#    0.000    5.333    0.000    0.000    0.000    0.000 
#
# Total GULP energy -594775.300624 kJ/mol
# GULP energy per Si atom -12391.152096 kJ/mol
# Density = 1.994955 g / cm^3
# Si number density = 19.995063 Si / 1000 Ang^3
#
#
#
# Elastic Constant Matrix: (Units=GPa)
#
#
# Indices 1 2 3 4 5 6 
#
# 1 46.6510 13.2340 22.7698 0.0000 0.0000 0.0000
# 2 13.2340 120.8511 69.2230 0.0000 0.0000 0.0000
# 3 22.7698 69.2230 170.8646 0.0000 0.0000 0.0000
# 4 0.0000 0.0000 0.0000 11.6654 0.0000 0.0000
# 5 0.0000 0.0000 0.0000 0.0000 7.6301 0.0000
# 6 0.0000 0.0000 0.0000 0.0000 0.0000 4.8123
#
#
#
# Elastic Compliance Matrix: (Units=1/GPa)
#
#
# Indices 1 2 3 4 5 6 
#
# 1 0.023018 -0.000994 -0.002665 0.000000 0.000000 0.000000
# 2 -0.000994 0.010818 -0.004250 0.000000 0.000000 0.000000
# 3 -0.002665 -0.004250 0.007930 0.000000 0.000000 0.000000
# 4 0.000000 0.000000 0.000000 0.085723 0.000000 0.000000
# 5 0.000000 0.000000 0.000000 0.000000 0.131060 0.000000
# 6 0.000000 0.000000 0.000000 0.000000 0.000000 0.207802
#
#
# Mechanical properties :
#
#
# Convention : Reuss Voigt Hill
#
# Bulk Modulus (GPa) = 38.53928 60.98005 49.75966
# Shear Modulus (GPa) = 10.18705 20.36422 15.27564
#
# Velocity S-wave (km/s) = 2.25961 3.19480 2.76700
# Velocity P-wave (km/s) = 5.11117 6.64626 5.92861
#
# Compressibility (1/GPa) = 0.02594755
#
# Stress axis : x y z
#
# Youngs Moduli (GPa) = 43.44348 92.43795 126.10976
#
# Poissons Ratio (x) = 0.09192 0.33603
# Poissons Ratio (y) = 0.04320 0.53600
# Poissons Ratio (z) = 0.11576 0.39288
#
# Static dielectric constant tensor:
#      x y z
#    x 3.069250 0.000000 0.000000 
#    y 0.000000 3.547490 0.000000 
#    z 0.000000 0.000000 4.004440 
# 
# 
# High freq. dielectric constant tensor:
#      x y z
#    x 1.715290 0.000000 0.000000 
#    y 0.000000 1.766260 0.000000 
#    z 0.000000 0.000000 1.791170 
# 
# From -- ./inp_files/26529.got.cif
#   From: 2010.03.12/outbox.cif.g09.slc.cpg/sg47_14_cif.got.tgz:26529.got - 2010.04.14 03:12:58.
