data_PCOD8198938
_publ_section_title
;
Structure prediction by ZEFSAII (Michael W. Deem and Ramdas Pophale) SiO2 
 PCOD8198938
Probable space group: P M M M
;
_chemical_formula_sum "Si O2"
_cell_formula_units_Z 44
_cell_length_a 7.821036
_cell_length_b 8.970845
_cell_length_c 31.430095
_cell_angle_alpha 90.000000
_cell_angle_beta 90.000000
_cell_angle_gamma 90.000000
_cell_volume 2205.176378
_symmetry_space_group_name_H-M "P M M M"
_symmetry_group_IT_number 47
_symmetry_cell_setting 'orthorhombic'
loop_
_space_group_symop_operation_xyz
x,y,z
-x,-y,z
x,-y,-z
-x,y,-z
-x,-y,-z
x,y,-z
-x,y,z
x,-y,z
loop_
_atom_site_type_symbol
_atom_site_label
_atom_site_fract_x
_atom_site_fract_y
_atom_site_fract_z
Si Si1 0.500000 0.675843 0.224593
Si Si2 0.500000 0.823324 0.684803
Si Si3 0.190141 0.329828 0.165102
Si Si4 0.692855 0.323361 0.454073
Si Si5 0.808414 0.674819 0.364377
Si Si6 0.304928 0.168418 0.915699
Si Si7 0.803595 0.324587 0.000000
O O1 0.500000 0.500000 0.234998
O O2 0.500000 0.770253 0.267034
O O3 0.669515 0.724680 0.198901
O O4 0.328129 0.764263 0.662939
O O5 0.500000 0.000000 0.682641
O O6 0.229759 0.500000 0.152493
O O7 0.191989 0.235564 0.121967
O O8 0.000000 0.313460 0.185217
O O9 0.764021 0.263657 0.500000
O O10 0.500000 0.264997 0.447506
O O11 0.694331 0.500000 0.455611
O O12 0.802980 0.269773 0.413653
O O13 0.763188 0.500000 0.361114
O O14 0.000000 0.706096 0.347162
O O15 0.500000 0.175162 0.900502
O O16 0.244570 0.000000 0.924394
O O17 0.286825 0.260927 0.958574
O O18 0.779800 0.500000 0.000000
O O19 0.000000 0.276020 0.000000
#
# Coordination Sequence:
#
# PCOD8198938 Si02
#       7
#     4   4   8   8   8   8   4
#     4  10  22  42  66  90 118 150 192 247 297 351
#     4  12  26  42  61  85 121 160 196 246 304 365
#     4  10  21  39  65  94 120 150 190 235 289 350
#     4   8  13  24  48  83 119 151 188 242 301 349
#     4  10  20  36  61  89 118 156 202 249 297 354
#     4  11  23  38  58  86 121 159 199 239 287 346
#     4  11  24  39  56  82 116 157 206 252 293 339
#
# _framework density 19.953052
#
# number of rings (size 3 to 8) (size 9 to 14) (size 15 to 20)
#    0.000    1.909    1.818    3.000    0.000    7.636 
#    0.000    3.636    0.000    1.091    0.000    1.273 
#    0.000    0.000    0.000    0.000    0.000    0.000 
#
# Total GULP energy -545509.102661 kJ/mol
# GULP energy per Si atom -12397.934151 kJ/mol
# Density = 1.990764 g / cm^3
# Si number density = 19.953052 Si / 1000 Ang^3
#
#
#
# Elastic Constant Matrix: (Units=GPa)
#
#
# Indices 1 2 3 4 5 6 
#
# 1 125.8470 45.8826 65.0828 0.0000 0.0000 0.0000
# 2 45.8826 75.6902 49.6389 0.0000 0.0000 0.0000
# 3 65.0828 49.6389 139.9616 0.0000 0.0000 0.0000
# 4 0.0000 0.0000 0.0000 -42.1578 0.0000 0.0000
# 5 0.0000 0.0000 0.0000 0.0000 -0.0340 0.0000
# 6 0.0000 0.0000 0.0000 0.0000 0.0000 19.5783
#
#
#
# Elastic Compliance Matrix: (Units=1/GPa)
#
#
# Indices 1 2 3 4 5 6 
#
# 1 0.011543 -0.004531 -0.003761 0.000000 0.000000 0.000000
# 2 -0.004531 0.018995 -0.004630 0.000000 0.000000 0.000000
# 3 -0.003761 -0.004630 0.010535 0.000000 0.000000 0.000000
# 4 0.000000 0.000000 0.000000 -0.023720 0.000000 0.000000
# 5 0.000000 0.000000 0.000000 0.000000-29.419671 0.000000
# 6 0.000000 0.000000 0.000000 0.000000 0.000000 0.051077
#
#
# Mechanical properties :
#
#
# Convention : Reuss Voigt Hill
#
# Bulk Modulus (GPa) = 65.65761 73.63415 69.64588
# Shear Modulus (GPa) = -0.17053 7.53693 3.68320
#
# Velocity S-wave (km/s) = -0.29266 1.94564 1.36013
# Velocity P-wave (km/s) = 5.73265 6.48315 6.11941
#
# Compressibility (1/GPa) = 0.01523053
#
# Stress axis : x y z
#
# Youngs Moduli (GPa) = 86.63333 52.64642 94.91733
#
# Poissons Ratio (x) = 0.23854 0.35694
# Poissons Ratio (y) = 0.39253 0.43944
# Poissons Ratio (z) = 0.32579 0.24374
#
# Static dielectric constant tensor:
#      x y z
#    x 3.734570 0.000000 0.000000 
#    y 0.000000 3.368970 0.000000 
#    z 0.000000 0.000000 3.760960 
# 
# 
# High freq. dielectric constant tensor:
#      x y z
#    x 1.787330 0.000000 0.000000 
#    y 0.000000 1.746700 0.000000 
#    z 0.000000 0.000000 1.780390 
# 
# From -- ./inp_files/33970.got.cif
#   From: 2010.03.12/outbox.cif.g09.slc.cpg/sg47_17_cif.got.tgz:33970.got - 2010.04.14 03:12:58.
