data_PCOD8198076
_publ_section_title
;
Structure prediction by ZEFSAII (Michael W. Deem and Ramdas Pophale) SiO2 
 PCOD8198076
Probable space group: P M M M
;
_chemical_formula_sum "Si O2"
_cell_formula_units_Z 44
_cell_length_a 8.622232
_cell_length_b 28.531515
_cell_length_c 9.079694
_cell_angle_alpha 90.000000
_cell_angle_beta 90.000000
_cell_angle_gamma 90.000000
_cell_volume 2233.653224
_symmetry_space_group_name_H-M "P M M M"
_symmetry_group_IT_number 47
_symmetry_cell_setting 'orthorhombic'
loop_
_space_group_symop_operation_xyz
x,y,z
-x,-y,z
x,-y,-z
-x,y,-z
-x,-y,-z
x,y,-z
-x,y,z
x,-y,z
loop_
_atom_site_type_symbol
_atom_site_label
_atom_site_fract_x
_atom_site_fract_y
_atom_site_fract_z
Si Si1 0.183392 0.408963 0.834659
Si Si2 0.319147 0.321468 0.330617
Si Si3 0.815657 0.859424 0.664470
Si Si4 0.815512 0.948410 0.165501
Si Si5 0.818744 0.766311 0.827880
Si Si6 0.814928 0.500000 0.666449
O O1 0.226560 0.362425 0.748497
O O2 0.250491 0.454202 0.749621
O O3 0.000000 0.412469 0.842663
O O4 0.252837 0.407606 0.000000
O O5 0.266135 0.319041 0.500000
O O6 0.500000 0.331866 0.315954
O O7 0.280232 0.272780 0.253581
O O8 0.749254 0.852726 0.500000
O O9 0.746207 0.907711 0.730730
O O10 0.762523 0.816200 0.765408
O O11 0.000000 0.862223 0.661284
O O12 0.000000 0.945518 0.164872
O O13 0.762957 0.000000 0.222774
O O14 0.753509 0.940449 0.000000
O O15 0.000000 0.757710 0.796505
O O16 0.781676 0.764782 0.000000
O O17 0.750417 0.500000 0.500000
O O18 0.000000 0.500000 0.665830
#
# Coordination Sequence:
#
# PCOD8198076 Si02
#       6
#     8   8   8   8   8   4
#     4  10  20  35  57  84 111 139 173 211 250 295
#     4  11  24  39  54  75 104 136 170 210 256 304
#     4   9  16  25  39  61  89 121 158 201 247 295
#     4   8  13  21  33  51  80 119 158 195 239 292
#     4  10  20  34  53  75  98 128 168 211 254 302
#     4   9  17  31  54  83 112 141 172 208 250 293
#
# _framework density 19.698671999999998
#
# number of rings (size 3 to 8) (size 9 to 14) (size 15 to 20)
#    0.000    2.455    0.000    3.545    0.000    9.455 
#    0.000    2.273    0.000    2.727    0.000    0.000 
#    0.000    0.727    0.000    7.636    0.000   10.545 
#
# Total GULP energy -545573.496514 kJ/mol
# GULP energy per Si atom -12399.397648 kJ/mol
# Density = 1.965384 g / cm^3
# Si number density = 19.698672 Si / 1000 Ang^3
#
#
#
# Elastic Constant Matrix: (Units=GPa)
#
#
# Indices 1 2 3 4 5 6 
#
# 1 9.3841 4.6141 12.9418 0.0000 0.0000 0.0000
# 2 4.6141 156.1496 75.6728 0.0000 0.0000 0.0000
# 3 12.9418 75.6728 159.5784 0.0000 0.0000 0.0000
# 4 0.0000 0.0000 0.0000 37.2761 0.0000 0.0000
# 5 0.0000 0.0000 0.0000 0.0000 15.0151 0.0000
# 6 0.0000 0.0000 0.0000 0.0000 0.0000 -3.5938
#
#
#
# Elastic Compliance Matrix: (Units=1/GPa)
#
#
# Indices 1 2 3 4 5 6 
#
# 1 0.120262 0.001523 -0.010475 0.000000 0.000000 0.000000
# 2 0.001523 0.008334 -0.004076 0.000000 0.000000 0.000000
# 3 -0.010475 -0.004076 0.009049 0.000000 0.000000 0.000000
# 4 0.000000 0.000000 0.000000 0.026827 0.000000 0.000000
# 5 0.000000 0.000000 0.000000 0.000000 0.066599 0.000000
# 6 0.000000 0.000000 0.000000 0.000000 0.000000 -0.278255
#
#
# Mechanical properties :
#
#
# Convention : Reuss Voigt Hill
#
# Bulk Modulus (GPa) = 8.96150 56.84105 32.90127
# Shear Modulus (GPa) = 311.17430 25.19837 168.18633
#
# Velocity S-wave (km/s) = 12.58213 3.58046 9.25013
# Velocity P-wave (km/s) = 14.68466 6.78313 11.43788
#
# Compressibility (1/GPa) = 0.11158852
#
# Stress axis : x y z
#
# Youngs Moduli (GPa) = 8.31520 119.98695 110.51242
#
# Poissons Ratio (x) = -0.18273 1.15766
# Poissons Ratio (y) = -0.01266 0.45041
# Poissons Ratio (z) = 0.08711 0.48902
#
# Static dielectric constant tensor:
#      x y z
#    x 2.974130 0.000000 0.000000 
#    y 0.000000 3.862690 0.000000 
#    z 0.000000 0.000000 3.892920 
# 
# 
# High freq. dielectric constant tensor:
#      x y z
#    x 1.704610 0.000000 0.000000 
#    y 0.000000 1.787600 0.000000 
#    z 0.000000 0.000000 1.782520 
# 
# From -- ./inp_files/2007.got.cif
#   From: 2010.03.12/outbox.cif.g09.slc.cpg/sg47_2_cif.got.tgz:2007.got - 2010.04.14 03:12:58.
