data_PCOD8198136
_publ_section_title
;
Structure prediction by ZEFSAII (Michael W. Deem and Ramdas Pophale) SiO2 
 PCOD8198136
Probable space group: P M M M
;
_chemical_formula_sum "Si O2"
_cell_formula_units_Z 40
_cell_length_a 7.913955
_cell_length_b 27.349185
_cell_length_c 9.337591
_cell_angle_alpha 90.000000
_cell_angle_beta 90.000000
_cell_angle_gamma 90.000000
_cell_volume 2021.030244
_symmetry_space_group_name_H-M "P M M M"
_symmetry_group_IT_number 47
_symmetry_cell_setting 'orthorhombic'
loop_
_space_group_symop_operation_xyz
x,y,z
-x,-y,z
x,-y,-z
-x,y,-z
-x,-y,-z
x,y,-z
-x,y,z
x,-y,z
loop_
_atom_site_type_symbol
_atom_site_label
_atom_site_fract_x
_atom_site_fract_y
_atom_site_fract_z
Si Si1 0.500000 0.054706 0.329932
Si Si2 0.196992 0.217196 0.838098
Si Si3 0.807139 0.878506 0.330994
Si Si4 0.306994 0.322031 0.161715
Si Si5 0.194172 0.590155 0.341840
Si Si6 0.797882 0.500000 0.161393
O O1 0.500000 0.053035 0.500000
O O2 0.327530 0.081093 0.277015
O O3 0.500000 0.000000 0.265740
O O4 0.250469 0.172500 0.737709
O O5 0.290447 0.266146 0.784842
O O6 0.000000 0.227809 0.826931
O O7 0.251098 0.203972 0.000000
O O8 0.797169 0.871948 0.500000
O O9 0.000000 0.892952 0.284697
O O10 0.500000 0.338341 0.165247
O O11 0.206659 0.357244 0.267304
O O12 0.233177 0.326354 0.000000
O O13 0.280268 0.591188 0.500000
O O14 0.275150 0.547796 0.242968
O O15 0.000000 0.577130 0.362032
O O16 0.000000 0.500000 0.156284
O O17 0.725358 0.500000 0.000000
#
# Coordination Sequence:
#
# PCOD8198136 Si02
#       6
#     4   8   8   8   8   4
#     4   9  18  32  51  77 107 139 177 220 267 314
#     4   9  18  33  53  76 102 134 170 210 258 309
#     4   9  18  32  51  76 104 135 175 220 264 315
#     4  10  21  35  51  74 103 135 172 211 254 310
#     4  10  20  34  53  77 104 133 168 212 260 310
#     4   9  17  31  54  79 100 129 170 214 260 309
#
# _framework density 19.791888
#
# number of rings (size 3 to 8) (size 9 to 14) (size 15 to 20)
#    0.000    2.600    0.000    1.500    1.400    4.800 
#    0.000    4.500    0.000    4.200    0.000    2.800 
#    0.000    0.000    0.000    0.000    0.000    0.000 
#
# Total GULP energy -495911.430047 kJ/mol
# GULP energy per Si atom -12397.785751 kJ/mol
# Density = 1.974684 g / cm^3
# Si number density = 19.791888 Si / 1000 Ang^3
#
#
#
# Elastic Constant Matrix: (Units=GPa)
#
#
# Indices 1 2 3 4 5 6 
#
# 1 58.4377 44.6531 25.6519 0.0000 0.0000 0.0000
# 2 44.6531 156.9181 70.8271 0.0000 0.0000 0.0000
# 3 25.6519 70.8271 96.9108 0.0000 0.0000 0.0000
# 4 0.0000 0.0000 0.0000 24.5302 0.0000 0.0000
# 5 0.0000 0.0000 0.0000 0.0000 13.2627 0.0000
# 6 0.0000 0.0000 0.0000 0.0000 0.0000 5.2242
#
#
#
# Elastic Compliance Matrix: (Units=1/GPa)
#
#
# Indices 1 2 3 4 5 6 
#
# 1 0.022092 -0.005442 -0.001870 0.000000 0.000000 0.000000
# 2 -0.005442 0.010851 -0.006490 0.000000 0.000000 0.000000
# 3 -0.001870 -0.006490 0.015557 0.000000 0.000000 0.000000
# 4 0.000000 0.000000 0.000000 0.040766 0.000000 0.000000
# 5 0.000000 0.000000 0.000000 0.000000 0.075400 0.000000
# 6 0.000000 0.000000 0.000000 0.000000 0.000000 0.191415
#
#
# Mechanical properties :
#
#
# Convention : Reuss Voigt Hill
#
# Bulk Modulus (GPa) = 47.85834 66.05897 56.95865
# Shear Modulus (GPa) = 12.79922 20.01240 16.40581
#
# Velocity S-wave (km/s) = 2.54577 3.18329 2.88221
# Velocity P-wave (km/s) = 5.73363 6.85277 6.31803
#
# Compressibility (1/GPa) = 0.02089500
#
# Stress axis : x y z
#
# Youngs Moduli (GPa) = 45.26573 92.16057 64.28130
#
# Poissons Ratio (x) = 0.50158 0.12021
# Poissons Ratio (y) = 0.24636 0.41716
# Poissons Ratio (z) = 0.08465 0.59808
#
# Static dielectric constant tensor:
#      x y z
#    x 3.483860 0.000000 0.000000 
#    y 0.000000 3.635140 0.000000 
#    z 0.000000 0.000000 3.617610 
# 
# 
# High freq. dielectric constant tensor:
#      x y z
#    x 1.758820 0.000000 0.000000 
#    y 0.000000 1.770840 0.000000 
#    z 0.000000 0.000000 1.756880 
# 
# From -- ./inp_files/1874.got.cif
#   From: 2010.03.12/outbox.cif.g09.slc.cpg/sg47_1_cif.got.tgz:1874.got - 2010.04.14 03:12:58.
