data_PCOD8198466
_publ_section_title
;
Structure prediction by ZEFSAII (Michael W. Deem and Ramdas Pophale) SiO2 
 PCOD8198466
Probable space group: P M M M
;
_chemical_formula_sum "Si O2"
_cell_formula_units_Z 48
_cell_length_a 31.996498
_cell_length_b 9.522335
_cell_length_c 8.120507
_cell_angle_alpha 90.000000
_cell_angle_beta 90.000000
_cell_angle_gamma 90.000000
_cell_volume 2474.167220
_symmetry_space_group_name_H-M "P M M M"
_symmetry_group_IT_number 47
_symmetry_cell_setting 'orthorhombic'
loop_
_space_group_symop_operation_xyz
x,y,z
-x,-y,z
x,-y,-z
-x,y,-z
-x,-y,-z
x,y,-z
-x,y,z
x,-y,z
loop_
_atom_site_type_symbol
_atom_site_label
_atom_site_fract_x
_atom_site_fract_y
_atom_site_fract_z
Si Si1 0.422636 0.658742 0.308010
Si Si2 0.900301 0.663487 0.685570
Si Si3 0.953221 0.333366 0.000000
Si Si4 0.666268 0.339795 0.810938
Si Si5 0.173118 0.837242 0.187902
Si Si6 0.260692 0.156460 0.311902
Si Si7 0.500000 0.162004 0.193966
O O1 0.413453 0.661143 0.500000
O O2 0.434326 0.500000 0.250340
O O3 0.380973 0.713564 0.217248
O O4 0.459451 0.764211 0.266417
O O5 0.918949 0.687790 0.500000
O O6 0.890763 0.500000 0.713779
O O7 0.931118 0.719018 0.830520
O O8 0.856868 0.746351 0.696676
O O9 0.954778 0.500000 0.000000
O O10 0.000000 0.270570 0.000000
O O11 0.669264 0.500000 0.750924
O O12 0.698798 0.251920 0.705798
O O13 0.678411 0.322415 0.000000
O O14 0.220965 0.785988 0.209961
O O15 0.169387 0.000000 0.239839
O O16 0.159582 0.813153 0.000000
O O17 0.246570 0.154983 0.500000
O O18 0.272460 0.000000 0.250556
O O19 0.500000 0.000000 0.249406
O O20 0.500000 0.178097 0.000000
#
# Coordination Sequence:
#
# PCOD8198466 Si02
#       7
#     8   8   4   8   8   8   4
#     4  10  21  38  60  83 107 138 176 218 266 320
#     4  10  20  34  55  83 112 145 186 231 281 335
#     4   9  18  34  55  81 115 149 183 231 285 336
#     4  10  21  37  57  81 108 141 180 221 268 321
#     4  10  20  35  56  80 108 146 188 230 279 332
#     4  10  21  36  54  78 108 143 183 225 271 325
#     4  11  24  39  56  82 112 141 176 217 262 314
#
# _framework density 19.400466999999999
#
# number of rings (size 3 to 8) (size 9 to 14) (size 15 to 20)
#    0.000    2.000    0.833    2.500    0.000    7.333 
#    0.000    1.667    0.000    1.000    0.000    1.167 
#    0.000    0.000    0.000    0.000    0.000    0.000 
#
# Total GULP energy -595242.742592 kJ/mol
# GULP energy per Si atom -12400.890471 kJ/mol
# Density = 1.935631 g / cm^3
# Si number density = 19.400467 Si / 1000 Ang^3
#
#
#
# Elastic Constant Matrix: (Units=GPa)
#
#
# Indices 1 2 3 4 5 6 
#
# 1 128.9288 54.3610 39.8665 0.0000 0.0000 0.0000
# 2 54.3610 63.8023 30.3837 0.0000 0.0000 0.0000
# 3 39.8665 30.3837 92.8259 0.0000 0.0000 0.0000
# 4 0.0000 0.0000 0.0000 25.5028 0.0000 0.0000
# 5 0.0000 0.0000 0.0000 0.0000 31.0240 0.0000
# 6 0.0000 0.0000 0.0000 0.0000 0.0000 -24.0597
#
#
#
# Elastic Compliance Matrix: (Units=1/GPa)
#
#
# Indices 1 2 3 4 5 6 
#
# 1 0.012482 -0.009574 -0.002227 0.000000 0.000000 0.000000
# 2 -0.009574 0.025912 -0.004370 0.000000 0.000000 0.000000
# 3 -0.002227 -0.004370 0.013159 0.000000 0.000000 0.000000
# 4 0.000000 0.000000 0.000000 0.039211 0.000000 0.000000
# 5 0.000000 0.000000 0.000000 0.000000 0.032233 0.000000
# 6 0.000000 0.000000 0.000000 0.000000 0.000000 -0.041563
#
#
# Mechanical properties :
#
#
# Convention : Reuss Voigt Hill
#
# Bulk Modulus (GPa) = 52.05128 59.41993 55.73561
# Shear Modulus (GPa) = 41.60474 17.22313 29.41394
#
# Velocity S-wave (km/s) = 4.63592 2.98278 3.89800
# Velocity P-wave (km/s) = 7.45278 6.52359 7.00361
#
# Compressibility (1/GPa) = 0.01921182
#
# Stress axis : x y z
#
# Youngs Moduli (GPa) = 80.11819 38.59268 75.99121
#
# Poissons Ratio (x) = 0.36949 0.16921
# Poissons Ratio (y) = 0.76706 0.33204
# Poissons Ratio (z) = 0.17840 0.16863
#
# Static dielectric constant tensor:
#      x y z
#    x 3.488110 0.000000 0.000000 
#    y 0.000000 3.415360 0.000000 
#    z 0.000000 0.000000 3.667540 
# 
# 
# High freq. dielectric constant tensor:
#      x y z
#    x 1.753260 0.000000 0.000000 
#    y 0.000000 1.736030 0.000000 
#    z 0.000000 0.000000 1.769520 
# 
# From -- ./inp_files/13889.got.cif
#   From: 2010.03.12/outbox.cif.g09.slc.cpg/sg47_7_cif.got.tgz:13889.got - 2010.04.14 03:12:58.
