data_PCOD8198194
_publ_section_title
;
Structure prediction by ZEFSAII (Michael W. Deem and Ramdas Pophale) SiO2 
 PCOD8198194
Probable space group: P M M M
;
_chemical_formula_sum "Si O2"
_cell_formula_units_Z 52
_cell_length_a 28.113896
_cell_length_b 8.858880
_cell_length_c 11.957692
_cell_angle_alpha 90.000000
_cell_angle_beta 90.000000
_cell_angle_gamma 90.000000
_cell_volume 2978.154442
_symmetry_space_group_name_H-M "P M M M"
_symmetry_group_IT_number 47
_symmetry_cell_setting 'orthorhombic'
loop_
_space_group_symop_operation_xyz
x,y,z
-x,-y,z
x,-y,-z
-x,y,-z
-x,-y,-z
x,y,-z
-x,y,z
x,-y,z
loop_
_atom_site_type_symbol
_atom_site_label
_atom_site_fract_x
_atom_site_fract_y
_atom_site_fract_z
Si Si1 0.055312 0.679283 0.500000
Si Si2 0.556428 0.832332 0.500000
Si Si3 0.170187 0.322769 0.129801
Si Si4 0.553312 0.678073 0.277008
Si Si5 0.911888 0.820548 0.271439
Si Si6 0.360596 0.674718 0.129857
Si Si7 0.266868 0.168567 0.867649
Si Si8 0.000000 0.178974 0.125063
O O1 0.059904 0.500000 0.500000
O O2 0.082070 0.744857 0.607901
O O3 0.000000 0.730367 0.500000
O O4 0.500000 0.835693 0.500000
O O5 0.574320 0.745140 0.391099
O O6 0.578041 0.000000 0.500000
O O7 0.163442 0.500000 0.148397
O O8 0.136233 0.231078 0.212221
O O9 0.223255 0.276142 0.166154
O O10 0.160197 0.278553 0.000000
O O11 0.500000 0.738841 0.249241
O O12 0.551751 0.500000 0.289503
O O13 0.589638 0.731017 0.181431
O O14 0.954092 0.762935 0.191279
O O15 0.912185 0.000000 0.286467
O O16 0.351534 0.500000 0.155878
O O17 0.315911 0.764752 0.182244
O O18 0.365390 0.707381 0.000000
O O19 0.258603 0.000000 0.820112
O O20 0.271399 0.164992 0.000000
O O21 0.000000 0.000000 0.117626
O O22 0.000000 0.248737 0.000000
#
# Coordination Sequence:
#
# PCOD8198194 Si02
#       8
#     4   4   8   8   8   8   8   4
#     4  11  23  39  57  76 105 142 183 221 256 300
#     4   9  17  29  45  64  87 118 159 205 247 285
#     4  10  20  34  53  79 109 137 167 208 261 312
#     4   9  17  29  46  68  95 128 165 204 246 296
#     4  11  21  35  56  79 106 138 177 216 252 298
#     4   9  17  29  46  70 100 132 164 200 246 299
#     4   9  17  30  49  72  98 131 170 208 247 298
#     4   9  18  31  49  76 108 137 164 201 248 293
#
# _framework density 17.460477000000001
#
# number of rings (size 3 to 8) (size 9 to 14) (size 15 to 20)
#    0.000    2.385    0.769    2.308    0.000    5.538 
#    0.000    1.538    0.000    2.769    0.000    7.538 
#    0.000    0.000    0.000    0.000    0.000    0.000 
#
# Total GULP energy -644725.407771 kJ/mol
# GULP energy per Si atom -12398.565534 kJ/mol
# Density = 1.742074 g / cm^3
# Si number density = 17.460477 Si / 1000 Ang^3
#
#
#
# Elastic Constant Matrix: (Units=GPa)
#
#
# Indices 1 2 3 4 5 6 
#
# 1 116.3538 37.0011 51.0199 0.0000 0.0000 0.0000
# 2 37.0011 57.9442 32.3710 0.0000 0.0000 0.0000
# 3 51.0199 32.3710 86.9451 0.0000 0.0000 0.0000
# 4 0.0000 0.0000 0.0000 20.1057 0.0000 0.0000
# 5 0.0000 0.0000 0.0000 0.0000 5.1259 0.0000
# 6 0.0000 0.0000 0.0000 0.0000 0.0000 26.9691
#
#
#
# Elastic Compliance Matrix: (Units=1/GPa)
#
#
# Indices 1 2 3 4 5 6 
#
# 1 0.012602 -0.004944 -0.005554 0.000000 0.000000 0.000000
# 2 -0.004944 0.023730 -0.005934 0.000000 0.000000 0.000000
# 3 -0.005554 -0.005934 0.016970 0.000000 0.000000 0.000000
# 4 0.000000 0.000000 0.000000 0.049737 0.000000 0.000000
# 5 0.000000 0.000000 0.000000 0.000000 0.195089 0.000000
# 6 0.000000 0.000000 0.000000 0.000000 0.000000 0.037079
#
#
# Mechanical properties :
#
#
# Convention : Reuss Voigt Hill
#
# Bulk Modulus (GPa) = 48.92902 55.78079 52.35490
# Shear Modulus (GPa) = 13.33740 19.83021 16.58380
#
# Velocity S-wave (km/s) = 2.76680 3.37370 3.08521
# Velocity P-wave (km/s) = 6.18793 6.86965 6.53768
#
# Compressibility (1/GPa) = 0.02043777
#
# Stress axis : x y z
#
# Youngs Moduli (GPa) = 79.35060 42.14030 58.92772
#
# Poissons Ratio (x) = 0.20836 0.32730
# Poissons Ratio (y) = 0.39235 0.34966
# Poissons Ratio (z) = 0.44073 0.25005
#
# Static dielectric constant tensor:
#      x y z
#    x 3.408600 0.000000 0.000000 
#    y 0.000000 3.268450 0.000000 
#    z 0.000000 0.000000 3.179290 
# 
# 
# High freq. dielectric constant tensor:
#      x y z
#    x 1.673680 0.000000 0.000000 
#    y 0.000000 1.675610 0.000000 
#    z 0.000000 0.000000 1.651630 
# 
# From -- ./inp_files/19860.got.cif
#   From: 2010.03.12/outbox.cif.g09.slc.cpg/sg47_10_cif.got.tgz:19860.got - 2010.04.14 03:12:58.
