data_PCOD8198750
_publ_section_title
;
Structure prediction by ZEFSAII (Michael W. Deem and Ramdas Pophale) SiO2 
 PCOD8198750
Probable space group: P M M M
;
_chemical_formula_sum "Si O2"
_cell_formula_units_Z 48
_cell_length_a 7.736865
_cell_length_b 34.229365
_cell_length_c 9.113047
_cell_angle_alpha 90.000000
_cell_angle_beta 90.000000
_cell_angle_gamma 90.000000
_cell_volume 2413.389793
_symmetry_space_group_name_H-M "P M M M"
_symmetry_group_IT_number 47
_symmetry_cell_setting 'orthorhombic'
loop_
_space_group_symop_operation_xyz
x,y,z
-x,-y,z
x,-y,-z
-x,y,-z
-x,-y,-z
x,y,-z
-x,y,z
x,-y,z
loop_
_atom_site_type_symbol
_atom_site_label
_atom_site_fract_x
_atom_site_fract_y
_atom_site_fract_z
Si Si1 0.500000 0.830193 0.825762
Si Si2 0.801974 0.382524 0.839658
Si Si3 0.500000 0.741211 0.824098
Si Si4 0.809247 0.117596 0.831267
Si Si5 0.203967 0.693028 0.672421
Si Si6 0.296060 0.456360 0.664369
Si Si7 0.300802 0.956488 0.328596
O O1 0.500000 0.785942 0.770630
O O2 0.330326 0.852392 0.763310
O O3 0.500000 0.830115 0.000000
O O4 0.731842 0.349619 0.728418
O O5 0.783745 0.425707 0.775664
O O6 0.000000 0.373415 0.864091
O O7 0.709224 0.380062 0.000000
O O8 0.323052 0.723666 0.758575
O O9 0.500000 0.736262 0.000000
O O10 0.810432 0.075631 0.754350
O O11 0.000000 0.136148 0.811706
O O12 0.764209 0.110155 0.000000
O O13 0.242357 0.695332 0.500000
O O14 0.000000 0.701025 0.704451
O O15 0.227020 0.448060 0.500000
O O16 0.500000 0.452337 0.667077
O O17 0.240209 0.500000 0.713312
O O18 0.271496 0.950740 0.500000
O O19 0.500000 0.950547 0.286495
O O20 0.240188 0.000000 0.281709
#
# Coordination Sequence:
#
# PCOD8198750 Si02
#       7
#     4   8   4   8   8   8   8
#     4   9  20  39  58  82 115 147 183 228 282 340
#     4  10  21  36  55  81 112 145 183 230 282 334
#     4  11  23  39  65  94 117 150 192 236 294 354
#     4  10  20  35  57  83 111 147 191 234 278 332
#     4  10  22  41  63  88 120 155 192 236 288 349
#     4   9  19  35  53  75 106 146 190 232 275 328
#     4   9  18  33  53  78 110 149 191 235 284 334
#
# _framework density 19.889039
#
# number of rings (size 3 to 8) (size 9 to 14) (size 15 to 20)
#    0.000    2.333    0.833    2.250    1.167    4.667 
#    0.000    8.333    0.000    0.000    0.000    0.000 
#    0.000    0.000    0.000    0.000    0.000    0.000 
#
# Total GULP energy -595012.890644 kJ/mol
# GULP energy per Si atom -12396.101888 kJ/mol
# Density = 1.984377 g / cm^3
# Si number density = 19.889039 Si / 1000 Ang^3
#
#
#
# Elastic Constant Matrix: (Units=GPa)
#
#
# Indices 1 2 3 4 5 6 
#
# 1 87.2770 55.9361 40.0615 0.0000 0.0000 0.0000
# 2 55.9361 155.2163 58.6662 0.0000 0.0000 0.0000
# 3 40.0615 58.6662 94.9408 0.0000 0.0000 0.0000
# 4 0.0000 0.0000 0.0000 14.0849 0.0000 0.0000
# 5 0.0000 0.0000 0.0000 0.0000 25.2551 0.0000
# 6 0.0000 0.0000 0.0000 0.0000 0.0000 20.6089
#
#
#
# Elastic Compliance Matrix: (Units=1/GPa)
#
#
# Indices 1 2 3 4 5 6 
#
# 1 0.016077 -0.004214 -0.004180 0.000000 0.000000 0.000000
# 2 -0.004214 0.009510 -0.004099 0.000000 0.000000 0.000000
# 3 -0.004180 -0.004099 0.014829 0.000000 0.000000 0.000000
# 4 0.000000 0.000000 0.000000 0.070998 0.000000 0.000000
# 5 0.000000 0.000000 0.000000 0.000000 0.039596 0.000000
# 6 0.000000 0.000000 0.000000 0.000000 0.000000 0.048523
#
#
# Mechanical properties :
#
#
# Convention : Reuss Voigt Hill
#
# Bulk Modulus (GPa) = 64.80155 71.86240 68.33197
# Shear Modulus (GPa) = 21.77106 24.17447 22.97276
#
# Velocity S-wave (km/s) = 3.31210 3.49014 3.40228
# Velocity P-wave (km/s) = 6.87597 7.24234 7.06153
#
# Compressibility (1/GPa) = 0.01543173
#
# Stress axis : x y z
#
# Youngs Moduli (GPa) = 62.19983 105.14911 67.43398
#
# Poissons Ratio (x) = 0.44309 0.28188
# Poissons Ratio (y) = 0.26210 0.27638
# Poissons Ratio (z) = 0.26000 0.43096
#
# Static dielectric constant tensor:
#      x y z
#    x 3.579140 0.000000 0.000000 
#    y 0.000000 3.785110 0.000000 
#    z 0.000000 0.000000 3.654960 
# 
# 
# High freq. dielectric constant tensor:
#      x y z
#    x 1.775490 0.000000 0.000000 
#    y 0.000000 1.773880 0.000000 
#    z 0.000000 0.000000 1.765890 
# 
# From -- ./inp_files/2709.got.cif
#   From: 2010.03.12/outbox.cif.g09.slc.cpg/sg47_2_cif.got.tgz:2709.got - 2010.04.14 03:12:58.
