data_PCOD8198507
_publ_section_title
;
Structure prediction by ZEFSAII (Michael W. Deem and Ramdas Pophale) SiO2 
 PCOD8198507
Probable space group: P M M M
;
_chemical_formula_sum "Si O2"
_cell_formula_units_Z 56
_cell_length_a 14.916589
_cell_length_b 22.875073
_cell_length_c 8.607751
_cell_angle_alpha 90.000000
_cell_angle_beta 90.000000
_cell_angle_gamma 90.000000
_cell_volume 2937.120117
_symmetry_space_group_name_H-M "P M M M"
_symmetry_group_IT_number 47
_symmetry_cell_setting 'orthorhombic'
loop_
_space_group_symop_operation_xyz
x,y,z
-x,-y,z
x,-y,-z
-x,y,-z
-x,-y,-z
x,y,-z
-x,y,z
x,-y,z
loop_
_atom_site_type_symbol
_atom_site_label
_atom_site_fract_x
_atom_site_fract_y
_atom_site_fract_z
Si Si1 0.825453 0.432490 0.819608
Si Si2 0.900879 0.673929 0.678882
Si Si3 0.500000 0.438992 0.823840
Si Si4 0.604196 0.256847 0.818031
Si Si5 0.225553 0.220098 0.317359
Si Si6 0.893850 0.000000 0.325500
Si Si7 0.104905 0.879143 0.819014
Si Si8 0.655621 0.624616 0.676712
O O1 0.849331 0.500000 0.775540
O O2 0.903925 0.386386 0.780554
O O3 0.748361 0.407011 0.709417
O O4 0.798507 0.429366 0.000000
O O5 0.880608 0.657849 0.500000
O O6 0.825890 0.720120 0.737217
O O7 0.000000 0.702066 0.696201
O O8 0.500000 0.500000 0.727707
O O9 0.413534 0.402457 0.793169
O O10 0.500000 0.455664 0.000000
O O11 0.500000 0.242655 0.769556
O O12 0.679002 0.207996 0.774080
O O13 0.649690 0.307177 0.713520
O O14 0.606371 0.271611 0.000000
O O15 0.244422 0.221996 0.500000
O O16 0.159981 0.167084 0.280485
O O17 0.860937 0.943087 0.232327
O O18 0.853604 0.000000 0.500000
O O19 0.000000 0.000000 0.333359
O O20 0.000000 0.870946 0.781385
O O21 0.124719 0.870250 0.000000
O O22 0.627850 0.613741 0.500000
#
# Coordination Sequence:
#
# PCOD8198507 Si02
#       8
#     8   8   4   8   8   4   8   8
#     4  11  24  40  57  76 101 136 179 227 280 340
#     4  10  22  39  58  81 109 142 182 231 285 339
#     4  11  23  37  53  75 103 133 167 212 271 338
#     4  11  23  39  60  83 111 145 182 228 283 342
#     4  11  22  37  59  86 116 151 192 237 284 337
#     4   9  17  31  53  83 122 165 206 247 287 327
#     4  10  20  34  55  86 125 167 206 241 282 334
#     4  12  23  36  56  79 103 133 171 218 276 341
#
# _framework density 19.066293999999999
#
# number of rings (size 3 to 8) (size 9 to 14) (size 15 to 20)
#    0.000    1.286    2.143    4.286    0.000    7.714 
#    0.000    1.429    0.000    0.000    0.000    0.500 
#    0.000    4.000    0.000    0.000    0.000    0.000 
#
# Total GULP energy -693927.043394 kJ/mol
# GULP energy per Si atom -12391.554346 kJ/mol
# Density = 1.902290 g / cm^3
# Si number density = 19.066294 Si / 1000 Ang^3
#
#
#
# Elastic Constant Matrix: (Units=GPa)
#
#
# Indices 1 2 3 4 5 6 
#
# 1 112.1486 35.4831 29.5586 0.0000 0.0000 0.0000
# 2 35.4831 96.6985 25.2126 0.0000 0.0000 0.0000
# 3 29.5586 25.2126 76.1491 0.0000 0.0000 0.0000
# 4 0.0000 0.0000 0.0000 30.2638 0.0000 0.0000
# 5 0.0000 0.0000 0.0000 0.0000 48.6639 0.0000
# 6 0.0000 0.0000 0.0000 0.0000 0.0000 15.4328
#
#
#
# Elastic Compliance Matrix: (Units=1/GPa)
#
#
# Indices 1 2 3 4 5 6 
#
# 1 0.010729 -0.003121 -0.003132 0.000000 0.000000 0.000000
# 2 -0.003121 0.012226 -0.002837 0.000000 0.000000 0.000000
# 3 -0.003132 -0.002837 0.015287 0.000000 0.000000 0.000000
# 4 0.000000 0.000000 0.000000 0.033043 0.000000 0.000000
# 5 0.000000 0.000000 0.000000 0.000000 0.020549 0.000000
# 6 0.000000 0.000000 0.000000 0.000000 0.000000 0.064797
#
#
# Mechanical properties :
#
#
# Convention : Reuss Voigt Hill
#
# Bulk Modulus (GPa) = 49.83876 51.72277 50.78077
# Shear Modulus (GPa) = 27.54857 31.85488 29.70173
#
# Velocity S-wave (km/s) = 3.80529 4.09191 3.95120
# Velocity P-wave (km/s) = 6.74562 7.03645 6.89257
#
# Compressibility (1/GPa) = 0.02006470
#
# Stress axis : x y z
#
# Youngs Moduli (GPa) = 93.20119 81.79197 65.41532
#
# Poissons Ratio (x) = 0.25524 0.20486
# Poissons Ratio (y) = 0.29085 0.18556
# Poissons Ratio (z) = 0.29187 0.23202
#
# Static dielectric constant tensor:
#      x y z
#    x 3.580600 0.000000 0.000000 
#    y 0.000000 3.556730 0.000000 
#    z 0.000000 0.000000 3.524580 
# 
# 
# High freq. dielectric constant tensor:
#      x y z
#    x 1.736020 0.000000 0.000000 
#    y 0.000000 1.721510 0.000000 
#    z 0.000000 0.000000 1.749510 
# 
# From -- ./inp_files/7444.got.cif
#   From: 2010.03.12/outbox.cif.g09.slc.cpg/sg47_4_cif.got.tgz:7444.got - 2010.04.14 03:12:58.
