data_PCOD8198845
_publ_section_title
;
Structure prediction by ZEFSAII (Michael W. Deem and Ramdas Pophale) SiO2 
 PCOD8198845
Probable space group: P M M M
;
_chemical_formula_sum "Si O2"
_cell_formula_units_Z 48
_cell_length_a 12.587237
_cell_length_b 15.005404
_cell_length_c 13.558993
_cell_angle_alpha 90.000000
_cell_angle_beta 90.000000
_cell_angle_gamma 90.000000
_cell_volume 2560.976178
_symmetry_space_group_name_H-M "P M M M"
_symmetry_group_IT_number 47
_symmetry_cell_setting 'orthorhombic'
loop_
_space_group_symop_operation_xyz
x,y,z
-x,-y,z
x,-y,-z
-x,y,-z
-x,-y,-z
x,y,-z
-x,y,z
x,-y,z
loop_
_atom_site_type_symbol
_atom_site_label
_atom_site_fract_x
_atom_site_fract_y
_atom_site_fract_z
Si Si1 0.770704 0.840350 0.611470
Si Si2 0.000000 0.900340 0.616835
Si Si3 0.325197 0.101659 0.204649
Si Si4 0.880468 0.500000 0.616459
Si Si5 0.500000 0.397930 0.257157
Si Si6 0.292817 0.637499 0.387584
Si Si7 0.886463 0.894720 0.890448
Si Si8 0.500000 0.770229 0.881812
O O1 0.760940 0.876719 0.500000
O O2 0.683531 0.894470 0.676430
O O3 0.738424 0.738997 0.619131
O O4 0.891469 0.852356 0.651731
O O5 0.000000 0.903013 0.500000
O O6 0.000000 0.000000 0.661938
O O7 0.211308 0.140274 0.172001
O O8 0.402141 0.171724 0.155296
O O9 0.352857 0.000000 0.171806
O O10 0.895175 0.500000 0.500000
O O11 0.811451 0.585142 0.650890
O O12 0.000000 0.500000 0.664082
O O13 0.500000 0.500000 0.216995
O O14 0.604627 0.383027 0.322241
O O15 0.500000 0.328419 0.165758
O O16 0.319980 0.609458 0.500000
O O17 0.000000 0.867729 0.840834
O O18 0.877666 0.000000 0.898437
O O19 0.880665 0.853501 0.000000
O O20 0.500000 0.760591 0.000000
#
# Coordination Sequence:
#
# PCOD8198845 Si02
#       8
#     8   4   8   4   4   8   8   4
#     4  10  21  35  53  82 123 164 205 243 286 345
#     4   9  18  32  50  75 116 172 215 241 274 330
#     4  11  22  37  59  84 114 156 200 240 295 354
#     4   9  18  31  53  89 127 157 188 230 290 352
#     4  12  23  42  67  90 116 145 196 245 296 364
#     4  10  20  35  58  88 121 159 195 242 294 342
#     4   8  15  29  50  77 106 137 182 242 298 343
#     4  12  27  46  63  85 115 146 193 252 309 362
#
# _framework density 18.742853
#
# number of rings (size 3 to 8) (size 9 to 14) (size 15 to 20)
#    0.000    2.000    2.500    2.000    2.333    2.833 
#    0.000    0.417    0.000    1.000    0.000    0.000 
#    0.000    0.667    0.000    0.000    0.000    0.000 
#
# Total GULP energy -594736.715533 kJ/mol
# GULP energy per Si atom -12390.348240 kJ/mol
# Density = 1.870019 g / cm^3
# Si number density = 18.742853 Si / 1000 Ang^3
#
#
#
# Elastic Constant Matrix: (Units=GPa)
#
#
# Indices 1 2 3 4 5 6 
#
# 1 144.7958 52.1961 61.3678 0.0000 0.0000 0.0000
# 2 52.1961 97.7563 37.4873 0.0000 0.0000 0.0000
# 3 61.3678 37.4873 83.7066 0.0000 0.0000 0.0000
# 4 0.0000 0.0000 0.0000 16.3582 0.0000 0.0000
# 5 0.0000 0.0000 0.0000 0.0000 20.6561 0.0000
# 6 0.0000 0.0000 0.0000 0.0000 0.0000 28.8446
#
#
#
# Elastic Compliance Matrix: (Units=1/GPa)
#
#
# Indices 1 2 3 4 5 6 
#
# 1 0.010839 -0.003308 -0.006465 0.000000 0.000000 0.000000
# 2 -0.003308 0.013360 -0.003558 0.000000 0.000000 0.000000
# 3 -0.006465 -0.003558 0.018279 0.000000 0.000000 0.000000
# 4 0.000000 0.000000 0.000000 0.061131 0.000000 0.000000
# 5 0.000000 0.000000 0.000000 0.000000 0.048412 0.000000
# 6 0.000000 0.000000 0.000000 0.000000 0.000000 0.034668
#
#
# Mechanical properties :
#
#
# Convention : Reuss Voigt Hill
#
# Bulk Modulus (GPa) = 63.22415 69.81787 66.52101
# Shear Modulus (GPa) = 22.87036 24.85230 23.86133
#
# Velocity S-wave (km/s) = 3.49695 3.64533 3.57191
# Velocity P-wave (km/s) = 7.07888 7.41951 7.25119
#
# Compressibility (1/GPa) = 0.01581674
#
# Stress axis : x y z
#
# Youngs Moduli (GPa) = 92.26229 74.84866 54.70672
#
# Poissons Ratio (x) = 0.24761 0.35366
# Poissons Ratio (y) = 0.30522 0.19464
# Poissons Ratio (z) = 0.59644 0.26631
#
# Static dielectric constant tensor:
#      x y z
#    x 3.353130 0.000000 0.000000 
#    y 0.000000 3.344720 0.000000 
#    z 0.000000 0.000000 3.542740 
# 
# 
# High freq. dielectric constant tensor:
#      x y z
#    x 1.742180 0.000000 0.000000 
#    y 0.000000 1.705960 0.000000 
#    z 0.000000 0.000000 1.714770 
# 
# From -- ./inp_files/22772.got.cif
#   From: 2010.03.12/outbox.cif.g09.slc.cpg/sg47_12_cif.got.tgz:22772.got - 2010.04.14 03:12:58.
