data_PCOD8198868
_publ_section_title
;
Structure prediction by ZEFSAII (Michael W. Deem and Ramdas Pophale) SiO2 
 PCOD8198868
Probable space group: P M M M
;
_chemical_formula_sum "Si O2"
_cell_formula_units_Z 52
_cell_length_a 8.976417
_cell_length_b 21.679130
_cell_length_c 14.136041
_cell_angle_alpha 90.000000
_cell_angle_beta 90.000000
_cell_angle_gamma 90.000000
_cell_volume 2750.886458
_symmetry_space_group_name_H-M "P M M M"
_symmetry_group_IT_number 47
_symmetry_cell_setting 'orthorhombic'
loop_
_space_group_symop_operation_xyz
x,y,z
-x,-y,z
x,-y,-z
-x,y,-z
-x,-y,-z
x,y,-z
-x,y,z
x,-y,z
loop_
_atom_site_type_symbol
_atom_site_label
_atom_site_fract_x
_atom_site_fract_y
_atom_site_fract_z
Si Si1 0.666420 0.000000 0.611232
Si Si2 0.324982 0.432549 0.215150
Si Si3 0.322796 0.687123 0.108321
Si Si4 0.326667 0.643257 0.607234
Si Si5 0.825019 0.748119 0.718295
Si Si6 0.823312 0.069106 0.100982
Si Si7 0.825555 0.114129 0.704217
O O1 0.745628 0.063140 0.641458
O O2 0.500000 0.000000 0.653103
O O3 0.664770 0.000000 0.500000
O O4 0.500000 0.438361 0.202733
O O5 0.251932 0.500000 0.195221
O O6 0.266422 0.381035 0.141337
O O7 0.285808 0.413057 0.322986
O O8 0.500000 0.691736 0.117614
O O9 0.251546 0.737093 0.179303
O O10 0.270970 0.698609 0.000000
O O11 0.285752 0.624285 0.500000
O O12 0.500000 0.660597 0.617133
O O13 0.232758 0.702597 0.637601
O O14 0.787828 0.815812 0.675788
O O15 0.000000 0.739828 0.734070
O O16 0.767387 0.110302 0.187438
O O17 0.000000 0.068091 0.098110
O O18 0.763091 0.000000 0.117270
O O19 0.762663 0.094931 0.000000
O O20 0.000000 0.099784 0.696244
#
# Coordination Sequence:
#
# PCOD8198868 Si02
#       7
#     4   8   8   8   8   8   8
#     4  11  25  41  56  77 104 134 167 207 260 317
#     4   8  14  26  47  77 107 132 168 219 265 306
#     4   9  18  33  52  75 107 145 179 212 255 306
#     4   9  18  33  52  73 100 135 171 212 267 323
#     4  10  21  34  52  78 104 134 175 220 260 304
#     4   8  13  24  47  75  97 118 147 186 233 285
#     4  10  20  36  57  78 101 132 170 211 254 299
#
# _framework density 18.902998
#
# number of rings (size 3 to 8) (size 9 to 14) (size 15 to 20)
#    0.000    2.846    0.769    2.077    0.000    4.308 
#    0.000    7.692    0.000    8.308    0.000    8.615 
#    0.000    0.000    0.000    0.000    0.000    0.000 
#
# Total GULP energy -644346.687791 kJ/mol
# GULP energy per Si atom -12391.282458 kJ/mol
# Density = 1.885997 g / cm^3
# Si number density = 18.902998 Si / 1000 Ang^3
#
#
#
# Elastic Constant Matrix: (Units=GPa)
#
#
# Indices 1 2 3 4 5 6 
#
# 1 46.8908 35.5445 22.2161 0.0000 0.0000 0.0000
# 2 35.5445 103.9696 19.5422 0.0000 0.0000 0.0000
# 3 22.2161 19.5422 80.1055 0.0000 0.0000 0.0000
# 4 0.0000 0.0000 0.0000 14.7741 0.0000 0.0000
# 5 0.0000 0.0000 0.0000 0.0000 22.6866 0.0000
# 6 0.0000 0.0000 0.0000 0.0000 0.0000 20.4886
#
#
#
# Elastic Compliance Matrix: (Units=1/GPa)
#
#
# Indices 1 2 3 4 5 6 
#
# 1 0.031664 -0.009615 -0.006436 0.000000 0.000000 0.000000
# 2 -0.009615 0.013000 -0.000505 0.000000 0.000000 0.000000
# 3 -0.006436 -0.000505 0.014392 0.000000 0.000000 0.000000
# 4 0.000000 0.000000 0.000000 0.067686 0.000000 0.000000
# 5 0.000000 0.000000 0.000000 0.000000 0.044079 0.000000
# 6 0.000000 0.000000 0.000000 0.000000 0.000000 0.048808
#
#
# Mechanical properties :
#
#
# Convention : Reuss Voigt Hill
#
# Bulk Modulus (GPa) = 38.54482 42.84131 40.69307
# Shear Modulus (GPa) = 19.12860 21.83406 20.48133
#
# Velocity S-wave (km/s) = 3.18454 3.40230 3.29522
# Velocity P-wave (km/s) = 5.82725 6.17634 6.00433
#
# Compressibility (1/GPa) = 0.02594382
#
# Stress axis : x y z
#
# Youngs Moduli (GPa) = 31.58150 76.92094 69.48511
#
# Poissons Ratio (x) = 0.73963 0.44720
# Poissons Ratio (y) = 0.30367 0.03508
# Poissons Ratio (z) = 0.20325 0.03883
#
# Static dielectric constant tensor:
#      x y z
#    x 3.147690 0.000000 0.000000 
#    y 0.000000 3.602340 0.000000 
#    z 0.000000 0.000000 3.707660 
# 
# 
# High freq. dielectric constant tensor:
#      x y z
#    x 1.695470 0.000000 0.000000 
#    y 0.000000 1.732680 0.000000 
#    z 0.000000 0.000000 1.739610 
# 
# From -- ./inp_files/21435.got.cif
#   From: 2010.03.12/outbox.cif.g09.slc.cpg/sg47_11_cif.got.tgz:21435.got - 2010.04.14 03:12:58.
