data_PCOD8198114
_publ_section_title
;
Structure prediction by ZEFSAII (Michael W. Deem and Ramdas Pophale) SiO2 
 PCOD8198114
Probable space group: P M M M
;
_chemical_formula_sum "Si O2"
_cell_formula_units_Z 52
_cell_length_a 19.263581
_cell_length_b 15.643508
_cell_length_c 9.116709
_cell_angle_alpha 90.000000
_cell_angle_beta 90.000000
_cell_angle_gamma 90.000000
_cell_volume 2747.320107
_symmetry_space_group_name_H-M "P M M M"
_symmetry_group_IT_number 47
_symmetry_cell_setting 'orthorhombic'
loop_
_space_group_symop_operation_xyz
x,y,z
-x,-y,z
x,-y,-z
-x,y,-z
-x,-y,-z
x,y,-z
-x,y,z
x,-y,z
loop_
_atom_site_type_symbol
_atom_site_label
_atom_site_fract_x
_atom_site_fract_y
_atom_site_fract_z
Si Si1 0.792893 0.095445 0.668659
Si Si2 0.421934 0.332947 0.169791
Si Si3 0.921646 0.156484 0.172169
Si Si4 0.417558 0.500000 0.336431
Si Si5 0.287638 0.241633 0.830524
Si Si6 0.800305 0.405864 0.831252
Si Si7 0.921646 0.334145 0.330837
O O1 0.805270 0.119866 0.500000
O O2 0.866953 0.094258 0.750870
O O3 0.738932 0.162531 0.736023
O O4 0.761486 0.000000 0.684074
O O5 0.500000 0.306800 0.219524
O O6 0.392211 0.414810 0.255204
O O7 0.370138 0.253428 0.198828
O O8 0.420691 0.358931 0.000000
O O9 0.908754 0.250014 0.235501
O O10 0.000000 0.124549 0.205251
O O11 0.906715 0.158780 0.000000
O O12 0.500000 0.500000 0.337485
O O13 0.386555 0.500000 0.500000
O O14 0.251611 0.330604 0.782709
O O15 0.272355 0.220991 0.000000
O O16 0.765898 0.500000 0.807483
O O17 0.869225 0.404572 0.731036
O O18 0.822162 0.393865 0.000000
O O19 0.905605 0.313336 0.500000
O O20 0.000000 0.368280 0.311711
#
# Coordination Sequence:
#
# PCOD8198114 Si02
#       7
#     8   8   8   4   8   8   8
#     4  11  24  40  59  84 113 144 180 226 280 335
#     4   9  18  33  55  82 112 148 188 229 275 326
#     4  10  20  35  57  83 110 142 181 225 275 331
#     4   9  17  29  47  77 115 151 188 225 264 317
#     4  10  21  37  59  83 110 146 185 227 274 328
#     4  10  21  35  52  77 109 146 188 230 273 324
#     4  10  20  34  53  76 105 143 187 234 279 322
#
# _framework density 18.927536
#
# number of rings (size 3 to 8) (size 9 to 14) (size 15 to 20)
#    0.000    2.077    1.538    1.615    1.077    5.538 
#    0.000    3.077    0.000    0.462    0.000    3.231 
#    0.000    0.000    0.000    0.000    0.000    0.000 
#
# Total GULP energy -644722.660964 kJ/mol
# GULP energy per Si atom -12398.512711 kJ/mol
# Density = 1.888446 g / cm^3
# Si number density = 18.927536 Si / 1000 Ang^3
#
#
#
# Elastic Constant Matrix: (Units=GPa)
#
#
# Indices 1 2 3 4 5 6 
#
# 1 98.2621 53.1494 47.4259 0.0000 0.0000 0.0000
# 2 53.1494 108.1941 52.3271 0.0000 0.0000 0.0000
# 3 47.4259 52.3271 99.1077 0.0000 0.0000 0.0000
# 4 0.0000 0.0000 0.0000 26.5575 0.0000 0.0000
# 5 0.0000 0.0000 0.0000 0.0000 19.0434 0.0000
# 6 0.0000 0.0000 0.0000 0.0000 0.0000 18.5340
#
#
#
# Elastic Compliance Matrix: (Units=1/GPa)
#
#
# Indices 1 2 3 4 5 6 
#
# 1 0.015207 -0.005306 -0.004476 0.000000 0.000000 0.000000
# 2 -0.005306 0.014263 -0.004992 0.000000 0.000000 0.000000
# 3 -0.004476 -0.004992 0.014867 0.000000 0.000000 0.000000
# 4 0.000000 0.000000 0.000000 0.037654 0.000000 0.000000
# 5 0.000000 0.000000 0.000000 0.000000 0.052512 0.000000
# 6 0.000000 0.000000 0.000000 0.000000 0.000000 0.053955
#
#
# Mechanical properties :
#
#
# Convention : Reuss Voigt Hill
#
# Bulk Modulus (GPa) = 67.60765 67.92985 67.76875
# Shear Modulus (GPa) = 22.42809 23.00440 22.71625
#
# Velocity S-wave (km/s) = 3.44604 3.49003 3.46810
# Velocity P-wave (km/s) = 7.18542 7.22549 7.20549
#
# Compressibility (1/GPa) = 0.01479123
#
# Stress axis : x y z
#
# Youngs Moduli (GPa) = 65.76012 70.11029 67.26144
#
# Poissons Ratio (x) = 0.37198 0.30104
# Poissons Ratio (y) = 0.34890 0.33576
# Poissons Ratio (z) = 0.29432 0.34998
#
# Static dielectric constant tensor:
#      x y z
#    x 3.549120 0.000000 0.000000 
#    y 0.000000 3.243440 0.000000 
#    z 0.000000 0.000000 3.529410 
# 
# 
# High freq. dielectric constant tensor:
#      x y z
#    x 1.728620 0.000000 0.000000 
#    y 0.000000 1.714230 0.000000 
#    z 0.000000 0.000000 1.739710 
# 
# From -- ./inp_files/10965.got.cif
#   From: 2010.03.12/outbox.cif.g09.slc.cpg/sg47_6_cif.got.tgz:10965.got - 2010.04.14 03:12:58.
