data_PCOD8198100
_publ_section_title
;
Structure prediction by ZEFSAII (Michael W. Deem and Ramdas Pophale) SiO2 
 PCOD8198100
Probable space group: P M M M
;
_chemical_formula_sum "Si O2"
_cell_formula_units_Z 52
_cell_length_a 20.843232
_cell_length_b 16.181335
_cell_length_c 8.857845
_cell_angle_alpha 90.000000
_cell_angle_beta 90.000000
_cell_angle_gamma 90.000000
_cell_volume 2987.497071
_symmetry_space_group_name_H-M "P M M M"
_symmetry_group_IT_number 47
_symmetry_cell_setting 'orthorhombic'
loop_
_space_group_symop_operation_xyz
x,y,z
-x,-y,z
x,-y,-z
-x,y,-z
-x,-y,-z
x,y,-z
-x,y,z
x,-y,z
loop_
_atom_site_type_symbol
_atom_site_label
_atom_site_fract_x
_atom_site_fract_y
_atom_site_fract_z
Si Si1 0.500000 0.906427 0.821633
Si Si2 0.926991 0.328574 0.676082
Si Si3 0.704946 0.000000 0.678102
Si Si4 0.734524 0.737138 0.324268
Si Si5 0.809241 0.404930 0.826015
Si Si6 0.636130 0.154272 0.821289
Si Si7 0.861082 0.161640 0.673797
Si Si8 0.840413 0.000000 0.823666
O O1 0.437955 0.854101 0.769278
O O2 0.500000 0.000000 0.752368
O O3 0.500000 0.916084 0.000000
O O4 0.913795 0.344481 0.500000
O O5 0.881569 0.389665 0.768878
O O6 0.911446 0.233368 0.714814
O O7 0.000000 0.347878 0.720979
O O8 0.673743 0.920573 0.749637
O O9 0.779323 0.000000 0.715579
O O10 0.694861 0.000000 0.500000
O O11 0.720073 0.729256 0.500000
O O12 0.757563 0.648486 0.265177
O O13 0.668333 0.761786 0.240724
O O14 0.789167 0.805679 0.292268
O O15 0.791284 0.500000 0.800824
O O16 0.805701 0.379241 0.000000
O O17 0.642893 0.151253 0.000000
O O18 0.867595 0.134889 0.500000
O O19 0.878696 0.083575 0.780092
O O20 0.823272 0.000000 0.000000
#
# Coordination Sequence:
#
# PCOD8198100 Si02
#       8
#     4   8   4   8   8   8   8   4
#     4   9  18  32  48  72 105 142 183 220 254 295
#     4   9  19  36  56  76 100 133 170 206 252 310
#     4  12  22  31  45  69 102 136 175 219 262 303
#     4  10  20  34  53  76 103 133 169 212 258 309
#     4  10  21  36  55  81 109 134 164 204 252 308
#     4  11  20  33  52  73 102 141 181 217 255 301
#     4   9  18  32  49  69  97 127 164 213 258 300
#     4  12  22  30  46  70  94 129 174 218 264 307
#
# _framework density 17.405875000000002
#
# number of rings (size 3 to 8) (size 9 to 14) (size 15 to 20)
#    0.000    1.923    2.308    3.692    0.000    4.308 
#    0.000    3.846    0.000    2.308    0.000    0.538 
#    0.000    4.308    0.000    0.000    0.000    0.000 
#
# Total GULP energy -644804.970097 kJ/mol
# GULP energy per Si atom -12400.095579 kJ/mol
# Density = 1.736626 g / cm^3
# Si number density = 17.405875 Si / 1000 Ang^3
#
#
#
# Elastic Constant Matrix: (Units=GPa)
#
#
# Indices 1 2 3 4 5 6 
#
# 1 83.3068 31.0826 29.9754 0.0000 0.0000 0.0000
# 2 31.0826 79.9530 42.0003 0.0000 0.0000 0.0000
# 3 29.9754 42.0003 85.5702 0.0000 0.0000 0.0000
# 4 0.0000 0.0000 0.0000 29.3539 0.0000 0.0000
# 5 0.0000 0.0000 0.0000 0.0000 21.3210 0.0000
# 6 0.0000 0.0000 0.0000 0.0000 0.0000 23.8991
#
#
#
# Elastic Compliance Matrix: (Units=1/GPa)
#
#
# Indices 1 2 3 4 5 6 
#
# 1 0.014643 -0.004040 -0.003147 0.000000 0.000000 0.000000
# 2 -0.004040 0.017967 -0.007404 0.000000 0.000000 0.000000
# 3 -0.003147 -0.007404 0.016423 0.000000 0.000000 0.000000
# 4 0.000000 0.000000 0.000000 0.034067 0.000000 0.000000
# 5 0.000000 0.000000 0.000000 0.000000 0.046902 0.000000
# 6 0.000000 0.000000 0.000000 0.000000 0.000000 0.041843
#
#
# Mechanical properties :
#
#
# Convention : Reuss Voigt Hill
#
# Bulk Modulus (GPa) = 50.37100 50.54964 50.46032
# Shear Modulus (GPa) = 24.07986 24.63291 24.35639
#
# Velocity S-wave (km/s) = 3.72349 3.76600 3.74481
# Velocity P-wave (km/s) = 6.89113 6.92930 6.91024
#
# Compressibility (1/GPa) = 0.01985269
#
# Stress axis : x y z
#
# Youngs Moduli (GPa) = 68.29036 55.65748 60.89196
#
# Poissons Ratio (x) = 0.22484 0.19161
# Poissons Ratio (y) = 0.27587 0.45082
# Poissons Ratio (z) = 0.21490 0.41207
#
# Static dielectric constant tensor:
#      x y z
#    x 3.317940 0.000000 0.000000 
#    y 0.000000 4.768800 0.000000 
#    z 0.000000 0.000000 3.222150 
# 
# 
# High freq. dielectric constant tensor:
#      x y z
#    x 1.652760 0.000000 0.000000 
#    y 0.000000 1.661090 0.000000 
#    z 0.000000 0.000000 1.675630 
# 
# From -- ./inp_files/11126.got.cif
#   From: 2010.03.12/outbox.cif.g09.slc.cpg/sg47_6_cif.got.tgz:11126.got - 2010.04.14 03:12:58.
