data_PCOD8198512
_publ_section_title
;
Structure prediction by ZEFSAII (Michael W. Deem and Ramdas Pophale) SiO2 
 PCOD8198512
Probable space group: P M M M
;
_chemical_formula_sum "Si O2"
_cell_formula_units_Z 64
_cell_length_a 9.329854
_cell_length_b 15.349611
_cell_length_c 23.716618
_cell_angle_alpha 90.000000
_cell_angle_beta 90.000000
_cell_angle_gamma 90.000000
_cell_volume 3396.448079
_symmetry_space_group_name_H-M "P M M M"
_symmetry_group_IT_number 47
_symmetry_cell_setting 'orthorhombic'
loop_
_space_group_symop_operation_xyz
x,y,z
-x,-y,z
x,-y,-z
-x,y,-z
-x,-y,-z
x,y,-z
-x,y,z
x,-y,z
loop_
_atom_site_type_symbol
_atom_site_label
_atom_site_fract_x
_atom_site_fract_y
_atom_site_fract_z
Si Si1 0.166521 0.853181 0.436918
Si Si2 0.668014 0.745299 0.257266
Si Si3 0.833786 0.597761 0.320337
Si Si4 0.668619 0.750505 0.873172
Si Si5 0.335606 0.904331 0.667590
Si Si6 0.836080 0.099480 0.934011
Si Si7 0.834328 0.600005 0.065443
Si Si8 0.169451 0.345982 0.560584
O O1 0.198609 0.888189 0.500000
O O2 0.253436 0.907900 0.391556
O O3 0.216394 0.753551 0.431638
O O4 0.000000 0.863160 0.422770
O O5 0.500000 0.731898 0.266223
O O6 0.746390 0.660061 0.279756
O O7 0.707038 0.756784 0.192308
O O8 0.725232 0.831072 0.289973
O O9 0.812998 0.500000 0.297806
O O10 0.774326 0.601633 0.384926
O O11 0.000000 0.625992 0.318919
O O12 0.500000 0.747448 0.884369
O O13 0.730546 0.836819 0.901537
O O14 0.736142 0.662473 0.897588
O O15 0.500000 0.883877 0.654109
O O16 0.318146 0.000000 0.695918
O O17 0.000000 0.120715 0.917541
O O18 0.798412 0.000000 0.917743
O O19 0.813511 0.114504 0.000000
O O20 0.796910 0.500000 0.080361
O O21 0.000000 0.619390 0.079147
O O22 0.803293 0.618488 0.000000
O O23 0.231162 0.381157 0.500000
O O24 0.000000 0.353366 0.557265
#
# Coordination Sequence:
#
# PCOD8198512 Si02
#       8
#     8   8   8   8   8   8   8   8
#     4   9  17  31  53  79 106 135 166 208 267 328
#     4  10  23  41  55  72 105 147 184 222 270 317
#     4  10  20  34  56  83 106 134 177 225 268 315
#     4  11  23  36  55  83 112 146 188 230 273 320
#     4  10  21  37  56  75  98 135 182 225 265 313
#     4   9  19  37  60  86 117 150 181 216 264 323
#     4   9  19  37  60  85 114 148 183 220 268 325
#     4   8  14  27  49  77 107 134 161 204 265 325
#
# _framework density 18.843214
#
# number of rings (size 3 to 8) (size 9 to 14) (size 15 to 20)
#    0.000    2.500    1.250    2.250    0.000    5.750 
#    0.000    7.500    0.000    0.375    0.000    0.875 
#    0.000    0.000    0.000    0.000    0.000    0.000 
#
# Total GULP energy -793415.746331 kJ/mol
# GULP energy per Si atom -12397.121036 kJ/mol
# Density = 1.880033 g / cm^3
# Si number density = 18.843214 Si / 1000 Ang^3
#
#
#
# Elastic Constant Matrix: (Units=GPa)
#
#
# Indices 1 2 3 4 5 6 
#
# 1 62.8001 53.2090 59.5278 0.0000 0.0000 0.0000
# 2 53.2090 121.4118 70.8268 0.0000 0.0000 0.0000
# 3 59.5278 70.8268 114.3532 0.0000 0.0000 0.0000
# 4 0.0000 0.0000 0.0000 7.3206 0.0000 0.0000
# 5 0.0000 0.0000 0.0000 0.0000 29.0643 0.0000
# 6 0.0000 0.0000 0.0000 0.0000 0.0000 27.7032
#
#
#
# Elastic Compliance Matrix: (Units=1/GPa)
#
#
# Indices 1 2 3 4 5 6 
#
# 1 0.035249 -0.007427 -0.013749 0.000000 0.000000 0.000000
# 2 -0.007427 0.014461 -0.005090 0.000000 0.000000 0.000000
# 3 -0.013749 -0.005090 0.019055 0.000000 0.000000 0.000000
# 4 0.000000 0.000000 0.000000 0.136600 0.000000 0.000000
# 5 0.000000 0.000000 0.000000 0.000000 0.034406 0.000000
# 6 0.000000 0.000000 0.000000 0.000000 0.000000 0.036097
#
#
# Mechanical properties :
#
#
# Convention : Reuss Voigt Hill
#
# Bulk Modulus (GPa) = 61.60834 73.96580 67.78707
# Shear Modulus (GPa) = 14.97847 20.48440 17.73144
#
# Velocity S-wave (km/s) = 2.82246 3.30069 3.07090
# Velocity P-wave (km/s) = 6.58695 7.33925 6.97325
#
# Compressibility (1/GPa) = 0.01623157
#
# Stress axis : x y z
#
# Youngs Moduli (GPa) = 28.36939 69.15169 52.48019
#
# Poissons Ratio (x) = 0.51362 0.72155
# Poissons Ratio (y) = 0.21071 0.26714
# Poissons Ratio (z) = 0.39005 0.35200
#
# Static dielectric constant tensor:
#      x y z
#    x 3.219530 0.000000 0.000000 
#    y 0.000000 3.496610 0.000000 
#    z 0.000000 0.000000 3.405420 
# 
# 
# High freq. dielectric constant tensor:
#      x y z
#    x 1.708630 0.000000 0.000000 
#    y 0.000000 1.739910 0.000000 
#    z 0.000000 0.000000 1.731840 
# 
# From -- ./inp_files/7823.got.cif
#   From: 2010.03.12/outbox.cif.g09.slc.cpg/sg47_4_cif.got.tgz:7823.got - 2010.04.14 03:12:58.
