data_PCOD8198415
_publ_section_title
;
Structure prediction by ZEFSAII (Michael W. Deem and Ramdas Pophale) SiO2 
 PCOD8198415
Probable space group: P M M M
;
_chemical_formula_sum "Si O2"
_cell_formula_units_Z 52
_cell_length_a 9.040791
_cell_length_b 14.391962
_cell_length_c 20.406353
_cell_angle_alpha 90.000000
_cell_angle_beta 90.000000
_cell_angle_gamma 90.000000
_cell_volume 2655.166917
_symmetry_space_group_name_H-M "P M M M"
_symmetry_group_IT_number 47
_symmetry_cell_setting 'orthorhombic'
loop_
_space_group_symop_operation_xyz
x,y,z
-x,-y,z
x,-y,-z
-x,y,-z
-x,-y,-z
x,y,-z
-x,y,z
x,-y,z
loop_
_atom_site_type_symbol
_atom_site_label
_atom_site_fract_x
_atom_site_fract_y
_atom_site_fract_z
Si Si1 0.665518 0.609813 0.500000
Si Si2 0.823612 0.797764 0.925780
Si Si3 0.328856 0.894528 0.812037
Si Si4 0.834885 0.598064 0.922256
Si Si5 0.324996 0.103791 0.572621
Si Si6 0.675591 0.229418 0.690417
Si Si7 0.174107 0.392789 0.368024
O O1 0.654256 0.500000 0.500000
O O2 0.500000 0.654023 0.500000
O O3 0.752353 0.642317 0.435616
O O4 0.760214 0.876275 0.878606
O O5 0.760205 0.696054 0.901109
O O6 0.000000 0.796833 0.922405
O O7 0.771543 0.819504 0.000000
O O8 0.500000 0.878406 0.827294
O O9 0.274523 0.825644 0.755100
O O10 0.298906 0.000000 0.789193
O O11 0.753917 0.500000 0.900600
O O12 0.000000 0.594594 0.893001
O O13 0.844790 0.601699 0.000000
O O14 0.281209 0.141062 0.500000
O O15 0.500000 0.098325 0.579796
O O16 0.262425 0.171984 0.628066
O O17 0.260002 0.000000 0.582894
O O18 0.500000 0.243725 0.687927
O O19 0.756368 0.329711 0.689792
O O20 0.212908 0.500000 0.352864
O O21 0.000000 0.377965 0.373167
#
# Coordination Sequence:
#
# PCOD8198415 Si02
#       7
#     4   8   8   8   8   8   8
#     4   9  17  31  53  79 106 141 186 229 267 312
#     4   9  18  33  55  83 110 137 178 230 275 320
#     4  10  22  39  56  76 106 143 180 220 273 338
#     4   7  10  20  42  72 103 131 159 197 248 303
#     4   8  14  26  47  76 104 127 162 217 270 311
#     4  10  20  34  55  79 104 138 182 225 266 322
#     4  10  21  36  53  77 112 149 183 224 275 326
#
# _framework density 19.584455999999999
#
# number of rings (size 3 to 8) (size 9 to 14) (size 15 to 20)
#    0.000    3.000    0.000    3.000    1.077    5.231 
#    0.000    2.308    0.000    4.615    0.000    3.231 
#    0.000    0.000    0.000    0.000    0.000    0.000 
#
# Total GULP energy -644307.384812 kJ/mol
# GULP energy per Si atom -12390.526631 kJ/mol
# Density = 1.953988 g / cm^3
# Si number density = 19.584456 Si / 1000 Ang^3
#
#
#
# Elastic Constant Matrix: (Units=GPa)
#
#
# Indices 1 2 3 4 5 6 
#
# 1 48.0569 38.7251 35.7742 0.0000 0.0000 0.0000
# 2 38.7251 105.3854 60.1459 0.0000 0.0000 0.0000
# 3 35.7742 60.1459 103.7155 0.0000 0.0000 0.0000
# 4 0.0000 0.0000 0.0000 33.1650 0.0000 0.0000
# 5 0.0000 0.0000 0.0000 0.0000 22.3093 0.0000
# 6 0.0000 0.0000 0.0000 0.0000 0.0000 22.4249
#
#
#
# Elastic Compliance Matrix: (Units=1/GPa)
#
#
# Indices 1 2 3 4 5 6 
#
# 1 0.032121 -0.008191 -0.006329 0.000000 0.000000 0.000000
# 2 -0.008191 0.016272 -0.006611 0.000000 0.000000 0.000000
# 3 -0.006329 -0.006611 0.015659 0.000000 0.000000 0.000000
# 4 0.000000 0.000000 0.000000 0.030152 0.000000 0.000000
# 5 0.000000 0.000000 0.000000 0.000000 0.044824 0.000000
# 6 0.000000 0.000000 0.000000 0.000000 0.000000 0.044593
#
#
# Mechanical properties :
#
#
# Convention : Reuss Voigt Hill
#
# Bulk Modulus (GPa) = 45.89490 58.49422 52.19456
# Shear Modulus (GPa) = 21.44578 23.74735 22.59657
#
# Velocity S-wave (km/s) = 3.31273 3.48596 3.40045
# Velocity P-wave (km/s) = 6.17393 6.79228 6.49048
#
# Compressibility (1/GPa) = 0.02178891
#
# Stress axis : x y z
#
# Youngs Moduli (GPa) = 31.13274 61.45586 63.86224
#
# Poissons Ratio (x) = 0.50337 0.40420
# Poissons Ratio (y) = 0.25500 0.42219
# Poissons Ratio (z) = 0.19705 0.40629
#
# Static dielectric constant tensor:
#      x y z
#    x 3.100180 0.000000 0.000000 
#    y 0.000000 3.987200 0.000000 
#    z 0.000000 0.000000 3.407110 
# 
# 
# High freq. dielectric constant tensor:
#      x y z
#    x 1.714000 0.000000 0.000000 
#    y 0.000000 1.781290 0.000000 
#    z 0.000000 0.000000 1.741300 
# 
# From -- ./inp_files/29581.got.cif
#   From: 2010.03.12/outbox.cif.g09.slc.cpg/sg47_15_cif.got.tgz:29581.got - 2010.04.14 03:12:58.
