data_PCOD8198925
_publ_section_title
;
Structure prediction by ZEFSAII (Michael W. Deem and Ramdas Pophale) SiO2 
 PCOD8198925
Probable space group: P M M M
;
_chemical_formula_sum "Si O2"
_cell_formula_units_Z 24
_cell_length_a 17.269446
_cell_length_b 7.932608
_cell_length_c 8.859009
_cell_angle_alpha 90.000000
_cell_angle_beta 90.000000
_cell_angle_gamma 90.000000
_cell_volume 1213.611106
_symmetry_space_group_name_H-M "P M M M"
_symmetry_group_IT_number 47
_symmetry_cell_setting 'orthorhombic'
loop_
_space_group_symop_operation_xyz
x,y,z
-x,-y,z
x,-y,-z
-x,y,-z
-x,-y,-z
x,y,-z
-x,y,z
x,-y,z
loop_
_atom_site_type_symbol
_atom_site_label
_atom_site_fract_x
_atom_site_fract_y
_atom_site_fract_z
Si Si1 0.090500 0.000000 0.824674
Si Si2 0.822991 0.310691 0.321797
Si Si3 0.661047 0.193348 0.325447
Si Si4 0.500000 0.302154 0.330131
O O1 0.123570 0.171676 0.754959
O O2 0.000000 0.000000 0.791944
O O3 0.110628 0.000000 0.000000
O O4 0.824562 0.275458 0.500000
O O5 0.852971 0.500000 0.284133
O O6 0.734440 0.295766 0.260274
O O7 0.651764 0.242011 0.500000
O O8 0.578686 0.239140 0.246096
O O9 0.681295 0.000000 0.299347
O O10 0.500000 0.500000 0.331704
O O11 0.500000 0.226434 0.500000
#
# Coordination Sequence:
#
# PCOD8198925 Si02
#       4
#     4   8   8   4
#     4  11  25  43  61  82 111 146 184 229 281 341
#     4  10  20  36  60  88 116 147 185 231 282 333
#     4   9  15  25  43  70 107 147 183 222 270 322
#     4   9  15  21  33  63 107 148 183 219 265 319
#
# _framework density 19.775690999999998
#
# number of rings (size 3 to 8) (size 9 to 14) (size 15 to 20)
#    0.000    2.333    1.667    2.000    0.000    8.667 
#    0.000    3.333    0.000    0.000    0.000    2.333 
#    0.000    4.000    0.000    0.000    0.000    0.000 
#
# Total GULP energy -297414.413585 kJ/mol
# GULP energy per Si atom -12392.267233 kJ/mol
# Density = 1.973068 g / cm^3
# Si number density = 19.775691 Si / 1000 Ang^3
#
#
#
# Elastic Constant Matrix: (Units=GPa)
#
#
# Indices 1 2 3 4 5 6 
#
# 1 128.7869 78.4024 48.6331 0.0000 0.0000 0.0000
# 2 78.4024 125.9331 39.3863 0.0000 0.0000 0.0000
# 3 48.6331 39.3863 39.8386 0.0000 0.0000 0.0000
# 4 0.0000 0.0000 0.0000 10.0930 0.0000 0.0000
# 5 0.0000 0.0000 0.0000 0.0000 -9.2344 0.0000
# 6 0.0000 0.0000 0.0000 0.0000 0.0000 24.1687
#
#
#
# Elastic Compliance Matrix: (Units=1/GPa)
#
#
# Indices 1 2 3 4 5 6 
#
# 1 0.016993 -0.005923 -0.014888 0.000000 0.000000 0.000000
# 2 -0.005923 0.013559 -0.006175 0.000000 0.000000 0.000000
# 3 -0.014888 -0.006175 0.049381 0.000000 0.000000 0.000000
# 4 0.000000 0.000000 0.000000 0.099078 0.000000 0.000000
# 5 0.000000 0.000000 0.000000 0.000000 -0.108290 0.000000
# 6 0.000000 0.000000 0.000000 0.000000 0.000000 0.041376
#
#
# Mechanical properties :
#
#
# Convention : Reuss Voigt Hill
#
# Bulk Modulus (GPa) = 38.51961 69.71137 54.11549
# Shear Modulus (GPa) = 28.61664 13.54791 21.08227
#
# Velocity S-wave (km/s) = 3.80815 2.62024 3.26862
# Velocity P-wave (km/s) = 6.23351 6.66947 6.45517
#
# Compressibility (1/GPa) = 0.02596080
#
# Stress axis : x y z
#
# Youngs Moduli (GPa) = 58.84940 73.74971 20.25053
#
# Poissons Ratio (x) = 0.43679 0.30150
# Poissons Ratio (y) = 0.34855 0.12505
# Poissons Ratio (z) = 0.87617 0.45543
#
# Static dielectric constant tensor:
#      x y z
#    x 3.948320 0.000000 0.000000 
#    y 0.000000 3.613690 0.000000 
#    z 0.000000 0.000000 2.987810 
# 
# 
# High freq. dielectric constant tensor:
#      x y z
#    x 1.790340 0.000000 0.000000 
#    y 0.000000 1.785700 0.000000 
#    z 0.000000 0.000000 1.689540 
# 
# From -- ./inp_files/519.got.cif
#   From: 2010.03.12/outbox.cif.g09.slc.cpg/sg47_1_cif.got.tgz:519.got - 2010.04.14 03:12:58.
