data_PCOD8198166
_publ_section_title
;
Structure prediction by ZEFSAII (Michael W. Deem and Ramdas Pophale) SiO2 
 PCOD8198166
Probable space group: P M M M
;
_chemical_formula_sum "Si O2"
_cell_formula_units_Z 48
_cell_length_a 32.654607
_cell_length_b 9.241266
_cell_length_c 8.164828
_cell_angle_alpha 90.000000
_cell_angle_beta 90.000000
_cell_angle_gamma 90.000000
_cell_volume 2463.899406
_symmetry_space_group_name_H-M "P M M M"
_symmetry_group_IT_number 47
_symmetry_cell_setting 'orthorhombic'
loop_
_space_group_symop_operation_xyz
x,y,z
-x,-y,z
x,-y,-z
-x,y,-z
-x,-y,-z
x,y,-z
-x,y,z
x,-y,z
loop_
_atom_site_type_symbol
_atom_site_label
_atom_site_fract_x
_atom_site_fract_y
_atom_site_fract_z
Si Si1 0.454241 0.171395 0.500000
Si Si2 0.159892 0.830622 0.187266
Si Si3 0.245379 0.837304 0.306960
Si Si4 0.000000 0.343158 0.188492
Si Si5 0.925007 0.162558 0.311263
Si Si6 0.402115 0.168843 0.813904
Si Si7 0.325122 0.669574 0.308666
O O1 0.500000 0.237076 0.500000
O O2 0.432608 0.224029 0.669314
O O3 0.456096 0.000000 0.500000
O O4 0.202878 0.763232 0.247564
O O5 0.120235 0.769087 0.282889
O O6 0.163265 0.000000 0.223484
O O7 0.152961 0.791937 0.000000
O O8 0.244513 0.844281 0.500000
O O9 0.282455 0.737013 0.246300
O O10 0.251052 0.000000 0.234678
O O11 0.040916 0.257470 0.227129
O O12 0.000000 0.500000 0.279454
O O13 0.000000 0.373681 0.000000
O O14 0.935555 0.158058 0.500000
O O15 0.926468 0.000000 0.236449
O O16 0.360503 0.257875 0.797866
O O17 0.392484 0.000000 0.787032
O O18 0.419736 0.194195 0.000000
O O19 0.332654 0.703503 0.500000
O O20 0.324322 0.500000 0.273270
#
# Coordination Sequence:
#
# PCOD8198166 Si02
#       7
#     4   8   8   4   8   8   8
#     4   9  18  34  57  85 117 147 179 229 285 332
#     4   9  17  30  50  76 104 134 171 217 266 314
#     4   9  17  30  50  75 104 139 179 224 271 320
#     4  11  24  39  54  76 106 137 170 209 258 314
#     4  10  20  35  57  82 105 132 171 215 258 309
#     4  10  20  34  56  84 112 146 187 228 276 334
#     4  10  20  34  53  77 108 147 188 230 276 324
#
# _framework density 19.481316
#
# number of rings (size 3 to 8) (size 9 to 14) (size 15 to 20)
#    0.000    2.333    0.833    2.000    0.000    6.667 
#    0.000    4.167    0.000    4.000    0.000    1.167 
#    0.000    0.000    0.000    0.000    0.000    0.000 
#
# Total GULP energy -595002.695466 kJ/mol
# GULP energy per Si atom -12395.889489 kJ/mol
# Density = 1.943698 g / cm^3
# Si number density = 19.481316 Si / 1000 Ang^3
#
#
#
# Elastic Constant Matrix: (Units=GPa)
#
#
# Indices 1 2 3 4 5 6 
#
# 1 162.0464 51.5051 55.6541 0.0000 0.0000 0.0000
# 2 51.5051 63.9882 27.9553 0.0000 0.0000 0.0000
# 3 55.6541 27.9553 83.0521 0.0000 0.0000 0.0000
# 4 0.0000 0.0000 0.0000 14.1096 0.0000 0.0000
# 5 0.0000 0.0000 0.0000 0.0000 19.9336 0.0000
# 6 0.0000 0.0000 0.0000 0.0000 0.0000 -3.9911
#
#
#
# Elastic Compliance Matrix: (Units=1/GPa)
#
#
# Indices 1 2 3 4 5 6 
#
# 1 0.009517 -0.005715 -0.004454 0.000000 0.000000 0.000000
# 2 -0.005715 0.021754 -0.003493 0.000000 0.000000 0.000000
# 3 -0.004454 -0.003493 0.016201 0.000000 0.000000 0.000000
# 4 0.000000 0.000000 0.000000 0.070874 0.000000 0.000000
# 5 0.000000 0.000000 0.000000 0.000000 0.050167 0.000000
# 6 0.000000 0.000000 0.000000 0.000000 0.000000 -0.250559
#
#
# Mechanical properties :
#
#
# Convention : Reuss Voigt Hill
#
# Bulk Modulus (GPa) = 49.63059 64.36840 56.99949
# Shear Modulus (GPa) = -104.15004 17.60856 -43.27074
#
# Velocity S-wave (km/s) = -7.31967 3.00970 -4.71801
# Velocity P-wave (km/s) = 6.77536 6.72239 0.59786
#
# Compressibility (1/GPa) = 0.02014887
#
# Stress axis : x y z
#
# Youngs Moduli (GPa) = 105.07387 45.96936 61.72468
#
# Poissons Ratio (x) = 0.26270 0.27492
# Poissons Ratio (y) = 0.60046 0.21559
# Poissons Ratio (z) = 0.46800 0.16056
#
# Static dielectric constant tensor:
#      x y z
#    x 3.639530 0.000000 0.000000 
#    y 0.000000 3.340260 0.000000 
#    z 0.000000 0.000000 3.543450 
# 
# 
# High freq. dielectric constant tensor:
#      x y z
#    x 1.768220 0.000000 0.000000 
#    y 0.000000 1.718230 0.000000 
#    z 0.000000 0.000000 1.759380 
# 
# From -- ./inp_files/13869.got.cif
#   From: 2010.03.12/outbox.cif.g09.slc.cpg/sg47_7_cif.got.tgz:13869.got - 2010.04.14 03:12:58.
