data_PCOD8198634
_publ_section_title
;
Structure prediction by ZEFSAII (Michael W. Deem and Ramdas Pophale) SiO2 
 PCOD8198634
Probable space group: P M M M
;
_chemical_formula_sum "Si O2"
_cell_formula_units_Z 56
_cell_length_a 8.922030
_cell_length_b 22.863085
_cell_length_c 15.543847
_cell_angle_alpha 90.000000
_cell_angle_beta 90.000000
_cell_angle_gamma 90.000000
_cell_volume 3170.713655
_symmetry_space_group_name_H-M "P M M M"
_symmetry_group_IT_number 47
_symmetry_cell_setting 'orthorhombic'
loop_
_space_group_symop_operation_xyz
x,y,z
-x,-y,z
x,-y,-z
-x,y,-z
-x,-y,-z
x,y,-z
-x,y,z
x,-y,z
loop_
_atom_site_type_symbol
_atom_site_label
_atom_site_fract_x
_atom_site_fract_y
_atom_site_fract_z
Si Si1 0.176179 0.223779 0.595892
Si Si2 0.832085 0.332346 0.186637
Si Si3 0.321950 0.211642 0.226863
Si Si4 0.834726 0.355689 0.622112
Si Si5 0.333528 0.564270 0.101127
Si Si6 0.823613 0.118874 0.100739
Si Si7 0.674657 0.436323 0.500000
Si Si8 0.331723 0.000000 0.898361
O O1 0.217489 0.198031 0.500000
O O2 0.263371 0.194719 0.676590
O O3 0.221640 0.291547 0.595567
O O4 0.000000 0.216080 0.614316
O O5 0.728518 0.275337 0.194010
O O6 0.836755 0.365060 0.276930
O O7 0.772155 0.381125 0.122124
O O8 0.000000 0.312842 0.158638
O O9 0.500000 0.208451 0.227861
O O10 0.257940 0.167185 0.157263
O O11 0.721573 0.402707 0.585445
O O12 0.000000 0.365572 0.583024
O O13 0.500000 0.575328 0.139691
O O14 0.274583 0.500000 0.133895
O O15 0.343827 0.561712 0.000000
O O16 0.759133 0.056777 0.132347
O O17 0.000000 0.120053 0.118514
O O18 0.788684 0.130267 0.000000
O O19 0.751092 0.500000 0.500000
O O20 0.500000 0.442968 0.500000
O O21 0.500000 0.000000 0.858788
O O22 0.342348 0.000000 0.000000
#
# Coordination Sequence:
#
# PCOD8198634 Si02
#       8
#     8   8   8   8   8   8   4   4
#     4   9  17  33  55  75  99 131 168 212 262 313
#     4  10  21  36  53  73  98 128 165 207 255 310
#     4  11  22  34  51  79 111 141 177 220 270 321
#     4   9  18  34  51  67  88 119 155 191 239 296
#     4   9  19  36  55  73  94 122 158 203 256 311
#     4  10  20  35  55  79 111 151 191 227 263 309
#     4  11  23  33  43  65  93 119 151 192 239 294
#     4   9  17  31  53  81 112 147 186 225 267 313
#
# _framework density 17.661638
#
# number of rings (size 3 to 8) (size 9 to 14) (size 15 to 20)
#    0.000    2.286    0.714    3.857    0.000    7.143 
#    0.000    3.571    0.000    0.000    0.000    0.500 
#    0.000    4.000    0.000    0.000    0.000    0.000 
#
# Total GULP energy -694025.020130 kJ/mol
# GULP energy per Si atom -12393.303931 kJ/mol
# Density = 1.762144 g / cm^3
# Si number density = 17.661638 Si / 1000 Ang^3
#
#
#
# Elastic Constant Matrix: (Units=GPa)
#
#
# Indices 1 2 3 4 5 6 
#
# 1 116.9298 53.6310 47.7714 0.0000 0.0000 0.0000
# 2 53.6310 95.7916 49.6346 0.0000 0.0000 0.0000
# 3 47.7714 49.6346 78.3942 0.0000 0.0000 0.0000
# 4 0.0000 0.0000 0.0000 -19.0113 0.0000 0.0000
# 5 0.0000 0.0000 0.0000 0.0000 13.5556 0.0000
# 6 0.0000 0.0000 0.0000 0.0000 0.0000 26.1201
#
#
#
# Elastic Compliance Matrix: (Units=1/GPa)
#
#
# Indices 1 2 3 4 5 6 
#
# 1 0.012607 -0.004580 -0.004782 0.000000 0.000000 0.000000
# 2 -0.004580 0.017200 -0.008099 0.000000 0.000000 0.000000
# 3 -0.004782 -0.008099 0.020798 0.000000 0.000000 0.000000
# 4 0.000000 0.000000 0.000000 -0.052600 0.000000 0.000000
# 5 0.000000 0.000000 0.000000 0.000000 0.073770 0.000000
# 6 0.000000 0.000000 0.000000 0.000000 0.000000 0.038285
#
#
# Mechanical properties :
#
#
# Convention : Reuss Voigt Hill
#
# Bulk Modulus (GPa) = 63.76795 65.90996 64.83896
# Shear Modulus (GPa) = 33.28665 13.47144 23.37905
#
# Velocity S-wave (km/s) = 4.34601 2.76479 3.64224
# Velocity P-wave (km/s) = 7.83374 6.89864 7.38101
#
# Compressibility (1/GPa) = 0.01568186
#
# Stress axis : x y z
#
# Youngs Moduli (GPa) = 79.32312 58.13887 48.08123
#
# Poissons Ratio (x) = 0.26629 0.22994
# Poissons Ratio (y) = 0.36331 0.38942
# Poissons Ratio (z) = 0.37935 0.47087
#
# Static dielectric constant tensor:
#      x y z
#    x 3.419460 0.000000 0.000000 
#    y 0.000000 3.181350 0.000000 
#    z 0.000000 0.000000 3.391740 
# 
# 
# High freq. dielectric constant tensor:
#      x y z
#    x 1.688510 0.000000 0.000000 
#    y 0.000000 1.662120 0.000000 
#    z 0.000000 0.000000 1.676550 
# 
# From -- ./inp_files/21680.got.cif
#   From: 2010.03.12/outbox.cif.g09.slc.cpg/sg47_11_cif.got.tgz:21680.got - 2010.04.14 03:12:58.
