data_PCOD8198524
_publ_section_title
;
Structure prediction by ZEFSAII (Michael W. Deem and Ramdas Pophale) SiO2 
 PCOD8198524
Probable space group: P M M M
;
_chemical_formula_sum "Si O2"
_cell_formula_units_Z 64
_cell_length_a 8.920323
_cell_length_b 15.559516
_cell_length_c 23.965985
_cell_angle_alpha 90.000000
_cell_angle_beta 90.000000
_cell_angle_gamma 90.000000
_cell_volume 3326.380660
_symmetry_space_group_name_H-M "P M M M"
_symmetry_group_IT_number 47
_symmetry_cell_setting 'orthorhombic'
loop_
_space_group_symop_operation_xyz
x,y,z
-x,-y,z
x,-y,-z
-x,y,-z
-x,-y,-z
x,y,-z
-x,y,z
x,-y,z
loop_
_atom_site_type_symbol
_atom_site_label
_atom_site_fract_x
_atom_site_fract_y
_atom_site_fract_z
Si Si1 0.677312 0.247710 0.737019
Si Si2 0.172883 0.403976 0.323971
Si Si3 0.325350 0.849407 0.437048
Si Si4 0.321721 0.595422 0.062612
Si Si5 0.321084 0.750205 0.136751
Si Si6 0.172168 0.903860 0.330407
Si Si7 0.321719 0.095290 0.937443
Si Si8 0.170076 0.327433 0.561459
O O1 0.500000 0.242770 0.735280
O O2 0.726898 0.335448 0.707965
O O3 0.738681 0.248591 0.800180
O O4 0.738258 0.163362 0.706865
O O5 0.220844 0.500000 0.305757
O O6 0.198599 0.397689 0.390750
O O7 0.000000 0.386492 0.309038
O O8 0.285921 0.879251 0.500000
O O9 0.500000 0.860853 0.424523
O O10 0.233132 0.906463 0.393620
O O11 0.283771 0.750177 0.428116
O O12 0.500000 0.598177 0.063270
O O13 0.266201 0.500000 0.080330
O O14 0.256815 0.665407 0.105791
O O15 0.265195 0.617020 0.000000
O O16 0.500000 0.749828 0.135324
O O17 0.256577 0.834389 0.105316
O O18 0.000000 0.874998 0.331206
O O19 0.190853 0.000000 0.305567
O O20 0.500000 0.098311 0.936849
O O21 0.266583 0.000000 0.919352
O O22 0.264699 0.116357 0.000000
O O23 0.197873 0.368614 0.500000
O O24 0.000000 0.291610 0.565518
#
# Coordination Sequence:
#
# PCOD8198524 Si02
#       8
#     8   8   8   8   8   8   8   8
#     4  11  23  37  54  78 109 145 183 227 277 322
#     4  10  21  37  57  79 106 143 184 225 269 321
#     4  10  20  34  56  86 116 141 167 210 272 334
#     4   8  13  22  38  61  92 132 173 209 249 305
#     4   9  17  27  41  64  96 134 173 211 256 313
#     4  11  24  41  60  79 103 141 187 230 271 321
#     4   8  13  22  38  61  91 128 166 203 249 310
#     4   9  17  31  54  81 108 139 174 215 265 321
#
# _framework density 19.240130000000001
#
# number of rings (size 3 to 8) (size 9 to 14) (size 15 to 20)
#    0.000    2.500    1.250    2.250    0.000    5.000 
#    0.000    5.000    0.000    0.000    0.000    2.625 
#    0.000    8.000    0.000   22.000    0.000   18.000 
#
# Total GULP energy -793358.115954 kJ/mol
# GULP energy per Si atom -12396.220562 kJ/mol
# Density = 1.919634 g / cm^3
# Si number density = 19.240130 Si / 1000 Ang^3
#
#
#
# Elastic Constant Matrix: (Units=GPa)
#
#
# Indices 1 2 3 4 5 6 
#
# 1 49.3087 33.6069 33.3950 0.0000 0.0000 0.0000
# 2 33.6069 139.4781 82.7855 0.0000 0.0000 0.0000
# 3 33.3950 82.7855 143.5470 0.0000 0.0000 0.0000
# 4 0.0000 0.0000 0.0000 12.0509 0.0000 0.0000
# 5 0.0000 0.0000 0.0000 0.0000 5.6081 0.0000
# 6 0.0000 0.0000 0.0000 0.0000 0.0000 11.2751
#
#
#
# Elastic Compliance Matrix: (Units=1/GPa)
#
#
# Indices 1 2 3 4 5 6 
#
# 1 0.025448 -0.003980 -0.003625 0.000000 0.000000 0.000000
# 2 -0.003980 0.011524 -0.005720 0.000000 0.000000 0.000000
# 3 -0.003625 -0.005720 0.011108 0.000000 0.000000 0.000000
# 4 0.000000 0.000000 0.000000 0.082982 0.000000 0.000000
# 5 0.000000 0.000000 0.000000 0.000000 0.178314 0.000000
# 6 0.000000 0.000000 0.000000 0.000000 0.000000 0.088691
#
#
# Mechanical properties :
#
#
# Convention : Reuss Voigt Hill
#
# Bulk Modulus (GPa) = 46.66295 70.21206 58.43751
# Shear Modulus (GPa) = 11.57785 17.95658 14.76721
#
# Velocity S-wave (km/s) = 2.45573 3.05829 2.77342
# Velocity P-wave (km/s) = 5.68739 7.00304 6.37922
#
# Compressibility (1/GPa) = 0.02143028
#
# Stress axis : x y z
#
# Youngs Moduli (GPa) = 39.29565 86.77913 90.02235
#
# Poissons Ratio (x) = 0.34539 0.32632
# Poissons Ratio (y) = 0.15640 0.51491
# Poissons Ratio (z) = 0.14244 0.49636
#
# Static dielectric constant tensor:
#      x y z
#    x 3.112140 0.000000 0.000000 
#    y 0.000000 3.611640 0.000000 
#    z 0.000000 0.000000 3.744710 
# 
# 
# High freq. dielectric constant tensor:
#      x y z
#    x 1.705010 0.000000 0.000000 
#    y 0.000000 1.751310 0.000000 
#    z 0.000000 0.000000 1.750650 
# 
# From -- ./inp_files/32087.got.cif
#   From: 2010.03.12/outbox.cif.g09.slc.cpg/sg47_17_cif.got.tgz:32087.got - 2010.04.14 03:12:58.
