data_PCOD8198873
_publ_section_title
;
Structure prediction by ZEFSAII (Michael W. Deem and Ramdas Pophale) SiO2 
 PCOD8198873
Probable space group: P M M M
;
_chemical_formula_sum "Si O2"
_cell_formula_units_Z 56
_cell_length_a 15.111181
_cell_length_b 21.070835
_cell_length_c 9.157780
_cell_angle_alpha 90.000000
_cell_angle_beta 90.000000
_cell_angle_gamma 90.000000
_cell_volume 2915.884786
_symmetry_space_group_name_H-M "P M M M"
_symmetry_group_IT_number 47
_symmetry_cell_setting 'orthorhombic'
loop_
_space_group_symop_operation_xyz
x,y,z
-x,-y,z
x,-y,-z
-x,y,-z
-x,-y,-z
x,y,-z
-x,y,z
x,-y,z
loop_
_atom_site_type_symbol
_atom_site_label
_atom_site_fract_x
_atom_site_fract_y
_atom_site_fract_z
Si Si1 0.000000 0.426787 0.830576
Si Si2 0.401281 0.925008 0.336439
Si Si3 0.596044 0.312127 0.167662
Si Si4 0.341257 0.571442 0.666426
Si Si5 0.894773 0.000000 0.674089
Si Si6 0.227169 0.248490 0.831236
Si Si7 0.774893 0.103316 0.829510
Si Si8 0.155316 0.361850 0.665887
O O1 0.914407 0.397097 0.762293
O O2 0.000000 0.500000 0.793042
O O3 0.000000 0.412027 0.000000
O O4 0.381416 0.898777 0.500000
O O5 0.500000 0.902276 0.285771
O O6 0.325982 0.903059 0.224545
O O7 0.399483 0.000000 0.341535
O O8 0.500000 0.280549 0.197398
O O9 0.597293 0.379739 0.248072
O O10 0.670784 0.261844 0.217654
O O11 0.609874 0.329018 0.000000
O O12 0.373007 0.571161 0.500000
O O13 0.348537 0.500000 0.731266
O O14 0.241735 0.595676 0.679790
O O15 0.845963 0.938426 0.740661
O O16 0.881438 0.000000 0.500000
O O17 0.000000 0.000000 0.713717
O O18 0.198939 0.176215 0.804951
O O19 0.165705 0.291193 0.729556
O O20 0.213522 0.267221 0.000000
O O21 0.778235 0.084147 0.000000
O O22 0.122944 0.355461 0.500000
#
# Coordination Sequence:
#
# PCOD8198873 Si02
#       8
#     4   8   8   8   4   8   8   8
#     4  11  23  37  57  85 115 146 179 222 283 347
#     4   9  18  33  54  82 119 159 192 229 282 342
#     4   9  18  33  52  74 105 145 187 228 267 318
#     4   9  18  32  50  73 103 139 179 227 280 327
#     4  11  25  45  66  87 114 151 191 236 286 345
#     4   9  20  38  57  80 113 151 186 226 280 337
#     4  11  22  37  62  92 119 150 190 241 294 343
#     4  10  20  36  57  80 107 142 185 232 278 331
#
# _framework density 19.205148000000001
#
# number of rings (size 3 to 8) (size 9 to 14) (size 15 to 20)
#    0.000    2.286    0.714    2.143    0.000    5.143 
#    1.286    3.571    0.000    0.000    0.000    0.000 
#    0.000    0.000    0.000    0.000    0.000    0.000 
#
# Total GULP energy -694177.172892 kJ/mol
# GULP energy per Si atom -12396.020945 kJ/mol
# Density = 1.916144 g / cm^3
# Si number density = 19.205148 Si / 1000 Ang^3
#
#
#
# Elastic Constant Matrix: (Units=GPa)
#
#
# Indices 1 2 3 4 5 6 
#
# 1 105.0703 44.5463 58.5359 0.0000 0.0000 0.0000
# 2 44.5463 108.7490 50.9405 0.0000 0.0000 0.0000
# 3 58.5359 50.9405 111.7196 0.0000 0.0000 0.0000
# 4 0.0000 0.0000 0.0000 24.2587 0.0000 0.0000
# 5 0.0000 0.0000 0.0000 0.0000 28.9716 0.0000
# 6 0.0000 0.0000 0.0000 0.0000 0.0000 149.4795
#
#
#
# Elastic Compliance Matrix: (Units=1/GPa)
#
#
# Indices 1 2 3 4 5 6 
#
# 1 0.014150 -0.002954 -0.006067 0.000000 0.000000 0.000000
# 2 -0.002954 0.012310 -0.004065 0.000000 0.000000 0.000000
# 3 -0.006067 -0.004065 0.013983 0.000000 0.000000 0.000000
# 4 0.000000 0.000000 0.000000 0.041222 0.000000 0.000000
# 5 0.000000 0.000000 0.000000 0.000000 0.034517 0.000000
# 6 0.000000 0.000000 0.000000 0.000000 0.000000 0.006690
#
#
# Mechanical properties :
#
#
# Convention : Reuss Voigt Hill
#
# Bulk Modulus (GPa) = 70.07358 70.39827 70.23593
# Shear Modulus (GPa) = 32.50964 51.97637 42.24300
#
# Velocity S-wave (km/s) = 4.11878 5.20793 4.69504
# Velocity P-wave (km/s) = 7.69319 8.53808 8.12662
#
# Compressibility (1/GPa) = 0.01427071
#
# Stress axis : x y z
#
# Youngs Moduli (GPa) = 70.67216 81.23645 71.51447
#
# Poissons Ratio (x) = 0.24000 0.43386
# Poissons Ratio (y) = 0.20879 0.29070
# Poissons Ratio (z) = 0.42875 0.33022
#
# Static dielectric constant tensor:
#      x y z
#    x 3.527420 0.000000 0.000000 
#    y 0.000000 3.480720 0.000000 
#    z 0.000000 0.000000 3.669650 
# 
# 
# High freq. dielectric constant tensor:
#      x y z
#    x 1.745660 0.000000 0.000000 
#    y 0.000000 1.742960 0.000000 
#    z 0.000000 0.000000 1.749750 
# 
# From -- ./inp_files/7435.got.cif
#   From: 2010.03.12/outbox.cif.g09.slc.cpg/sg47_4_cif.got.tgz:7435.got - 2010.04.14 03:12:58.
