data_PCOD8198159
_publ_section_title
;
Structure prediction by ZEFSAII (Michael W. Deem and Ramdas Pophale) SiO2 
 PCOD8198159
Probable space group: P M M M
;
_chemical_formula_sum "Si O2"
_cell_formula_units_Z 44
_cell_length_a 8.891500
_cell_length_b 18.573931
_cell_length_c 13.466784
_cell_angle_alpha 90.000000
_cell_angle_beta 90.000000
_cell_angle_gamma 90.000000
_cell_volume 2224.040825
_symmetry_space_group_name_H-M "P M M M"
_symmetry_group_IT_number 47
_symmetry_cell_setting 'orthorhombic'
loop_
_space_group_symop_operation_xyz
x,y,z
-x,-y,z
x,-y,-z
-x,y,-z
-x,-y,-z
x,y,-z
-x,y,z
x,-y,z
loop_
_atom_site_type_symbol
_atom_site_label
_atom_site_fract_x
_atom_site_fract_y
_atom_site_fract_z
Si Si1 0.829766 0.304797 0.110564
Si Si2 0.328028 0.914968 0.000000
Si Si3 0.169495 0.674015 0.388882
Si Si4 0.325987 0.417681 0.230861
Si Si5 0.826329 0.848254 0.192665
Si Si6 0.676664 0.824819 0.388682
O O1 0.717020 0.369513 0.135782
O O2 0.804166 0.237785 0.183746
O O3 0.000000 0.333543 0.119406
O O4 0.794813 0.277212 0.000000
O O5 0.251996 0.887162 0.100691
O O6 0.500000 0.888764 0.000000
O O7 0.314523 0.000000 0.000000
O O8 0.170250 0.644030 0.500000
O O9 0.226838 0.608276 0.322999
O O10 0.278101 0.741923 0.378647
O O11 0.000000 0.696557 0.356615
O O12 0.500000 0.407762 0.256773
O O13 0.286856 0.500000 0.206374
O O14 0.756572 0.870503 0.300210
O O15 0.000000 0.870718 0.190518
O O16 0.722475 0.852886 0.500000
O O17 0.500000 0.832149 0.372950
#
# Coordination Sequence:
#
# PCOD8198159 Si02
#       6
#     8   4   8   8   8   8
#     4  10  21  38  58  81 108 142 189 239 291 352
#     4  11  25  43  65  97 134 169 202 237 287 348
#     4  10  20  34  53  77 106 142 188 242 296 351
#     4  11  24  38  52  74 106 145 190 242 301 361
#     4  11  21  37  63  93 125 160 200 246 296 352
#     4  10  20  34  56  88 123 158 199 247 298 354
#
# _framework density 19.783809000000002
#
# number of rings (size 3 to 8) (size 9 to 14) (size 15 to 20)
#    0.000    1.545    2.727    2.455    0.000    6.182 
#    0.000    3.636    0.000    0.545    0.000    3.818 
#    0.000    0.000    0.000    0.000    0.000    0.000 
#
# Total GULP energy -545547.286988 kJ/mol
# GULP energy per Si atom -12398.801977 kJ/mol
# Density = 1.973878 g / cm^3
# Si number density = 19.783809 Si / 1000 Ang^3
#
#
#
# Elastic Constant Matrix: (Units=GPa)
#
#
# Indices 1 2 3 4 5 6 
#
# 1 114.5957 33.3028 66.9189 0.0000 0.0000 0.0000
# 2 33.3028 44.2817 26.7319 0.0000 0.0000 0.0000
# 3 66.9189 26.7319 168.2888 0.0000 0.0000 0.0000
# 4 0.0000 0.0000 0.0000 13.6415 0.0000 0.0000
# 5 0.0000 0.0000 0.0000 0.0000 36.9272 0.0000
# 6 0.0000 0.0000 0.0000 0.0000 0.0000 20.6471
#
#
#
# Elastic Compliance Matrix: (Units=1/GPa)
#
#
# Indices 1 2 3 4 5 6 
#
# 1 0.013307 -0.007536 -0.004095 0.000000 0.000000 0.000000
# 2 -0.007536 0.029246 -0.001649 0.000000 0.000000 0.000000
# 3 -0.004095 -0.001649 0.007832 0.000000 0.000000 0.000000
# 4 0.000000 0.000000 0.000000 0.073306 0.000000 0.000000
# 5 0.000000 0.000000 0.000000 0.000000 0.027080 0.000000
# 6 0.000000 0.000000 0.000000 0.000000 0.000000 0.048433
#
#
# Mechanical properties :
#
#
# Convention : Reuss Voigt Hill
#
# Bulk Modulus (GPa) = 41.97048 64.56371 53.26710
# Shear Modulus (GPa) = 21.39441 27.59067 24.49254
#
# Velocity S-wave (km/s) = 3.29205 3.73850 3.52235
# Velocity P-wave (km/s) = 5.97584 7.16524 6.59740
#
# Compressibility (1/GPa) = 0.02382627
#
# Stress axis : x y z
#
# Youngs Moduli (GPa) = 75.14562 34.19286 127.67761
#
# Poissons Ratio (x) = 0.25769 0.52278
# Poissons Ratio (y) = 0.56632 0.21051
# Poissons Ratio (z) = 0.30769 0.05638
#
# Static dielectric constant tensor:
#      x y z
#    x 3.711870 0.000000 0.000000 
#    y 0.000000 3.195800 0.000000 
#    z 0.000000 0.000000 3.939750 
# 
# 
# High freq. dielectric constant tensor:
#      x y z
#    x 1.781610 0.000000 0.000000 
#    y 0.000000 1.728210 0.000000 
#    z 0.000000 0.000000 1.795840 
# 
# From -- ./inp_files/20946.got.cif
#   From: 2010.03.12/outbox.cif.g09.slc.cpg/sg47_11_cif.got.tgz:20946.got - 2010.04.14 03:12:58.
