data_PCOD8198967
_publ_section_title
;
Structure prediction by ZEFSAII (Michael W. Deem and Ramdas Pophale) SiO2 
 PCOD8198967
Probable space group: P M M M
;
_chemical_formula_sum "Si O2"
_cell_formula_units_Z 48
_cell_length_a 9.960287
_cell_length_b 29.031039
_cell_length_c 9.162768
_cell_angle_alpha 90.000000
_cell_angle_beta 90.000000
_cell_angle_gamma 90.000000
_cell_volume 2649.482908
_symmetry_space_group_name_H-M "P M M M"
_symmetry_group_IT_number 47
_symmetry_cell_setting 'orthorhombic'
loop_
_space_group_symop_operation_xyz
x,y,z
-x,-y,z
x,-y,-z
-x,y,-z
-x,-y,-z
x,y,-z
-x,y,z
x,-y,z
loop_
_atom_site_type_symbol
_atom_site_label
_atom_site_fract_x
_atom_site_fract_y
_atom_site_fract_z
Si Si1 0.500000 0.051618 0.172064
Si Si2 0.656586 0.205335 0.667969
Si Si3 0.000000 0.051779 0.671916
Si Si4 0.267531 0.101507 0.331781
Si Si5 0.846564 0.723999 0.172159
Si Si6 0.153889 0.629727 0.330429
Si Si7 0.349566 0.448915 0.673312
O O1 0.371048 0.077377 0.227872
O O2 0.500000 0.000000 0.233996
O O3 0.500000 0.052345 0.000000
O O4 0.668604 0.220838 0.500000
O O5 0.500000 0.204247 0.715614
O O6 0.724882 0.155954 0.691161
O O7 0.740403 0.239628 0.767788
O O8 0.873941 0.081835 0.722651
O O9 0.000000 0.046446 0.500000
O O10 0.000000 0.000000 0.741193
O O11 0.297972 0.088896 0.500000
O O12 0.809508 0.675054 0.240835
O O13 0.000000 0.737886 0.214154
O O14 0.829380 0.720572 0.000000
O O15 0.185005 0.639511 0.500000
O O16 0.244726 0.588471 0.265837
O O17 0.000000 0.615104 0.307335
O O18 0.342139 0.449597 0.500000
O O19 0.500000 0.435524 0.724289
O O20 0.312316 0.500000 0.732604
#
# Coordination Sequence:
#
# PCOD8198967 Si02
#       7
#     4   8   4   8   8   8   8
#     4  11  23  37  55  81 113 149 183 215 258 311
#     4  10  21  37  57  82 107 134 176 223 269 319
#     4   9  18  32  55  87 113 135 171 217 262 309
#     4  10  20  37  59  83 109 140 178 221 266 313
#     4  10  22  38  55  77 106 142 181 218 266 325
#     4   9  17  30  49  74 102 133 172 218 265 309
#     4   8  14  25  43  70 103 135 168 211 263 314
#
# _framework density 18.116741999999999
#
# number of rings (size 3 to 8) (size 9 to 14) (size 15 to 20)
#    0.000    2.500    0.833    1.750    1.167    4.333 
#    0.000    3.750    0.000    2.000    0.000    3.500 
#    0.000    0.000    0.000    0.000    0.000    0.000 
#
# Total GULP energy -595120.354270 kJ/mol
# GULP energy per Si atom -12398.340714 kJ/mol
# Density = 1.807551 g / cm^3
# Si number density = 18.116742 Si / 1000 Ang^3
#
#
#
# Elastic Constant Matrix: (Units=GPa)
#
#
# Indices 1 2 3 4 5 6 
#
# 1 135.5154 85.5397 37.7039 0.0000 0.0000 0.0000
# 2 85.5397 133.5381 44.8668 0.0000 0.0000 0.0000
# 3 37.7039 44.8668 48.2804 0.0000 0.0000 0.0000
# 4 0.0000 0.0000 0.0000 6.8338 0.0000 0.0000
# 5 0.0000 0.0000 0.0000 0.0000 33.3677 0.0000
# 6 0.0000 0.0000 0.0000 0.0000 0.0000 31.6989
#
#
#
# Elastic Compliance Matrix: (Units=1/GPa)
#
#
# Indices 1 2 3 4 5 6 
#
# 1 0.012771 -0.007022 -0.003448 0.000000 0.000000 0.000000
# 2 -0.007022 0.014749 -0.008223 0.000000 0.000000 0.000000
# 3 -0.003448 -0.008223 0.031046 0.000000 0.000000 0.000000
# 4 0.000000 0.000000 0.000000 0.146330 0.000000 0.000000
# 5 0.000000 0.000000 0.000000 0.000000 0.029969 0.000000
# 6 0.000000 0.000000 0.000000 0.000000 0.000000 0.031547
#
#
# Mechanical properties :
#
#
# Convention : Reuss Voigt Hill
#
# Bulk Modulus (GPa) = 47.21117 72.61718 59.91418
# Shear Modulus (GPa) = 16.08450 24.32833 20.20641
#
# Velocity S-wave (km/s) = 2.98287 3.66849 3.34330
# Velocity P-wave (km/s) = 6.16274 7.62323 6.93156
#
# Compressibility (1/GPa) = 0.02118143
#
# Stress axis : x y z
#
# Youngs Moduli (GPa) = 78.30195 67.79911 32.21036
#
# Poissons Ratio (x) = 0.47611 0.11105
# Poissons Ratio (y) = 0.54987 0.26485
# Poissons Ratio (z) = 0.26995 0.55749
#
# Static dielectric constant tensor:
#      x y z
#    x 3.661100 0.000000 0.000000 
#    y 0.000000 3.582420 0.000000 
#    z 0.000000 0.000000 3.041250 
# 
# 
# High freq. dielectric constant tensor:
#      x y z
#    x 1.711190 0.000000 0.000000 
#    y 0.000000 1.711230 0.000000 
#    z 0.000000 0.000000 1.669700 
# 
# From -- ./inp_files/2787.got.cif
#   From: 2010.03.12/outbox.cif.g09.slc.cpg/sg47_2_cif.got.tgz:2787.got - 2010.04.14 03:12:58.
