data_PCOD8198438
_publ_section_title
;
Structure prediction by ZEFSAII (Michael W. Deem and Ramdas Pophale) SiO2 
 PCOD8198438
Probable space group: P M M M
;
_chemical_formula_sum "Si O2"
_cell_formula_units_Z 52
_cell_length_a 14.299269
_cell_length_b 20.491377
_cell_length_c 9.164422
_cell_angle_alpha 90.000000
_cell_angle_beta 90.000000
_cell_angle_gamma 90.000000
_cell_volume 2685.282979
_symmetry_space_group_name_H-M "P M M M"
_symmetry_group_IT_number 47
_symmetry_cell_setting 'orthorhombic'
loop_
_space_group_symop_operation_xyz
x,y,z
-x,-y,z
x,-y,-z
-x,y,-z
-x,-y,-z
x,y,-z
-x,y,z
x,-y,z
loop_
_atom_site_type_symbol
_atom_site_label
_atom_site_fract_x
_atom_site_fract_y
_atom_site_fract_z
Si Si1 0.856052 0.693482 0.338145
Si Si2 0.797965 0.573313 0.828132
Si Si3 0.103972 0.821025 0.831513
Si Si4 0.393501 0.000000 0.326771
Si Si5 0.352903 0.260458 0.341172
Si Si6 0.599981 0.621196 0.168764
Si Si7 0.721293 0.874400 0.673540
O O1 0.902273 0.689277 0.500000
O O2 0.865574 0.623664 0.256197
O O3 0.903307 0.749921 0.242824
O O4 0.748731 0.709357 0.355844
O O5 0.830045 0.500000 0.789725
O O6 0.689346 0.580717 0.774081
O O7 0.806410 0.586912 0.000000
O O8 0.177852 0.868928 0.752164
O O9 0.000000 0.852464 0.820165
O O10 0.134122 0.812289 0.000000
O O11 0.335064 0.062439 0.271720
O O12 0.500000 0.000000 0.263725
O O13 0.399175 0.000000 0.500000
O O14 0.401703 0.259456 0.500000
O O15 0.410888 0.306307 0.234889
O O16 0.343978 0.186736 0.280981
O O17 0.500000 0.584965 0.200572
O O18 0.614536 0.632747 0.000000
O O19 0.739983 0.874768 0.500000
#
# Coordination Sequence:
#
# PCOD8198438 Si02
#       7
#     8   8   8   4   8   8   8
#     4   9  17  30  49  72  97 125 160 205 251 298
#     4   9  17  29  45  64  90 129 171 208 253 310
#     4  10  20  34  55  82 109 137 168 207 261 319
#     4   9  18  34  56  81 110 146 187 225 260 301
#     4   8  15  27  43  64  88 117 156 201 250 298
#     4   9  17  27  39  59  87 119 159 207 256 305
#     4   9  18  33  54  79 106 139 178 218 258 302
#
# _framework density 19.364812000000001
#
# number of rings (size 3 to 8) (size 9 to 14) (size 15 to 20)
#    0.000    3.000    0.000    1.846    0.000    6.462 
#    0.000    3.846    0.000    3.692    0.000    7.538 
#    0.000    0.000    0.000    0.000    0.000    0.000 
#
# Total GULP energy -644246.239902 kJ/mol
# GULP energy per Si atom -12389.350767 kJ/mol
# Density = 1.932074 g / cm^3
# Si number density = 19.364812 Si / 1000 Ang^3
#
#
#
# Elastic Constant Matrix: (Units=GPa)
#
#
# Indices 1 2 3 4 5 6 
#
# 1 81.6777 31.3027 28.3317 0.0000 0.0000 0.0000
# 2 31.3027 119.1102 29.5178 0.0000 0.0000 0.0000
# 3 28.3317 29.5178 63.4533 0.0000 0.0000 0.0000
# 4 0.0000 0.0000 0.0000 23.5294 0.0000 0.0000
# 5 0.0000 0.0000 0.0000 0.0000 13.2504 0.0000
# 6 0.0000 0.0000 0.0000 0.0000 0.0000 14.1032
#
#
#
# Elastic Compliance Matrix: (Units=1/GPa)
#
#
# Indices 1 2 3 4 5 6 
#
# 1 0.015172 -0.002609 -0.005560 0.000000 0.000000 0.000000
# 2 -0.002609 0.009938 -0.003458 0.000000 0.000000 0.000000
# 3 -0.005560 -0.003458 0.019851 0.000000 0.000000 0.000000
# 4 0.000000 0.000000 0.000000 0.042500 0.000000 0.000000
# 5 0.000000 0.000000 0.000000 0.000000 0.075469 0.000000
# 6 0.000000 0.000000 0.000000 0.000000 0.000000 0.070906
#
#
# Mechanical properties :
#
#
# Convention : Reuss Voigt Hill
#
# Bulk Modulus (GPa) = 46.07110 49.17174 47.62142
# Shear Modulus (GPa) = 18.91593 21.84920 20.38256
#
# Velocity S-wave (km/s) = 3.12880 3.36265 3.24783
# Velocity P-wave (km/s) = 6.07415 6.36585 6.22171
#
# Compressibility (1/GPa) = 0.02170558
#
# Stress axis : x y z
#
# Youngs Moduli (GPa) = 65.91081 100.62068 50.37516
#
# Poissons Ratio (x) = 0.26255 0.28011
# Poissons Ratio (y) = 0.17198 0.17421
# Poissons Ratio (z) = 0.36649 0.34796
#
# Static dielectric constant tensor:
#      x y z
#    x 3.522330 0.000000 0.000000 
#    y 0.000000 3.584670 0.000000 
#    z 0.000000 0.000000 3.616130 
# 
# 
# High freq. dielectric constant tensor:
#      x y z
#    x 1.745330 0.000000 0.000000 
#    y 0.000000 1.735740 0.000000 
#    z 0.000000 0.000000 1.739020 
# 
# From -- ./inp_files/7031.got.cif
#   From: 2010.03.12/outbox.cif.g09.slc.cpg/sg47_4_cif.got.tgz:7031.got - 2010.04.14 03:12:58.
