data_PCOD8198418
_publ_section_title
;
Structure prediction by ZEFSAII (Michael W. Deem and Ramdas Pophale) SiO2 
 PCOD8198418
Probable space group: P M M M
;
_chemical_formula_sum "Si O2"
_cell_formula_units_Z 48
_cell_length_a 32.751369
_cell_length_b 9.462865
_cell_length_c 8.080929
_cell_angle_alpha 90.000000
_cell_angle_beta 90.000000
_cell_angle_gamma 90.000000
_cell_volume 2504.455927
_symmetry_space_group_name_H-M "P M M M"
_symmetry_group_IT_number 47
_symmetry_cell_setting 'orthorhombic'
loop_
_space_group_symop_operation_xyz
x,y,z
-x,-y,z
x,-y,-z
-x,y,-z
-x,-y,-z
x,y,-z
-x,y,z
x,-y,z
loop_
_atom_site_type_symbol
_atom_site_label
_atom_site_fract_x
_atom_site_fract_y
_atom_site_fract_z
Si Si1 0.453770 0.668442 0.500000
Si Si2 0.151235 0.839678 0.303448
Si Si3 0.403444 0.331393 0.815192
Si Si4 0.000000 0.838533 0.195211
Si Si5 0.759531 0.846629 0.692309
Si Si6 0.076969 0.658871 0.304466
Si Si7 0.312527 0.343060 0.808030
O O1 0.452176 0.500000 0.500000
O O2 0.500000 0.724460 0.500000
O O3 0.432468 0.726646 0.331755
O O4 0.148568 0.833655 0.500000
O O5 0.196536 0.791822 0.239400
O O6 0.117669 0.732475 0.228806
O O7 0.142364 0.000000 0.242949
O O8 0.403116 0.500000 0.816536
O O9 0.357535 0.276625 0.777967
O O10 0.417669 0.279505 0.000000
O O11 0.960852 0.756132 0.259256
O O12 0.000000 0.000000 0.263554
O O13 0.000000 0.839532 0.000000
O O14 0.765773 0.867198 0.500000
O O15 0.722158 0.743825 0.719407
O O16 0.749379 0.000000 0.772166
O O17 0.080176 0.648229 0.500000
O O18 0.072482 0.500000 0.230215
O O19 0.311414 0.500000 0.732158
O O20 0.302441 0.346867 0.000000
#
# Coordination Sequence:
#
# PCOD8198418 Si02
#       7
#     4   8   8   4   8   8   8
#     4   9  16  24  38  62  89 123 167 205 249 312
#     4   8  15  30  50  71  98 130 161 196 239 287
#     4   8  15  27  40  58  89 124 160 206 253 300
#     4  11  24  39  54  74 100 131 168 205 244 296
#     4   9  18  31  48  73 101 127 160 202 245 290
#     4  10  20  34  55  81 104 127 161 204 247 295
#     4   9  18  31  46  66  93 128 168 204 242 294
#
# _framework density 19.165838999999998
#
# number of rings (size 3 to 8) (size 9 to 14) (size 15 to 20)
#    0.000    3.000    0.000    3.000    1.167    4.333 
#    0.000    4.167    0.000    1.000    0.000    0.000 
#    0.000    1.333    0.000    3.667    0.000    3.667 
#
# Total GULP energy -594725.260554 kJ/mol
# GULP energy per Si atom -12390.109595 kJ/mol
# Density = 1.912222 g / cm^3
# Si number density = 19.165839 Si / 1000 Ang^3
#
#
#
# Elastic Constant Matrix: (Units=GPa)
#
#
# Indices 1 2 3 4 5 6 
#
# 1 159.2550 59.8884 49.5283 0.0000 0.0000 0.0000
# 2 59.8884 87.2465 22.6414 0.0000 0.0000 0.0000
# 3 49.5283 22.6414 57.0440 0.0000 0.0000 0.0000
# 4 0.0000 0.0000 0.0000 9.1250 0.0000 0.0000
# 5 0.0000 0.0000 0.0000 0.0000 -25.2788 0.0000
# 6 0.0000 0.0000 0.0000 0.0000 0.0000 -25.5027
#
#
#
# Elastic Compliance Matrix: (Units=1/GPa)
#
#
# Indices 1 2 3 4 5 6 
#
# 1 0.010463 -0.005379 -0.006950 0.000000 0.000000 0.000000
# 2 -0.005379 0.015543 -0.001499 0.000000 0.000000 0.000000
# 3 -0.006950 -0.001499 0.024160 0.000000 0.000000 0.000000
# 4 0.000000 0.000000 0.000000 0.109589 0.000000 0.000000
# 5 0.000000 0.000000 0.000000 0.000000 -0.039559 0.000000
# 6 0.000000 0.000000 0.000000 0.000000 0.000000 -0.039211
#
#
# Mechanical properties :
#
#
# Convention : Reuss Voigt Hill
#
# Bulk Modulus (GPa) = 44.42391 63.07352 53.74871
# Shear Modulus (GPa) = 43.05025 3.10120 23.07573
#
# Velocity S-wave (km/s) = 4.74455 1.27342 3.47364
# Velocity P-wave (km/s) = 7.29680 5.92815 6.64779
#
# Compressibility (1/GPa) = 0.02251040
#
# Stress axis : x y z
#
# Youngs Moduli (GPa) = 95.57171 64.33791 41.39151
#
# Poissons Ratio (x) = 0.34606 0.28767
# Poissons Ratio (y) = 0.51406 0.06205
# Poissons Ratio (z) = 0.66421 0.09645
#
# Static dielectric constant tensor:
#      x y z
#    x 3.769940 0.000000 0.000000 
#    y 0.000000 3.513350 0.000000 
#    z 0.000000 0.000000 3.377560 
# 
# 
# High freq. dielectric constant tensor:
#      x y z
#    x 1.755400 0.000000 0.000000 
#    y 0.000000 1.710400 0.000000 
#    z 0.000000 0.000000 1.726730 
# 
# From -- ./inp_files/13983.got.cif
#   From: 2010.03.12/outbox.cif.g09.slc.cpg/sg47_7_cif.got.tgz:13983.got - 2010.04.14 03:12:58.
