data_PCOD8198222
_publ_section_title
;
Structure prediction by ZEFSAII (Michael W. Deem and Ramdas Pophale) SiO2 
 PCOD8198222
Probable space group: P M M M
;
_chemical_formula_sum "Si O2"
_cell_formula_units_Z 48
_cell_length_a 19.159636
_cell_length_b 8.977659
_cell_length_c 15.136742
_cell_angle_alpha 90.000000
_cell_angle_beta 90.000000
_cell_angle_gamma 90.000000
_cell_volume 2603.650989
_symmetry_space_group_name_H-M "P M M M"
_symmetry_group_IT_number 47
_symmetry_cell_setting 'orthorhombic'
loop_
_space_group_symop_operation_xyz
x,y,z
-x,-y,z
x,-y,-z
-x,y,-z
-x,-y,-z
x,y,-z
-x,y,z
x,-y,z
loop_
_atom_site_type_symbol
_atom_site_label
_atom_site_fract_x
_atom_site_fract_y
_atom_site_fract_z
Si Si1 0.817644 0.825267 0.148424
Si Si2 0.077532 0.176332 0.000000
Si Si3 0.820467 0.825786 0.349195
Si Si4 0.322725 0.674612 0.652755
Si Si5 0.422595 0.322924 0.500000
Si Si6 0.581861 0.174436 0.000000
Si Si7 0.327020 0.675630 0.854331
Si Si8 0.077738 0.822905 0.500000
O O1 0.881136 0.770955 0.087101
O O2 0.839805 0.786143 0.248344
O O3 0.748822 0.736886 0.118836
O O4 0.801964 0.000000 0.136319
O O5 0.000000 0.247947 0.000000
O O6 0.071019 0.000000 0.000000
O O7 0.748837 0.749438 0.377696
O O8 0.882165 0.766619 0.412300
O O9 0.809421 0.000000 0.362240
O O10 0.311360 0.500000 0.643062
O O11 0.383352 0.733134 0.588080
O O12 0.343266 0.717413 0.752711
O O13 0.426623 0.500000 0.500000
O O14 0.500000 0.253281 0.500000
O O15 0.613941 0.247221 0.912496
O O16 0.500000 0.207776 0.000000
O O17 0.598377 0.000000 0.000000
O O18 0.328516 0.500000 0.871260
O O19 0.000000 0.753762 0.500000
O O20 0.073174 0.000000 0.500000
#
# Coordination Sequence:
#
# PCOD8198222 Si02
#       8
#     8   4   8   8   4   4   8   4
#     4   9  17  30  49  71  95 125 161 201 246 295
#     4   9  17  28  44  68  94 119 152 195 238 282
#     4   9  17  29  47  69  92 123 161 200 242 288
#     4   9  18  32  52  76  99 127 163 203 244 287
#     4   9  17  30  49  73 100 129 160 194 236 287
#     4  11  24  39  54  74 102 135 166 199 246 300
#     4  10  20  34  54  78 101 128 166 209 248 290
#     4   9  17  28  43  67  98 129 164 208 254 295
#
# _framework density 18.435651
#
# number of rings (size 3 to 8) (size 9 to 14) (size 15 to 20)
#    0.000    2.667    0.000    1.750    0.000    3.333 
#    0.000    5.000    0.000    3.000    0.000    4.667 
#    0.000    0.000    0.000    0.000    0.000    0.000 
#
# Total GULP energy -595205.491879 kJ/mol
# GULP energy per Si atom -12400.114414 kJ/mol
# Density = 1.839369 g / cm^3
# Si number density = 18.435651 Si / 1000 Ang^3
#
#
#
# Elastic Constant Matrix: (Units=GPa)
#
#
# Indices 1 2 3 4 5 6 
#
# 1 180.6483 44.0821 104.9590 0.0000 0.0000 0.0000
# 2 44.0821 42.5583 32.0308 0.0000 0.0000 0.0000
# 3 104.9590 32.0308 135.4371 0.0000 0.0000 0.0000
# 4 0.0000 0.0000 0.0000 16.9201 0.0000 0.0000
# 5 0.0000 0.0000 0.0000 0.0000 23.8596 0.0000
# 6 0.0000 0.0000 0.0000 0.0000 0.0000 14.0888
#
#
#
# Elastic Compliance Matrix: (Units=1/GPa)
#
#
# Indices 1 2 3 4 5 6 
#
# 1 0.011273 -0.006206 -0.007269 0.000000 0.000000 0.000000
# 2 -0.006206 0.032002 -0.002759 0.000000 0.000000 0.000000
# 3 -0.007269 -0.002759 0.013669 0.000000 0.000000 0.000000
# 4 0.000000 0.000000 0.000000 0.059101 0.000000 0.000000
# 5 0.000000 0.000000 0.000000 0.000000 0.041912 0.000000
# 6 0.000000 0.000000 0.000000 0.000000 0.000000 0.070978
#
#
# Mechanical properties :
#
#
# Convention : Reuss Voigt Hill
#
# Bulk Modulus (GPa) = 40.85505 80.08750 60.47128
# Shear Modulus (GPa) = 18.54862 22.81183 20.68022
#
# Velocity S-wave (km/s) = 3.17539 3.52145 3.35289
# Velocity P-wave (km/s) = 5.97103 7.75049 6.91821
#
# Compressibility (1/GPa) = 0.02447678
#
# Stress axis : x y z
#
# Youngs Moduli (GPa) = 88.70579 31.24802 73.15915
#
# Poissons Ratio (x) = 0.19393 0.53176
# Poissons Ratio (y) = 0.55053 0.20183
# Poissons Ratio (z) = 0.64476 0.08621
#
# Static dielectric constant tensor:
#      x y z
#    x 3.574920 0.000000 0.000000 
#    y 0.000000 3.139470 0.000000 
#    z 0.000000 0.000000 3.659480 
# 
# 
# High freq. dielectric constant tensor:
#      x y z
#    x 1.711890 0.000000 0.000000 
#    y 0.000000 1.685700 0.000000 
#    z 0.000000 0.000000 1.731120 
# 
# From -- ./inp_files/24528.got.cif
#   From: 2010.03.12/outbox.cif.g09.slc.cpg/sg47_13_cif.got.tgz:24528.got - 2010.04.14 03:12:58.
