data_PCOD8198364
_publ_section_title
;
Structure prediction by ZEFSAII (Michael W. Deem and Ramdas Pophale) SiO2 
 PCOD8198364
Probable space group: P M M M
;
_chemical_formula_sum "Si O2"
_cell_formula_units_Z 48
_cell_length_a 9.211709
_cell_length_b 9.154193
_cell_length_c 30.480300
_cell_angle_alpha 90.000000
_cell_angle_beta 90.000000
_cell_angle_gamma 90.000000
_cell_volume 2570.274525
_symmetry_space_group_name_H-M "P M M M"
_symmetry_group_IT_number 47
_symmetry_cell_setting 'orthorhombic'
loop_
_space_group_symop_operation_xyz
x,y,z
-x,-y,z
x,-y,-z
-x,y,-z
-x,-y,-z
x,y,-z
-x,y,z
x,-y,z
loop_
_atom_site_type_symbol
_atom_site_label
_atom_site_fract_x
_atom_site_fract_y
_atom_site_fract_z
Si Si1 0.329433 0.164388 0.824988
Si Si2 0.831350 0.667676 0.248703
Si Si3 0.830329 0.668458 0.000000
Si Si4 0.665994 0.830239 0.075037
Si Si5 0.670011 0.329531 0.413871
Si Si6 0.832659 0.172107 0.336735
Si Si7 0.835991 0.326606 0.500000
O O1 0.500000 0.175454 0.817580
O O2 0.252394 0.280265 0.794111
O O3 0.289713 0.203939 0.874955
O O4 0.276083 0.000000 0.814086
O O5 0.792219 0.500000 0.258297
O O6 0.782139 0.761985 0.290455
O O7 0.000000 0.689699 0.239193
O O8 0.767965 0.737956 0.043927
O O9 0.788464 0.500000 0.000000
O O10 0.000000 0.696201 0.000000
O O11 0.500000 0.784839 0.066440
O O12 0.687486 0.000000 0.064480
O O13 0.500000 0.300017 0.419821
O O14 0.702345 0.500000 0.405886
O O15 0.729450 0.238982 0.373284
O O16 0.751458 0.270523 0.457137
O O17 0.000000 0.213703 0.346769
O O18 0.809643 0.000000 0.335027
O O19 0.838008 0.500000 0.500000
O O20 0.000000 0.263687 0.500000
#
# Coordination Sequence:
#
# PCOD8198364 Si02
#       7
#     8   8   4   8   8   8   4
#     4   9  19  36  57  81 108 138 174 217 264 314
#     4  10  21  36  55  80 109 141 177 218 264 314
#     4  11  24  37  50  76 112 143 174 217 266 314
#     4   9  19  37  59  80 103 136 179 221 261 312
#     4  10  20  34  54  81 111 141 175 217 265 316
#     4  10  21  37  56  77 103 139 182 223 264 313
#     4   9  17  31  54  81 108 141 178 216 260 311
#
# _framework density 18.675048
#
# number of rings (size 3 to 8) (size 9 to 14) (size 15 to 20)
#    0.000    2.333    0.000    3.250    0.000    8.333 
#    0.000    5.417    0.000    2.500    0.000    0.000 
#    0.000    0.000    0.000    0.000    0.000    0.000 
#
# Total GULP energy -595345.177300 kJ/mol
# GULP energy per Si atom -12403.024527 kJ/mol
# Density = 1.863254 g / cm^3
# Si number density = 18.675048 Si / 1000 Ang^3
#
#
#
# Elastic Constant Matrix: (Units=GPa)
#
#
# Indices 1 2 3 4 5 6 
#
# 1 63.1818 48.9883 62.9439 0.0000 0.0000 0.0000
# 2 48.9883 81.6199 64.5865 0.0000 0.0000 0.0000
# 3 62.9439 64.5865 140.2743 0.0000 0.0000 0.0000
# 4 0.0000 0.0000 0.0000 51.6890 0.0000 0.0000
# 5 0.0000 0.0000 0.0000 0.0000 36.9816 0.0000
# 6 0.0000 0.0000 0.0000 0.0000 0.0000 31.0004
#
#
#
# Elastic Compliance Matrix: (Units=1/GPa)
#
#
# Indices 1 2 3 4 5 6 
#
# 1 0.036734 -0.014166 -0.009961 0.000000 0.000000 0.000000
# 2 -0.014166 0.024737 -0.005033 0.000000 0.000000 0.000000
# 3 -0.009961 -0.005033 0.013916 0.000000 0.000000 0.000000
# 4 0.000000 0.000000 0.000000 0.019346 0.000000 0.000000
# 5 0.000000 0.000000 0.000000 0.000000 0.027040 0.000000
# 6 0.000000 0.000000 0.000000 0.000000 0.000000 0.032258
#
#
# Mechanical properties :
#
#
# Convention : Reuss Voigt Hill
#
# Bulk Modulus (GPa) = 58.59126 70.90148 64.74637
# Shear Modulus (GPa) = 22.93145 31.17135 27.05140
#
# Velocity S-wave (km/s) = 3.50797 4.08995 3.81009
# Velocity P-wave (km/s) = 6.91737 7.76865 7.35533
#
# Compressibility (1/GPa) = 0.01706739
#
# Stress axis : x y z
#
# Youngs Moduli (GPa) = 27.22248 40.42537 71.85909
#
# Poissons Ratio (x) = 0.57265 0.71580
# Poissons Ratio (y) = 0.38562 0.36168
# Poissons Ratio (z) = 0.27117 0.20347
#
# Static dielectric constant tensor:
#      x y z
#    x 3.390630 0.000000 0.000000 
#    y 0.000000 3.337570 0.000000 
#    z 0.000000 0.000000 3.512690 
# 
# 
# High freq. dielectric constant tensor:
#      x y z
#    x 1.723720 0.000000 0.000000 
#    y 0.000000 1.716570 0.000000 
#    z 0.000000 0.000000 1.738170 
# 
# From -- ./inp_files/34072.got.cif
#   From: 2010.03.12/outbox.cif.g09.slc.cpg/sg47_18_cif.got.tgz:34072.got - 2010.04.14 03:12:58.
