data_PCOD8198601
_publ_section_title
;
Structure prediction by ZEFSAII (Michael W. Deem and Ramdas Pophale) SiO2 
 PCOD8198601
Probable space group: P M M M
;
_chemical_formula_sum "Si O2"
_cell_formula_units_Z 48
_cell_length_a 15.177125
_cell_length_b 19.332009
_cell_length_c 8.861674
_cell_angle_alpha 90.000000
_cell_angle_beta 90.000000
_cell_angle_gamma 90.000000
_cell_volume 2600.053408
_symmetry_space_group_name_H-M "P M M M"
_symmetry_group_IT_number 47
_symmetry_cell_setting 'orthorhombic'
loop_
_space_group_symop_operation_xyz
x,y,z
-x,-y,z
x,-y,-z
-x,y,-z
-x,-y,-z
x,y,-z
-x,y,z
x,-y,z
loop_
_atom_site_type_symbol
_atom_site_label
_atom_site_fract_x
_atom_site_fract_y
_atom_site_fract_z
Si Si1 0.901376 0.000000 0.836410
Si Si2 0.901490 0.722082 0.674279
Si Si3 0.276538 0.688649 0.822840
Si Si4 0.831708 0.128069 0.326051
Si Si5 0.399757 0.580360 0.326137
Si Si6 0.500000 0.919991 0.678705
Si Si7 0.658277 0.163077 0.823287
O O1 0.888447 0.064736 0.728086
O O2 0.000000 0.000000 0.888008
O O3 0.849083 0.000000 0.000000
O O4 0.894389 0.701738 0.500000
O O5 0.822626 0.681968 0.758079
O O6 0.889434 0.803630 0.698503
O O7 0.000000 0.702090 0.734845
O O8 0.332486 0.622373 0.776207
O O9 0.329340 0.757207 0.767260
O O10 0.265934 0.691445 0.000000
O O11 0.802104 0.120600 0.500000
O O12 0.748060 0.124920 0.216365
O O13 0.384405 0.600073 0.500000
O O14 0.500000 0.598094 0.279101
O O15 0.380653 0.500000 0.298751
O O16 0.500000 0.920989 0.500000
O O17 0.416772 0.876985 0.734536
O O18 0.500000 0.000000 0.738907
O O19 0.637157 0.159451 0.000000
#
# Coordination Sequence:
#
# PCOD8198601 Si02
#       7
#     4   8   8   8   8   4   8
#     4  11  23  35  49  72 101 134 169 211 273 337
#     4   9  18  34  56  80 106 140 183 227 272 322
#     4  10  21  35  55  85 117 148 183 224 273 328
#     4  10  20  35  55  76 101 132 174 224 272 323
#     4   9  19  36  58  85 116 151 188 224 268 322
#     4  11  25  41  57  77 102 137 188 237 280 327
#     4  10  22  39  56  78 108 142 180 222 274 330
#
# _framework density 18.461158999999999
#
# number of rings (size 3 to 8) (size 9 to 14) (size 15 to 20)
#    0.000    2.167    0.000    3.000    2.333    5.667 
#    0.000    0.833    0.000    0.500    0.000    3.500 
#    0.000    0.000    0.000    0.000    0.000    0.000 
#
# Total GULP energy -594990.754104 kJ/mol
# GULP energy per Si atom -12395.640710 kJ/mol
# Density = 1.841914 g / cm^3
# Si number density = 18.461159 Si / 1000 Ang^3
#
#
#
# Elastic Constant Matrix: (Units=GPa)
#
#
# Indices 1 2 3 4 5 6 
#
# 1 129.0792 56.7880 36.8329 0.0000 0.0000 0.0000
# 2 56.7880 70.3122 29.8102 0.0000 0.0000 0.0000
# 3 36.8329 29.8102 53.9809 0.0000 0.0000 0.0000
# 4 0.0000 0.0000 0.0000 28.7747 0.0000 0.0000
# 5 0.0000 0.0000 0.0000 0.0000 111.4672 0.0000
# 6 0.0000 0.0000 0.0000 0.0000 0.0000 -30.1269
#
#
#
# Elastic Compliance Matrix: (Units=1/GPa)
#
#
# Indices 1 2 3 4 5 6 
#
# 1 0.012614 -0.008538 -0.003892 0.000000 0.000000 0.000000
# 2 -0.008538 0.024349 -0.007621 0.000000 0.000000 0.000000
# 3 -0.003892 -0.007621 0.025389 0.000000 0.000000 0.000000
# 4 0.000000 0.000000 0.000000 0.034753 0.000000 0.000000
# 5 0.000000 0.000000 0.000000 0.000000 0.008971 0.000000
# 6 0.000000 0.000000 0.000000 0.000000 0.000000 -0.033193
#
#
# Mechanical properties :
#
#
# Convention : Reuss Voigt Hill
#
# Bulk Modulus (GPa) = 44.94194 55.58162 50.26178
# Shear Modulus (GPa) = 41.52801 30.68573 36.10687
#
# Velocity S-wave (km/s) = 4.74801 4.08140 4.42727
# Velocity P-wave (km/s) = 7.37937 7.23762 7.30884
#
# Compressibility (1/GPa) = 0.02225093
#
# Stress axis : x y z
#
# Youngs Moduli (GPa) = 79.27796 41.07009 39.38670
#
# Poissons Ratio (x) = 0.35064 0.15330
# Poissons Ratio (y) = 0.67684 0.30016
# Poissons Ratio (z) = 0.30856 0.31299
#
# Static dielectric constant tensor:
#      x y z
#    x 4.122380 0.000000 0.000000 
#    y 0.000000 3.293500 0.000000 
#    z 0.000000 0.000000 3.377810 
# 
# 
# High freq. dielectric constant tensor:
#      x y z
#    x 1.720110 0.000000 0.000000 
#    y 0.000000 1.699010 0.000000 
#    z 0.000000 0.000000 1.722350 
# 
# From -- ./inp_files/6427.got.cif
#   From: 2010.03.12/outbox.cif.g09.slc.cpg/sg47_4_cif.got.tgz:6427.got - 2010.04.14 03:12:58.
