data_PCOD8198899
_publ_section_title
;
Structure prediction by ZEFSAII (Michael W. Deem and Ramdas Pophale) SiO2 
 PCOD8198899
Probable space group: P M M M
;
_chemical_formula_sum "Si O2"
_cell_formula_units_Z 48
_cell_length_a 9.701101
_cell_length_b 8.841852
_cell_length_c 29.374084
_cell_angle_alpha 90.000000
_cell_angle_beta 90.000000
_cell_angle_gamma 90.000000
_cell_volume 2519.582596
_symmetry_space_group_name_H-M "P M M M"
_symmetry_group_IT_number 47
_symmetry_cell_setting 'orthorhombic'
loop_
_space_group_symop_operation_xyz
x,y,z
-x,-y,z
x,-y,-z
-x,y,-z
-x,-y,-z
x,y,-z
-x,y,z
x,-y,z
loop_
_atom_site_type_symbol
_atom_site_label
_atom_site_fract_x
_atom_site_fract_y
_atom_site_fract_z
Si Si1 0.656404 0.321389 0.359794
Si Si2 0.156864 0.679571 0.278027
Si Si3 0.743701 0.821822 0.900546
Si Si4 0.000000 0.320958 0.947995
Si Si5 0.339868 0.324101 0.807159
Si Si6 0.500000 0.667592 0.947371
Si Si7 0.663562 0.170349 0.450441
O O1 0.500000 0.258825 0.352045
O O2 0.653117 0.500000 0.357211
O O3 0.759993 0.255718 0.321623
O O4 0.717153 0.273406 0.409013
O O5 0.151530 0.500000 0.280529
O O6 0.242216 0.731062 0.233793
O O7 0.000000 0.744457 0.276713
O O8 0.875140 0.734948 0.918010
O O9 0.703260 0.776330 0.849715
O O10 0.627987 0.769481 0.934971
O O11 0.766989 0.000000 0.903109
O O12 0.000000 0.500000 0.950312
O O13 0.000000 0.256309 0.000000
O O14 0.500000 0.295567 0.794423
O O15 0.314979 0.500000 0.818371
O O16 0.500000 0.500000 0.923034
O O17 0.500000 0.635926 0.000000
O O18 0.717946 0.228941 0.500000
O O19 0.500000 0.174823 0.451181
O O20 0.716113 0.000000 0.442331
#
# Coordination Sequence:
#
# PCOD8198899 Si02
#       7
#     8   8   8   4   8   4   8
#     4   9  16  27  46  73 103 131 168 220 271 316
#     4   9  18  32  52  78 104 137 181 225 269 323
#     4  12  25  40  61  91 125 155 187 236 293 339
#     4  11  25  45  67  89 117 157 201 237 274 335
#     4  10  20  36  59  83 110 146 189 230 272 331
#     4  11  23  41  65  91 119 155 199 237 274 333
#     4   8  14  25  42  66  97 132 170 211 258 315
#
# _framework density 19.050775000000002
#
# number of rings (size 3 to 8) (size 9 to 14) (size 15 to 20)
#    0.000    2.167    0.833    3.500    1.167    5.667 
#    0.000    2.500    0.000    4.000    0.000    3.500 
#    0.000    0.000    0.000    0.000    0.000    0.000 
#
# Total GULP energy -594948.283255 kJ/mol
# GULP energy per Si atom -12394.755901 kJ/mol
# Density = 1.900741 g / cm^3
# Si number density = 19.050775 Si / 1000 Ang^3
#
#
#
# Elastic Constant Matrix: (Units=GPa)
#
#
# Indices 1 2 3 4 5 6 
#
# 1 125.4160 21.4259 56.3154 0.0000 0.0000 0.0000
# 2 21.4259 48.0834 26.6079 0.0000 0.0000 0.0000
# 3 56.3154 26.6079 127.2529 0.0000 0.0000 0.0000
# 4 0.0000 0.0000 0.0000 6.0787 0.0000 0.0000
# 5 0.0000 0.0000 0.0000 0.0000 31.7236 0.0000
# 6 0.0000 0.0000 0.0000 0.0000 0.0000 5.5707
#
#
#
# Elastic Compliance Matrix: (Units=1/GPa)
#
#
# Indices 1 2 3 4 5 6 
#
# 1 0.010173 -0.002309 -0.004019 0.000000 0.000000 0.000000
# 2 -0.002309 0.024042 -0.004005 0.000000 0.000000 0.000000
# 3 -0.004019 -0.004005 0.010475 0.000000 0.000000 0.000000
# 4 0.000000 0.000000 0.000000 0.164509 0.000000 0.000000
# 5 0.000000 0.000000 0.000000 0.000000 0.031522 0.000000
# 6 0.000000 0.000000 0.000000 0.000000 0.000000 0.179509
#
#
# Mechanical properties :
#
#
# Convention : Reuss Voigt Hill
#
# Bulk Modulus (GPa) = 41.62688 56.60564 49.11626
# Shear Modulus (GPa) = 11.13823 21.76815 16.45319
#
# Velocity S-wave (km/s) = 2.42060 3.38396 2.94198
# Velocity P-wave (km/s) = 5.45072 6.71162 6.11376
#
# Compressibility (1/GPa) = 0.02402294
#
# Stress axis : x y z
#
# Youngs Moduli (GPa) = 98.30335 41.59306 95.46994
#
# Poissons Ratio (x) = 0.09603 0.38370
# Poissons Ratio (y) = 0.22697 0.38239
# Poissons Ratio (z) = 0.39509 0.16660
#
# Static dielectric constant tensor:
#      x y z
#    x 3.562320 0.000000 0.000000 
#    y 0.000000 3.321560 0.000000 
#    z 0.000000 0.000000 3.860380 
# 
# 
# High freq. dielectric constant tensor:
#      x y z
#    x 1.728070 0.000000 0.000000 
#    y 0.000000 1.715020 0.000000 
#    z 0.000000 0.000000 1.756880 
# 
# From -- ./inp_files/34186.got.cif
#   From: 2010.03.12/outbox.cif.g09.slc.cpg/sg47_18_cif.got.tgz:34186.got - 2010.04.14 03:12:58.
