data_PCOD8198306
_publ_section_title
;
Structure prediction by ZEFSAII (Michael W. Deem and Ramdas Pophale) SiO2 
 PCOD8198306
Probable space group: P M M M
;
_chemical_formula_sum "Si O2"
_cell_formula_units_Z 40
_cell_length_a 9.085370
_cell_length_b 25.825092
_cell_length_c 9.136962
_cell_angle_alpha 90.000000
_cell_angle_beta 90.000000
_cell_angle_gamma 90.000000
_cell_volume 2143.810110
_symmetry_space_group_name_H-M "P M M M"
_symmetry_group_IT_number 47
_symmetry_cell_setting 'orthorhombic'
loop_
_space_group_symop_operation_xyz
x,y,z
-x,-y,z
x,-y,-z
-x,y,-z
-x,-y,-z
x,y,-z
-x,y,z
x,-y,z
loop_
_atom_site_type_symbol
_atom_site_label
_atom_site_fract_x
_atom_site_fract_y
_atom_site_fract_z
Si Si1 0.824319 0.500000 0.665355
Si Si2 0.175300 0.399888 0.165081
Si Si3 0.830096 0.701440 0.669790
Si Si4 0.174932 0.000000 0.334751
Si Si5 0.326675 0.193735 0.332282
Si Si6 0.828898 0.898125 0.828846
O O1 0.764381 0.500000 0.500000
O O2 0.762458 0.449243 0.747166
O O3 0.000000 0.500000 0.666920
O O4 0.231992 0.347278 0.240092
O O5 0.000000 0.400995 0.168154
O O6 0.235529 0.402224 0.000000
O O7 0.808705 0.688248 0.500000
O O8 0.737457 0.751249 0.717762
O O9 0.000000 0.712693 0.706891
O O10 0.233086 0.050908 0.252030
O O11 0.236646 0.000000 0.500000
O O12 0.000000 0.000000 0.332697
O O13 0.281402 0.181802 0.500000
O O14 0.500000 0.195269 0.312339
O O15 0.261016 0.150648 0.227155
O O16 0.000000 0.889167 0.792747
O O17 0.801977 0.905678 0.000000
#
# Coordination Sequence:
#
# PCOD8198306 Si02
#       6
#     4   8   8   4   8   8
#     4   9  15  23  37  59  90 125 156 189 236 292
#     4   9  16  25  39  62  92 123 156 196 241 289
#     4   9  17  30  48  69  94 126 164 204 245 291
#     4   9  17  31  54  81 106 133 166 204 246 293
#     4  10  21  36  53  74 101 134 172 212 253 298
#     4  10  20  34  54  80 108 136 167 205 249 297
#
# _framework density 18.658369
#
# number of rings (size 3 to 8) (size 9 to 14) (size 15 to 20)
#    0.000    2.600    0.000    2.400    0.000    8.000 
#    0.000    2.500    0.000    3.000    0.000    0.700 
#    0.000    5.600    0.000    0.000    0.000    0.000 
#
# Total GULP energy -496071.798914 kJ/mol
# GULP energy per Si atom -12401.794973 kJ/mol
# Density = 1.861590 g / cm^3
# Si number density = 18.658369 Si / 1000 Ang^3
#
#
#
# Elastic Constant Matrix: (Units=GPa)
#
#
# Indices 1 2 3 4 5 6 
#
# 1 36.9095 40.9985 31.5429 0.0000 0.0000 0.0000
# 2 40.9985 180.1292 94.5729 0.0000 0.0000 0.0000
# 3 31.5429 94.5729 129.7024 0.0000 0.0000 0.0000
# 4 0.0000 0.0000 0.0000 30.7067 0.0000 0.0000
# 5 0.0000 0.0000 0.0000 0.0000 15.3338 0.0000
# 6 0.0000 0.0000 0.0000 0.0000 0.0000 -3.7245
#
#
#
# Elastic Compliance Matrix: (Units=1/GPa)
#
#
# Indices 1 2 3 4 5 6 
#
# 1 0.037988 -0.006150 -0.004754 0.000000 0.000000 0.000000
# 2 -0.006150 0.009991 -0.005789 0.000000 0.000000 0.000000
# 3 -0.004754 -0.005789 0.013087 0.000000 0.000000 0.000000
# 4 0.000000 0.000000 0.000000 0.032566 0.000000 0.000000
# 5 0.000000 0.000000 0.000000 0.000000 0.065215 0.000000
# 6 0.000000 0.000000 0.000000 0.000000 0.000000 -0.268496
#
#
# Mechanical properties :
#
#
# Convention : Reuss Voigt Hill
#
# Bulk Modulus (GPa) = 36.12834 75.66329 55.89581
# Shear Modulus (GPa) = -74.58734 20.43833 -27.07450
#
# Velocity S-wave (km/s) = -6.32946 3.31327 -3.81342
# Velocity P-wave (km/s) = 5.83189 7.43485 3.26083
#
# Compressibility (1/GPa) = 0.02767910
#
# Stress axis : x y z
#
# Youngs Moduli (GPa) = 26.32437 100.09112 76.41020
#
# Poissons Ratio (x) = 0.61559 0.36324
# Poissons Ratio (y) = 0.16190 0.44235
# Poissons Ratio (z) = 0.12514 0.57944
#
# Static dielectric constant tensor:
#      x y z
#    x 2.918790 0.000000 0.000000 
#    y 0.000000 3.616640 0.000000 
#    z 0.000000 0.000000 3.536840 
# 
# 
# High freq. dielectric constant tensor:
#      x y z
#    x 1.669550 0.000000 0.000000 
#    y 0.000000 1.741590 0.000000 
#    z 0.000000 0.000000 1.731670 
# 
# From -- ./inp_files/1743.got.cif
#   From: 2010.03.12/outbox.cif.g09.slc.cpg/sg47_1_cif.got.tgz:1743.got - 2010.04.14 03:12:58.
