data_PCOD8198669
_publ_section_title
;
Structure prediction by ZEFSAII (Michael W. Deem and Ramdas Pophale) SiO2 
 PCOD8198669
Probable space group: P M M M
;
_chemical_formula_sum "Si O2"
_cell_formula_units_Z 48
_cell_length_a 9.871247
_cell_length_b 8.839094
_cell_length_c 29.363721
_cell_angle_alpha 90.000000
_cell_angle_beta 90.000000
_cell_angle_gamma 90.000000
_cell_volume 2562.069229
_symmetry_space_group_name_H-M "P M M M"
_symmetry_group_IT_number 47
_symmetry_cell_setting 'orthorhombic'
loop_
_space_group_symop_operation_xyz
x,y,z
-x,-y,z
x,-y,-z
-x,y,-z
-x,-y,-z
x,y,-z
-x,y,z
x,-y,z
loop_
_atom_site_type_symbol
_atom_site_label
_atom_site_fract_x
_atom_site_fract_y
_atom_site_fract_z
Si Si1 0.843858 0.323012 0.306711
Si Si2 0.345680 0.179893 0.129455
Si Si3 0.000000 0.820984 0.550547
Si Si4 0.257688 0.821029 0.394364
Si Si5 0.155495 0.823125 0.788095
Si Si6 0.500000 0.321123 0.551821
Si Si7 0.151715 0.820026 0.051014
O O1 0.816498 0.500000 0.311052
O O2 0.749768 0.234959 0.342433
O O3 0.802802 0.269053 0.256583
O O4 0.000000 0.281027 0.316229
O O5 0.500000 0.244343 0.131002
O O6 0.259467 0.232349 0.173204
O O7 0.265644 0.244814 0.085333
O O8 0.350585 0.000000 0.127381
O O9 0.872837 0.763740 0.578681
O O10 0.000000 0.748638 0.500000
O O11 0.000000 0.000000 0.546540
O O12 0.374409 0.740774 0.421187
O O13 0.277864 0.000000 0.394788
O O14 0.000000 0.788159 0.802893
O O15 0.172640 0.000000 0.777799
O O16 0.500000 0.500000 0.552301
O O17 0.500000 0.259525 0.500000
O O18 0.000000 0.763459 0.064492
O O19 0.152459 0.000000 0.053160
O O20 0.187900 0.764640 0.000000
#
# Coordination Sequence:
#
# PCOD8198669 Si02
#       7
#     8   8   4   8   8   4   8
#     4  10  20  35  56  81 109 137 171 218 272 326
#     4   9  16  25  38  60  90 123 162 211 259 302
#     4   9  18  32  55  87 115 137 171 221 266 307
#     4  11  21  37  61  86 113 145 184 226 268 318
#     4   9  17  30  49  69  92 127 170 210 252 307
#     4  11  25  43  59  81 117 155 187 221 266 319
#     4   8  13  21  34  54  84 124 166 204 248 306
#
# _framework density 18.734857000000002
#
# number of rings (size 3 to 8) (size 9 to 14) (size 15 to 20)
#    0.000    2.500    0.833    2.750    0.000    4.333 
#    1.500    1.667    0.000    2.000    0.000    0.000 
#    0.000    0.667    0.000    7.667    0.000    9.833 
#
# Total GULP energy -595067.488871 kJ/mol
# GULP energy per Si atom -12397.239351 kJ/mol
# Density = 1.869222 g / cm^3
# Si number density = 18.734857 Si / 1000 Ang^3
#
#
#
# Elastic Constant Matrix: (Units=GPa)
#
#
# Indices 1 2 3 4 5 6 
#
# 1 145.7698 23.1363 87.7780 0.0000 0.0000 0.0000
# 2 23.1363 35.1022 28.0339 0.0000 0.0000 0.0000
# 3 87.7780 28.0339 155.4367 0.0000 0.0000 0.0000
# 4 0.0000 0.0000 0.0000 10.6428 0.0000 0.0000
# 5 0.0000 0.0000 0.0000 0.0000 37.6754 0.0000
# 6 0.0000 0.0000 0.0000 0.0000 0.0000 17.4895
#
#
#
# Elastic Compliance Matrix: (Units=1/GPa)
#
#
# Indices 1 2 3 4 5 6 
#
# 1 0.010591 -0.002575 -0.005516 0.000000 0.000000 0.000000
# 2 -0.002575 0.033908 -0.004661 0.000000 0.000000 0.000000
# 3 -0.005516 -0.004661 0.010389 0.000000 0.000000 0.000000
# 4 0.000000 0.000000 0.000000 0.093960 0.000000 0.000000
# 5 0.000000 0.000000 0.000000 0.000000 0.026543 0.000000
# 6 0.000000 0.000000 0.000000 0.000000 0.000000 0.057177
#
#
# Mechanical properties :
#
#
# Convention : Reuss Voigt Hill
#
# Bulk Modulus (GPa) = 34.03345 68.24501 51.13923
# Shear Modulus (GPa) = 18.66594 26.31891 22.49243
#
# Velocity S-wave (km/s) = 3.15988 3.75215 3.46868
# Velocity P-wave (km/s) = 5.61413 7.43487 6.58770
#
# Compressibility (1/GPa) = 0.02938285
#
# Stress axis : x y z
#
# Youngs Moduli (GPa) = 94.42390 29.49144 96.25229
#
# Poissons Ratio (x) = 0.07594 0.53096
# Poissons Ratio (y) = 0.24313 0.44868
# Poissons Ratio (z) = 0.52087 0.13747
#
# Static dielectric constant tensor:
#      x y z
#    x 3.518820 0.000000 0.000000 
#    y 0.000000 2.990280 0.000000 
#    z 0.000000 0.000000 3.666520 
# 
# 
# High freq. dielectric constant tensor:
#      x y z
#    x 1.724630 0.000000 0.000000 
#    y 0.000000 1.683760 0.000000 
#    z 0.000000 0.000000 1.742800 
# 
# From -- ./inp_files/34054.got.cif
#   From: 2010.03.12/outbox.cif.g09.slc.cpg/sg47_18_cif.got.tgz:34054.got - 2010.04.14 03:12:58.
