data_PCOD8198965
_publ_section_title
;
Structure prediction by ZEFSAII (Michael W. Deem and Ramdas Pophale) SiO2 
 PCOD8198965
Probable space group: P M M M
;
_chemical_formula_sum "Si O2"
_cell_formula_units_Z 48
_cell_length_a 9.543648
_cell_length_b 28.466518
_cell_length_c 9.542909
_cell_angle_alpha 90.000000
_cell_angle_beta 90.000000
_cell_angle_gamma 90.000000
_cell_volume 2592.564340
_symmetry_space_group_name_H-M "P M M M"
_symmetry_group_IT_number 47
_symmetry_cell_setting 'orthorhombic'
loop_
_space_group_symop_operation_xyz
x,y,z
-x,-y,z
x,-y,-z
-x,y,-z
-x,-y,-z
x,y,-z
-x,y,z
x,-y,z
loop_
_atom_site_type_symbol
_atom_site_label
_atom_site_fract_x
_atom_site_fract_y
_atom_site_fract_z
Si Si1 0.722286 0.602811 0.162569
Si Si2 0.158683 0.054993 0.838839
Si Si3 0.163439 0.783395 0.336101
Si Si4 0.500000 0.445063 0.654415
Si Si5 0.337489 0.124757 0.336148
Si Si6 0.000000 0.447690 0.163126
Si Si7 0.338726 0.289793 0.836716
O O1 0.632835 0.569893 0.259220
O O2 0.697734 0.656826 0.200041
O O3 0.874543 0.585993 0.206337
O O4 0.685957 0.593777 0.000000
O O5 0.273655 0.080725 0.745153
O O6 0.000000 0.068359 0.792533
O O7 0.183316 0.000000 0.818158
O O8 0.181599 0.069354 0.000000
O O9 0.180901 0.772844 0.500000
O O10 0.247796 0.829900 0.292585
O O11 0.231170 0.740890 0.251661
O O12 0.000000 0.789230 0.295444
O O13 0.500000 0.500000 0.638113
O O14 0.500000 0.421608 0.500000
O O15 0.323290 0.114243 0.500000
O O16 0.500000 0.132237 0.293657
O O17 0.000000 0.500000 0.235531
O O18 0.000000 0.457457 0.000000
O O19 0.500000 0.279210 0.794836
O O20 0.314214 0.279283 0.000000
#
# Coordination Sequence:
#
# PCOD8198965 Si02
#       7
#     8   8   8   4   8   4   8
#     4  10  20  37  59  82 110 145 184 227 273 326
#     4   9  19  36  57  82 114 152 193 236 283 335
#     4  10  22  39  59  83 110 145 188 228 275 337
#     4  11  23  37  55  83 115 147 185 225 270 325
#     4  10  21  37  57  82 113 149 190 235 280 330
#     4   9  18  32  55  85 109 137 181 227 272 321
#     4  10  21  37  57  83 111 141 182 228 276 329
#
# _framework density 18.514486999999999
#
# number of rings (size 3 to 8) (size 9 to 14) (size 15 to 20)
#    0.000    2.167    0.833    2.250    1.167    6.000 
#    0.000    2.917    0.000    1.500    0.000    0.000 
#    0.000    0.000    0.000    0.000    0.000    0.000 
#
# Total GULP energy -595117.536647 kJ/mol
# GULP energy per Si atom -12398.282013 kJ/mol
# Density = 1.847235 g / cm^3
# Si number density = 18.514487 Si / 1000 Ang^3
#
#
#
# Elastic Constant Matrix: (Units=GPa)
#
#
# Indices 1 2 3 4 5 6 
#
# 1 162.5188 63.5631 53.1792 0.0000 0.0000 0.0000
# 2 63.5631 87.3890 45.2654 0.0000 0.0000 0.0000
# 3 53.1792 45.2654 59.8366 0.0000 0.0000 0.0000
# 4 0.0000 0.0000 0.0000 31.9166 0.0000 0.0000
# 5 0.0000 0.0000 0.0000 0.0000 49.8187 0.0000
# 6 0.0000 0.0000 0.0000 0.0000 0.0000 41.1540
#
#
#
# Elastic Compliance Matrix: (Units=1/GPa)
#
#
# Indices 1 2 3 4 5 6 
#
# 1 0.009523 -0.004181 -0.005300 0.000000 0.000000 0.000000
# 2 -0.004181 0.020652 -0.011907 0.000000 0.000000 0.000000
# 3 -0.005300 -0.011907 0.030430 0.000000 0.000000 0.000000
# 4 0.000000 0.000000 0.000000 0.031332 0.000000 0.000000
# 5 0.000000 0.000000 0.000000 0.000000 0.020073 0.000000
# 6 0.000000 0.000000 0.000000 0.000000 0.000000 0.024299
#
#
# Mechanical properties :
#
#
# Convention : Reuss Voigt Hill
#
# Bulk Modulus (GPa) = 56.09108 70.41776 63.25442
# Shear Modulus (GPa) = 27.02309 34.42699 30.72504
#
# Velocity S-wave (km/s) = 3.82457 4.31683 4.07813
# Velocity P-wave (km/s) = 7.06149 7.93493 7.51092
#
# Compressibility (1/GPa) = 0.01782815
#
# Stress axis : x y z
#
# Youngs Moduli (GPa) = 105.01170 48.42246 32.86210
#
# Poissons Ratio (x) = 0.20245 0.17418
# Poissons Ratio (y) = 0.43905 0.39128
# Poissons Ratio (z) = 0.55661 0.57656
#
# Static dielectric constant tensor:
#      x y z
#    x 3.434920 0.000000 0.000000 
#    y 0.000000 3.394270 0.000000 
#    z 0.000000 0.000000 3.330910 
# 
# 
# High freq. dielectric constant tensor:
#      x y z
#    x 1.732980 0.000000 0.000000 
#    y 0.000000 1.724040 0.000000 
#    z 0.000000 0.000000 1.705690 
# 
# From -- ./inp_files/2757.got.cif
#   From: 2010.03.12/outbox.cif.g09.slc.cpg/sg47_2_cif.got.tgz:2757.got - 2010.04.14 03:12:58.
