data_PCOD8198579
_publ_section_title
;
Structure prediction by ZEFSAII (Michael W. Deem and Ramdas Pophale) SiO2 
 PCOD8198579
Probable space group: P M M M
;
_chemical_formula_sum "Si O2"
_cell_formula_units_Z 52
_cell_length_a 15.800947
_cell_length_b 9.204571
_cell_length_c 19.558930
_cell_angle_alpha 90.000000
_cell_angle_beta 90.000000
_cell_angle_gamma 90.000000
_cell_volume 2844.669136
_symmetry_space_group_name_H-M "P M M M"
_symmetry_group_IT_number 47
_symmetry_cell_setting 'orthorhombic'
loop_
_space_group_symop_operation_xyz
x,y,z
-x,-y,z
x,-y,-z
-x,y,-z
-x,-y,-z
x,y,-z
-x,y,z
x,-y,z
loop_
_atom_site_type_symbol
_atom_site_label
_atom_site_fract_x
_atom_site_fract_y
_atom_site_fract_z
Si Si1 0.241300 0.668636 0.286876
Si Si2 0.094795 0.168154 0.206436
Si Si3 0.660989 0.329460 0.926171
Si Si4 0.143169 0.668275 0.077550
Si Si5 0.000000 0.838785 0.581111
Si Si6 0.162586 0.333394 0.423665
Si Si7 0.592570 0.326775 0.786208
O O1 0.232601 0.500000 0.266189
O O2 0.163324 0.750183 0.252364
O O3 0.238270 0.689340 0.369315
O O4 0.332294 0.731468 0.262738
O O5 0.091669 0.232344 0.129819
O O6 0.000000 0.187313 0.237773
O O7 0.120198 0.000000 0.202874
O O8 0.646504 0.500000 0.930918
O O9 0.758476 0.296473 0.911012
O O10 0.606623 0.265726 0.863306
O O11 0.634058 0.260924 0.000000
O O12 0.124119 0.500000 0.093135
O O13 0.115832 0.705962 0.000000
O O14 0.916166 0.757176 0.605599
O O15 0.000000 0.843971 0.500000
O O16 0.000000 0.000000 0.613169
O O17 0.191437 0.282813 0.500000
O O18 0.133395 0.500000 0.426086
O O19 0.500000 0.272162 0.760703
O O20 0.595047 0.500000 0.786707
#
# Coordination Sequence:
#
# PCOD8198579 Si02
#       7
#     8   8   8   8   4   8   8
#     4  10  20  35  54  74 100 134 170 208 253 305
#     4  11  24  37  49  71 103 137 173 213 256 302
#     4   8  13  23  42  69  98 124 154 197 246 294
#     4   9  17  32  54  75  97 130 175 220 255 295
#     4   9  17  29  47  73 103 131 160 199 246 295
#     4   9  18  32  50  72  99 133 172 209 246 295
#     4   9  16  27  47  75 102 127 161 208 256 299
#
# _framework density 18.279806000000001
#
# number of rings (size 3 to 8) (size 9 to 14) (size 15 to 20)
#    0.000    2.692    1.538    1.615    1.077    3.692 
#    0.000    3.077    0.000    0.923    0.000    3.231 
#    0.000    2.462    0.000    5.231    0.000    5.538 
#
# Total GULP energy -644399.396863 kJ/mol
# GULP energy per Si atom -12392.296094 kJ/mol
# Density = 1.823820 g / cm^3
# Si number density = 18.279806 Si / 1000 Ang^3
#
#
#
# Elastic Constant Matrix: (Units=GPa)
#
#
# Indices 1 2 3 4 5 6 
#
# 1 123.6292 33.9391 66.5290 0.0000 0.0000 0.0000
# 2 33.9391 49.9088 29.2585 0.0000 0.0000 0.0000
# 3 66.5290 29.2585 106.2111 0.0000 0.0000 0.0000
# 4 0.0000 0.0000 0.0000 11.5989 0.0000 0.0000
# 5 0.0000 0.0000 0.0000 0.0000 20.7103 0.0000
# 6 0.0000 0.0000 0.0000 0.0000 0.0000 4.9513
#
#
#
# Elastic Compliance Matrix: (Units=1/GPa)
#
#
# Indices 1 2 3 4 5 6 
#
# 1 0.013135 -0.004900 -0.006878 0.000000 0.000000 0.000000
# 2 -0.004900 0.025724 -0.004017 0.000000 0.000000 0.000000
# 3 -0.006878 -0.004017 0.014830 0.000000 0.000000 0.000000
# 4 0.000000 0.000000 0.000000 0.086215 0.000000 0.000000
# 5 0.000000 0.000000 0.000000 0.000000 0.048285 0.000000
# 6 0.000000 0.000000 0.000000 0.000000 0.000000 0.201968
#
#
# Mechanical properties :
#
#
# Convention : Reuss Voigt Hill
#
# Bulk Modulus (GPa) = 45.25073 59.91137 52.58105
# Shear Modulus (GPa) = 11.65196 17.45359 14.55277
#
# Velocity S-wave (km/s) = 2.52746 3.09334 2.82461
# Velocity P-wave (km/s) = 5.77284 6.75308 6.28211
#
# Compressibility (1/GPa) = 0.02209909
#
# Stress axis : x y z
#
# Youngs Moduli (GPa) = 76.13227 38.87485 67.43166
#
# Poissons Ratio (x) = 0.19049 0.46378
# Poissons Ratio (y) = 0.37306 0.27086
# Poissons Ratio (z) = 0.52362 0.15615
#
# Static dielectric constant tensor:
#      x y z
#    x 3.387920 0.000000 0.000000 
#    y 0.000000 3.054240 0.000000 
#    z 0.000000 0.000000 3.490260 
# 
# 
# High freq. dielectric constant tensor:
#      x y z
#    x 1.690620 0.000000 0.000000 
#    y 0.000000 1.665160 0.000000 
#    z 0.000000 0.000000 1.714750 
# 
# From -- ./inp_files/30883.got.cif
#   From: 2010.03.12/outbox.cif.g09.slc.cpg/sg47_16_cif.got.tgz:30883.got - 2010.04.14 03:12:58.
