data_PCOD8198812
_publ_section_title
;
Structure prediction by ZEFSAII (Michael W. Deem and Ramdas Pophale) SiO2 
 PCOD8198812
Probable space group: P M M M
;
_chemical_formula_sum "Si O2"
_cell_formula_units_Z 40
_cell_length_a 8.125802
_cell_length_b 9.211101
_cell_length_c 27.583201
_cell_angle_alpha 90.000000
_cell_angle_beta 90.000000
_cell_angle_gamma 90.000000
_cell_volume 2064.535924
_symmetry_space_group_name_H-M "P M M M"
_symmetry_group_IT_number 47
_symmetry_cell_setting 'orthorhombic'
loop_
_space_group_symop_operation_xyz
x,y,z
-x,-y,z
x,-y,-z
-x,y,-z
-x,-y,-z
x,y,-z
-x,y,z
x,-y,z
loop_
_atom_site_type_symbol
_atom_site_label
_atom_site_fract_x
_atom_site_fract_y
_atom_site_fract_z
Si Si1 0.000000 0.327529 0.945632
Si Si2 0.685224 0.330429 0.884760
Si Si3 0.683894 0.672663 0.401622
Si Si4 0.304277 0.333135 0.704122
Si Si5 0.811018 0.832981 0.204632
Si Si6 0.811283 0.341244 0.500000
O O1 0.169109 0.272230 0.920077
O O2 0.000000 0.500000 0.946872
O O3 0.000000 0.263808 0.000000
O O4 0.500000 0.302112 0.906192
O O5 0.711346 0.500000 0.874970
O O6 0.696758 0.250110 0.833530
O O7 0.500000 0.730308 0.403052
O O8 0.694828 0.500000 0.403953
O O9 0.759882 0.718000 0.349408
O O10 0.767474 0.742423 0.449775
O O11 0.500000 0.315124 0.707614
O O12 0.255102 0.500000 0.714080
O O13 0.213752 0.231692 0.742243
O O14 0.000000 0.814039 0.188926
O O15 0.757563 0.000000 0.205321
O O16 0.721518 0.500000 0.500000
O O17 0.000000 0.369164 0.500000
#
# Coordination Sequence:
#
# PCOD8198812 Si02
#       6
#     4   8   8   8   8   4
#     4   9  18  34  57  87 121 149 177 220 267 308
#     4  10  20  35  58  85 112 146 185 221 263 315
#     4   8  14  25  40  59  87 122 157 196 246 303
#     4   9  18  32  50  73  99 129 169 214 261 315
#     4  11  23  36  51  74 105 141 179 219 266 318
#     4   9  15  21  33  57  88 119 154 195 240 294
#
# _framework density 19.374813
#
# number of rings (size 3 to 8) (size 9 to 14) (size 15 to 20)
#    0.000    2.600    1.000    2.700    0.000    6.800 
#    0.000    4.000    0.000    1.200    0.000    2.100 
#    0.000    5.600    0.000    0.000    0.000    0.000 
#
# Total GULP energy -495598.455816 kJ/mol
# GULP energy per Si atom -12389.961395 kJ/mol
# Density = 1.933072 g / cm^3
# Si number density = 19.374813 Si / 1000 Ang^3
#
#
#
# Elastic Constant Matrix: (Units=GPa)
#
#
# Indices 1 2 3 4 5 6 
#
# 1 95.4381 27.6069 57.4170 0.0000 0.0000 0.0000
# 2 27.6069 46.5448 34.7786 0.0000 0.0000 0.0000
# 3 57.4170 34.7786 158.0478 0.0000 0.0000 0.0000
# 4 0.0000 0.0000 0.0000 -0.3333 0.0000 0.0000
# 5 0.0000 0.0000 0.0000 0.0000 32.5150 0.0000
# 6 0.0000 0.0000 0.0000 0.0000 0.0000 15.7795
#
#
#
# Elastic Compliance Matrix: (Units=1/GPa)
#
#
# Indices 1 2 3 4 5 6 
#
# 1 0.014532 -0.005594 -0.004048 0.000000 0.000000 0.000000
# 2 -0.005594 0.027866 -0.004100 0.000000 0.000000 0.000000
# 3 -0.004048 -0.004100 0.008700 0.000000 0.000000 0.000000
# 4 0.000000 0.000000 0.000000 -3.000328 0.000000 0.000000
# 5 0.000000 0.000000 0.000000 0.000000 0.030755 0.000000
# 6 0.000000 0.000000 0.000000 0.000000 0.000000 0.063373
#
#
# Mechanical properties :
#
#
# Convention : Reuss Voigt Hill
#
# Bulk Modulus (GPa) = 42.34852 59.95953 51.15403
# Shear Modulus (GPa) = -1.77321 21.60746 9.91713
#
# Velocity S-wave (km/s) = -0.95771 3.34314 2.26488
# Velocity P-wave (km/s) = 4.54775 6.77616 5.77055
#
# Compressibility (1/GPa) = 0.02361357
#
# Stress axis : x y z
#
# Youngs Moduli (GPa) = 68.81528 35.88594 114.94287
#
# Poissons Ratio (x) = 0.20076 0.46531
# Poissons Ratio (y) = 0.38497 0.47122
# Poissons Ratio (z) = 0.27858 0.14712
#
# Static dielectric constant tensor:
#      x y z
#    x 3.542280 0.000000 0.000000 
#    y 0.000000 3.008790 0.000000 
#    z 0.000000 0.000000 3.897760 
# 
# 
# High freq. dielectric constant tensor:
#      x y z
#    x 1.753970 0.000000 0.000000 
#    y 0.000000 1.690230 0.000000 
#    z 0.000000 0.000000 1.768310 
# 
# From -- ./inp_files/33089.got.cif
#   From: 2010.03.12/outbox.cif.g09.slc.cpg/sg47_17_cif.got.tgz:33089.got - 2010.04.14 03:12:58.
