data_PCOD8198336
_publ_section_title
;
Structure prediction by ZEFSAII (Michael W. Deem and Ramdas Pophale) SiO2 
 PCOD8198336
Probable space group: P M M M
;
_chemical_formula_sum "Si O2"
_cell_formula_units_Z 48
_cell_length_a 9.043047
_cell_length_b 30.875194
_cell_length_c 9.167942
_cell_angle_alpha 90.000000
_cell_angle_beta 90.000000
_cell_angle_gamma 90.000000
_cell_volume 2559.742860
_symmetry_space_group_name_H-M "P M M M"
_symmetry_group_IT_number 47
_symmetry_cell_setting 'orthorhombic'
loop_
_space_group_symop_operation_xyz
x,y,z
-x,-y,z
x,-y,-z
-x,y,-z
-x,-y,-z
x,y,-z
-x,y,z
x,-y,z
loop_
_atom_site_type_symbol
_atom_site_label
_atom_site_fract_x
_atom_site_fract_y
_atom_site_fract_z
Si Si1 0.827425 0.248021 0.667858
Si Si2 0.332921 0.500000 0.826440
Si Si3 0.669994 0.171605 0.828378
Si Si4 0.830911 0.585568 0.173054
Si Si5 0.327748 0.336559 0.669489
Si Si6 0.672644 0.914861 0.332304
Si Si7 0.166858 0.000000 0.326508
O O1 0.792602 0.236656 0.500000
O O2 0.772973 0.209177 0.767781
O O3 0.741668 0.290982 0.716734
O O4 0.000000 0.255913 0.693980
O O5 0.500000 0.500000 0.765124
O O6 0.248530 0.542331 0.767600
O O7 0.333264 0.500000 0.000000
O O8 0.500000 0.180988 0.784756
O O9 0.724159 0.126558 0.759480
O O10 0.690696 0.168577 0.000000
O O11 0.749148 0.626632 0.237528
O O12 0.000000 0.584769 0.226282
O O13 0.820627 0.588211 0.000000
O O14 0.298502 0.345867 0.500000
O O15 0.500000 0.335526 0.707550
O O16 0.716772 0.906448 0.500000
O O17 0.500000 0.923675 0.315364
O O18 0.754299 0.956858 0.266691
O O19 0.177712 0.000000 0.500000
O O20 0.000000 0.000000 0.269508
#
# Coordination Sequence:
#
# PCOD8198336 Si02
#       7
#     8   4   8   8   8   8   4
#     4  10  21  37  57  79 103 135 174 214 259 312
#     4   9  17  31  52  77 106 141 180 220 260 305
#     4  10  21  36  54  78 107 138 173 214 260 309
#     4  10  20  34  54  80 109 141 177 217 262 312
#     4  10  21  37  57  80 106 137 174 217 264 313
#     4   9  17  31  52  75 100 133 172 212 255 304
#     4   9  17  29  48  75 102 128 166 215 258 299
#
# _framework density 18.751882999999999
#
# number of rings (size 3 to 8) (size 9 to 14) (size 15 to 20)
#    0.000    2.333    0.000    2.500    0.000    7.333 
#    0.000    2.500    0.000    5.000    0.000    0.000 
#    0.000    0.000    0.000    0.000    0.000    0.000 
#
# Total GULP energy -595367.027091 kJ/mol
# GULP energy per Si atom -12403.479731 kJ/mol
# Density = 1.870920 g / cm^3
# Si number density = 18.751883 Si / 1000 Ang^3
#
#
#
# Elastic Constant Matrix: (Units=GPa)
#
#
# Indices 1 2 3 4 5 6 
#
# 1 121.6348 82.5092 35.0636 0.0000 0.0000 0.0000
# 2 82.5092 165.9741 46.9336 0.0000 0.0000 0.0000
# 3 35.0636 46.9336 43.3193 0.0000 0.0000 0.0000
# 4 0.0000 0.0000 0.0000 43.4010 0.0000 0.0000
# 5 0.0000 0.0000 0.0000 0.0000 24.0768 0.0000
# 6 0.0000 0.0000 0.0000 0.0000 0.0000 9.4465
#
#
#
# Elastic Compliance Matrix: (Units=1/GPa)
#
#
# Indices 1 2 3 4 5 6 
#
# 1 0.013151 -0.005086 -0.005135 0.000000 0.000000 0.000000
# 2 -0.005086 0.010653 -0.007425 0.000000 0.000000 0.000000
# 3 -0.005135 -0.007425 0.035285 0.000000 0.000000 0.000000
# 4 0.000000 0.000000 0.000000 0.023041 0.000000 0.000000
# 5 0.000000 0.000000 0.000000 0.000000 0.041534 0.000000
# 6 0.000000 0.000000 0.000000 0.000000 0.000000 0.105859
#
#
# Mechanical properties :
#
#
# Convention : Reuss Voigt Hill
#
# Bulk Modulus (GPa) = 42.02042 73.32679 57.67360
# Shear Modulus (GPa) = 18.33191 26.47965 22.40578
#
# Velocity S-wave (km/s) = 3.13006 3.76188 3.46042
# Velocity P-wave (km/s) = 5.95989 7.61955 6.84024
#
# Compressibility (1/GPa) = 0.02379795
#
# Stress axis : x y z
#
# Youngs Moduli (GPa) = 76.03713 93.87030 28.34031
#
# Poissons Ratio (x) = 0.47741 0.14552
# Poissons Ratio (y) = 0.38671 0.21043
# Poissons Ratio (z) = 0.39044 0.69701
#
# Static dielectric constant tensor:
#      x y z
#    x 3.566970 0.000000 0.000000 
#    y 0.000000 3.618260 0.000000 
#    z 0.000000 0.000000 3.187030 
# 
# 
# High freq. dielectric constant tensor:
#      x y z
#    x 1.737280 0.000000 0.000000 
#    y 0.000000 1.743790 0.000000 
#    z 0.000000 0.000000 1.700640 
# 
# From -- ./inp_files/2637.got.cif
#   From: 2010.03.12/outbox.cif.g09.slc.cpg/sg47_2_cif.got.tgz:2637.got - 2010.04.14 03:12:58.
