data_PCOD8198082
_publ_section_title
;
Structure prediction by ZEFSAII (Michael W. Deem and Ramdas Pophale) SiO2 
 PCOD8198082
Probable space group: P M M M
;
_chemical_formula_sum "Si O2"
_cell_formula_units_Z 40
_cell_length_a 8.713009
_cell_length_b 26.158548
_cell_length_c 9.068736
_cell_angle_alpha 90.000000
_cell_angle_beta 90.000000
_cell_angle_gamma 90.000000
_cell_volume 2066.943263
_symmetry_space_group_name_H-M "P M M M"
_symmetry_group_IT_number 47
_symmetry_cell_setting 'orthorhombic'
loop_
_space_group_symop_operation_xyz
x,y,z
-x,-y,z
x,-y,-z
-x,y,-z
-x,-y,-z
x,y,-z
-x,y,z
x,-y,z
loop_
_atom_site_type_symbol
_atom_site_label
_atom_site_fract_x
_atom_site_fract_y
_atom_site_fract_z
Si Si1 0.679354 0.808896 0.827569
Si Si2 0.668515 0.500000 0.175389
Si Si3 0.318801 0.000000 0.833573
Si Si4 0.317652 0.292693 0.664939
Si Si5 0.316011 0.390485 0.165996
Si Si6 0.179825 0.904295 0.330524
O O1 0.500000 0.818071 0.795234
O O2 0.735885 0.754495 0.765413
O O3 0.777376 0.851545 0.746337
O O4 0.715078 0.810702 0.000000
O O5 0.500000 0.500000 0.248184
O O6 0.750177 0.553831 0.221115
O O7 0.652339 0.500000 0.000000
O O8 0.265127 0.949956 0.749713
O O9 0.500000 0.000000 0.838191
O O10 0.252273 0.000000 0.000000
O O11 0.252983 0.285370 0.500000
O O12 0.500000 0.295591 0.664130
O O13 0.250602 0.345524 0.730698
O O14 0.500000 0.392590 0.170094
O O15 0.260415 0.378868 0.000000
O O16 0.233205 0.902468 0.500000
O O17 0.000000 0.913907 0.317453
#
# Coordination Sequence:
#
# PCOD8198082 Si02
#       6
#     8   4   4   8   8   8
#     4  10  20  34  53  76 100 130 171 214 254 300
#     4   7  10  16  27  43  65  99 144 191 238 289
#     4  11  24  41  62  88 114 141 176 213 246 286
#     4   9  16  25  38  58  85 117 154 199 250 299
#     4   8  12  19  31  47  70 104 148 195 241 292
#     4  11  24  40  58  82 111 141 172 207 251 301
#
# _framework density 19.352247999999999
#
# number of rings (size 3 to 8) (size 9 to 14) (size 15 to 20)
#    0.000    2.600    0.000    4.200    0.000    9.600 
#    0.000    0.500    0.000    3.000    0.000    0.000 
#    0.000    0.000    0.000    0.900    0.000   18.400 
#
# Total GULP energy -495781.505240 kJ/mol
# GULP energy per Si atom -12394.537631 kJ/mol
# Density = 1.930820 g / cm^3
# Si number density = 19.352248 Si / 1000 Ang^3
#
#
#
# Elastic Constant Matrix: (Units=GPa)
#
#
# Indices 1 2 3 4 5 6 
#
# 1 23.5116 19.7290 23.7272 0.0000 0.0000 0.0000
# 2 19.7290 171.7552 71.7520 0.0000 0.0000 0.0000
# 3 23.7272 71.7520 134.3195 0.0000 0.0000 0.0000
# 4 0.0000 0.0000 0.0000 64.4400 0.0000 0.0000
# 5 0.0000 0.0000 0.0000 0.0000 16.1046 0.0000
# 6 0.0000 0.0000 0.0000 0.0000 0.0000 5.9637
#
#
#
# Elastic Compliance Matrix: (Units=1/GPa)
#
#
# Indices 1 2 3 4 5 6 
#
# 1 0.052778 -0.002790 -0.007833 0.000000 0.000000 0.000000
# 2 -0.002790 0.007642 -0.003590 0.000000 0.000000 0.000000
# 3 -0.007833 -0.003590 0.010746 0.000000 0.000000 0.000000
# 4 0.000000 0.000000 0.000000 0.015518 0.000000 0.000000
# 5 0.000000 0.000000 0.000000 0.000000 0.062094 0.000000
# 6 0.000000 0.000000 0.000000 0.000000 0.000000 0.167681
#
#
# Mechanical properties :
#
#
# Convention : Reuss Voigt Hill
#
# Bulk Modulus (GPa) = 23.39645 62.22252 42.80949
# Shear Modulus (GPa) = 13.92245 31.59353 22.75799
#
# Velocity S-wave (km/s) = 2.68512 4.04487 3.43299
# Velocity P-wave (km/s) = 4.66146 7.35099 6.15492
#
# Compressibility (1/GPa) = 0.04274152
#
# Stress axis : x y z
#
# Youngs Moduli (GPa) = 18.94728 130.85044 93.05774
#
# Poissons Ratio (x) = 0.36512 0.72888
# Poissons Ratio (y) = 0.05287 0.33403
# Poissons Ratio (z) = 0.14841 0.46969
#
# Static dielectric constant tensor:
#      x y z
#    x 2.962870 0.000000 0.000000 
#    y 0.000000 2.562710 0.000000 
#    z 0.000000 0.000000 3.675130 
# 
# 
# High freq. dielectric constant tensor:
#      x y z
#    x 1.689310 0.000000 0.000000 
#    y 0.000000 1.781020 0.000000 
#    z 0.000000 0.000000 1.752060 
# 
# From -- ./inp_files/1686.got.cif
#   From: 2010.03.12/outbox.cif.g09.slc.cpg/sg47_1_cif.got.tgz:1686.got - 2010.04.14 03:12:58.
