data_PCOD8198035
_publ_section_title
;
Structure prediction by ZEFSAII (Michael W. Deem and Ramdas Pophale) SiO2 
 PCOD8198035
Probable space group: P M M M
;
_chemical_formula_sum "Si O2"
_cell_formula_units_Z 52
_cell_length_a 14.033536
_cell_length_b 12.796487
_cell_length_c 17.134341
_cell_angle_alpha 90.000000
_cell_angle_beta 90.000000
_cell_angle_gamma 90.000000
_cell_volume 3076.984288
_symmetry_space_group_name_H-M "P M M M"
_symmetry_group_IT_number 47
_symmetry_cell_setting 'orthorhombic'
loop_
_space_group_symop_operation_xyz
x,y,z
-x,-y,z
x,-y,-z
-x,y,-z
-x,-y,-z
x,y,-z
-x,y,z
x,-y,z
loop_
_atom_site_type_symbol
_atom_site_label
_atom_site_fract_x
_atom_site_fract_y
_atom_site_fract_z
Si Si1 0.292196 0.117838 0.500000
Si Si2 0.278975 0.297522 0.907785
Si Si3 0.606814 0.500000 0.092731
Si Si4 0.108853 0.619174 0.181735
Si Si5 0.107100 0.740901 0.669179
Si Si6 0.104987 0.225676 0.500000
Si Si7 0.389553 0.878807 0.176790
Si Si8 0.713439 0.877032 0.667653
O O1 0.177108 0.128001 0.500000
O O2 0.326648 0.167451 0.583277
O O3 0.326785 0.000000 0.500000
O O4 0.340694 0.395822 0.877065
O O5 0.174298 0.305019 0.870161
O O6 0.328979 0.189975 0.883093
O O7 0.267631 0.298521 0.000000
O O8 0.500000 0.500000 0.127071
O O9 0.604467 0.500000 0.000000
O O10 0.138407 0.500000 0.166358
O O11 0.123068 0.642592 0.273781
O O12 0.000000 0.639280 0.156130
O O13 0.119759 0.704524 0.578513
O O14 0.184608 0.828694 0.690537
O O15 0.000000 0.786541 0.682022
O O16 0.000000 0.175519 0.500000
O O17 0.500000 0.853929 0.163950
O O18 0.363091 0.849808 0.265936
O O19 0.366519 0.000000 0.159526
O O20 0.730328 0.000000 0.659525
#
# Coordination Sequence:
#
# PCOD8198035 Si02
#       8
#     4   8   4   8   8   4   8   8
#     4   8  14  23  39  65  95 126 158 194 239 286
#     4  11  21  35  55  76 100 129 162 208 258 302
#     4   9  18  32  51  77 101 120 152 203 260 305
#     4  10  20  34  52  75 103 132 163 201 247 300
#     4   9  16  28  46  69  98 130 162 198 240 288
#     4   8  14  23  39  65  95 126 160 196 235 282
#     4  10  21  36  53  74 101 133 168 206 250 301
#     4   9  16  28  46  69  98 129 161 199 241 288
#
# _framework density 16.899664000000001
#
# number of rings (size 3 to 8) (size 9 to 14) (size 15 to 20)
#    0.000    2.538    2.308    0.462    0.000    2.000 
#    0.000    5.385    0.000    5.077    0.000    1.077 
#    0.000    0.000    0.000    8.462    0.000    1.077 
#
# Total GULP energy -644277.406702 kJ/mol
# GULP energy per Si atom -12389.950129 kJ/mol
# Density = 1.686120 g / cm^3
# Si number density = 16.899664 Si / 1000 Ang^3
#
#
#
# Elastic Constant Matrix: (Units=GPa)
#
#
# Indices 1 2 3 4 5 6 
#
# 1 81.9040 40.0687 39.8391 0.0000 0.0000 0.0000
# 2 40.0687 60.0591 36.1135 0.0000 0.0000 0.0000
# 3 39.8391 36.1135 89.6435 0.0000 0.0000 0.0000
# 4 0.0000 0.0000 0.0000 20.6022 0.0000 0.0000
# 5 0.0000 0.0000 0.0000 0.0000 21.0453 0.0000
# 6 0.0000 0.0000 0.0000 0.0000 0.0000 24.3993
#
#
#
# Elastic Compliance Matrix: (Units=1/GPa)
#
#
# Indices 1 2 3 4 5 6 
#
# 1 0.019409 -0.010244 -0.004499 0.000000 0.000000 0.000000
# 2 -0.010244 0.027379 -0.006477 0.000000 0.000000 0.000000
# 3 -0.004499 -0.006477 0.015764 0.000000 0.000000 0.000000
# 4 0.000000 0.000000 0.000000 0.048539 0.000000 0.000000
# 5 0.000000 0.000000 0.000000 0.000000 0.047517 0.000000
# 6 0.000000 0.000000 0.000000 0.000000 0.000000 0.040985
#
#
# Mechanical properties :
#
#
# Convention : Reuss Voigt Hill
#
# Bulk Modulus (GPa) = 49.72069 51.51657 50.61863
# Shear Modulus (GPa) = 20.10157 20.91505 20.50831
#
# Velocity S-wave (km/s) = 3.45260 3.52177 3.48736
# Velocity P-wave (km/s) = 6.73639 6.86201 6.79949
#
# Compressibility (1/GPa) = 0.02011235
#
# Stress axis : x y z
#
# Youngs Moduli (GPa) = 51.52212 36.52406 63.43471
#
# Poissons Ratio (x) = 0.37414 0.28540
# Poissons Ratio (y) = 0.52777 0.41090
# Poissons Ratio (z) = 0.23180 0.23658
#
# Static dielectric constant tensor:
#      x y z
#    x 3.171390 0.000000 0.000000 
#    y 0.000000 2.938850 0.000000 
#    z 0.000000 0.000000 3.371720 
# 
# 
# High freq. dielectric constant tensor:
#      x y z
#    x 1.648610 0.000000 0.000000 
#    y 0.000000 1.618540 0.000000 
#    z 0.000000 0.000000 1.659270 
# 
# From -- ./inp_files/28211.got.cif
#   From: 2010.03.12/outbox.cif.g09.slc.cpg/sg47_15_cif.got.tgz:28211.got - 2010.04.14 03:12:58.
