data_PCOD8198527
_publ_section_title
;
Structure prediction by ZEFSAII (Michael W. Deem and Ramdas Pophale) SiO2 
 PCOD8198527
Probable space group: P M M M
;
_chemical_formula_sum "Si O2"
_cell_formula_units_Z 64
_cell_length_a 9.468788
_cell_length_b 24.697099
_cell_length_c 14.429193
_cell_angle_alpha 90.000000
_cell_angle_beta 90.000000
_cell_angle_gamma 90.000000
_cell_volume 3374.289793
_symmetry_space_group_name_H-M "P M M M"
_symmetry_group_IT_number 47
_symmetry_cell_setting 'orthorhombic'
loop_
_space_group_symop_operation_xyz
x,y,z
-x,-y,z
x,-y,-z
-x,y,-z
-x,-y,-z
x,y,-z
-x,y,z
x,-y,z
loop_
_atom_site_type_symbol
_atom_site_label
_atom_site_fract_x
_atom_site_fract_y
_atom_site_fract_z
Si Si1 0.662555 0.062521 0.727912
Si Si2 0.157739 0.901008 0.895399
Si Si3 0.840309 0.561527 0.608591
Si Si4 0.654513 0.765516 0.701930
Si Si5 0.335825 0.357177 0.727078
Si Si6 0.156788 0.664601 0.103281
Si Si7 0.164463 0.145177 0.390712
Si Si8 0.251625 0.217478 0.102227
O O1 0.500000 0.082544 0.728731
O O2 0.727446 0.071377 0.829532
O O3 0.750865 0.094963 0.651649
O O4 0.671678 0.000000 0.700282
O O5 0.157709 0.836095 0.886140
O O6 0.000000 0.920735 0.868793
O O7 0.195240 0.918895 0.000000
O O8 0.814712 0.566705 0.500000
O O9 0.813711 0.500000 0.641042
O O10 0.729252 0.599991 0.657535
O O11 0.000000 0.579073 0.633788
O O12 0.500000 0.778129 0.658968
O O13 0.692838 0.702740 0.687102
O O14 0.775139 0.799145 0.650398
O O15 0.640598 0.780112 0.811507
O O16 0.500000 0.369266 0.738317
O O17 0.266605 0.363494 0.828013
O O18 0.153295 0.729843 0.109995
O O19 0.000000 0.644117 0.128076
O O20 0.200105 0.646290 0.000000
O O21 0.186402 0.144690 0.500000
O O22 0.000000 0.140566 0.363566
O O23 0.327745 0.216719 0.000000
#
# Coordination Sequence:
#
# PCOD8198527 Si02
#       8
#     8   8   8   8   8   8   8   8
#     4  11  25  43  62  84 110 142 180 224 276 335
#     4  10  20  34  56  86 117 148 182 222 268 319
#     4   9  19  37  60  84 110 144 190 241 286 329
#     4  10  21  36  55  83 119 155 186 220 270 331
#     4  10  21  34  52  83 120 155 188 226 276 332
#     4   9  17  30  50  77 111 152 194 232 271 319
#     4  11  25  43  63  85 107 137 180 231 285 336
#     4   9  17  29  51  84 116 145 182 223 266 319
#
# _framework density 18.966954999999999
#
# number of rings (size 3 to 8) (size 9 to 14) (size 15 to 20)
#    0.000    2.125    1.250    1.875    0.000    8.250 
#    0.000    9.375    0.000    0.375    0.000    2.625 
#    0.000    0.000    0.000    0.000    0.000    0.000 
#
# Total GULP energy -793417.942156 kJ/mol
# GULP energy per Si atom -12397.155346 kJ/mol
# Density = 1.892378 g / cm^3
# Si number density = 18.966955 Si / 1000 Ang^3
#
#
#
# Elastic Constant Matrix: (Units=GPa)
#
#
# Indices 1 2 3 4 5 6 
#
# 1 148.6034 61.3495 74.1057 0.0000 0.0000 0.0000
# 2 61.3495 83.9048 48.0936 0.0000 0.0000 0.0000
# 3 74.1057 48.0936 101.5450 0.0000 0.0000 0.0000
# 4 0.0000 0.0000 0.0000 26.5415 0.0000 0.0000
# 5 0.0000 0.0000 0.0000 0.0000 18.7806 0.0000
# 6 0.0000 0.0000 0.0000 0.0000 0.0000 25.6576
#
#
#
# Elastic Compliance Matrix: (Units=1/GPa)
#
#
# Indices 1 2 3 4 5 6 
#
# 1 0.012012 -0.005159 -0.006323 0.000000 0.000000 0.000000
# 2 -0.005159 0.018575 -0.005033 0.000000 0.000000 0.000000
# 3 -0.006323 -0.005033 0.016846 0.000000 0.000000 0.000000
# 4 0.000000 0.000000 0.000000 0.037677 0.000000 0.000000
# 5 0.000000 0.000000 0.000000 0.000000 0.053246 0.000000
# 6 0.000000 0.000000 0.000000 0.000000 0.000000 0.038975
#
#
# Mechanical properties :
#
#
# Convention : Reuss Voigt Hill
#
# Bulk Modulus (GPa) = 69.42464 77.90565 73.66515
# Shear Modulus (GPa) = 23.23836 24.22956 23.73396
#
# Velocity S-wave (km/s) = 3.50409 3.57804 3.54126
# Velocity P-wave (km/s) = 7.28381 7.63108 7.45947
#
# Compressibility (1/GPa) = 0.01440411
#
# Stress axis : x y z
#
# Youngs Moduli (GPa) = 83.24823 53.83589 59.36184
#
# Poissons Ratio (x) = 0.27773 0.37535
# Poissons Ratio (y) = 0.42946 0.29875
# Poissons Ratio (z) = 0.52638 0.27094
#
# Static dielectric constant tensor:
#      x y z
#    x 3.433480 0.000000 0.000000 
#    y 0.000000 3.323420 0.000000 
#    z 0.000000 0.000000 3.527930 
# 
# 
# High freq. dielectric constant tensor:
#      x y z
#    x 1.737930 0.000000 0.000000 
#    y 0.000000 1.720440 0.000000 
#    z 0.000000 0.000000 1.737810 
# 
# From -- ./inp_files/21899.got.cif
#   From: 2010.03.12/outbox.cif.g09.slc.cpg/sg47_11_cif.got.tgz:21899.got - 2010.04.14 03:12:58.
