data_PCOD8198933
_publ_section_title
;
Structure prediction by ZEFSAII (Michael W. Deem and Ramdas Pophale) SiO2 
 PCOD8198933
Probable space group: P M M M
;
_chemical_formula_sum "Si O2"
_cell_formula_units_Z 48
_cell_length_a 8.707617
_cell_length_b 17.733936
_cell_length_c 15.399853
_cell_angle_alpha 90.000000
_cell_angle_beta 90.000000
_cell_angle_gamma 90.000000
_cell_volume 2378.050268
_symmetry_space_group_name_H-M "P M M M"
_symmetry_group_IT_number 47
_symmetry_cell_setting 'orthorhombic'
loop_
_space_group_symop_operation_xyz
x,y,z
-x,-y,z
x,-y,-z
-x,y,-z
-x,-y,-z
x,y,-z
-x,y,z
x,-y,z
loop_
_atom_site_type_symbol
_atom_site_label
_atom_site_fract_x
_atom_site_fract_y
_atom_site_fract_z
Si Si1 0.178432 0.915078 0.227645
Si Si2 0.820686 0.652453 0.166430
Si Si3 0.323462 0.202909 0.902808
Si Si4 0.682369 0.416703 0.500000
Si Si5 0.320520 0.311765 0.347234
Si Si6 0.681562 0.500000 0.098258
Si Si7 0.824411 0.162167 0.596812
O O1 0.269908 0.858277 0.166699
O O2 0.211290 0.899872 0.329524
O O3 0.000000 0.904663 0.206120
O O4 0.233039 0.000000 0.207540
O O5 0.768146 0.718585 0.101850
O O6 0.781145 0.680322 0.262245
O O7 0.737670 0.574090 0.147405
O O8 0.000000 0.639360 0.155724
O O9 0.500000 0.221435 0.883100
O O10 0.300838 0.170179 0.000000
O O11 0.753936 0.500000 0.500000
O O12 0.500000 0.418323 0.500000
O O13 0.739043 0.374999 0.586300
O O14 0.500000 0.320318 0.324858
O O15 0.291309 0.231161 0.390450
O O16 0.500000 0.500000 0.099578
O O17 0.745361 0.500000 0.000000
O O18 0.797649 0.127804 0.500000
O O19 0.000000 0.190676 0.606293
#
# Coordination Sequence:
#
# PCOD8198933 Si02
#       7
#     8   8   8   4   8   4   8
#     4  10  22  40  62  91 127 167 209 255 311 375
#     4  12  25  41  63  93 127 162 204 254 312 369
#     4  11  24  42  65  92 122 162 211 259 312 374
#     4   9  20  36  55  85 120 159 205 251 301 357
#     4  11  21  36  60  87 118 161 209 254 301 361
#     4  11  25  45  67  92 123 160 203 251 304 364
#     4  10  20  36  60  89 123 162 204 253 307 368
#
# _framework density 20.184602999999999
#
# number of rings (size 3 to 8) (size 9 to 14) (size 15 to 20)
#    0.000    1.333    2.500    3.250    1.167    5.000 
#    0.000    3.333    0.000    2.000    0.000    2.333 
#    0.000    0.000    0.000    0.000    0.000    0.000 
#
# Total GULP energy -595320.198269 kJ/mol
# GULP energy per Si atom -12402.504131 kJ/mol
# Density = 2.013866 g / cm^3
# Si number density = 20.184603 Si / 1000 Ang^3
#
#
#
# Elastic Constant Matrix: (Units=GPa)
#
#
# Indices 1 2 3 4 5 6 
#
# 1 71.3006 26.1331 29.1872 0.0000 0.0000 0.0000
# 2 26.1331 107.6535 32.3225 0.0000 0.0000 0.0000
# 3 29.1872 32.3225 121.9286 0.0000 0.0000 0.0000
# 4 0.0000 0.0000 0.0000 86.8709 0.0000 0.0000
# 5 0.0000 0.0000 0.0000 0.0000 25.1256 0.0000
# 6 0.0000 0.0000 0.0000 0.0000 0.0000 17.1427
#
#
#
# Elastic Compliance Matrix: (Units=1/GPa)
#
#
# Indices 1 2 3 4 5 6 
#
# 1 0.016421 -0.003049 -0.003123 0.000000 0.000000 0.000000
# 2 -0.003049 0.010658 -0.002096 0.000000 0.000000 0.000000
# 3 -0.003123 -0.002096 0.009505 0.000000 0.000000 0.000000
# 4 0.000000 0.000000 0.000000 0.011511 0.000000 0.000000
# 5 0.000000 0.000000 0.000000 0.000000 0.039800 0.000000
# 6 0.000000 0.000000 0.000000 0.000000 0.000000 0.058334
#
#
# Mechanical properties :
#
#
# Convention : Reuss Voigt Hill
#
# Bulk Modulus (GPa) = 49.87577 52.90760 51.39168
# Shear Modulus (GPa) = 29.50791 40.04384 34.77588
#
# Velocity S-wave (km/s) = 3.82763 4.45891 4.15528
# Velocity P-wave (km/s) = 6.65566 7.26484 6.96691
#
# Compressibility (1/GPa) = 0.02004982
#
# Stress axis : x y z
#
# Youngs Moduli (GPa) = 60.89852 93.82324 105.21261
#
# Poissons Ratio (x) = 0.28603 0.32854
# Poissons Ratio (y) = 0.18566 0.22049
# Poissons Ratio (z) = 0.19016 0.19662
#
# Static dielectric constant tensor:
#      x y z
#    x 3.581870 0.000000 0.000000 
#    y 0.000000 3.694780 0.000000 
#    z 0.000000 0.000000 3.870330 
# 
# 
# High freq. dielectric constant tensor:
#      x y z
#    x 1.781700 0.000000 0.000000 
#    y 0.000000 1.784590 0.000000 
#    z 0.000000 0.000000 1.804340 
# 
# From -- ./inp_files/21084.got.cif
#   From: 2010.03.12/outbox.cif.g09.slc.cpg/sg47_11_cif.got.tgz:21084.got - 2010.04.14 03:12:58.
