data_PCOD8198805
_publ_section_title
;
Structure prediction by ZEFSAII (Michael W. Deem and Ramdas Pophale) SiO2 
 PCOD8198805
Probable space group: P M M M
;
_chemical_formula_sum "Si O2"
_cell_formula_units_Z 40
_cell_length_a 8.977132
_cell_length_b 11.873437
_cell_length_c 20.268241
_cell_angle_alpha 90.000000
_cell_angle_beta 90.000000
_cell_angle_gamma 90.000000
_cell_volume 2160.379875
_symmetry_space_group_name_H-M "P M M M"
_symmetry_group_IT_number 47
_symmetry_cell_setting 'orthorhombic'
loop_
_space_group_symop_operation_xyz
x,y,z
-x,-y,z
x,-y,-z
-x,y,-z
-x,-y,-z
x,y,-z
-x,y,z
x,-y,z
loop_
_atom_site_type_symbol
_atom_site_label
_atom_site_fract_x
_atom_site_fract_y
_atom_site_fract_z
Si Si1 0.173810 0.739346 0.575295
Si Si2 0.175820 0.257880 0.810732
Si Si3 0.674240 0.131030 0.689969
Si Si4 0.176726 0.500000 0.376459
Si Si5 0.671446 0.129409 0.075880
Si Si6 0.175981 0.500000 0.228958
O O1 0.203138 0.774367 0.500000
O O2 0.263636 0.825055 0.620703
O O3 0.232746 0.611849 0.586205
O O4 0.000000 0.747705 0.593672
O O5 0.248847 0.192393 0.750664
O O6 0.224546 0.208155 0.880575
O O7 0.228869 0.388186 0.809391
O O8 0.000000 0.247043 0.802953
O O9 0.500000 0.155230 0.693308
O O10 0.711167 0.000000 0.695712
O O11 0.243859 0.500000 0.302645
O O12 0.000000 0.500000 0.375485
O O13 0.500000 0.149203 0.095328
O O14 0.714746 0.000000 0.088769
O O15 0.699180 0.161388 0.000000
O O16 0.000000 0.500000 0.235469
#
# Coordination Sequence:
#
# PCOD8198805 Si02
#       6
#     8   8   8   4   8   4
#     4  10  20  35  58  84 107 136 179 229 276 324
#     4  11  21  36  59  85 111 141 182 229 271 317
#     4  11  24  39  54  75 108 148 184 221 273 332
#     4   9  15  32  57  81 109 139 173 219 276 330
#     4   9  19  37  59  83 115 152 184 218 266 320
#     4   9  18  33  55  81 111 143 174 219 278 327
#
# _framework density 18.515260000000001
#
# number of rings (size 3 to 8) (size 9 to 14) (size 15 to 20)
#    0.000    2.000    2.000    2.700    0.000    6.800 
#    0.000    7.000    0.000    4.200    0.000    0.000 
#    0.000    0.000    0.000    0.000    0.000    0.000 
#
# Total GULP energy -496052.305843 kJ/mol
# GULP energy per Si atom -12401.307646 kJ/mol
# Density = 1.847312 g / cm^3
# Si number density = 18.515260 Si / 1000 Ang^3
#
#
#
# Elastic Constant Matrix: (Units=GPa)
#
#
# Indices 1 2 3 4 5 6 
#
# 1 69.3786 68.1248 47.5036 0.0000 0.0000 0.0000
# 2 68.1248 138.6979 74.8529 0.0000 0.0000 0.0000
# 3 47.5036 74.8529 115.7475 0.0000 0.0000 0.0000
# 4 0.0000 0.0000 0.0000 36.2221 0.0000 0.0000
# 5 0.0000 0.0000 0.0000 0.0000 29.9605 0.0000
# 6 0.0000 0.0000 0.0000 0.0000 0.0000 -28.4275
#
#
#
# Elastic Compliance Matrix: (Units=1/GPa)
#
#
# Indices 1 2 3 4 5 6 
#
# 1 0.029081 -0.012047 -0.004144 0.000000 0.000000 0.000000
# 2 -0.012047 0.016066 -0.005446 0.000000 0.000000 0.000000
# 3 -0.004144 -0.005446 0.013862 0.000000 0.000000 0.000000
# 4 0.000000 0.000000 0.000000 0.027607 0.000000 0.000000
# 5 0.000000 0.000000 0.000000 0.000000 0.033377 0.000000
# 6 0.000000 0.000000 0.000000 0.000000 0.000000 -0.035177
#
#
# Mechanical properties :
#
#
# Convention : Reuss Voigt Hill
#
# Bulk Modulus (GPa) = 63.55299 78.30963 70.93131
# Shear Modulus (GPa) = 37.49975 16.44053 26.97014
#
# Velocity S-wave (km/s) = 4.50526 2.98307 3.82074
# Velocity P-wave (km/s) = 7.83979 7.36556 7.60637
#
# Compressibility (1/GPa) = 0.01573490
#
# Stress axis : x y z
#
# Youngs Moduli (GPa) = 34.38730 62.24333 72.14051
#
# Poissons Ratio (x) = 0.74985 0.29896
# Poissons Ratio (y) = 0.41427 0.39284
# Poissons Ratio (z) = 0.14250 0.33895
#
# Static dielectric constant tensor:
#      x y z
#    x 3.236280 0.000000 0.000000 
#    y 0.000000 3.630310 0.000000 
#    z 0.000000 0.000000 3.425390 
# 
# 
# High freq. dielectric constant tensor:
#      x y z
#    x 1.699390 0.000000 0.000000 
#    y 0.000000 1.725190 0.000000 
#    z 0.000000 0.000000 1.723860 
# 
# From -- ./inp_files/29350.got.cif
#   From: 2010.03.12/outbox.cif.g09.slc.cpg/sg47_15_cif.got.tgz:29350.got - 2010.04.14 03:12:58.
