data_PCOD8198406
_publ_section_title
;
Structure prediction by ZEFSAII (Michael W. Deem and Ramdas Pophale) SiO2 
 PCOD8198406
Probable space group: P M M M
;
_chemical_formula_sum "Si O2"
_cell_formula_units_Z 48
_cell_length_a 18.791670
_cell_length_b 15.174820
_cell_length_c 8.848202
_cell_angle_alpha 90.000000
_cell_angle_beta 90.000000
_cell_angle_gamma 90.000000
_cell_volume 2523.155138
_symmetry_space_group_name_H-M "P M M M"
_symmetry_group_IT_number 47
_symmetry_cell_setting 'orthorhombic'
loop_
_space_group_symop_operation_xyz
x,y,z
-x,-y,z
x,-y,-z
-x,y,-z
-x,-y,-z
x,y,-z
-x,y,z
x,-y,z
loop_
_atom_site_type_symbol
_atom_site_label
_atom_site_fract_x
_atom_site_fract_y
_atom_site_fract_z
Si Si1 0.083961 0.772325 0.826535
Si Si2 0.415963 0.500000 0.169080
Si Si3 0.582690 0.321200 0.677567
Si Si4 0.915487 0.596799 0.670634
Si Si5 0.579193 0.000000 0.179674
Si Si6 0.331864 0.834905 0.179342
Si Si7 0.810174 0.101438 0.321505
O O1 0.113602 0.676428 0.773980
O O2 0.117372 0.851303 0.729516
O O3 0.000000 0.778263 0.800885
O O4 0.105385 0.784765 0.000000
O O5 0.500000 0.500000 0.156046
O O6 0.390928 0.415489 0.263141
O O7 0.382691 0.500000 0.000000
O O8 0.595821 0.315338 0.500000
O O9 0.500000 0.303784 0.717859
O O10 0.632035 0.253233 0.763798
O O11 0.888424 0.612692 0.500000
O O12 0.888576 0.500000 0.728073
O O13 0.000000 0.597056 0.674563
O O14 0.620178 0.914934 0.240605
O O15 0.500000 0.000000 0.248698
O O16 0.576090 0.000000 0.000000
O O17 0.253522 0.844713 0.245689
O O18 0.327040 0.833962 0.000000
O O19 0.802559 0.106403 0.500000
O O20 0.810907 0.000000 0.265734
#
# Coordination Sequence:
#
# PCOD8198406 Si02
#       7
#     8   4   8   8   4   8   8
#     4  10  21  36  57  86 116 146 185 233 280 329
#     4   9  17  31  53  81 111 147 192 237 280 329
#     4  10  20  34  54  83 118 153 189 232 281 333
#     4   8  14  27  50  80 113 147 180 216 264 322
#     4   9  18  32  53  83 114 143 180 227 275 324
#     4  11  21  36  58  82 112 149 189 233 281 337
#     4  11  24  41  60  80 108 147 189 232 284 345
#
# _framework density 19.023800000000001
#
# number of rings (size 3 to 8) (size 9 to 14) (size 15 to 20)
#    0.000    2.167    0.833    3.250    0.000    5.333 
#    0.000    3.333    1.833    2.000    0.000    0.000 
#    0.000    0.000    0.000    0.000    0.000    0.000 
#
# Total GULP energy -595200.968219 kJ/mol
# GULP energy per Si atom -12400.020171 kJ/mol
# Density = 1.898050 g / cm^3
# Si number density = 19.023800 Si / 1000 Ang^3
#
#
#
# Elastic Constant Matrix: (Units=GPa)
#
#
# Indices 1 2 3 4 5 6 
#
# 1 57.8626 44.9190 31.5464 0.0000 0.0000 0.0000
# 2 44.9190 139.6672 45.8054 0.0000 0.0000 0.0000
# 3 31.5464 45.8054 85.4355 0.0000 0.0000 0.0000
# 4 0.0000 0.0000 0.0000 29.9732 0.0000 0.0000
# 5 0.0000 0.0000 0.0000 0.0000 26.7191 0.0000
# 6 0.0000 0.0000 0.0000 0.0000 0.0000 -48.2462
#
#
#
# Elastic Compliance Matrix: (Units=1/GPa)
#
#
# Indices 1 2 3 4 5 6 
#
# 1 0.025380 -0.006175 -0.006061 0.000000 0.000000 0.000000
# 2 -0.006175 0.010190 -0.003183 0.000000 0.000000 0.000000
# 3 -0.006061 -0.003183 0.015649 0.000000 0.000000 0.000000
# 4 0.000000 0.000000 0.000000 0.033363 0.000000 0.000000
# 5 0.000000 0.000000 0.000000 0.000000 0.037426 0.000000
# 6 0.000000 0.000000 0.000000 0.000000 0.000000 -0.020727
#
#
# Mechanical properties :
#
#
# Convention : Reuss Voigt Hill
#
# Bulk Modulus (GPa) = 49.06400 58.61189 53.83795
# Shear Modulus (GPa) = 35.99363 12.40218 24.19791
#
# Velocity S-wave (km/s) = 4.35447 2.55606 3.57035
# Velocity P-wave (km/s) = 7.15043 6.29189 6.73486
#
# Compressibility (1/GPa) = 0.02038154
#
# Stress axis : x y z
#
# Youngs Moduli (GPa) = 39.40063 98.13766 63.90095
#
# Poissons Ratio (x) = 0.60600 0.38729
# Poissons Ratio (y) = 0.24330 0.20340
# Poissons Ratio (z) = 0.23880 0.31238
#
# Static dielectric constant tensor:
#      x y z
#    x 3.223750 0.000000 0.000000 
#    y 0.000000 3.975650 0.000000 
#    z 0.000000 0.000000 3.488840 
# 
# 
# High freq. dielectric constant tensor:
#      x y z
#    x 1.709810 0.000000 0.000000 
#    y 0.000000 1.755370 0.000000 
#    z 0.000000 0.000000 1.740830 
# 
# From -- ./inp_files/9188.got.cif
#   From: 2010.03.12/outbox.cif.g09.slc.cpg/sg47_5_cif.got.tgz:9188.got - 2010.04.14 03:12:58.
