data_PCOD8198420
_publ_section_title
;
Structure prediction by ZEFSAII (Michael W. Deem and Ramdas Pophale) SiO2 
 PCOD8198420
Probable space group: P M M M
;
_chemical_formula_sum "Si O2"
_cell_formula_units_Z 48
_cell_length_a 9.271177
_cell_length_b 30.567780
_cell_length_c 9.265182
_cell_angle_alpha 90.000000
_cell_angle_beta 90.000000
_cell_angle_gamma 90.000000
_cell_volume 2625.746083
_symmetry_space_group_name_H-M "P M M M"
_symmetry_group_IT_number 47
_symmetry_cell_setting 'orthorhombic'
loop_
_space_group_symop_operation_xyz
x,y,z
-x,-y,z
x,-y,-z
-x,y,-z
-x,-y,-z
x,y,-z
-x,y,z
x,-y,z
loop_
_atom_site_type_symbol
_atom_site_label
_atom_site_fract_x
_atom_site_fract_y
_atom_site_fract_z
Si Si1 0.828660 0.217258 0.339709
Si Si2 0.330907 0.377591 0.331213
Si Si3 0.669933 0.048962 0.836986
Si Si4 0.834452 0.550945 0.834549
Si Si5 0.838782 0.878801 0.670767
Si Si6 0.170047 0.699178 0.167230
O O1 0.766939 0.227675 0.500000
O O2 0.776920 0.169287 0.285668
O O3 0.775626 0.254249 0.228883
O O4 0.000000 0.216013 0.348216
O O5 0.296443 0.374539 0.500000
O O6 0.500000 0.375064 0.299579
O O7 0.270993 0.423279 0.271325
O O8 0.252261 0.338426 0.250862
O O9 0.500000 0.052803 0.823129
O O10 0.738301 0.083708 0.731042
O O11 0.719681 0.000000 0.793056
O O12 0.719447 0.059017 0.000000
O O13 0.804720 0.500000 0.809929
O O14 0.000000 0.562504 0.797739
O O15 0.801899 0.564052 0.000000
O O16 0.840717 0.882485 0.500000
O O17 0.000000 0.885154 0.732862
O O18 0.000000 0.692827 0.191665
O O19 0.211340 0.697102 0.000000
#
# Coordination Sequence:
#
# PCOD8198420 Si02
#       6
#     8   8   8   8   8   8
#     4   8  15  30  51  74 102 134 165 201 249 302
#     4  11  24  38  52  75 108 143 177 213 254 301
#     4   9  19  35  51  68  95 132 172 211 250 296
#     4   9  19  37  60  84 108 135 171 214 257 304
#     4   9  18  32  51  77 105 130 161 204 252 303
#     4  10  20  34  55  81 104 130 170 215 255 300
#
# _framework density 18.280517
#
# number of rings (size 3 to 8) (size 9 to 14) (size 15 to 20)
#    0.000    2.667    0.000    3.500    0.000    7.333 
#    0.000    7.500    0.000    1.000    0.000    0.000 
#    0.000    0.000    0.000    0.000    0.000    0.000 
#
# Total GULP energy -595122.832888 kJ/mol
# GULP energy per Si atom -12398.392352 kJ/mol
# Density = 1.823891 g / cm^3
# Si number density = 18.280517 Si / 1000 Ang^3
#
#
#
# Elastic Constant Matrix: (Units=GPa)
#
#
# Indices 1 2 3 4 5 6 
#
# 1 50.9089 49.3856 47.1266 0.0000 0.0000 0.0000
# 2 49.3856 137.4636 72.5145 0.0000 0.0000 0.0000
# 3 47.1266 72.5145 98.3194 0.0000 0.0000 0.0000
# 4 0.0000 0.0000 0.0000 73.1486 0.0000 0.0000
# 5 0.0000 0.0000 0.0000 0.0000 29.1147 0.0000
# 6 0.0000 0.0000 0.0000 0.0000 0.0000 -32.5278
#
#
#
# Elastic Compliance Matrix: (Units=1/GPa)
#
#
# Indices 1 2 3 4 5 6 
#
# 1 0.038801 -0.006758 -0.013614 0.000000 0.000000 0.000000
# 2 -0.006758 0.013085 -0.006411 0.000000 0.000000 0.000000
# 3 -0.013614 -0.006411 0.021425 0.000000 0.000000 0.000000
# 4 0.000000 0.000000 0.000000 0.013671 0.000000 0.000000
# 5 0.000000 0.000000 0.000000 0.000000 0.034347 0.000000
# 6 0.000000 0.000000 0.000000 0.000000 0.000000 -0.030743
#
#
# Mechanical properties :
#
#
# Convention : Reuss Voigt Hill
#
# Bulk Modulus (GPa) = 50.64725 69.41614 60.03170
# Shear Modulus (GPa) = 33.17113 21.79143 27.48128
#
# Velocity S-wave (km/s) = 4.26439 3.45636 3.88146
# Velocity P-wave (km/s) = 7.21196 7.34737 7.27998
#
# Compressibility (1/GPa) = 0.01974441
#
# Stress axis : x y z
#
# Youngs Moduli (GPa) = 25.77221 76.42563 46.67515
#
# Poissons Ratio (x) = 0.51652 0.63543
# Poissons Ratio (y) = 0.17418 0.29923
# Poissons Ratio (z) = 0.35086 0.48996
#
# Static dielectric constant tensor:
#      x y z
#    x 3.160900 0.000000 0.000000 
#    y 0.000000 3.620830 0.000000 
#    z 0.000000 0.000000 3.435500 
# 
# 
# High freq. dielectric constant tensor:
#      x y z
#    x 1.683260 0.000000 0.000000 
#    y 0.000000 1.725180 0.000000 
#    z 0.000000 0.000000 1.707990 
# 
# From -- ./inp_files/2464.got.cif
#   From: 2010.03.12/outbox.cif.g09.slc.cpg/sg47_2_cif.got.tgz:2464.got - 2010.04.14 03:12:58.
