data_PCOD8198348
_publ_section_title
;
Structure prediction by ZEFSAII (Michael W. Deem and Ramdas Pophale) SiO2 
 PCOD8198348
Probable space group: P M M M
;
_chemical_formula_sum "Si O2"
_cell_formula_units_Z 44
_cell_length_a 13.653749
_cell_length_b 18.393813
_cell_length_c 8.843231
_cell_angle_alpha 90.000000
_cell_angle_beta 90.000000
_cell_angle_gamma 90.000000
_cell_volume 2220.928880
_symmetry_space_group_name_H-M "P M M M"
_symmetry_group_IT_number 47
_symmetry_cell_setting 'orthorhombic'
loop_
_space_group_symop_operation_xyz
x,y,z
-x,-y,z
x,-y,-z
-x,y,-z
-x,-y,-z
x,y,-z
-x,y,z
x,-y,z
loop_
_atom_site_type_symbol
_atom_site_label
_atom_site_fract_x
_atom_site_fract_y
_atom_site_fract_z
Si Si1 0.500000 0.083662 0.820167
Si Si2 0.300127 0.162137 0.820264
Si Si3 0.886461 0.581731 0.828235
Si Si4 0.612950 0.579835 0.167224
Si Si5 0.892513 0.918012 0.179568
Si Si6 0.740111 0.314242 0.673970
O O1 0.400833 0.124016 0.760104
O O2 0.500000 0.000000 0.762110
O O3 0.500000 0.084905 0.000000
O O4 0.201453 0.124312 0.753666
O O5 0.292569 0.244343 0.767348
O O6 0.300669 0.158803 0.000000
O O7 0.866042 0.500000 0.764596
O O8 0.837808 0.646092 0.732317
O O9 0.000000 0.598865 0.822737
O O10 0.847418 0.586415 0.000000
O O11 0.500000 0.571824 0.195536
O O12 0.662059 0.500000 0.177095
O O13 0.653336 0.628741 0.301469
O O14 0.634505 0.613050 0.000000
O O15 0.000000 0.885937 0.230321
O O16 0.884510 0.000000 0.239382
O O17 0.887022 0.916338 0.000000
O O18 0.752454 0.293278 0.500000
#
# Coordination Sequence:
#
# PCOD8198348 Si02
#       6
#     4   8   8   8   8   8
#     4   9  18  34  59  87 108 133 182 247 299 336
#     4  10  20  34  54  80 109 145 186 231 283 339
#     4   9  19  38  63  86 108 142 192 243 286 333
#     4   9  19  37  60  81 101 133 181 233 280 327
#     4   8  14  27  51  82 109 131 165 221 282 334
#     4  12  25  36  50  78 117 154 184 223 274 331
#
# _framework density 19.811529
#
# number of rings (size 3 to 8) (size 9 to 14) (size 15 to 20)
#    0.000    2.455    0.000    4.364    1.273    6.545 
#    0.000    3.636    0.000    2.727    0.000    1.273 
#    0.000    0.000    0.000    0.000    0.000    0.000 
#
# Total GULP energy -545135.067781 kJ/mol
# GULP energy per Si atom -12389.433359 kJ/mol
# Density = 1.976644 g / cm^3
# Si number density = 19.811529 Si / 1000 Ang^3
#
#
#
# Elastic Constant Matrix: (Units=GPa)
#
#
# Indices 1 2 3 4 5 6 
#
# 1 159.7661 63.5335 19.9022 0.0000 0.0000 0.0000
# 2 63.5335 104.9405 11.1580 0.0000 0.0000 0.0000
# 3 19.9022 11.1580 24.6637 0.0000 0.0000 0.0000
# 4 0.0000 0.0000 0.0000 1.1319 0.0000 0.0000
# 5 0.0000 0.0000 0.0000 0.0000 23.7988 0.0000
# 6 0.0000 0.0000 0.0000 0.0000 0.0000 39.4759
#
#
#
# Elastic Compliance Matrix: (Units=1/GPa)
#
#
# Indices 1 2 3 4 5 6 
#
# 1 0.008777 -0.004791 -0.004915 0.000000 0.000000 0.000000
# 2 -0.004791 0.012626 -0.001846 0.000000 0.000000 0.000000
# 3 -0.004915 -0.001846 0.045346 0.000000 0.000000 0.000000
# 4 0.000000 0.000000 0.000000 0.883499 0.000000 0.000000
# 5 0.000000 0.000000 0.000000 0.000000 0.042019 0.000000
# 6 0.000000 0.000000 0.000000 0.000000 0.000000 0.025332
#
#
# Mechanical properties :
#
#
# Convention : Reuss Voigt Hill
#
# Bulk Modulus (GPa) = 22.91184 53.17308 38.04246
# Shear Modulus (GPa) = 4.73821 25.86641 15.30231
#
# Velocity S-wave (km/s) = 1.54817 3.61726 2.78221
# Velocity P-wave (km/s) = 3.84523 6.65912 5.43735
#
# Compressibility (1/GPa) = 0.04364556
#
# Stress axis : x y z
#
# Youngs Moduli (GPa) = 113.93937 79.20116 22.05244
#
# Poissons Ratio (x) = 0.37945 0.10838
# Poissons Ratio (y) = 0.54588 0.04071
# Poissons Ratio (z) = 0.55998 0.14621
#
# Static dielectric constant tensor:
#      x y z
#    x 3.994920 0.000000 0.000000 
#    y 0.000000 3.704600 0.000000 
#    z 0.000000 0.000000 3.089160 
# 
# 
# High freq. dielectric constant tensor:
#      x y z
#    x 1.798070 0.000000 0.000000 
#    y 0.000000 1.770510 0.000000 
#    z 0.000000 0.000000 1.715530 
# 
# From -- ./inp_files/6057.got.cif
#   From: 2010.03.12/outbox.cif.g09.slc.cpg/sg47_4_cif.got.tgz:6057.got - 2010.04.14 03:12:58.
