data_PCOD8198174
_publ_section_title
;
Structure prediction by ZEFSAII (Michael W. Deem and Ramdas Pophale) SiO2 
 PCOD8198174
Probable space group: P M M M
;
_chemical_formula_sum "Si O2"
_cell_formula_units_Z 44
_cell_length_a 13.982800
_cell_length_b 12.897329
_cell_length_c 14.306433
_cell_angle_alpha 90.000000
_cell_angle_beta 90.000000
_cell_angle_gamma 90.000000
_cell_volume 2580.033171
_symmetry_space_group_name_H-M "P M M M"
_symmetry_group_IT_number 47
_symmetry_cell_setting 'orthorhombic'
loop_
_space_group_symop_operation_xyz
x,y,z
-x,-y,z
x,-y,-z
-x,y,-z
-x,-y,-z
x,y,-z
-x,y,z
x,-y,z
loop_
_atom_site_type_symbol
_atom_site_label
_atom_site_fract_x
_atom_site_fract_y
_atom_site_fract_z
Si Si1 0.221053 0.201457 0.389346
Si Si2 0.891953 0.277828 0.104500
Si Si3 0.109860 0.617285 0.708110
Si Si4 0.892292 0.000000 0.611240
Si Si5 0.270697 0.881829 0.104666
Si Si6 0.608796 0.121016 0.280829
O O1 0.221560 0.207279 0.500000
O O2 0.176561 0.306949 0.350779
O O3 0.160648 0.102943 0.351507
O O4 0.329247 0.188177 0.353386
O O5 0.875934 0.368063 0.180373
O O6 0.822477 0.183821 0.130700
O O7 0.000000 0.234719 0.110283
O O8 0.870780 0.321569 0.000000
O O9 0.139392 0.500000 0.683542
O O10 0.000000 0.638598 0.679705
O O11 0.891872 0.000000 0.500000
O O12 0.000000 0.000000 0.650430
O O13 0.356741 0.856466 0.175169
O O14 0.237605 0.000000 0.114138
O O15 0.307817 0.857128 0.000000
O O16 0.500000 0.158972 0.289344
O O17 0.618127 0.000000 0.306255
#
# Coordination Sequence:
#
# PCOD8198174 Si02
#       6
#     8   8   8   4   8   8
#     4  11  21  35  53  76 106 137 177 223 265 311
#     4   9  17  30  50  77 108 140 173 210 254 308
#     4  10  21  36  54  78 108 142 179 215 256 311
#     4   9  18  32  51  75 102 133 167 209 261 315
#     4   9  17  30  49  76 110 141 170 207 256 315
#     4  10  20  34  53  78 107 139 177 218 264 315
#
# _framework density 17.054044000000001
#
# number of rings (size 3 to 8) (size 9 to 14) (size 15 to 20)
#    0.000    2.273    2.727    0.545    0.000    2.909 
#    0.000    7.273    0.000    0.545    0.000    1.273 
#    0.000    2.909    0.000    0.000    0.000    0.000 
#
# Total GULP energy -545570.903178 kJ/mol
# GULP energy per Si atom -12399.338709 kJ/mol
# Density = 1.701523 g / cm^3
# Si number density = 17.054044 Si / 1000 Ang^3
#
#
#
# Elastic Constant Matrix: (Units=GPa)
#
#
# Indices 1 2 3 4 5 6 
#
# 1 125.6995 62.6691 50.6667 0.0000 0.0000 0.0000
# 2 62.6691 98.3796 47.7825 0.0000 0.0000 0.0000
# 3 50.6667 47.7825 84.8955 0.0000 0.0000 0.0000
# 4 0.0000 0.0000 0.0000 21.1977 0.0000 0.0000
# 5 0.0000 0.0000 0.0000 0.0000 23.0197 0.0000
# 6 0.0000 0.0000 0.0000 0.0000 0.0000 19.4504
#
#
#
# Elastic Compliance Matrix: (Units=1/GPa)
#
#
# Indices 1 2 3 4 5 6 
#
# 1 0.012635 -0.006036 -0.004143 0.000000 0.000000 0.000000
# 2 -0.006036 0.016873 -0.005894 0.000000 0.000000 0.000000
# 3 -0.004143 -0.005894 0.017569 0.000000 0.000000 0.000000
# 4 0.000000 0.000000 0.000000 0.047175 0.000000 0.000000
# 5 0.000000 0.000000 0.000000 0.000000 0.043441 0.000000
# 6 0.000000 0.000000 0.000000 0.000000 0.000000 0.051413
#
#
# Mechanical properties :
#
#
# Convention : Reuss Voigt Hill
#
# Bulk Modulus (GPa) = 66.98030 70.13459 68.55745
# Shear Modulus (GPa) = 22.10146 22.59066 22.34606
#
# Velocity S-wave (km/s) = 3.60386 3.64352 3.62375
# Velocity P-wave (km/s) = 7.52846 7.67558 7.60237
#
# Compressibility (1/GPa) = 0.01492976
#
# Stress axis : x y z
#
# Youngs Moduli (GPa) = 79.14513 59.26770 56.91736
#
# Poissons Ratio (x) = 0.35776 0.23582
# Poissons Ratio (y) = 0.47774 0.33547
# Poissons Ratio (z) = 0.32792 0.34932
#
# Static dielectric constant tensor:
#      x y z
#    x 3.119280 0.000000 0.000000 
#    y 0.000000 2.976730 0.000000 
#    z 0.000000 0.000000 3.283920 
# 
# 
# High freq. dielectric constant tensor:
#      x y z
#    x 1.644530 0.000000 0.000000 
#    y 0.000000 1.631390 0.000000 
#    z 0.000000 0.000000 1.669210 
# 
# From -- ./inp_files/17413.got.cif
#   From: 2010.03.12/outbox.cif.g09.slc.cpg/sg47_9_cif.got.tgz:17413.got - 2010.04.14 03:12:58.
