data_PCOD8198607
_publ_section_title
;
Structure prediction by ZEFSAII (Michael W. Deem and Ramdas Pophale) SiO2 
 PCOD8198607
Probable space group: P M M M
;
_chemical_formula_sum "Si O2"
_cell_formula_units_Z 52
_cell_length_a 8.823148
_cell_length_b 17.878758
_cell_length_c 17.880407
_cell_angle_alpha 90.000000
_cell_angle_beta 90.000000
_cell_angle_gamma 90.000000
_cell_volume 2820.579274
_symmetry_space_group_name_H-M "P M M M"
_symmetry_group_IT_number 47
_symmetry_cell_setting 'orthorhombic'
loop_
_space_group_symop_operation_xyz
x,y,z
-x,-y,z
x,-y,-z
-x,y,-z
-x,-y,-z
x,y,-z
-x,y,z
x,-y,z
loop_
_atom_site_type_symbol
_atom_site_label
_atom_site_fract_x
_atom_site_fract_y
_atom_site_fract_z
Si Si1 0.323351 0.083399 0.654732
Si Si2 0.678572 0.304901 0.732933
Si Si3 0.174948 0.841741 0.213367
Si Si4 0.823540 0.412742 0.152765
Si Si5 0.679350 0.235342 0.418402
Si Si6 0.669605 0.086876 0.083766
Si Si7 0.327401 0.411206 0.000000
O O1 0.500000 0.092359 0.674726
O O2 0.226932 0.093004 0.730182
O O3 0.272650 0.148999 0.597686
O O4 0.291178 0.000000 0.621687
O O5 0.500000 0.318151 0.735421
O O6 0.721048 0.230735 0.777415
O O7 0.757803 0.375085 0.772319
O O8 0.736357 0.292251 0.646658
O O9 0.202638 0.870274 0.130048
O O10 0.000000 0.821090 0.225513
O O11 0.787969 0.500000 0.161018
O O12 0.750429 0.380470 0.075988
O O13 0.000000 0.395549 0.147802
O O14 0.746862 0.257980 0.500000
O O15 0.500000 0.239717 0.420930
O O16 0.500000 0.100838 0.115921
O O17 0.708262 0.000000 0.085199
O O18 0.679282 0.118199 0.000000
O O19 0.312852 0.500000 0.000000
O O20 0.500000 0.383743 0.000000
#
# Coordination Sequence:
#
# PCOD8198607 Si02
#       7
#     8   8   8   8   8   8   4
#     4   9  17  29  47  71  98 130 168 210 257 311
#     4  10  20  35  55  77 102 134 173 212 254 310
#     4  11  21  32  47  68  97 130 166 209 257 307
#     4  10  20  35  56  82 112 142 172 210 254 300
#     4   8  15  29  50  76 103 131 168 218 269 310
#     4   9  18  33  51  68  89 122 165 212 259 305
#     4   9  17  31  53  81 111 141 172 203 240 291
#
# _framework density 18.435929999999999
#
# number of rings (size 3 to 8) (size 9 to 14) (size 15 to 20)
#    0.000    2.538    0.000    4.385    0.000    4.923 
#    1.385    2.308    0.000   12.000    0.000    7.538 
#    0.000    0.000    0.000    0.000    0.000    0.000 
#
# Total GULP energy -644520.372484 kJ/mol
# GULP energy per Si atom -12394.622548 kJ/mol
# Density = 1.839397 g / cm^3
# Si number density = 18.435930 Si / 1000 Ang^3
#
#
#
# Elastic Constant Matrix: (Units=GPa)
#
#
# Indices 1 2 3 4 5 6 
#
# 1 62.8766 33.2743 45.1962 0.0000 0.0000 0.0000
# 2 33.2743 59.8061 54.5805 0.0000 0.0000 0.0000
# 3 45.1962 54.5805 149.3383 0.0000 0.0000 0.0000
# 4 0.0000 0.0000 0.0000 23.1878 0.0000 0.0000
# 5 0.0000 0.0000 0.0000 0.0000 11.3375 0.0000
# 6 0.0000 0.0000 0.0000 0.0000 0.0000 21.2808
#
#
#
# Elastic Compliance Matrix: (Units=1/GPa)
#
#
# Indices 1 2 3 4 5 6 
#
# 1 0.023722 -0.009973 -0.003535 0.000000 0.000000 0.000000
# 2 -0.009973 0.029282 -0.007684 0.000000 0.000000 0.000000
# 3 -0.003535 -0.007684 0.010574 0.000000 0.000000 0.000000
# 4 0.000000 0.000000 0.000000 0.043126 0.000000 0.000000
# 5 0.000000 0.000000 0.000000 0.000000 0.088203 0.000000
# 6 0.000000 0.000000 0.000000 0.000000 0.000000 0.046991
#
#
# Mechanical properties :
#
#
# Convention : Reuss Voigt Hill
#
# Bulk Modulus (GPa) = 47.17831 59.79144 53.48488
# Shear Modulus (GPa) = 17.16178 20.42588 18.79383
#
# Velocity S-wave (km/s) = 3.05435 3.33218 3.19629
# Velocity P-wave (km/s) = 6.17128 6.87801 6.53421
#
# Compressibility (1/GPa) = 0.02119618
#
# Stress axis : x y z
#
# Youngs Moduli (GPa) = 42.15433 34.15115 94.56978
#
# Poissons Ratio (x) = 0.34058 0.33426
# Poissons Ratio (y) = 0.42039 0.72665
# Poissons Ratio (z) = 0.14900 0.26241
#
# Static dielectric constant tensor:
#      x y z
#    x 3.243970 0.000000 0.000000 
#    y 0.000000 3.199070 0.000000 
#    z 0.000000 0.000000 3.716500 
# 
# 
# High freq. dielectric constant tensor:
#      x y z
#    x 1.700500 0.000000 0.000000 
#    y 0.000000 1.688370 0.000000 
#    z 0.000000 0.000000 1.714820 
# 
# From -- ./inp_files/9564.got.cif
#   From: 2010.03.12/outbox.cif.g09.slc.cpg/sg47_5_cif.got.tgz:9564.got - 2010.04.14 03:12:58.
