data_PCOD8198054
_publ_section_title
;
Structure prediction by ZEFSAII (Michael W. Deem and Ramdas Pophale) SiO2 
 PCOD8198054
Probable space group: P M M M
;
_chemical_formula_sum "Si O2"
_cell_formula_units_Z 56
_cell_length_a 23.152919
_cell_length_b 14.577774
_cell_length_c 8.722032
_cell_angle_alpha 90.000000
_cell_angle_beta 90.000000
_cell_angle_gamma 90.000000
_cell_volume 2943.842976
_symmetry_space_group_name_H-M "P M M M"
_symmetry_group_IT_number 47
_symmetry_cell_setting 'orthorhombic'
loop_
_space_group_symop_operation_xyz
x,y,z
-x,-y,z
x,-y,-z
-x,y,-z
-x,-y,-z
x,y,-z
-x,y,z
x,-y,z
loop_
_atom_site_type_symbol
_atom_site_label
_atom_site_fract_x
_atom_site_fract_y
_atom_site_fract_z
Si Si1 0.129781 0.841456 0.673911
Si Si2 0.663007 0.762872 0.178023
Si Si3 0.066639 0.500000 0.318439
Si Si4 0.728475 0.394926 0.676858
Si Si5 0.435141 0.102751 0.817733
Si Si6 0.933011 0.000000 0.831171
Si Si7 0.851737 0.649972 0.179728
Si Si8 0.742646 0.101936 0.671722
O O1 0.115151 0.811319 0.500000
O O2 0.081319 0.908777 0.736765
O O3 0.133032 0.753770 0.782251
O O4 0.188835 0.897784 0.680791
O O5 0.674939 0.666631 0.262764
O O6 0.607679 0.818324 0.246906
O O7 0.718182 0.827753 0.203784
O O8 0.654909 0.741514 0.000000
O O9 0.069734 0.500000 0.500000
O O10 0.099279 0.410815 0.257977
O O11 0.000000 0.500000 0.261757
O O12 0.739739 0.371672 0.500000
O O13 0.709848 0.500000 0.701308
O O14 0.787680 0.374755 0.764103
O O15 0.500000 0.127046 0.763433
O O16 0.418420 0.000000 0.758264
O O17 0.431264 0.102448 0.000000
O O18 0.000000 0.000000 0.856822
O O19 0.902654 0.000000 0.000000
O O20 0.853621 0.632549 0.000000
O O21 0.722416 0.130386 0.500000
O O22 0.720642 0.000000 0.711755
#
# Coordination Sequence:
#
# PCOD8198054 Si02
#       8
#     8   8   4   8   8   4   8   8
#     4  11  22  39  61  83 112 151 191 230 283 352
#     4  11  21  32  54  88 118 147 191 242 293 344
#     4  11  25  45  67  89 115 151 190 229 286 361
#     4  11  23  39  59  81 113 154 193 234 290 361
#     4   8  15  30  52  81 120 162 199 236 283 342
#     4  11  25  43  61  83 113 149 194 247 292 335
#     4  12  24  39  63  91 117 146 186 241 296 344
#     4  10  20  34  52  77 112 150 184 224 276 336
#
# _framework density 19.022753999999999
#
# number of rings (size 3 to 8) (size 9 to 14) (size 15 to 20)
#    0.000    1.429    2.857    3.857    0.000    4.000 
#    0.000    0.000    0.000    2.143    0.000    8.000 
#    0.000    0.000    0.000    0.000    0.000    0.000 
#
# Total GULP energy -694383.994713 kJ/mol
# GULP energy per Si atom -12399.714191 kJ/mol
# Density = 1.897946 g / cm^3
# Si number density = 19.022754 Si / 1000 Ang^3
#
#
#
# Elastic Constant Matrix: (Units=GPa)
#
#
# Indices 1 2 3 4 5 6 
#
# 1 101.0970 51.9929 32.7195 0.0000 0.0000 0.0000
# 2 51.9929 131.2254 33.7149 0.0000 0.0000 0.0000
# 3 32.7195 33.7149 74.3644 0.0000 0.0000 0.0000
# 4 0.0000 0.0000 0.0000 30.4632 0.0000 0.0000
# 5 0.0000 0.0000 0.0000 0.0000 15.0158 0.0000
# 6 0.0000 0.0000 0.0000 0.0000 0.0000 23.9870
#
#
#
# Elastic Compliance Matrix: (Units=1/GPa)
#
#
# Indices 1 2 3 4 5 6 
#
# 1 0.013371 -0.004285 -0.003940 0.000000 0.000000 0.000000
# 2 -0.004285 0.009999 -0.002648 0.000000 0.000000 0.000000
# 3 -0.003940 -0.002648 0.016381 0.000000 0.000000 0.000000
# 4 0.000000 0.000000 0.000000 0.032826 0.000000 0.000000
# 5 0.000000 0.000000 0.000000 0.000000 0.066596 0.000000
# 6 0.000000 0.000000 0.000000 0.000000 0.000000 0.041689
#
#
# Mechanical properties :
#
#
# Convention : Reuss Voigt Hill
#
# Bulk Modulus (GPa) = 55.54179 60.39349 57.96764
# Shear Modulus (GPa) = 23.96819 26.44384 25.20602
#
# Velocity S-wave (km/s) = 3.55346 3.73247 3.64407
# Velocity P-wave (km/s) = 6.78948 7.09874 6.94583
#
# Compressibility (1/GPa) = 0.01800446
#
# Stress axis : x y z
#
# Youngs Moduli (GPa) = 74.79146 100.01427 61.04547
#
# Poissons Ratio (x) = 0.42859 0.24052
# Poissons Ratio (y) = 0.32050 0.16163
# Poissons Ratio (z) = 0.29468 0.26480
#
# Static dielectric constant tensor:
#      x y z
#    x 3.476070 0.000000 0.000000 
#    y 0.000000 3.675070 0.000000 
#    z 0.000000 0.000000 3.502280 
# 
# 
# High freq. dielectric constant tensor:
#      x y z
#    x 1.722280 0.000000 0.000000 
#    y 0.000000 1.746990 0.000000 
#    z 0.000000 0.000000 1.737050 
# 
# From -- ./inp_files/11294.got.cif
#   From: 2010.03.12/outbox.cif.g09.slc.cpg/sg47_6_cif.got.tgz:11294.got - 2010.04.14 03:12:58.
