data_PCOD8198009
_publ_section_title
;
Structure prediction by ZEFSAII (Michael W. Deem and Ramdas Pophale) SiO2 
 PCOD8198009
Probable space group: P M M M
;
_chemical_formula_sum "Si O2"
_cell_formula_units_Z 64
_cell_length_a 14.092217
_cell_length_b 31.150137
_cell_length_c 8.922095
_cell_angle_alpha 90.000000
_cell_angle_beta 90.000000
_cell_angle_gamma 90.000000
_cell_volume 3916.572104
_symmetry_space_group_name_H-M "P M M M"
_symmetry_group_IT_number 47
_symmetry_cell_setting 'orthorhombic'
loop_
_space_group_symop_operation_xyz
x,y,z
-x,-y,z
x,-y,-z
-x,y,-z
-x,-y,-z
x,y,-z
-x,y,z
x,-y,z
loop_
_atom_site_type_symbol
_atom_site_label
_atom_site_fract_x
_atom_site_fract_y
_atom_site_fract_z
Si Si1 0.390080 0.200511 0.825512
Si Si2 0.390494 0.049390 0.828043
Si Si3 0.606040 0.454622 0.322285
Si Si4 0.720616 0.713938 0.175469
Si Si5 0.612983 0.361819 0.672697
Si Si6 0.107536 0.159306 0.175562
Si Si7 0.281999 0.123118 0.676123
Si Si8 0.107762 0.750144 0.674399
O O1 0.500000 0.205556 0.785565
O O2 0.339379 0.244375 0.777023
O O3 0.348469 0.161334 0.732407
O O4 0.374265 0.190563 0.000000
O O5 0.500000 0.057469 0.787916
O O6 0.326413 0.077577 0.719207
O O7 0.363367 0.000000 0.801194
O O8 0.371483 0.062477 0.000000
O O9 0.600336 0.453120 0.500000
O O10 0.500000 0.456146 0.256496
O O11 0.657686 0.500000 0.271980
O O12 0.652314 0.409092 0.273287
O O13 0.662401 0.672196 0.220765
O O14 0.821366 0.714114 0.261797
O O15 0.740495 0.712663 0.000000
O O16 0.640116 0.352629 0.500000
O O17 0.500000 0.359529 0.693783
O O18 0.177493 0.125197 0.251097
O O19 0.130515 0.206061 0.239496
O O20 0.000000 0.145377 0.212520
O O21 0.127176 0.161014 0.000000
O O22 0.271357 0.126347 0.500000
O O23 0.126412 0.758051 0.500000
O O24 0.000000 0.734896 0.704218
#
# Coordination Sequence:
#
# PCOD8198009 Si02
#       8
#     8   8   8   8   8   8   8   8
#     4  10  21  35  48  64  92 132 172 203 230 270
#     4   9  19  37  59  79 101 133 169 202 238 283
#     4   7  10  19  37  60  84 113 154 201 244 284
#     4  11  21  32  47  66  93 131 167 196 233 284
#     4   9  17  28  43  64  92 127 164 203 244 284
#     4  10  20  35  55  76  98 127 163 199 237 285
#     4  12  23  33  51  78 105 131 160 199 246 287
#     4  10  20  34  52  73  95 119 153 200 248 287
#
# _framework density 16.340820000000001
#
# number of rings (size 3 to 8) (size 9 to 14) (size 15 to 20)
#    0.000    2.250    1.250    4.500    0.000    5.000 
#    0.000    0.625    0.000    0.750    0.000    4.375 
#    0.000    0.500    0.000    5.750    0.000    1.875 
#
# Total GULP energy -793332.112584 kJ/mol
# GULP energy per Si atom -12395.814259 kJ/mol
# Density = 1.630363 g / cm^3
# Si number density = 16.340820 Si / 1000 Ang^3
#
#
#
# Elastic Constant Matrix: (Units=GPa)
#
#
# Indices 1 2 3 4 5 6 
#
# 1 85.7313 44.7157 40.3217 0.0000 0.0000 0.0000
# 2 44.7157 103.7260 39.3466 0.0000 0.0000 0.0000
# 3 40.3217 39.3466 71.3537 0.0000 0.0000 0.0000
# 4 0.0000 0.0000 0.0000 19.0366 0.0000 0.0000
# 5 0.0000 0.0000 0.0000 0.0000 23.0094 0.0000
# 6 0.0000 0.0000 0.0000 0.0000 0.0000 7.8585
#
#
#
# Elastic Compliance Matrix: (Units=1/GPa)
#
#
# Indices 1 2 3 4 5 6 
#
# 1 0.017610 -0.004826 -0.007290 0.000000 0.000000 0.000000
# 2 -0.004826 0.013514 -0.004724 0.000000 0.000000 0.000000
# 3 -0.007290 -0.004724 0.020740 0.000000 0.000000 0.000000
# 4 0.000000 0.000000 0.000000 0.052531 0.000000 0.000000
# 5 0.000000 0.000000 0.000000 0.000000 0.043461 0.000000
# 6 0.000000 0.000000 0.000000 0.000000 0.000000 0.127251
#
#
# Mechanical properties :
#
#
# Convention : Reuss Voigt Hill
#
# Bulk Modulus (GPa) = 55.00075 56.61990 55.81032
# Shear Modulus (GPa) = 15.88065 19.07601 17.47833
#
# Velocity S-wave (km/s) = 3.12082 3.42041 3.27404
# Velocity P-wave (km/s) = 6.83502 7.09391 6.96567
#
# Compressibility (1/GPa) = 0.01818157
#
# Stress axis : x y z
#
# Youngs Moduli (GPa) = 56.78440 73.99995 48.21709
#
# Poissons Ratio (x) = 0.35715 0.35151
# Poissons Ratio (y) = 0.27406 0.22780
# Poissons Ratio (z) = 0.41397 0.34961
#
# Static dielectric constant tensor:
#      x y z
#    x 3.052910 0.000000 0.000000 
#    y 0.000000 3.231290 0.000000 
#    z 0.000000 0.000000 2.991450 
# 
# 
# High freq. dielectric constant tensor:
#      x y z
#    x 1.609950 0.000000 0.000000 
#    y 0.000000 1.622100 0.000000 
#    z 0.000000 0.000000 1.624260 
# 
# From -- ./inp_files/8324.got.cif
#   From: 2010.03.12/outbox.cif.g09.slc.cpg/sg47_5_cif.got.tgz:8324.got - 2010.04.14 03:12:58.
