data_PCOD8198644
_publ_section_title
;
Structure prediction by ZEFSAII (Michael W. Deem and Ramdas Pophale) SiO2 
 PCOD8198644
Probable space group: P M M M
;
_chemical_formula_sum "Si O2"
_cell_formula_units_Z 52
_cell_length_a 12.508377
_cell_length_b 26.236716
_cell_length_c 8.960074
_cell_angle_alpha 90.000000
_cell_angle_beta 90.000000
_cell_angle_gamma 90.000000
_cell_volume 2940.505751
_symmetry_space_group_name_H-M "P M M M"
_symmetry_group_IT_number 47
_symmetry_cell_setting 'orthorhombic'
loop_
_space_group_symop_operation_xyz
x,y,z
-x,-y,z
x,-y,-z
-x,y,-z
-x,-y,-z
x,y,-z
-x,y,z
x,-y,z
loop_
_atom_site_type_symbol
_atom_site_label
_atom_site_fract_x
_atom_site_fract_y
_atom_site_fract_z
Si Si1 0.878400 0.599928 0.673229
Si Si2 0.000000 0.117967 0.176443
Si Si3 0.207094 0.940853 0.826066
Si Si4 0.000000 0.765337 0.177412
Si Si5 0.198379 0.709655 0.675697
Si Si6 0.623581 0.875978 0.326885
Si Si7 0.375453 0.771145 0.173689
Si Si8 0.127052 0.500000 0.168939
O O1 0.875879 0.587069 0.500000
O O2 0.809548 0.649708 0.712121
O O3 0.826935 0.551273 0.756064
O O4 0.000000 0.610261 0.726353
O O5 0.894525 0.089955 0.237972
O O6 0.000000 0.176131 0.229794
O O7 0.000000 0.113012 0.000000
O O8 0.310861 0.923952 0.733808
O O9 0.185907 0.000000 0.797073
O O10 0.227126 0.929455 0.000000
O O11 0.105162 0.739643 0.241787
O O12 0.000000 0.760165 0.000000
O O13 0.188325 0.719848 0.500000
O O14 0.312298 0.727616 0.737623
O O15 0.647743 0.866268 0.500000
O O16 0.500000 0.888618 0.298754
O O17 0.659306 0.825979 0.236230
O O18 0.500000 0.760905 0.202153
O O19 0.345472 0.769284 0.000000
O O20 0.000000 0.500000 0.188057
O O21 0.165321 0.500000 0.000000
#
# Coordination Sequence:
#
# PCOD8198644 Si02
#       8
#     8   4   8   4   8   8   8   4
#     4   9  17  31  47  67 101 143 178 210 255 308
#     4   9  19  35  52  72  99 133 169 203 244 296
#     4  10  20  35  56  78 101 131 168 209 252 303
#     4  11  21  32  51  77 107 142 177 214 261 310
#     4  11  21  34  52  77 109 142 178 217 259 311
#     4  10  21  37  56  77 102 132 165 207 259 311
#     4  10  21  37  56  78 104 135 173 216 262 314
#     4   9  17  27  43  69  98 133 178 223 259 299
#
# _framework density 17.684034
#
# number of rings (size 3 to 8) (size 9 to 14) (size 15 to 20)
#    0.000    2.077    0.769    3.000    0.000    6.769 
#    0.000    2.692    0.000    0.923    0.000    0.538 
#    0.000    4.308    0.000    0.000    0.000    0.000 
#
# Total GULP energy -644976.513381 kJ/mol
# GULP energy per Si atom -12403.394488 kJ/mol
# Density = 1.764378 g / cm^3
# Si number density = 17.684034 Si / 1000 Ang^3
#
#
#
# Elastic Constant Matrix: (Units=GPa)
#
#
# Indices 1 2 3 4 5 6 
#
# 1 72.4839 53.7837 40.2729 0.0000 0.0000 0.0000
# 2 53.7837 136.8611 64.3253 0.0000 0.0000 0.0000
# 3 40.2729 64.3253 84.5444 0.0000 0.0000 0.0000
# 4 0.0000 0.0000 0.0000 32.1949 0.0000 0.0000
# 5 0.0000 0.0000 0.0000 0.0000 27.1420 0.0000
# 6 0.0000 0.0000 0.0000 0.0000 0.0000 17.8927
#
#
#
# Elastic Compliance Matrix: (Units=1/GPa)
#
#
# Indices 1 2 3 4 5 6 
#
# 1 0.021183 -0.005576 -0.005848 0.000000 0.000000 0.000000
# 2 -0.005576 0.012842 -0.007115 0.000000 0.000000 0.000000
# 3 -0.005848 -0.007115 0.020027 0.000000 0.000000 0.000000
# 4 0.000000 0.000000 0.000000 0.031061 0.000000 0.000000
# 5 0.000000 0.000000 0.000000 0.000000 0.036843 0.000000
# 6 0.000000 0.000000 0.000000 0.000000 0.000000 0.055889
#
#
# Mechanical properties :
#
#
# Convention : Reuss Voigt Hill
#
# Bulk Modulus (GPa) = 58.91187 67.85034 63.38111
# Shear Modulus (GPa) = 22.66759 24.47975 23.57367
#
# Velocity S-wave (km/s) = 3.58412 3.72464 3.65505
# Velocity P-wave (km/s) = 7.10731 7.54643 7.33016
#
# Compressibility (1/GPa) = 0.01697451
#
# Stress axis : x y z
#
# Youngs Moduli (GPa) = 47.20834 77.87131 49.93269
#
# Poissons Ratio (x) = 0.43419 0.29201
# Poissons Ratio (y) = 0.26322 0.35525
# Poissons Ratio (z) = 0.27608 0.55402
#
# Static dielectric constant tensor:
#      x y z
#    x 3.226580 0.000000 0.000000 
#    y 0.000000 3.356120 0.000000 
#    z 0.000000 0.000000 3.276380 
# 
# 
# High freq. dielectric constant tensor:
#      x y z
#    x 1.663940 0.000000 0.000000 
#    y 0.000000 1.688410 0.000000 
#    z 0.000000 0.000000 1.686280 
# 
# From -- ./inp_files/4676.got.cif
#   From: 2010.03.12/outbox.cif.g09.slc.cpg/sg47_3_cif.got.tgz:4676.got - 2010.04.14 03:12:58.
