data_PCOD8198897
_publ_section_title
;
Structure prediction by ZEFSAII (Michael W. Deem and Ramdas Pophale) SiO2 
 PCOD8198897
Probable space group: P M M M
;
_chemical_formula_sum "Si O2"
_cell_formula_units_Z 64
_cell_length_a 20.455228
_cell_length_b 17.957694
_cell_length_c 8.806076
_cell_angle_alpha 90.000000
_cell_angle_beta 90.000000
_cell_angle_gamma 90.000000
_cell_volume 3234.724670
_symmetry_space_group_name_H-M "P M M M"
_symmetry_group_IT_number 47
_symmetry_cell_setting 'orthorhombic'
loop_
_space_group_symop_operation_xyz
x,y,z
-x,-y,z
x,-y,-z
-x,y,-z
-x,-y,-z
x,y,-z
-x,y,z
x,-y,z
loop_
_atom_site_type_symbol
_atom_site_label
_atom_site_fract_x
_atom_site_fract_y
_atom_site_fract_z
Si Si1 0.925620 0.213383 0.166036
Si Si2 0.429829 0.240186 0.678656
Si Si3 0.924616 0.362195 0.679702
Si Si4 0.741508 0.138973 0.176422
Si Si5 0.866436 0.916824 0.326503
Si Si6 0.617209 0.918009 0.675253
Si Si7 0.200789 0.583873 0.826141
Si Si8 0.290097 0.291344 0.680660
O O1 0.897996 0.282407 0.262056
O O2 0.921170 0.139072 0.265440
O O3 0.000000 0.230556 0.135045
O O4 0.890170 0.206888 0.000000
O O5 0.429557 0.250757 0.500000
O O6 0.500000 0.270263 0.744109
O O7 0.428828 0.151577 0.718634
O O8 0.366043 0.284342 0.741630
O O9 0.920028 0.364227 0.500000
O O10 0.871412 0.418216 0.749349
O O11 0.000000 0.380615 0.729762
O O12 0.804465 0.091341 0.218130
O O13 0.681267 0.087649 0.222854
O O14 0.746536 0.216777 0.266909
O O15 0.738208 0.157308 0.000000
O O16 0.847912 0.898390 0.500000
O O17 0.894661 0.000000 0.311761
O O18 0.638537 0.910772 0.500000
O O19 0.584544 0.000000 0.704345
O O20 0.228348 0.500000 0.814318
O O21 0.254396 0.636416 0.746682
O O22 0.192768 0.609283 0.000000
O O23 0.288027 0.296470 0.500000
#
# Coordination Sequence:
#
# PCOD8198897 Si02
#       8
#     8   8   8   8   8   8   8   8
#     4  10  21  37  56  76 100 132 171 215 262 315
#     4   8  15  29  51  80 109 139 181 231 280 326
#     4  10  21  38  61  87 115 147 182 219 259 310
#     4  11  21  33  51  73 100 135 176 220 266 319
#     4  11  23  36  50  69  96 131 173 224 277 324
#     4   9  17  29  46  71 105 142 179 222 271 320
#     4  11  24  40  59  85 117 149 179 215 261 315
#     4  10  20  36  59  83 109 142 180 224 270 320
#
# _framework density 19.785299999999999
#
# number of rings (size 3 to 8) (size 9 to 14) (size 15 to 20)
#    0.000    2.000    0.000    4.875    0.000    6.000 
#    0.000    3.750    0.000    9.750    0.000    6.125 
#    0.000    0.000    0.000    0.000    0.000    0.000 
#
# Total GULP energy -793087.504762 kJ/mol
# GULP energy per Si atom -12391.992262 kJ/mol
# Density = 1.974027 g / cm^3
# Si number density = 19.785300 Si / 1000 Ang^3
#
#
#
# Elastic Constant Matrix: (Units=GPa)
#
#
# Indices 1 2 3 4 5 6 
#
# 1 84.6005 33.6532 33.8910 0.0000 0.0000 0.0000
# 2 33.6532 93.9620 37.4384 0.0000 0.0000 0.0000
# 3 33.8910 37.4384 92.9680 0.0000 0.0000 0.0000
# 4 0.0000 0.0000 0.0000 26.7441 0.0000 0.0000
# 5 0.0000 0.0000 0.0000 0.0000 11.2240 0.0000
# 6 0.0000 0.0000 0.0000 0.0000 0.0000 16.4540
#
#
#
# Elastic Compliance Matrix: (Units=1/GPa)
#
#
# Indices 1 2 3 4 5 6 
#
# 1 0.014887 -0.003775 -0.003907 0.000000 0.000000 0.000000
# 2 -0.003775 0.013634 -0.004114 0.000000 0.000000 0.000000
# 3 -0.003907 -0.004114 0.013837 0.000000 0.000000 0.000000
# 4 0.000000 0.000000 0.000000 0.037391 0.000000 0.000000
# 5 0.000000 0.000000 0.000000 0.000000 0.089095 0.000000
# 6 0.000000 0.000000 0.000000 0.000000 0.000000 0.060776
#
#
# Mechanical properties :
#
#
# Convention : Reuss Voigt Hill
#
# Bulk Modulus (GPa) = 53.28764 53.49951 53.39358
# Shear Modulus (GPa) = 19.27018 21.98761 20.62890
#
# Velocity S-wave (km/s) = 3.12423 3.33725 3.23249
# Velocity P-wave (km/s) = 6.32501 6.47676 6.40133
#
# Compressibility (1/GPa) = 0.01876608
#
# Stress axis : x y z
#
# Youngs Moduli (GPa) = 67.17240 73.34591 72.26835
#
# Poissons Ratio (x) = 0.27691 0.28233
# Poissons Ratio (y) = 0.25360 0.29732
# Poissons Ratio (z) = 0.26242 0.30176
#
# Static dielectric constant tensor:
#      x y z
#    x 3.813130 0.000000 0.000000 
#    y 0.000000 3.511020 0.000000 
#    z 0.000000 0.000000 3.629260 
# 
# 
# High freq. dielectric constant tensor:
#      x y z
#    x 1.763170 0.000000 0.000000 
#    y 0.000000 1.756330 0.000000 
#    z 0.000000 0.000000 1.767440 
# 
# From -- ./inp_files/10070.got.cif
#   From: 2010.03.12/outbox.cif.g09.slc.cpg/sg47_6_cif.got.tgz:10070.got - 2010.04.14 03:12:58.
