data_PCOD8198374
_publ_section_title
;
Structure prediction by ZEFSAII (Michael W. Deem and Ramdas Pophale) SiO2 
 PCOD8198374
Probable space group: P M M M
;
_chemical_formula_sum "Si O2"
_cell_formula_units_Z 48
_cell_length_a 29.212477
_cell_length_b 9.983987
_cell_length_c 8.909809
_cell_angle_alpha 90.000000
_cell_angle_beta 90.000000
_cell_angle_gamma 90.000000
_cell_volume 2598.608080
_symmetry_space_group_name_H-M "P M M M"
_symmetry_group_IT_number 47
_symmetry_cell_setting 'orthorhombic'
loop_
_space_group_symop_operation_xyz
x,y,z
-x,-y,z
x,-y,-z
-x,y,-z
-x,-y,-z
x,y,-z
-x,y,z
x,-y,z
loop_
_atom_site_type_symbol
_atom_site_label
_atom_site_fract_x
_atom_site_fract_y
_atom_site_fract_z
Si Si1 0.553237 0.000000 0.321965
Si Si2 0.605537 0.245297 0.821408
Si Si3 0.948814 0.350340 0.822647
Si Si4 0.224179 0.148415 0.321974
Si Si5 0.696403 0.344174 0.322187
Si Si6 0.121878 0.845565 0.673101
Si Si7 0.449693 0.500000 0.822368
O O1 0.579659 0.875494 0.254819
O O2 0.500000 0.000000 0.271173
O O3 0.557362 0.000000 0.500000
O O4 0.656589 0.263791 0.761517
O O5 0.577338 0.372389 0.765048
O O6 0.606308 0.227050 0.000000
O O7 0.935546 0.500000 0.767841
O O8 0.913359 0.244111 0.761762
O O9 0.000000 0.314856 0.765409
O O10 0.947576 0.344249 0.000000
O O11 0.222855 0.142515 0.500000
O O12 0.257864 0.266865 0.268599
O O13 0.173104 0.181065 0.263457
O O14 0.239685 0.000000 0.263203
O O15 0.689004 0.333509 0.500000
O O16 0.699059 0.500000 0.271580
O O17 0.119246 0.804996 0.500000
O O18 0.108493 0.000000 0.696751
O O19 0.500000 0.500000 0.749319
O O20 0.453287 0.500000 0.000000
#
# Coordination Sequence:
#
# PCOD8198374 Si02
#       7
#     4   8   8   8   8   8   4
#     4  11  25  43  61  85 115 145 181 225 272 323
#     4  11  22  38  59  84 115 147 182 224 270 323
#     4   9  19  35  52  72 103 143 184 224 270 326
#     4   8  16  32  53  76 104 142 182 222 270 322
#     4  10  20  34  54  81 112 144 182 225 270 321
#     4   9  18  33  53  79 109 138 177 227 274 322
#     4   9  18  34  57  81 107 143 181 215 260 317
#
# _framework density 18.471428
#
# number of rings (size 3 to 8) (size 9 to 14) (size 15 to 20)
#    0.000    2.500    0.833    2.750    1.167    3.333 
#    0.000    5.000    0.000    3.000    0.000    0.000 
#    0.000    0.000    0.000    0.000    0.000    0.000 
#
# Total GULP energy -595018.836632 kJ/mol
# GULP energy per Si atom -12396.225763 kJ/mol
# Density = 1.842939 g / cm^3
# Si number density = 18.471428 Si / 1000 Ang^3
#
#
#
# Elastic Constant Matrix: (Units=GPa)
#
#
# Indices 1 2 3 4 5 6 
#
# 1 147.4551 87.1998 36.6233 0.0000 0.0000 0.0000
# 2 87.1998 138.3858 37.4776 0.0000 0.0000 0.0000
# 3 36.6233 37.4776 41.6227 0.0000 0.0000 0.0000
# 4 0.0000 0.0000 0.0000 27.2503 0.0000 0.0000
# 5 0.0000 0.0000 0.0000 0.0000 7.8263 0.0000
# 6 0.0000 0.0000 0.0000 0.0000 0.0000 43.0657
#
#
#
# Elastic Compliance Matrix: (Units=1/GPa)
#
#
# Indices 1 2 3 4 5 6 
#
# 1 0.011477 -0.005947 -0.004743 0.000000 0.000000 0.000000
# 2 -0.005947 0.012638 -0.006147 0.000000 0.000000 0.000000
# 3 -0.004743 -0.006147 0.033734 0.000000 0.000000 0.000000
# 4 0.000000 0.000000 0.000000 0.036697 0.000000 0.000000
# 5 0.000000 0.000000 0.000000 0.000000 0.127775 0.000000
# 6 0.000000 0.000000 0.000000 0.000000 0.000000 0.023220
#
#
# Mechanical properties :
#
#
# Convention : Reuss Voigt Hill
#
# Bulk Modulus (GPa) = 41.36673 72.22944 56.79809
# Shear Modulus (GPa) = 17.40501 26.70597 22.05549
#
# Velocity S-wave (km/s) = 3.07297 3.80649 3.45923
# Velocity P-wave (km/s) = 5.91899 7.64901 6.83893
#
# Compressibility (1/GPa) = 0.02417401
#
# Stress axis : x y z
#
# Youngs Moduli (GPa) = 87.13245 79.12451 29.64391
#
# Poissons Ratio (x) = 0.47057 0.14061
# Poissons Ratio (y) = 0.51819 0.18222
# Poissons Ratio (z) = 0.41330 0.48637
#
# Static dielectric constant tensor:
#      x y z
#    x 3.703070 0.000000 0.000000 
#    y 0.000000 3.589000 0.000000 
#    z 0.000000 0.000000 3.099430 
# 
# 
# High freq. dielectric constant tensor:
#      x y z
#    x 1.728200 0.000000 0.000000 
#    y 0.000000 1.728010 0.000000 
#    z 0.000000 0.000000 1.688720 
# 
# From -- ./inp_files/13827.got.cif
#   From: 2010.03.12/outbox.cif.g09.slc.cpg/sg47_7_cif.got.tgz:13827.got - 2010.04.14 03:12:58.
