data_PCOD8198760
_publ_section_title
;
Structure prediction by ZEFSAII (Michael W. Deem and Ramdas Pophale) SiO2 
 PCOD8198760
Probable space group: P M M M
;
_chemical_formula_sum "Si O2"
_cell_formula_units_Z 48
_cell_length_a 30.891283
_cell_length_b 8.888387
_cell_length_c 9.171153
_cell_angle_alpha 90.000000
_cell_angle_beta 90.000000
_cell_angle_gamma 90.000000
_cell_volume 2518.157213
_symmetry_space_group_name_H-M "P M M M"
_symmetry_group_IT_number 47
_symmetry_cell_setting 'orthorhombic'
loop_
_space_group_symop_operation_xyz
x,y,z
-x,-y,z
x,-y,-z
-x,y,-z
-x,-y,-z
x,y,-z
-x,y,z
x,-y,z
loop_
_atom_site_type_symbol
_atom_site_label
_atom_site_fract_x
_atom_site_fract_y
_atom_site_fract_z
Si Si1 0.500000 0.669591 0.673308
Si Si2 0.832156 0.326908 0.668788
Si Si3 0.083380 0.320886 0.835585
Si Si4 0.743038 0.825787 0.330205
Si Si5 0.665300 0.326160 0.828915
Si Si6 0.586790 0.176981 0.332878
Si Si7 0.000000 0.679593 0.664837
O O1 0.500000 0.500000 0.732249
O O2 0.500000 0.677435 0.500000
O O3 0.542999 0.750938 0.732361
O O4 0.844539 0.310288 0.500000
O O5 0.821452 0.500000 0.707177
O O6 0.872478 0.264365 0.761008
O O7 0.791239 0.225555 0.710725
O O8 0.082171 0.500000 0.833637
O O9 0.042362 0.257202 0.746894
O O10 0.081355 0.258657 0.000000
O O11 0.733452 0.796918 0.500000
O O12 0.710510 0.726440 0.237056
O O13 0.737301 0.000000 0.289681
O O14 0.657804 0.500000 0.790264
O O15 0.626847 0.229598 0.762029
O O16 0.666561 0.297446 0.000000
O O17 0.594468 0.227274 0.500000
O O18 0.581942 0.000000 0.320715
O O19 0.000000 0.500000 0.665910
O O20 0.000000 0.741011 0.500000
#
# Coordination Sequence:
#
# PCOD8198760 Si02
#       7
#     4   8   8   8   8   8   4
#     4   9  17  31  54  83 112 143 180 222 266 311
#     4   9  17  30  48  70  97 129 164 203 249 301
#     4   9  16  25  39  62  93 127 163 204 249 298
#     4  10  21  37  57  80 104 133 172 216 261 311
#     4  11  24  39  55  78 108 141 177 217 262 313
#     4  10  20  35  57  84 112 142 178 220 265 314
#     4   9  15  23  37  59  90 127 164 203 250 302
#
# _framework density 19.061558999999999
#
# number of rings (size 3 to 8) (size 9 to 14) (size 15 to 20)
#    0.000    2.333    0.000    3.000    0.000   10.000 
#    0.000    2.083    0.000    2.500    0.000    0.583 
#    0.000    4.667    0.000    0.000    0.000    0.000 
#
# Total GULP energy -595328.921152 kJ/mol
# GULP energy per Si atom -12402.685857 kJ/mol
# Density = 1.901817 g / cm^3
# Si number density = 19.061559 Si / 1000 Ang^3
#
#
#
# Elastic Constant Matrix: (Units=GPa)
#
#
# Indices 1 2 3 4 5 6 
#
# 1 136.3844 30.1278 64.1758 0.0000 0.0000 0.0000
# 2 30.1278 53.2071 29.1872 0.0000 0.0000 0.0000
# 3 64.1758 29.1872 93.5058 0.0000 0.0000 0.0000
# 4 0.0000 0.0000 0.0000 17.8393 0.0000 0.0000
# 5 0.0000 0.0000 0.0000 0.0000 -0.0211 0.0000
# 6 0.0000 0.0000 0.0000 0.0000 0.0000 5.8702
#
#
#
# Elastic Compliance Matrix: (Units=1/GPa)
#
#
# Indices 1 2 3 4 5 6 
#
# 1 0.011108 -0.002543 -0.006830 0.000000 0.000000 0.000000
# 2 -0.002543 0.023260 -0.005515 0.000000 0.000000 0.000000
# 3 -0.006830 -0.005515 0.017103 0.000000 0.000000 0.000000
# 4 0.000000 0.000000 0.000000 0.056056 0.000000 0.000000
# 5 0.000000 0.000000 0.000000 0.000000-47.385110 0.000000
# 6 0.000000 0.000000 0.000000 0.000000 0.000000 0.170353
#
#
# Mechanical properties :
#
#
# Convention : Reuss Voigt Hill
#
# Bulk Modulus (GPa) = 46.09295 58.89766 52.49530
# Shear Modulus (GPa) = -0.10622 15.37811 7.63594
#
# Velocity S-wave (km/s) = -0.23632 2.84343 2.00366
# Velocity P-wave (km/s) = 4.91519 6.46111 5.74043
#
# Compressibility (1/GPa) = 0.02169529
#
# Stress axis : x y z
#
# Youngs Moduli (GPa) = 90.02723 42.99278 58.46770
#
# Poissons Ratio (x) = 0.10933 0.39932
# Poissons Ratio (y) = 0.22895 0.32245
# Poissons Ratio (z) = 0.61487 0.23710
#
# Static dielectric constant tensor:
#      x y z
#    x 3.652940 0.000000 0.000000 
#    y 0.000000 3.268890 0.000000 
#    z 0.000000 0.000000 3.461170 
# 
# 
# High freq. dielectric constant tensor:
#      x y z
#    x 1.758630 0.000000 0.000000 
#    y 0.000000 1.717150 0.000000 
#    z 0.000000 0.000000 1.730520 
# 
# From -- ./inp_files/13956.got.cif
#   From: 2010.03.12/outbox.cif.g09.slc.cpg/sg47_7_cif.got.tgz:13956.got - 2010.04.14 03:12:58.
