data_PCOD8198451
_publ_section_title
;
Structure prediction by ZEFSAII (Michael W. Deem and Ramdas Pophale) SiO2 
 PCOD8198451
Probable space group: P M M M
;
_chemical_formula_sum "Si O2"
_cell_formula_units_Z 64
_cell_length_a 14.155980
_cell_length_b 8.952281
_cell_length_c 25.821261
_cell_angle_alpha 90.000000
_cell_angle_beta 90.000000
_cell_angle_gamma 90.000000
_cell_volume 3272.284789
_symmetry_space_group_name_H-M "P M M M"
_symmetry_group_IT_number 47
_symmetry_cell_setting 'orthorhombic'
loop_
_space_group_symop_operation_xyz
x,y,z
-x,-y,z
x,-y,-z
-x,y,-z
-x,-y,-z
x,y,-z
-x,y,z
x,-y,z
loop_
_atom_site_type_symbol
_atom_site_label
_atom_site_fract_x
_atom_site_fract_y
_atom_site_fract_z
Si Si1 0.700333 0.828331 0.658834
Si Si2 0.713803 0.326840 0.441586
Si Si3 0.716904 0.175731 0.851754
Si Si4 0.894072 0.830815 0.707904
Si Si5 0.389429 0.325990 0.243164
Si Si6 0.609332 0.329083 0.059491
Si Si7 0.892648 0.325623 0.813711
Si Si8 0.897658 0.836557 0.439842
O O1 0.661472 0.767421 0.603351
O O2 0.815190 0.805185 0.663253
O O3 0.648305 0.737739 0.703164
O O4 0.671371 0.000000 0.664168
O O5 0.684183 0.274997 0.500000
O O6 0.691167 0.500000 0.434310
O O7 0.824271 0.297030 0.430992
O O8 0.659555 0.246463 0.804748
O O9 0.670963 0.218145 0.906292
O O10 0.824150 0.236127 0.852130
O O11 0.716775 0.000000 0.844788
O O12 0.870417 0.720058 0.754735
O O13 0.000000 0.800279 0.686003
O O14 0.886272 0.000000 0.729364
O O15 0.500000 0.295010 0.239183
O O16 0.365222 0.500000 0.240589
O O17 0.500000 0.290870 0.068329
O O18 0.629173 0.500000 0.075846
O O19 0.637592 0.303355 0.000000
O O20 0.872847 0.500000 0.819479
O O21 0.000000 0.284333 0.828513
O O22 0.911041 0.859957 0.500000
O O23 0.000000 0.794900 0.415245
O O24 0.863335 0.000000 0.416937
#
# Coordination Sequence:
#
# PCOD8198451 Si02
#       8
#     8   8   8   8   8   8   8   8
#     4  11  22  36  57  83 111 145 180 225 283 338
#     4  10  21  35  51  72 100 137 179 222 270 328
#     4  12  23  35  57  89 124 161 197 238 289 342
#     4   9  18  33  52  77 110 145 182 226 280 339
#     4  11  24  41  61  85 115 150 186 228 280 338
#     4   9  19  37  60  86 119 161 207 253 300 348
#     4  10  20  34  55  82 113 153 199 243 286 336
#     4   8  14  26  44  65  91 125 166 212 260 310
#
# _framework density 19.558198999999998
#
# number of rings (size 3 to 8) (size 9 to 14) (size 15 to 20)
#    0.000    2.000    1.250    3.750    0.000    5.750 
#    0.000    3.125    0.000    0.750    0.000    5.250 
#    0.000    0.000    0.000    0.000    0.000    0.000 
#
# Total GULP energy -793348.552296 kJ/mol
# GULP energy per Si atom -12396.071130 kJ/mol
# Density = 1.951368 g / cm^3
# Si number density = 19.558199 Si / 1000 Ang^3
#
#
#
# Elastic Constant Matrix: (Units=GPa)
#
#
# Indices 1 2 3 4 5 6 
#
# 1 72.2016 55.9985 46.8471 0.0000 0.0000 0.0000
# 2 55.9985 113.5142 54.6439 0.0000 0.0000 0.0000
# 3 46.8471 54.6439 110.1558 0.0000 0.0000 0.0000
# 4 0.0000 0.0000 0.0000 29.1250 0.0000 0.0000
# 5 0.0000 0.0000 0.0000 0.0000 5.9756 0.0000
# 6 0.0000 0.0000 0.0000 0.0000 0.0000 22.7445
#
#
#
# Elastic Compliance Matrix: (Units=1/GPa)
#
#
# Indices 1 2 3 4 5 6 
#
# 1 0.025089 -0.009512 -0.005951 0.000000 0.000000 0.000000
# 2 -0.009512 0.015179 -0.003485 0.000000 0.000000 0.000000
# 3 -0.005951 -0.003485 0.013338 0.000000 0.000000 0.000000
# 4 0.000000 0.000000 0.000000 0.034335 0.000000 0.000000
# 5 0.000000 0.000000 0.000000 0.000000 0.167348 0.000000
# 6 0.000000 0.000000 0.000000 0.000000 0.000000 0.043967
#
#
# Mechanical properties :
#
#
# Convention : Reuss Voigt Hill
#
# Bulk Modulus (GPa) = 63.65340 67.87227 65.76284
# Shear Modulus (GPa) = 14.60333 20.79450 17.69891
#
# Velocity S-wave (km/s) = 2.73547 3.26423 3.01148
# Velocity P-wave (km/s) = 6.52636 6.99893 6.76677
#
# Compressibility (1/GPa) = 0.01571008
#
# Stress axis : x y z
#
# Youngs Moduli (GPa) = 39.85847 65.87938 74.97592
#
# Poissons Ratio (x) = 0.62663 0.44621
# Poissons Ratio (y) = 0.37913 0.26126
# Poissons Ratio (z) = 0.23721 0.22956
#
# Static dielectric constant tensor:
#      x y z
#    x 3.618350 0.000000 0.000000 
#    y 0.000000 3.561270 0.000000 
#    z 0.000000 0.000000 3.528600 
# 
# 
# High freq. dielectric constant tensor:
#      x y z
#    x 1.745460 0.000000 0.000000 
#    y 0.000000 1.762950 0.000000 
#    z 0.000000 0.000000 1.756220 
# 
# From -- ./inp_files/32787.got.cif
#   From: 2010.03.12/outbox.cif.g09.slc.cpg/sg47_17_cif.got.tgz:32787.got - 2010.04.14 03:12:58.
