data_PCOD8198962
_publ_section_title
;
Structure prediction by ZEFSAII (Michael W. Deem and Ramdas Pophale) SiO2 
 PCOD8198962
Probable space group: P M M M
;
_chemical_formula_sum "Si O2"
_cell_formula_units_Z 56
_cell_length_a 21.027752
_cell_length_b 8.806515
_cell_length_c 15.130474
_cell_angle_alpha 90.000000
_cell_angle_beta 90.000000
_cell_angle_gamma 90.000000
_cell_volume 2801.879535
_symmetry_space_group_name_H-M "P M M M"
_symmetry_group_IT_number 47
_symmetry_cell_setting 'orthorhombic'
loop_
_space_group_symop_operation_xyz
x,y,z
-x,-y,z
x,-y,-z
-x,y,-z
-x,-y,-z
x,y,-z
-x,y,z
x,-y,z
loop_
_atom_site_type_symbol
_atom_site_label
_atom_site_fract_x
_atom_site_fract_y
_atom_site_fract_z
Si Si1 0.570677 0.323835 0.346253
Si Si2 0.692531 0.173786 0.403810
Si Si3 0.242178 0.179105 0.228968
Si Si4 0.075199 0.829170 0.598592
Si Si5 0.000000 0.180316 0.896211
Si Si6 0.889688 0.678755 0.221702
Si Si7 0.425437 0.169540 0.000000
Si Si8 0.364245 0.676210 0.163045
O O1 0.500000 0.254359 0.362333
O O2 0.568871 0.500000 0.368272
O O3 0.623434 0.250725 0.409051
O O4 0.591222 0.291951 0.246359
O O5 0.725180 0.195390 0.500000
O O6 0.739769 0.237688 0.328458
O O7 0.679579 0.000000 0.380658
O O8 0.180432 0.267571 0.194752
O O9 0.299827 0.225418 0.165530
O O10 0.229169 0.000000 0.224764
O O11 0.096275 0.773171 0.500000
O O12 0.100662 0.720692 0.675298
O O13 0.000000 0.831678 0.604002
O O14 0.101678 0.000000 0.614631
O O15 0.061733 0.242296 0.845617
O O16 0.000000 0.000000 0.888339
O O17 0.000000 0.230223 0.000000
O O18 0.897470 0.500000 0.210694
O O19 0.404969 0.267572 0.917481
O O20 0.500000 0.154414 0.000000
O O21 0.395206 0.000000 0.000000
O O22 0.345979 0.500000 0.154296
#
# Coordination Sequence:
#
# PCOD8198962 Si02
#       8
#     8   8   8   8   4   8   4   8
#     4   9  18  32  51  76 107 145 187 233 289 347
#     4   9  19  35  54  78 109 148 195 243 286 332
#     4  10  21  39  61  83 114 157 200 240 287 348
#     4   9  18  34  58  87 121 162 203 242 290 351
#     4  11  25  47  72  95 120 155 201 248 296 351
#     4  12  24  39  63  95 128 160 196 246 305 360
#     4  11  23  37  57  87 119 150 187 232 287 357
#     4  10  20  37  58  81 111 146 189 241 295 348
#
# _framework density 19.986584000000001
#
# number of rings (size 3 to 8) (size 9 to 14) (size 15 to 20)
#    0.000    2.000    0.714    3.429    0.000    4.571 
#    1.286    3.571    0.000    0.000    0.000    0.000 
#    0.000    0.000    0.000    0.000    0.000    0.000 
#
# Total GULP energy -694262.385385 kJ/mol
# GULP energy per Si atom -12397.542596 kJ/mol
# Density = 1.994109 g / cm^3
# Si number density = 19.986584 Si / 1000 Ang^3
#
#
#
# Elastic Constant Matrix: (Units=GPa)
#
#
# Indices 1 2 3 4 5 6 
#
# 1 108.2723 30.5076 28.2134 0.0000 0.0000 0.0000
# 2 30.5076 71.6199 33.0673 0.0000 0.0000 0.0000
# 3 28.2134 33.0673 95.2943 0.0000 0.0000 0.0000
# 4 0.0000 0.0000 0.0000 27.9401 0.0000 0.0000
# 5 0.0000 0.0000 0.0000 0.0000 12.2034 0.0000
# 6 0.0000 0.0000 0.0000 0.0000 0.0000 33.5902
#
#
#
# Elastic Compliance Matrix: (Units=1/GPa)
#
#
# Indices 1 2 3 4 5 6 
#
# 1 0.010778 -0.003712 -0.001903 0.000000 0.000000 0.000000
# 2 -0.003712 0.017905 -0.005114 0.000000 0.000000 0.000000
# 3 -0.001903 -0.005114 0.012832 0.000000 0.000000 0.000000
# 4 0.000000 0.000000 0.000000 0.035791 0.000000 0.000000
# 5 0.000000 0.000000 0.000000 0.000000 0.081945 0.000000
# 6 0.000000 0.000000 0.000000 0.000000 0.000000 0.029771
#
#
# Mechanical properties :
#
#
# Convention : Reuss Voigt Hill
#
# Bulk Modulus (GPa) = 49.85959 50.97367 50.41663
# Shear Modulus (GPa) = 23.02404 26.97330 24.99867
#
# Velocity S-wave (km/s) = 3.39776 3.67763 3.54046
# Velocity P-wave (km/s) = 6.35560 6.60247 6.48021
#
# Compressibility (1/GPa) = 0.02005632
#
# Stress axis : x y z
#
# Youngs Moduli (GPa) = 92.78297 55.84990 77.93209
#
# Poissons Ratio (x) = 0.20734 0.14828
# Poissons Ratio (y) = 0.34446 0.39854
# Poissons Ratio (z) = 0.17654 0.28561
#
# Static dielectric constant tensor:
#      x y z
#    x 3.718130 0.000000 0.000000 
#    y 0.000000 3.629550 0.000000 
#    z 0.000000 0.000000 3.736000 
# 
# 
# High freq. dielectric constant tensor:
#      x y z
#    x 1.781490 0.000000 0.000000 
#    y 0.000000 1.775780 0.000000 
#    z 0.000000 0.000000 1.777530 
# 
# From -- ./inp_files/25255.got.cif
#   From: 2010.03.12/outbox.cif.g09.slc.cpg/sg47_13_cif.got.tgz:25255.got - 2010.04.14 03:12:58.
