data_PCOD8198285
_publ_section_title
;
Structure prediction by ZEFSAII (Michael W. Deem and Ramdas Pophale) SiO2 
 PCOD8198285
Probable space group: P M M M
;
_chemical_formula_sum "Si O2"
_cell_formula_units_Z 64
_cell_length_a 24.879571
_cell_length_b 9.044053
_cell_length_c 15.329432
_cell_angle_alpha 90.000000
_cell_angle_beta 90.000000
_cell_angle_gamma 90.000000
_cell_volume 3449.308587
_symmetry_space_group_name_H-M "P M M M"
_symmetry_group_IT_number 47
_symmetry_cell_setting 'orthorhombic'
loop_
_space_group_symop_operation_xyz
x,y,z
-x,-y,z
x,-y,-z
-x,y,-z
-x,-y,-z
x,y,-z
-x,y,z
x,-y,z
loop_
_atom_site_type_symbol
_atom_site_label
_atom_site_fract_x
_atom_site_fract_y
_atom_site_fract_z
Si Si1 0.439073 0.172403 0.225302
Si Si2 0.611102 0.831842 0.405360
Si Si3 0.713479 0.674501 0.643032
Si Si4 0.356622 0.330315 0.098187
Si Si5 0.939259 0.674593 0.902619
Si Si6 0.734772 0.174168 0.819892
Si Si7 0.181650 0.169508 0.404695
Si Si8 0.144578 0.828930 0.219031
O O1 0.500000 0.218214 0.203718
O O2 0.428637 0.212271 0.326827
O O3 0.400089 0.262520 0.162929
O O4 0.429408 0.000000 0.207468
O O5 0.581590 0.817820 0.500000
O O6 0.661531 0.721290 0.411094
O O7 0.631676 0.000000 0.391593
O O8 0.715751 0.500000 0.656734
O O9 0.707838 0.757997 0.734384
O O10 0.766782 0.725788 0.592853
O O11 0.347469 0.500000 0.124124
O O12 0.298715 0.247234 0.101581
O O13 0.378588 0.314464 0.000000
O O14 0.935693 0.500000 0.897534
O O15 0.901249 0.738890 0.828744
O O16 0.000000 0.727648 0.883636
O O17 0.922020 0.727619 0.000000
O O18 0.797933 0.214407 0.823084
O O19 0.726215 0.000000 0.820425
O O20 0.152603 0.185961 0.500000
O O21 0.143443 0.212016 0.322772
O O22 0.200704 0.000000 0.389700
O O23 0.132186 0.000000 0.204441
#
# Coordination Sequence:
#
# PCOD8198285 Si02
#       8
#     8   8   8   8   8   8   8   8
#     4  10  22  40  61  82 105 139 183 227 269 322
#     4  10  20  34  54  79 108 142 177 216 266 323
#     4  11  20  30  49  78 110 142 179 221 265 315
#     4  11  24  40  59  84 111 141 177 220 275 332
#     4   9  19  36  56  78 107 145 186 226 272 327
#     4  10  20  36  56  79 111 147 181 218 267 324
#     4   9  18  33  51  73 108 151 188 222 265 319
#     4   9  19  33  53  83 112 141 181 227 271 316
#
# _framework density 18.554442000000002
#
# number of rings (size 3 to 8) (size 9 to 14) (size 15 to 20)
#    0.000    2.125    1.250    3.375    0.000    7.250 
#    0.000    5.625    0.000    0.375    0.000    4.375 
#    0.000    0.000    0.000    0.000    0.000    0.000 
#
# Total GULP energy -793342.157211 kJ/mol
# GULP energy per Si atom -12395.971206 kJ/mol
# Density = 1.851221 g / cm^3
# Si number density = 18.554442 Si / 1000 Ang^3
#
#
#
# Elastic Constant Matrix: (Units=GPa)
#
#
# Indices 1 2 3 4 5 6 
#
# 1 95.5963 48.4236 64.0937 0.0000 0.0000 0.0000
# 2 48.4236 82.6143 49.2223 0.0000 0.0000 0.0000
# 3 64.0937 49.2223 126.9921 0.0000 0.0000 0.0000
# 4 0.0000 0.0000 0.0000 20.9755 0.0000 0.0000
# 5 0.0000 0.0000 0.0000 0.0000 18.1550 0.0000
# 6 0.0000 0.0000 0.0000 0.0000 0.0000 21.1886
#
#
#
# Elastic Compliance Matrix: (Units=1/GPa)
#
#
# Indices 1 2 3 4 5 6 
#
# 1 0.018350 -0.006810 -0.006622 0.000000 0.000000 0.000000
# 2 -0.006810 0.018267 -0.003643 0.000000 0.000000 0.000000
# 3 -0.006622 -0.003643 0.012628 0.000000 0.000000 0.000000
# 4 0.000000 0.000000 0.000000 0.047675 0.000000 0.000000
# 5 0.000000 0.000000 0.000000 0.000000 0.055081 0.000000
# 6 0.000000 0.000000 0.000000 0.000000 0.000000 0.047195
#
#
# Mechanical properties :
#
#
# Convention : Reuss Voigt Hill
#
# Bulk Modulus (GPa) = 66.24602 69.85352 68.04977
# Shear Modulus (GPa) = 20.97507 21.62803 21.30155
#
# Velocity S-wave (km/s) = 3.36588 3.41787 3.39197
# Velocity P-wave (km/s) = 7.13349 7.30105 7.21776
#
# Compressibility (1/GPa) = 0.01509525
#
# Stress axis : x y z
#
# Youngs Moduli (GPa) = 54.49597 54.74397 79.18611
#
# Poissons Ratio (x) = 0.37283 0.52434
# Poissons Ratio (y) = 0.37114 0.28847
# Poissons Ratio (z) = 0.36085 0.19943
#
# Static dielectric constant tensor:
#      x y z
#    x 3.222340 0.000000 0.000000 
#    y 0.000000 3.350170 0.000000 
#    z 0.000000 0.000000 3.590410 
# 
# 
# High freq. dielectric constant tensor:
#      x y z
#    x 1.691610 0.000000 0.000000 
#    y 0.000000 1.716970 0.000000 
#    z 0.000000 0.000000 1.730260 
# 
# From -- ./inp_files/7800.got.cif
#   From: 2010.03.12/outbox.cif.g09.slc.cpg/sg47_4_cif.got.tgz:7800.got - 2010.04.14 03:12:58.
