data_PCOD8198814
_publ_section_title
;
Structure prediction by ZEFSAII (Michael W. Deem and Ramdas Pophale) SiO2 
 PCOD8198814
Probable space group: P M M M
;
_chemical_formula_sum "Si O2"
_cell_formula_units_Z 44
_cell_length_a 29.683375
_cell_length_b 8.014838
_cell_length_c 9.492372
_cell_angle_alpha 90.000000
_cell_angle_beta 90.000000
_cell_angle_gamma 90.000000
_cell_volume 2258.305940
_symmetry_space_group_name_H-M "P M M M"
_symmetry_group_IT_number 47
_symmetry_cell_setting 'orthorhombic'
loop_
_space_group_symop_operation_xyz
x,y,z
-x,-y,z
x,-y,-z
-x,y,-z
-x,-y,-z
x,y,-z
-x,y,z
x,-y,z
loop_
_atom_site_type_symbol
_atom_site_label
_atom_site_fract_x
_atom_site_fract_y
_atom_site_fract_z
Si Si1 0.390614 0.187655 0.836731
Si Si2 0.129575 0.192813 0.848202
Si Si3 0.228367 0.194460 0.164441
Si Si4 0.550222 0.500000 0.166846
Si Si5 0.690066 0.309329 0.661538
Si Si6 0.950318 0.695278 0.660286
O O1 0.425219 0.329766 0.782327
O O2 0.345425 0.196152 0.745174
O O3 0.411071 0.000000 0.818447
O O4 0.378131 0.220128 0.000000
O O5 0.177977 0.262322 0.796269
O O6 0.088967 0.214125 0.741825
O O7 0.138378 0.000000 0.871886
O O8 0.116667 0.273734 0.000000
O O9 0.261690 0.296572 0.263820
O O10 0.234336 0.000000 0.198970
O O11 0.238427 0.229991 0.000000
O O12 0.500000 0.500000 0.232154
O O13 0.547402 0.500000 0.000000
O O14 0.693527 0.247771 0.500000
O O15 0.673742 0.500000 0.668221
O O16 0.947306 0.754631 0.500000
O O17 0.942593 0.500000 0.673066
O O18 0.000000 0.743166 0.720087
#
# Coordination Sequence:
#
# PCOD8198814 Si02
#       6
#     8   8   8   4   8   8
#     4  10  20  35  58  85 113 150 191 230 279 334
#     4   9  19  35  53  75 103 132 166 212 263 316
#     4   9  19  36  55  75 102 137 175 215 265 324
#     4   9  18  34  57  87 121 151 185 235 284 327
#     4  11  23  36  52  78 111 145 183 227 273 323
#     4   9  19  35  52  71  98 132 169 210 257 311
#
# _framework density 19.483630000000002
#
# number of rings (size 3 to 8) (size 9 to 14) (size 15 to 20)
#    0.000    2.455    0.909    2.727    0.000    7.273 
#    0.000   10.000    0.000    1.091    0.000    1.273 
#    0.000    0.000    0.000    0.000    0.000    0.000 
#
# Total GULP energy -545378.800910 kJ/mol
# GULP energy per Si atom -12394.972748 kJ/mol
# Density = 1.943928 g / cm^3
# Si number density = 19.483630 Si / 1000 Ang^3
#
#
#
# Elastic Constant Matrix: (Units=GPa)
#
#
# Indices 1 2 3 4 5 6 
#
# 1 138.0231 40.7119 52.9946 0.0000 0.0000 0.0000
# 2 40.7119 77.5481 27.5700 0.0000 0.0000 0.0000
# 3 52.9946 27.5700 74.6112 0.0000 0.0000 0.0000
# 4 0.0000 0.0000 0.0000 27.0053 0.0000 0.0000
# 5 0.0000 0.0000 0.0000 0.0000 -6.1961 0.0000
# 6 0.0000 0.0000 0.0000 0.0000 0.0000 29.5620
#
#
#
# Elastic Compliance Matrix: (Units=1/GPa)
#
#
# Indices 1 2 3 4 5 6 
#
# 1 0.010666 -0.003346 -0.006340 0.000000 0.000000 0.000000
# 2 -0.003346 0.015895 -0.003497 0.000000 0.000000 0.000000
# 3 -0.006340 -0.003497 0.019198 0.000000 0.000000 0.000000
# 4 0.000000 0.000000 0.000000 0.037030 0.000000 0.000000
# 5 0.000000 0.000000 0.000000 0.000000 -0.161392 0.000000
# 6 0.000000 0.000000 0.000000 0.000000 0.000000 0.033827
#
#
# Mechanical properties :
#
#
# Convention : Reuss Voigt Hill
#
# Bulk Modulus (GPa) = 51.56169 59.19282 55.37725
# Shear Modulus (GPa) = -418.54103 21.33465 -198.60319
#
# Velocity S-wave (km/s) = -14.67253 3.31267 -10.10716
# Velocity P-wave (km/s) = 16.14071 6.71405 10.37892
#
# Compressibility (1/GPa) = 0.01939425
#
# Stress axis : x y z
#
# Youngs Moduli (GPa) = 93.75435 62.91297 52.08900
#
# Poissons Ratio (x) = 0.21049 0.33023
# Poissons Ratio (y) = 0.31368 0.18216
# Poissons Ratio (z) = 0.59437 0.22001
#
# Static dielectric constant tensor:
#      x y z
#    x -3.987360 0.000000 0.000000 
#    y 0.000000 3.452650 0.000000 
#    z 0.000000 0.000000 3.472150 
# 
# 
# High freq. dielectric constant tensor:
#      x y z
#    x 1.759940 0.000000 0.000000 
#    y 0.000000 1.754580 0.000000 
#    z 0.000000 0.000000 1.738820 
# 
# From -- ./inp_files/13593.got.cif
#   From: 2010.03.12/outbox.cif.g09.slc.cpg/sg47_7_cif.got.tgz:13593.got - 2010.04.14 03:12:58.
