data_PCOD8198154
_publ_section_title
;
Structure prediction by ZEFSAII (Michael W. Deem and Ramdas Pophale) SiO2 
 PCOD8198154
Probable space group: P M M M
;
_chemical_formula_sum "Si O2"
_cell_formula_units_Z 52
_cell_length_a 9.195618
_cell_length_b 20.399348
_cell_length_c 14.739941
_cell_angle_alpha 90.000000
_cell_angle_beta 90.000000
_cell_angle_gamma 90.000000
_cell_volume 2764.986108
_symmetry_space_group_name_H-M "P M M M"
_symmetry_group_IT_number 47
_symmetry_cell_setting 'orthorhombic'
loop_
_space_group_symop_operation_xyz
x,y,z
-x,-y,z
x,-y,-z
-x,y,-z
-x,-y,-z
x,y,-z
-x,y,z
x,-y,z
loop_
_atom_site_type_symbol
_atom_site_label
_atom_site_fract_x
_atom_site_fract_y
_atom_site_fract_z
Si Si1 0.660710 0.923091 0.500000
Si Si2 0.329997 0.806688 0.258869
Si Si3 0.327446 0.306181 0.396893
Si Si4 0.668052 0.427465 0.720858
Si Si5 0.160754 0.248635 0.899169
Si Si6 0.837165 0.403186 0.099785
Si Si7 0.828774 0.924940 0.322435
O O1 0.500000 0.889385 0.500000
O O2 0.752015 0.900917 0.414134
O O3 0.640245 0.000000 0.500000
O O4 0.500000 0.822749 0.264723
O O5 0.280314 0.759118 0.341672
O O6 0.292870 0.772713 0.164426
O O7 0.238604 0.874408 0.251299
O O8 0.264775 0.302872 0.500000
O O9 0.500000 0.310763 0.400668
O O10 0.265153 0.371276 0.345548
O O11 0.500000 0.411050 0.735585
O O12 0.689475 0.500000 0.676580
O O13 0.737202 0.429731 0.820305
O O14 0.162756 0.325811 0.900479
O O15 0.000000 0.224780 0.865427
O O16 0.189654 0.220628 0.000000
O O17 0.000000 0.429439 0.117008
O O18 0.782837 0.427721 0.000000
O O19 0.000000 0.916634 0.332815
O O20 0.789310 0.000000 0.296680
#
# Coordination Sequence:
#
# PCOD8198154 Si02
#       7
#     4   8   8   8   8   8   8
#     4   9  17  31  51  75 105 141 182 225 268 317
#     4  11  21  33  56  84 110 142 179 226 276 321
#     4   9  19  35  52  75 107 140 179 224 268 315
#     4  10  20  34  53  77 105 139 181 227 272 317
#     4   9  18  34  56  80 107 140 177 219 270 330
#     4   9  18  33  53  76 104 139 175 214 266 328
#     4  10  21  36  53  76 110 150 187 223 269 328
#
# _framework density 18.806604
#
# number of rings (size 3 to 8) (size 9 to 14) (size 15 to 20)
#    0.000    2.385    1.538    2.077    1.077    3.385 
#    0.000    4.615    0.000    2.769    0.000    4.308 
#    0.000    0.000    0.000    0.000    0.000    0.000 
#
# Total GULP energy -644401.194611 kJ/mol
# GULP energy per Si atom -12392.330666 kJ/mol
# Density = 1.876380 g / cm^3
# Si number density = 18.806604 Si / 1000 Ang^3
#
#
#
# Elastic Constant Matrix: (Units=GPa)
#
#
# Indices 1 2 3 4 5 6 
#
# 1 68.7236 40.3278 32.4661 0.0000 0.0000 0.0000
# 2 40.3278 100.8129 42.0458 0.0000 0.0000 0.0000
# 3 32.4661 42.0458 102.7444 0.0000 0.0000 0.0000
# 4 0.0000 0.0000 0.0000 16.8335 0.0000 0.0000
# 5 0.0000 0.0000 0.0000 0.0000 29.9176 0.0000
# 6 0.0000 0.0000 0.0000 0.0000 0.0000 18.2819
#
#
#
# Elastic Compliance Matrix: (Units=1/GPa)
#
#
# Indices 1 2 3 4 5 6 
#
# 1 0.020113 -0.006505 -0.003693 0.000000 0.000000 0.000000
# 2 -0.006505 0.014065 -0.003700 0.000000 0.000000 0.000000
# 3 -0.003693 -0.003700 0.012414 0.000000 0.000000 0.000000
# 4 0.000000 0.000000 0.000000 0.059405 0.000000 0.000000
# 5 0.000000 0.000000 0.000000 0.000000 0.033425 0.000000
# 6 0.000000 0.000000 0.000000 0.000000 0.000000 0.054699
#
#
# Mechanical properties :
#
#
# Convention : Reuss Voigt Hill
#
# Bulk Modulus (GPa) = 53.20702 55.77336 54.49019
# Shear Modulus (GPa) = 21.91209 23.50268 22.70738
#
# Velocity S-wave (km/s) = 3.41710 3.53895 3.47856
# Velocity P-wave (km/s) = 6.62736 6.81319 6.72091
#
# Compressibility (1/GPa) = 0.01879451
#
# Stress axis : x y z
#
# Youngs Moduli (GPa) = 49.71831 71.09896 80.55332
#
# Poissons Ratio (x) = 0.46253 0.29751
# Poissons Ratio (y) = 0.32344 0.29805
# Poissons Ratio (z) = 0.18363 0.26307
#
# Static dielectric constant tensor:
#      x y z
#    x 3.377230 0.000000 0.000000 
#    y 0.000000 3.481670 0.000000 
#    z 0.000000 0.000000 3.821200 
# 
# 
# High freq. dielectric constant tensor:
#      x y z
#    x 1.713360 0.000000 0.000000 
#    y 0.000000 1.731540 0.000000 
#    z 0.000000 0.000000 1.719100 
# 
# From -- ./inp_files/11062.got.cif
#   From: 2010.03.12/outbox.cif.g09.slc.cpg/sg47_6_cif.got.tgz:11062.got - 2010.04.14 03:12:58.
