data_PCOD8198922
_publ_section_title
;
Structure prediction by ZEFSAII (Michael W. Deem and Ramdas Pophale) SiO2 
 PCOD8198922
Probable space group: P M M M
;
_chemical_formula_sum "Si O2"
_cell_formula_units_Z 48
_cell_length_a 8.882579
_cell_length_b 28.844468
_cell_length_c 9.856697
_cell_angle_alpha 90.000000
_cell_angle_beta 90.000000
_cell_angle_gamma 90.000000
_cell_volume 2525.416528
_symmetry_space_group_name_H-M "P M M M"
_symmetry_group_IT_number 47
_symmetry_cell_setting 'orthorhombic'
loop_
_space_group_symop_operation_xyz
x,y,z
-x,-y,z
x,-y,-z
-x,y,-z
-x,-y,-z
x,y,-z
-x,y,z
x,-y,z
loop_
_atom_site_type_symbol
_atom_site_label
_atom_site_fract_x
_atom_site_fract_y
_atom_site_fract_z
Si Si1 0.324762 0.945265 0.500000
Si Si2 0.325042 0.553935 0.847334
Si Si3 0.823585 0.710027 0.844647
Si Si4 0.821564 0.103029 0.248180
Si Si5 0.821787 0.373716 0.655219
Si Si6 0.325402 0.806390 0.157862
Si Si7 0.670808 0.945124 0.000000
O O1 0.500000 0.932194 0.500000
O O2 0.241996 0.923081 0.375322
O O3 0.301232 0.000000 0.500000
O O4 0.500000 0.565575 0.831888
O O5 0.293946 0.500000 0.823177
O O6 0.235507 0.580608 0.730909
O O7 0.271269 0.567832 0.000000
O O8 0.765905 0.670503 0.741871
O O9 0.736189 0.756156 0.802223
O O10 0.000000 0.719433 0.828215
O O11 0.785256 0.695572 0.000000
O O12 0.762918 0.155691 0.245081
O O13 0.761037 0.072913 0.126374
O O14 0.000000 0.103805 0.249007
O O15 0.760101 0.371329 0.500000
O O16 0.000000 0.375549 0.653695
O O17 0.500000 0.808556 0.194973
O O18 0.295963 0.816937 0.000000
O O19 0.500000 0.925257 0.000000
O O20 0.667167 0.000000 0.000000
#
# Coordination Sequence:
#
# PCOD8198922 Si02
#       7
#     4   8   8   8   8   8   4
#     4  11  25  45  65  85 117 159 197 237 290 351
#     4   9  19  36  57  81 110 147 193 243 291 342
#     4   9  18  34  56  79 107 145 190 237 286 339
#     4  12  24  39  62  90 120 154 195 242 291 347
#     4  10  21  36  54  81 117 154 190 234 288 346
#     4  10  20  36  60  87 116 149 190 239 291 346
#     4  11  23  39  61  89 121 157 195 239 292 345
#
# _framework density 19.006765000000001
#
# number of rings (size 3 to 8) (size 9 to 14) (size 15 to 20)
#    0.000    1.833    0.833    4.000    0.000    6.667 
#    1.500    4.167    0.000    0.000    0.000    0.000 
#    0.000    0.000    0.000    0.000    0.000    0.000 
#
# Total GULP energy -595255.296930 kJ/mol
# GULP energy per Si atom -12401.152019 kJ/mol
# Density = 1.896350 g / cm^3
# Si number density = 19.006765 Si / 1000 Ang^3
#
#
#
# Elastic Constant Matrix: (Units=GPa)
#
#
# Indices 1 2 3 4 5 6 
#
# 1 98.3563 58.6191 52.9435 0.0000 0.0000 0.0000
# 2 58.6191 109.2960 66.4396 0.0000 0.0000 0.0000
# 3 52.9435 66.4396 141.2446 0.0000 0.0000 0.0000
# 4 0.0000 0.0000 0.0000 24.8278 0.0000 0.0000
# 5 0.0000 0.0000 0.0000 0.0000 28.8852 0.0000
# 6 0.0000 0.0000 0.0000 0.0000 0.0000 5222.7181
#
#
#
# Elastic Compliance Matrix: (Units=1/GPa)
#
#
# Indices 1 2 3 4 5 6 
#
# 1 0.015638 -0.006756 -0.002684 0.000000 0.000000 0.000000
# 2 -0.006756 0.015732 -0.004868 0.000000 0.000000 0.000000
# 3 -0.002684 -0.004868 0.010376 0.000000 0.000000 0.000000
# 4 0.000000 0.000000 0.000000 0.040277 0.000000 0.000000
# 5 0.000000 0.000000 0.000000 0.000000 0.034620 0.000000
# 6 0.000000 0.000000 0.000000 0.000000 0.000000 0.000191
#
#
# Mechanical properties :
#
#
# Convention : Reuss Voigt Hill
#
# Bulk Modulus (GPa) = 76.15669 78.32237 77.23953
# Shear Modulus (GPa) = 33.37198 1066.67919 550.02558
#
# Velocity S-wave (km/s) = 4.19477 23.71558 17.02975
# Velocity P-wave (km/s) = 7.97600 28.12831 20.67388
#
# Compressibility (1/GPa) = 0.01313082
#
# Stress axis : x y z
#
# Youngs Moduli (GPa) = 63.94610 63.56524 96.37922
#
# Poissons Ratio (x) = 0.42943 0.25867
# Poissons Ratio (y) = 0.43200 0.46915
# Poissons Ratio (z) = 0.17163 0.30942
#
# Static dielectric constant tensor:
#      x y z
#    x 3.506540 0.000000 0.000000 
#    y 0.000000 3.577110 0.000000 
#    z 0.000000 0.000000 3.592000 
# 
# 
# High freq. dielectric constant tensor:
#      x y z
#    x 1.741070 0.000000 0.000000 
#    y 0.000000 1.751050 0.000000 
#    z 0.000000 0.000000 1.736400 
# 
# From -- ./inp_files/2660.got.cif
#   From: 2010.03.12/outbox.cif.g09.slc.cpg/sg47_2_cif.got.tgz:2660.got - 2010.04.14 03:12:58.
