data_PCOD8198773
_publ_section_title
;
Structure prediction by ZEFSAII (Michael W. Deem and Ramdas Pophale) SiO2 
 PCOD8198773
Probable space group: P M M M
;
_chemical_formula_sum "Si O2"
_cell_formula_units_Z 48
_cell_length_a 9.006120
_cell_length_b 31.181135
_cell_length_c 8.955066
_cell_angle_alpha 90.000000
_cell_angle_beta 90.000000
_cell_angle_gamma 90.000000
_cell_volume 2514.770979
_symmetry_space_group_name_H-M "P M M M"
_symmetry_group_IT_number 47
_symmetry_cell_setting 'orthorhombic'
loop_
_space_group_symop_operation_xyz
x,y,z
-x,-y,z
x,-y,-z
-x,y,-z
-x,-y,-z
x,y,-z
-x,y,z
x,-y,z
loop_
_atom_site_type_symbol
_atom_site_label
_atom_site_fract_x
_atom_site_fract_y
_atom_site_fract_z
Si Si1 0.330742 0.592443 0.177795
Si Si2 0.332931 0.000000 0.177265
Si Si3 0.825293 0.914233 0.826961
Si Si4 0.327530 0.164803 0.325874
Si Si5 0.175452 0.329966 0.332528
Si Si6 0.828567 0.243707 0.175902
Si Si7 0.324242 0.500000 0.163180
O O1 0.500000 0.602368 0.223111
O O2 0.226964 0.627555 0.250059
O O3 0.280636 0.545197 0.242415
O O4 0.312373 0.592985 0.000000
O O5 0.248209 0.042166 0.234522
O O6 0.500000 0.000000 0.241533
O O7 0.333350 0.000000 0.000000
O O8 0.764382 0.875869 0.728254
O O9 0.000000 0.918149 0.804793
O O10 0.784573 0.905888 0.000000
O O11 0.297757 0.172064 0.500000
O O12 0.500000 0.157053 0.290917
O O13 0.273053 0.206188 0.237890
O O14 0.240225 0.328677 0.500000
O O15 0.231492 0.287971 0.245408
O O16 0.000000 0.330659 0.334121
O O17 0.000000 0.234969 0.219665
O O18 0.808736 0.246604 0.000000
O O19 0.500000 0.500000 0.142460
O O20 0.249079 0.500000 0.000000
#
# Coordination Sequence:
#
# PCOD8198773 Si02
#       7
#     8   4   8   8   8   8   4
#     4   9  17  31  53  78 102 132 173 219 264 310
#     4   9  17  31  54  83 114 147 182 224 272 315
#     4  10  20  35  57  84 112 144 184 226 267 315
#     4  11  24  39  55  79 111 144 177 216 264 316
#     4  10  21  36  53  75 106 142 175 210 258 314
#     4  10  21  38  60  82 102 131 174 219 262 312
#     4   7  12  26  48  73 100 130 168 215 262 307
#
# _framework density 19.087226000000001
#
# number of rings (size 3 to 8) (size 9 to 14) (size 15 to 20)
#    0.000    2.333    0.000    3.750    0.000    8.333 
#    0.000    1.250    0.000    6.500    0.000    0.000 
#    0.000    0.000    0.000    0.000    0.000    0.000 
#
# Total GULP energy -595105.737425 kJ/mol
# GULP energy per Si atom -12398.036196 kJ/mol
# Density = 1.904378 g / cm^3
# Si number density = 19.087226 Si / 1000 Ang^3
#
#
#
# Elastic Constant Matrix: (Units=GPa)
#
#
# Indices 1 2 3 4 5 6 
#
# 1 54.1308 37.6286 21.3090 0.0000 0.0000 0.0000
# 2 37.6286 161.6327 37.7712 0.0000 0.0000 0.0000
# 3 21.3090 37.7712 55.0164 0.0000 0.0000 0.0000
# 4 0.0000 0.0000 0.0000 -31.4916 0.0000 0.0000
# 5 0.0000 0.0000 0.0000 0.0000 25.5017 0.0000
# 6 0.0000 0.0000 0.0000 0.0000 0.0000 39.5999
#
#
#
# Elastic Compliance Matrix: (Units=1/GPa)
#
#
# Indices 1 2 3 4 5 6 
#
# 1 0.023821 -0.004037 -0.006455 0.000000 0.000000 0.000000
# 2 -0.004037 0.008053 -0.003965 0.000000 0.000000 0.000000
# 3 -0.006455 -0.003965 0.023399 0.000000 0.000000 0.000000
# 4 0.000000 0.000000 0.000000 -0.031755 0.000000 0.000000
# 5 0.000000 0.000000 0.000000 0.000000 0.039213 0.000000
# 6 0.000000 0.000000 0.000000 0.000000 0.000000 0.025253
#
#
# Mechanical properties :
#
#
# Convention : Reuss Voigt Hill
#
# Bulk Modulus (GPa) = 37.93791 51.57749 44.75770
# Shear Modulus (GPa) = 39.78192 18.32675 29.05433
#
# Velocity S-wave (km/s) = 4.57028 3.10200 3.90575
# Velocity P-wave (km/s) = 6.91152 6.31748 6.62117
#
# Compressibility (1/GPa) = 0.02635886
#
# Stress axis : x y z
#
# Youngs Moduli (GPa) = 41.97945 124.17139 42.73727
#
# Poissons Ratio (x) = 0.50131 0.27586
# Poissons Ratio (y) = 0.16948 0.16947
# Poissons Ratio (z) = 0.27096 0.49237
#
# Static dielectric constant tensor:
#      x y z
#    x 3.407380 0.000000 0.000000 
#    y 0.000000 3.846460 0.000000 
#    z 0.000000 0.000000 3.388700 
# 
# 
# High freq. dielectric constant tensor:
#      x y z
#    x 1.731650 0.000000 0.000000 
#    y 0.000000 1.764760 0.000000 
#    z 0.000000 0.000000 1.723890 
# 
# From -- ./inp_files/2594.got.cif
#   From: 2010.03.12/outbox.cif.g09.slc.cpg/sg47_2_cif.got.tgz:2594.got - 2010.04.14 03:12:58.
