data_PCOD8198923
_publ_section_title
;
Structure prediction by ZEFSAII (Michael W. Deem and Ramdas Pophale) SiO2 
 PCOD8198923
Probable space group: P M M M
;
_chemical_formula_sum "Si O2"
_cell_formula_units_Z 48
_cell_length_a 9.176805
_cell_length_b 15.426049
_cell_length_c 17.646743
_cell_angle_alpha 90.000000
_cell_angle_beta 90.000000
_cell_angle_gamma 90.000000
_cell_volume 2498.105472
_symmetry_space_group_name_H-M "P M M M"
_symmetry_group_IT_number 47
_symmetry_cell_setting 'orthorhombic'
loop_
_space_group_symop_operation_xyz
x,y,z
-x,-y,z
x,-y,-z
-x,y,-z
-x,-y,-z
x,y,-z
-x,y,z
x,-y,z
loop_
_atom_site_type_symbol
_atom_site_label
_atom_site_fract_x
_atom_site_fract_y
_atom_site_fract_z
Si Si1 0.828932 0.268502 0.914968
Si Si2 0.171848 0.400321 0.500000
Si Si3 0.332318 0.333640 0.646032
Si Si4 0.833426 0.096559 0.831743
Si Si5 0.668900 0.135034 0.319480
Si Si6 0.330804 0.598333 0.806305
Si Si7 0.836804 0.000000 0.411007
O O1 0.789448 0.169612 0.892691
O O2 0.756786 0.336879 0.859081
O O3 0.000000 0.284361 0.910845
O O4 0.770326 0.283886 0.000000
O O5 0.219492 0.500000 0.500000
O O6 0.233363 0.355628 0.574826
O O7 0.000000 0.388324 0.500000
O O8 0.500000 0.349778 0.623349
O O9 0.303059 0.235870 0.670343
O O10 0.286236 0.391673 0.718177
O O11 0.727988 0.103857 0.760689
O O12 0.000000 0.111057 0.804982
O O13 0.815059 0.000000 0.867508
O O14 0.500000 0.110856 0.324286
O O15 0.753027 0.085965 0.385748
O O16 0.500000 0.621744 0.815467
O O17 0.297191 0.500000 0.831443
O O18 0.843349 0.000000 0.500000
O O19 0.000000 0.000000 0.376450
#
# Coordination Sequence:
#
# PCOD8198923 Si02
#       7
#     8   4   8   8   8   8   4
#     4  10  22  39  59  87 123 159 196 244 299 355
#     4  11  25  41  59  88 121 152 191 241 294 351
#     4  10  22  40  62  87 116 154 197 243 298 354
#     4  10  20  36  60  87 116 154 196 237 288 352
#     4  11  22  37  60  87 114 149 195 245 289 340
#     4  10  21  39  63  88 115 153 201 247 294 354
#     4  11  25  41  57  83 120 159 196 237 291 350
#
# _framework density 19.214562000000001
#
# number of rings (size 3 to 8) (size 9 to 14) (size 15 to 20)
#    0.000    1.667    2.500    1.500    1.167    5.333 
#    0.000    3.333    0.000    0.000    0.000    2.333 
#    0.000    0.000    0.000    0.000    0.000    0.000 
#
# Total GULP energy -595305.346114 kJ/mol
# GULP energy per Si atom -12402.194711 kJ/mol
# Density = 1.917083 g / cm^3
# Si number density = 19.214562 Si / 1000 Ang^3
#
#
#
# Elastic Constant Matrix: (Units=GPa)
#
#
# Indices 1 2 3 4 5 6 
#
# 1 72.3386 44.2157 36.5159 0.0000 0.0000 0.0000
# 2 44.2157 114.6485 46.8664 0.0000 0.0000 0.0000
# 3 36.5159 46.8664 105.3118 0.0000 0.0000 0.0000
# 4 0.0000 0.0000 0.0000 23.0273 0.0000 0.0000
# 5 0.0000 0.0000 0.0000 0.0000 24.7625 0.0000
# 6 0.0000 0.0000 0.0000 0.0000 0.0000 29.2426
#
#
#
# Elastic Compliance Matrix: (Units=1/GPa)
#
#
# Indices 1 2 3 4 5 6 
#
# 1 0.019478 -0.005808 -0.004169 0.000000 0.000000 0.000000
# 2 -0.005808 0.012394 -0.003502 0.000000 0.000000 0.000000
# 3 -0.004169 -0.003502 0.012500 0.000000 0.000000 0.000000
# 4 0.000000 0.000000 0.000000 0.043427 0.000000 0.000000
# 5 0.000000 0.000000 0.000000 0.000000 0.040384 0.000000
# 6 0.000000 0.000000 0.000000 0.000000 0.000000 0.034197
#
#
# Mechanical properties :
#
#
# Convention : Reuss Voigt Hill
#
# Bulk Modulus (GPa) = 57.42486 60.83276 59.12881
# Shear Modulus (GPa) = 25.62251 26.38654 26.00453
#
# Velocity S-wave (km/s) = 3.65567 3.70977 3.68282
# Velocity P-wave (km/s) = 6.91155 7.07660 6.99456
#
# Compressibility (1/GPa) = 0.01741406
#
# Stress axis : x y z
#
# Youngs Moduli (GPa) = 51.33890 80.68698 80.00242
#
# Poissons Ratio (x) = 0.46861 0.33356
# Poissons Ratio (y) = 0.29816 0.28014
# Poissons Ratio (z) = 0.21405 0.28254
#
# Static dielectric constant tensor:
#      x y z
#    x 3.562640 0.000000 0.000000 
#    y 0.000000 3.921010 0.000000 
#    z 0.000000 0.000000 3.477380 
# 
# 
# High freq. dielectric constant tensor:
#      x y z
#    x 1.746090 0.000000 0.000000 
#    y 0.000000 1.764720 0.000000 
#    z 0.000000 0.000000 1.744270 
# 
# From -- ./inp_files/9251.got.cif
#   From: 2010.03.12/outbox.cif.g09.slc.cpg/sg47_5_cif.got.tgz:9251.got - 2010.04.14 03:12:58.
