data_PCOD8198657
_publ_section_title
;
Structure prediction by ZEFSAII (Michael W. Deem and Ramdas Pophale) SiO2 
 PCOD8198657
Probable space group: P M M M
;
_chemical_formula_sum "Si O2"
_cell_formula_units_Z 40
_cell_length_a 9.373367
_cell_length_b 8.279516
_cell_length_c 27.175650
_cell_angle_alpha 90.000000
_cell_angle_beta 90.000000
_cell_angle_gamma 90.000000
_cell_volume 2109.019095
_symmetry_space_group_name_H-M "P M M M"
_symmetry_group_IT_number 47
_symmetry_cell_setting 'orthorhombic'
loop_
_space_group_symop_operation_xyz
x,y,z
-x,-y,z
x,-y,-z
-x,y,-z
-x,-y,-z
x,y,-z
-x,y,z
x,-y,z
loop_
_atom_site_type_symbol
_atom_site_label
_atom_site_fract_x
_atom_site_fract_y
_atom_site_fract_z
Si Si1 0.330679 0.819802 0.111547
Si Si2 0.342421 0.186998 0.398767
Si Si3 0.669778 0.500000 0.943866
Si Si4 0.337859 0.186019 0.776378
Si Si5 0.332918 0.315050 0.500000
Si Si6 0.839407 0.313741 0.689679
O O1 0.500000 0.822612 0.107611
O O2 0.269708 0.666859 0.080469
O O3 0.284166 0.791711 0.167810
O O4 0.275496 0.000000 0.093930
O O5 0.500000 0.269198 0.391760
O O6 0.267320 0.243377 0.449667
O O7 0.242893 0.222131 0.352924
O O8 0.365794 0.000000 0.402472
O O9 0.500000 0.500000 0.939330
O O10 0.721238 0.500000 0.000000
O O11 0.500000 0.248868 0.770871
O O12 0.236177 0.290468 0.742029
O O13 0.329071 0.000000 0.760242
O O14 0.294919 0.500000 0.500000
O O15 0.500000 0.275001 0.500000
O O16 0.840002 0.500000 0.675868
O O17 0.000000 0.245370 0.693137
#
# Coordination Sequence:
#
# PCOD8198657 Si02
#       6
#     8   8   4   8   4   8
#     4   8  15  27  42  64  95 128 167 213 254 301
#     4  10  20  35  56  80 104 132 169 209 249 298
#     4   9  16  24  38  64  97 135 173 204 249 308
#     4   9  18  33  53  75  97 128 172 215 256 305
#     4   9  17  31  54  81 106 131 162 204 250 295
#     4  11  24  37  49  72 105 136 168 209 257 308
#
# _framework density 18.966163999999999
#
# number of rings (size 3 to 8) (size 9 to 14) (size 15 to 20)
#    0.000    2.600    0.000    3.300    1.400    7.200 
#    0.000    2.500    0.000    3.000    0.000    0.000 
#    0.000    1.600    0.000    4.400    0.000    4.400 
#
# Total GULP energy -495762.842467 kJ/mol
# GULP energy per Si atom -12394.071062 kJ/mol
# Density = 1.892300 g / cm^3
# Si number density = 18.966164 Si / 1000 Ang^3
#
#
#
# Elastic Constant Matrix: (Units=GPa)
#
#
# Indices 1 2 3 4 5 6 
#
# 1 53.5532 19.4032 35.3559 0.0000 0.0000 0.0000
# 2 19.4032 103.3112 61.8466 0.0000 0.0000 0.0000
# 3 35.3559 61.8466 131.2078 0.0000 0.0000 0.0000
# 4 0.0000 0.0000 0.0000 38.4646 0.0000 0.0000
# 5 0.0000 0.0000 0.0000 0.0000 -2.2833 0.0000
# 6 0.0000 0.0000 0.0000 0.0000 0.0000 15.4470
#
#
#
# Elastic Compliance Matrix: (Units=1/GPa)
#
#
# Indices 1 2 3 4 5 6 
#
# 1 0.022766 -0.000840 -0.005739 0.000000 0.000000 0.000000
# 2 -0.000840 0.013516 -0.006144 0.000000 0.000000 0.000000
# 3 -0.005739 -0.006144 0.012064 0.000000 0.000000 0.000000
# 4 0.000000 0.000000 0.000000 0.025998 0.000000 0.000000
# 5 0.000000 0.000000 0.000000 0.000000 -0.437968 0.000000
# 6 0.000000 0.000000 0.000000 0.000000 0.000000 0.064738
#
#
# Mechanical properties :
#
#
# Convention : Reuss Voigt Hill
#
# Bulk Modulus (GPa) = 43.66964 57.92042 50.79503
# Shear Modulus (GPa) = -18.81064 21.75676 1.47306
#
# Velocity S-wave (km/s) = -3.15270 3.39061 0.88225
# Velocity P-wave (km/s) = 3.13406 6.77742 5.27995
#
# Compressibility (1/GPa) = 0.02289920
#
# Stress axis : x y z
#
# Youngs Moduli (GPa) = 43.92498 73.98875 82.89117
#
# Poissons Ratio (x) = 0.06218 0.47567
# Poissons Ratio (y) = 0.03692 0.50931
# Poissons Ratio (z) = 0.25206 0.45461
#
# Static dielectric constant tensor:
#      x y z
#    x 3.111650 0.000000 0.000000 
#    y 0.000000 3.667050 0.000000 
#    z 0.000000 0.000000 3.554550 
# 
# 
# High freq. dielectric constant tensor:
#      x y z
#    x 1.677650 0.000000 0.000000 
#    y 0.000000 1.747640 0.000000 
#    z 0.000000 0.000000 1.743760 
# 
# From -- ./inp_files/13082.got.cif
#   From: 2010.03.12/outbox.cif.g09.slc.cpg/sg47_7_cif.got.tgz:13082.got - 2010.04.14 03:12:58.
