data_PCOD8198700
_publ_section_title
;
Structure prediction by ZEFSAII (Michael W. Deem and Ramdas Pophale) SiO2 
 PCOD8198700
Probable space group: P M M M
;
_chemical_formula_sum "Si O2"
_cell_formula_units_Z 40
_cell_length_a 29.192168
_cell_length_b 7.706062
_cell_length_c 9.283260
_cell_angle_alpha 90.000000
_cell_angle_beta 90.000000
_cell_angle_gamma 90.000000
_cell_volume 2088.331131
_symmetry_space_group_name_H-M "P M M M"
_symmetry_group_IT_number 47
_symmetry_cell_setting 'orthorhombic'
loop_
_space_group_symop_operation_xyz
x,y,z
-x,-y,z
x,-y,-z
-x,y,-z
-x,-y,-z
x,y,-z
-x,y,z
x,-y,z
loop_
_atom_site_type_symbol
_atom_site_label
_atom_site_fract_x
_atom_site_fract_y
_atom_site_fract_z
Si Si1 0.635453 0.198819 0.845041
Si Si2 0.946132 0.198528 0.835347
Si Si3 0.895814 0.500000 0.672540
Si Si4 0.799652 0.500000 0.828300
Si Si5 0.449808 0.703902 0.662177
Si Si6 0.733694 0.805670 0.171428
O O1 0.591130 0.211798 0.747676
O O2 0.683430 0.265934 0.774866
O O3 0.645798 0.000000 0.873844
O O4 0.625595 0.290448 0.000000
O O5 0.921192 0.326731 0.725815
O O6 0.000000 0.224231 0.816257
O O7 0.932266 0.000000 0.799080
O O8 0.931906 0.242371 0.000000
O O9 0.894175 0.500000 0.500000
O O10 0.845719 0.500000 0.738903
O O11 0.772284 0.328510 0.777612
O O12 0.808932 0.500000 0.000000
O O13 0.446812 0.773195 0.500000
O O14 0.500000 0.755329 0.726062
O O15 0.443533 0.500000 0.666795
O O16 0.745136 0.000000 0.230914
O O17 0.731567 0.809032 0.000000
#
# Coordination Sequence:
#
# PCOD8198700 Si02
#       6
#     8   8   4   4   8   8
#     4   9  18  32  51  76 101 123 155 206 263 312
#     4   9  19  38  64  90 115 150 199 247 284 324
#     4  12  25  37  52  83 126 161 189 230 287 345
#     4  10  20  35  57  78  99 142 192 227 271 324
#     4   9  19  34  48  66  96 132 167 201 240 296
#     4   8  16  32  53  78 103 126 166 225 275 318
#
# _framework density 19.154052
#
# number of rings (size 3 to 8) (size 9 to 14) (size 15 to 20)
#    0.000    2.800    0.000    3.600    1.400    4.400 
#    0.000    7.000    0.000    1.200    0.000    0.000 
#    0.000    0.000    0.000    0.000    0.000    0.000 
#
# Total GULP energy -495598.797510 kJ/mol
# GULP energy per Si atom -12389.969938 kJ/mol
# Density = 1.911046 g / cm^3
# Si number density = 19.154052 Si / 1000 Ang^3
#
#
#
# Elastic Constant Matrix: (Units=GPa)
#
#
# Indices 1 2 3 4 5 6 
#
# 1 133.4418 63.5143 56.2983 0.0000 0.0000 0.0000
# 2 63.5143 99.2596 41.3091 0.0000 0.0000 0.0000
# 3 56.2983 41.3091 76.6314 0.0000 0.0000 0.0000
# 4 0.0000 0.0000 0.0000 19.6768 0.0000 0.0000
# 5 0.0000 0.0000 0.0000 0.0000 -138.4090 0.0000
# 6 0.0000 0.0000 0.0000 0.0000 0.0000 4.6741
#
#
#
# Elastic Compliance Matrix: (Units=1/GPa)
#
#
# Indices 1 2 3 4 5 6 
#
# 1 0.012854 -0.005537 -0.006459 0.000000 0.000000 0.000000
# 2 -0.005537 0.015374 -0.004219 0.000000 0.000000 0.000000
# 3 -0.006459 -0.004219 0.020069 0.000000 0.000000 0.000000
# 4 0.000000 0.000000 0.000000 0.050821 0.000000 0.000000
# 5 0.000000 0.000000 0.000000 0.000000 -0.007225 0.000000
# 6 0.000000 0.000000 0.000000 0.000000 0.000000 0.213944
#
#
# Mechanical properties :
#
#
# Convention : Reuss Voigt Hill
#
# Bulk Modulus (GPa) = 63.02638 70.17512 66.60075
# Shear Modulus (GPa) = 14.55363 -12.93088 0.81138
#
# Velocity S-wave (km/s) = 2.75947 -2.60109 0.65156
# Velocity P-wave (km/s) = 6.56729 5.26269 5.95085
#
# Compressibility (1/GPa) = 0.01586637
#
# Stress axis : x y z
#
# Youngs Moduli (GPa) = 77.79444 65.04570 49.82829
#
# Poissons Ratio (x) = 0.36018 0.32182
# Poissons Ratio (y) = 0.43077 0.21024
# Poissons Ratio (z) = 0.50245 0.27445
#
# Static dielectric constant tensor:
#      x y z
#    x 0.583750 0.000000 0.000000 
#    y 0.000000 3.672020 0.000000 
#    z 0.000000 0.000000 3.327040 
# 
# 
# High freq. dielectric constant tensor:
#      x y z
#    x 1.755140 0.000000 0.000000 
#    y 0.000000 1.749580 0.000000 
#    z 0.000000 0.000000 1.703420 
# 
# From -- ./inp_files/1718.got.cif
#   From: 2010.03.12/outbox.cif.g09.slc.cpg/sg47_1_cif.got.tgz:1718.got - 2010.04.14 03:12:58.
