data_PCOD8198713
_publ_section_title
;
Structure prediction by ZEFSAII (Michael W. Deem and Ramdas Pophale) SiO2 
 PCOD8198713
Probable space group: P M M M
;
_chemical_formula_sum "Si O2"
_cell_formula_units_Z 44
_cell_length_a 9.067360
_cell_length_b 9.184210
_cell_length_c 28.178762
_cell_angle_alpha 90.000000
_cell_angle_beta 90.000000
_cell_angle_gamma 90.000000
_cell_volume 2346.629755
_symmetry_space_group_name_H-M "P M M M"
_symmetry_group_IT_number 47
_symmetry_cell_setting 'orthorhombic'
loop_
_space_group_symop_operation_xyz
x,y,z
-x,-y,z
x,-y,-z
-x,y,-z
-x,-y,-z
x,y,-z
-x,y,z
x,-y,z
loop_
_atom_site_type_symbol
_atom_site_label
_atom_site_fract_x
_atom_site_fract_y
_atom_site_fract_z
Si Si1 0.827300 0.169251 0.779814
Si Si2 0.666336 0.173138 0.314103
Si Si3 0.830832 0.832238 0.945047
Si Si4 0.172315 0.830665 0.407627
Si Si5 0.329881 0.671173 0.135258
Si Si6 0.824504 0.664349 0.500000
O O1 0.751280 0.230823 0.732211
O O2 0.767533 0.257291 0.824129
O O3 0.000000 0.195667 0.774729
O O4 0.789926 0.000000 0.787656
O O5 0.500000 0.232765 0.312615
O O6 0.745067 0.232079 0.361452
O O7 0.671306 0.000000 0.314673
O O8 0.722099 0.730722 0.915457
O O9 0.000000 0.793589 0.932907
O O10 0.800014 0.000000 0.932199
O O11 0.797840 0.802576 0.000000
O O12 0.234825 0.745403 0.453203
O O13 0.000000 0.802708 0.399814
O O14 0.205961 0.000000 0.415932
O O15 0.500000 0.712585 0.143183
O O16 0.304500 0.500000 0.136240
O O17 0.764629 0.500000 0.500000
O O18 0.000000 0.669824 0.500000
#
# Coordination Sequence:
#
# PCOD8198713 Si02
#       6
#     8   8   8   8   8   4
#     4  10  20  35  57  82 105 133 173 218 261 308
#     4   9  17  30  50  76 103 130 163 206 255 304
#     4   9  19  37  60  84 108 136 175 221 264 308
#     4   9  16  28  48  72  96 124 162 206 248 292
#     4  11  24  38  52  76 111 146 178 214 258 309
#     4   9  17  29  46  69  96 126 162 203 246 294
#
# _framework density 18.750295000000001
#
# number of rings (size 3 to 8) (size 9 to 14) (size 15 to 20)
#    0.000    2.455    0.000    3.000    0.000    9.091 
#    0.000    4.091    0.000    6.545    0.000    0.000 
#    0.000    0.000    0.000    0.000    0.000    0.000 
#
# Total GULP energy -545697.793959 kJ/mol
# GULP energy per Si atom -12402.222590 kJ/mol
# Density = 1.870762 g / cm^3
# Si number density = 18.750295 Si / 1000 Ang^3
#
#
#
# Elastic Constant Matrix: (Units=GPa)
#
#
# Indices 1 2 3 4 5 6 
#
# 1 84.9484 41.7544 56.5344 0.0000 0.0000 0.0000
# 2 41.7544 62.5579 50.0293 0.0000 0.0000 0.0000
# 3 56.5344 50.0293 140.8388 0.0000 0.0000 0.0000
# 4 0.0000 0.0000 0.0000 0.9300 0.0000 0.0000
# 5 0.0000 0.0000 0.0000 0.0000 15.2704 0.0000
# 6 0.0000 0.0000 0.0000 0.0000 0.0000 21.6592
#
#
#
# Elastic Compliance Matrix: (Units=1/GPa)
#
#
# Indices 1 2 3 4 5 6 
#
# 1 0.019317 -0.009348 -0.004434 0.000000 0.000000 0.000000
# 2 -0.009348 0.026852 -0.005786 0.000000 0.000000 0.000000
# 3 -0.004434 -0.005786 0.010935 0.000000 0.000000 0.000000
# 4 0.000000 0.000000 0.000000 1.075217 0.000000 0.000000
# 5 0.000000 0.000000 0.000000 0.000000 0.065486 0.000000
# 6 0.000000 0.000000 0.000000 0.000000 0.000000 0.046170
#
#
# Mechanical properties :
#
#
# Convention : Reuss Voigt Hill
#
# Bulk Modulus (GPa) = 55.64993 64.99792 60.32392
# Shear Modulus (GPa) = 3.87867 16.90707 10.39287
#
# Velocity S-wave (km/s) = 1.43982 3.00608 2.35686
# Velocity P-wave (km/s) = 5.70158 6.84025 6.29671
#
# Compressibility (1/GPa) = 0.01796947
#
# Stress axis : x y z
#
# Youngs Moduli (GPa) = 51.76773 37.24181 91.44619
#
# Poissons Ratio (x) = 0.34812 0.40544
# Poissons Ratio (y) = 0.48390 0.52912
# Poissons Ratio (z) = 0.22952 0.21548
#
# Static dielectric constant tensor:
#      x y z
#    x 3.419690 0.000000 0.000000 
#    y 0.000000 3.217980 0.000000 
#    z 0.000000 0.000000 3.635490 
# 
# 
# High freq. dielectric constant tensor:
#      x y z
#    x 1.722390 0.000000 0.000000 
#    y 0.000000 1.700460 0.000000 
#    z 0.000000 0.000000 1.745880 
# 
# From -- ./inp_files/33878.got.cif
#   From: 2010.03.12/outbox.cif.g09.slc.cpg/sg47_17_cif.got.tgz:33878.got - 2010.04.14 03:12:58.
