data_PCOD8198959
_publ_section_title
;
Structure prediction by ZEFSAII (Michael W. Deem and Ramdas Pophale) SiO2 
 PCOD8198959
Probable space group: P M M M
;
_chemical_formula_sum "Si O2"
_cell_formula_units_Z 48
_cell_length_a 9.518282
_cell_length_b 28.397747
_cell_length_c 9.993639
_cell_angle_alpha 90.000000
_cell_angle_beta 90.000000
_cell_angle_gamma 90.000000
_cell_volume 2701.258277
_symmetry_space_group_name_H-M "P M M M"
_symmetry_group_IT_number 47
_symmetry_cell_setting 'orthorhombic'
loop_
_space_group_symop_operation_xyz
x,y,z
-x,-y,z
x,-y,-z
-x,y,-z
-x,-y,-z
x,y,-z
-x,y,z
x,-y,z
loop_
_atom_site_type_symbol
_atom_site_label
_atom_site_fract_x
_atom_site_fract_y
_atom_site_fract_z
Si Si1 0.164074 0.946348 0.652590
Si Si2 0.163169 0.706740 0.345388
Si Si3 0.836235 0.399365 0.728735
Si Si4 0.658102 0.555475 0.500000
Si Si5 0.336877 0.227671 0.848088
Si Si6 0.165427 0.447300 0.000000
Si Si7 0.661765 0.118398 0.847779
O O1 0.204548 0.934335 0.500000
O O2 0.245349 0.911925 0.749401
O O3 0.000000 0.938625 0.675814
O O4 0.205953 0.000000 0.685671
O O5 0.212187 0.708026 0.500000
O O6 0.194256 0.655760 0.283921
O O7 0.248228 0.744157 0.259900
O O8 0.000000 0.719521 0.334014
O O9 0.741080 0.427975 0.628620
O O10 0.000000 0.410191 0.699539
O O11 0.786350 0.417057 0.873167
O O12 0.652369 0.500000 0.500000
O O13 0.500000 0.576399 0.500000
O O14 0.500000 0.239286 0.826718
O O15 0.306659 0.173006 0.822167
O O16 0.292373 0.241118 0.000000
O O17 0.232789 0.500000 0.000000
O O18 0.000000 0.452929 0.000000
O O19 0.500000 0.107081 0.818544
O O20 0.699866 0.105014 0.000000
#
# Coordination Sequence:
#
# PCOD8198959 Si02
#       7
#     8   8   8   4   8   4   8
#     4   9  19  35  53  76 109 146 182 222 269 320
#     4  10  21  36  54  80 109 137 176 222 266 315
#     4  10  20  37  58  80 108 141 177 219 265 315
#     4  11  23  37  55  81 111 143 179 217 260 313
#     4   9  20  38  57  78 106 142 181 218 265 325
#     4   9  18  32  55  85 107 131 175 221 260 309
#     4   9  19  36  55  77 107 140 179 226 268 315
#
# _framework density 17.769497000000001
#
# number of rings (size 3 to 8) (size 9 to 14) (size 15 to 20)
#    0.000    2.500    0.833    2.250    1.167    5.333 
#    0.000    7.917    0.000    1.500    0.000    0.000 
#    0.000    0.000    0.000    0.000    0.000    0.000 
#
# Total GULP energy -595185.844386 kJ/mol
# GULP energy per Si atom -12399.705091 kJ/mol
# Density = 1.772905 g / cm^3
# Si number density = 17.769497 Si / 1000 Ang^3
#
#
#
# Elastic Constant Matrix: (Units=GPa)
#
#
# Indices 1 2 3 4 5 6 
#
# 1 69.9723 57.5796 70.4002 0.0000 0.0000 0.0000
# 2 57.5796 104.2013 89.5467 0.0000 0.0000 0.0000
# 3 70.4002 89.5467 167.5239 0.0000 0.0000 0.0000
# 4 0.0000 0.0000 0.0000 43.2826 0.0000 0.0000
# 5 0.0000 0.0000 0.0000 0.0000 16.5134 0.0000
# 6 0.0000 0.0000 0.0000 0.0000 0.0000 5.8787
#
#
#
# Elastic Compliance Matrix: (Units=1/GPa)
#
#
# Indices 1 2 3 4 5 6 
#
# 1 0.030009 -0.010626 -0.006931 0.000000 0.000000 0.000000
# 2 -0.010626 0.021513 -0.007034 0.000000 0.000000 0.000000
# 3 -0.006931 -0.007034 0.012642 0.000000 0.000000 0.000000
# 4 0.000000 0.000000 0.000000 0.023104 0.000000 0.000000
# 5 0.000000 0.000000 0.000000 0.000000 0.060557 0.000000
# 6 0.000000 0.000000 0.000000 0.000000 0.000000 0.170105
#
#
# Mechanical properties :
#
#
# Convention : Reuss Voigt Hill
#
# Bulk Modulus (GPa) = 66.74715 86.30560 76.52638
# Shear Modulus (GPa) = 13.43702 21.41301 17.42502
#
# Velocity S-wave (km/s) = 2.75286 3.47514 3.13487
# Velocity P-wave (km/s) = 6.91004 8.04842 7.50086
#
# Compressibility (1/GPa) = 0.01498191
#
# Stress axis : x y z
#
# Youngs Moduli (GPa) = 33.32352 46.48264 79.10216
#
# Poissons Ratio (x) = 0.49393 0.54825
# Poissons Ratio (y) = 0.35410 0.55641
# Poissons Ratio (z) = 0.23096 0.32696
#
# Static dielectric constant tensor:
#      x y z
#    x 3.190020 0.000000 0.000000 
#    y 0.000000 3.297780 0.000000 
#    z 0.000000 0.000000 3.670520 
# 
# 
# High freq. dielectric constant tensor:
#      x y z
#    x 1.676140 0.000000 0.000000 
#    y 0.000000 1.692650 0.000000 
#    z 0.000000 0.000000 1.699000 
# 
# From -- ./inp_files/2715.got.cif
#   From: 2010.03.12/outbox.cif.g09.slc.cpg/sg47_2_cif.got.tgz:2715.got - 2010.04.14 03:12:58.
