data_PCOD8198380
_publ_section_title
;
Structure prediction by ZEFSAII (Michael W. Deem and Ramdas Pophale) SiO2 
 PCOD8198380
Probable space group: P M M M
;
_chemical_formula_sum "Si O2"
_cell_formula_units_Z 44
_cell_length_a 15.256484
_cell_length_b 15.403266
_cell_length_c 9.480633
_cell_angle_alpha 90.000000
_cell_angle_beta 90.000000
_cell_angle_gamma 90.000000
_cell_volume 2227.945733
_symmetry_space_group_name_H-M "P M M M"
_symmetry_group_IT_number 47
_symmetry_cell_setting 'orthorhombic'
loop_
_space_group_symop_operation_xyz
x,y,z
-x,-y,z
x,-y,-z
-x,y,-z
-x,-y,-z
x,y,-z
-x,y,z
x,-y,z
loop_
_atom_site_type_symbol
_atom_site_label
_atom_site_fract_x
_atom_site_fract_y
_atom_site_fract_z
Si Si1 0.157449 0.149984 0.840620
Si Si2 0.404506 0.275835 0.663933
Si Si3 0.680298 0.097979 0.660258
Si Si4 0.898681 0.344733 0.841159
Si Si5 0.255047 0.597322 0.661481
Si Si6 0.000000 0.902582 0.349301
O O1 0.246880 0.115637 0.776245
O O2 0.149289 0.252812 0.838440
O O3 0.083413 0.113007 0.743651
O O4 0.148702 0.114640 0.000000
O O5 0.406773 0.298863 0.500000
O O6 0.500000 0.299131 0.730609
O O7 0.391931 0.172376 0.686679
O O8 0.326398 0.335471 0.729422
O O9 0.717607 0.107154 0.500000
O O10 0.641921 0.000000 0.681410
O O11 0.838477 0.403677 0.741583
O O12 0.000000 0.339490 0.786823
O O13 0.898469 0.382315 0.000000
O O14 0.235413 0.623551 0.500000
O O15 0.293977 0.500000 0.671964
O O16 0.000000 0.849583 0.500000
O O17 0.000000 0.000000 0.396735
#
# Coordination Sequence:
#
# PCOD8198380 Si02
#       6
#     8   8   8   8   8   4
#     4  11  21  35  54  77 107 147 192 236 282 333
#     4   9  18  34  57  85 116 149 185 230 284 336
#     4  10  20  34  54  81 112 147 188 231 279 335
#     4  10  21  38  58  81 110 147 190 231 279 338
#     4  10  21  37  59  87 115 145 184 230 282 338
#     4  11  23  35  49  75 110 147 190 237 285 336
#
# _framework density 19.749134000000002
#
# number of rings (size 3 to 8) (size 9 to 14) (size 15 to 20)
#    0.000    1.909    2.727    1.364    0.000    5.818 
#    0.000    5.455    0.000    2.182    0.000    2.545 
#    0.000    0.000    0.000    0.000    0.000    0.000 
#
# Total GULP energy -545184.332091 kJ/mol
# GULP energy per Si atom -12390.553002 kJ/mol
# Density = 1.970418 g / cm^3
# Si number density = 19.749134 Si / 1000 Ang^3
#
#
#
# Elastic Constant Matrix: (Units=GPa)
#
#
# Indices 1 2 3 4 5 6 
#
# 1 115.8992 38.7862 42.1761 0.0000 0.0000 0.0000
# 2 38.7862 101.0165 23.0882 0.0000 0.0000 0.0000
# 3 42.1761 23.0882 93.0673 0.0000 0.0000 0.0000
# 4 0.0000 0.0000 0.0000 36.7193 0.0000 0.0000
# 5 0.0000 0.0000 0.0000 0.0000 23.9486 0.0000
# 6 0.0000 0.0000 0.0000 0.0000 0.0000 17.2495
#
#
#
# Elastic Compliance Matrix: (Units=1/GPa)
#
#
# Indices 1 2 3 4 5 6 
#
# 1 0.011316 -0.003364 -0.004294 0.000000 0.000000 0.000000
# 2 -0.003364 0.011494 -0.001327 0.000000 0.000000 0.000000
# 3 -0.004294 -0.001327 0.013020 0.000000 0.000000 0.000000
# 4 0.000000 0.000000 0.000000 0.027234 0.000000 0.000000
# 5 0.000000 0.000000 0.000000 0.000000 0.041756 0.000000
# 6 0.000000 0.000000 0.000000 0.000000 0.000000 0.057973
#
#
# Mechanical properties :
#
#
# Convention : Reuss Voigt Hill
#
# Bulk Modulus (GPa) = 55.98704 57.56489 56.77596
# Shear Modulus (GPa) = 26.77859 29.31231 28.04545
#
# Velocity S-wave (km/s) = 3.68630 3.85675 3.77249
# Velocity P-wave (km/s) = 6.82122 7.00315 6.91278
#
# Compressibility (1/GPa) = 0.01786128
#
# Stress axis : x y z
#
# Youngs Moduli (GPa) = 88.36730 87.00039 76.80461
#
# Poissons Ratio (x) = 0.29264 0.32979
# Poissons Ratio (y) = 0.29723 0.10193
# Poissons Ratio (z) = 0.37944 0.11546
#
# Static dielectric constant tensor:
#      x y z
#    x 6.243440 0.000000 0.000000 
#    y 0.000000 3.694170 0.000000 
#    z 0.000000 0.000000 3.547600 
# 
# 
# High freq. dielectric constant tensor:
#      x y z
#    x 1.759680 0.000000 0.000000 
#    y 0.000000 1.772830 0.000000 
#    z 0.000000 0.000000 1.749470 
# 
# From -- ./inp_files/6079.got.cif
#   From: 2010.03.12/outbox.cif.g09.slc.cpg/sg47_4_cif.got.tgz:6079.got - 2010.04.14 03:12:58.
