data_PCOD8198286
_publ_section_title
;
Structure prediction by ZEFSAII (Michael W. Deem and Ramdas Pophale) SiO2 
 PCOD8198286
Probable space group: P M M M
;
_chemical_formula_sum "Si O2"
_cell_formula_units_Z 52
_cell_length_a 19.259992
_cell_length_b 9.093806
_cell_length_c 15.689176
_cell_angle_alpha 90.000000
_cell_angle_beta 90.000000
_cell_angle_gamma 90.000000
_cell_volume 2747.906317
_symmetry_space_group_name_H-M "P M M M"
_symmetry_group_IT_number 47
_symmetry_cell_setting 'orthorhombic'
loop_
_space_group_symop_operation_xyz
x,y,z
-x,-y,z
x,-y,-z
-x,y,-z
-x,-y,-z
x,y,-z
-x,y,z
x,-y,z
loop_
_atom_site_type_symbol
_atom_site_label
_atom_site_fract_x
_atom_site_fract_y
_atom_site_fract_z
Si Si1 0.423147 0.332967 0.678141
Si Si2 0.922568 0.831560 0.165163
Si Si3 0.282377 0.670107 0.404627
Si Si4 0.785056 0.830018 0.751228
Si Si5 0.708303 0.329454 0.905132
Si Si6 0.917450 0.336587 0.000000
Si Si7 0.578807 0.171636 0.851428
O O1 0.500000 0.306976 0.638444
O O2 0.416978 0.500000 0.713354
O O3 0.364875 0.303633 0.607107
O O4 0.409196 0.220069 0.754120
O O5 0.868717 0.809750 0.242743
O O6 0.891598 0.742968 0.085102
O O7 0.000000 0.777319 0.192585
O O8 0.925858 0.000000 0.136100
O O9 0.263094 0.722017 0.500000
O O10 0.263642 0.500000 0.391431
O O11 0.237688 0.761780 0.337860
O O12 0.750808 0.754291 0.832882
O O13 0.763485 0.000000 0.752891
O O14 0.704883 0.500000 0.879789
O O15 0.630524 0.263964 0.910537
O O16 0.741636 0.309313 0.000000
O O17 0.885847 0.500000 0.000000
O O18 0.000000 0.337201 0.000000
O O19 0.500000 0.204828 0.880477
O O20 0.596051 0.000000 0.859192
#
# Coordination Sequence:
#
# PCOD8198286 Si02
#       7
#     8   8   8   8   8   4   8
#     4   9  17  31  53  79 108 143 181 222 271 329
#     4   9  19  36  56  79 110 147 186 227 274 329
#     4  10  21  37  58  84 114 148 184 226 279 336
#     4  11  23  38  59  84 111 146 185 229 281 332
#     4  11  24  39  55  78 110 150 192 232 276 330
#     4   9  17  29  49  81 115 145 180 219 262 317
#     4  10  20  34  54  79 108 143 185 235 285 328
#
# _framework density 18.923500000000001
#
# number of rings (size 3 to 8) (size 9 to 14) (size 15 to 20)
#    0.000    2.077    1.538    1.615    1.077    5.231 
#    0.000    3.077    0.000    0.462    0.000    6.462 
#    0.000    0.000    0.000    0.000    0.000    0.000 
#
# Total GULP energy -644670.552778 kJ/mol
# GULP energy per Si atom -12397.510630 kJ/mol
# Density = 1.888043 g / cm^3
# Si number density = 18.923500 Si / 1000 Ang^3
#
#
#
# Elastic Constant Matrix: (Units=GPa)
#
#
# Indices 1 2 3 4 5 6 
#
# 1 92.6534 46.5476 60.3892 0.0000 0.0000 0.0000
# 2 46.5476 104.0043 61.3247 0.0000 0.0000 0.0000
# 3 60.3892 61.3247 124.8258 0.0000 0.0000 0.0000
# 4 0.0000 0.0000 0.0000 16.3816 0.0000 0.0000
# 5 0.0000 0.0000 0.0000 0.0000 20.8901 0.0000
# 6 0.0000 0.0000 0.0000 0.0000 0.0000 22.1713
#
#
#
# Elastic Compliance Matrix: (Units=1/GPa)
#
#
# Indices 1 2 3 4 5 6 
#
# 1 0.016784 -0.003835 -0.006236 0.000000 0.000000 0.000000
# 2 -0.003835 0.014412 -0.005225 0.000000 0.000000 0.000000
# 3 -0.006236 -0.005225 0.013595 0.000000 0.000000 0.000000
# 4 0.000000 0.000000 0.000000 0.061044 0.000000 0.000000
# 5 0.000000 0.000000 0.000000 0.000000 0.047870 0.000000
# 6 0.000000 0.000000 0.000000 0.000000 0.000000 0.045103
#
#
# Mechanical properties :
#
#
# Convention : Reuss Voigt Hill
#
# Bulk Modulus (GPa) = 70.42574 73.11184 71.76879
# Shear Modulus (GPa) = 21.35536 22.10339 21.72938
#
# Velocity S-wave (km/s) = 3.36298 3.42137 3.39230
# Velocity P-wave (km/s) = 7.23715 7.37069 7.30422
#
# Compressibility (1/GPa) = 0.01419935
#
# Stress axis : x y z
#
# Youngs Moduli (GPa) = 59.58117 69.38524 73.55612
#
# Poissons Ratio (x) = 0.26608 0.45868
# Poissons Ratio (y) = 0.22848 0.38435
# Poissons Ratio (z) = 0.37154 0.36256
#
# Static dielectric constant tensor:
#      x y z
#    x 3.700230 0.000000 0.000000 
#    y 0.000000 3.554250 0.000000 
#    z 0.000000 0.000000 3.216400 
# 
# 
# High freq. dielectric constant tensor:
#      x y z
#    x 1.739750 0.000000 0.000000 
#    y 0.000000 1.740040 0.000000 
#    z 0.000000 0.000000 1.706320 
# 
# From -- ./inp_files/24983.got.cif
#   From: 2010.03.12/outbox.cif.g09.slc.cpg/sg47_13_cif.got.tgz:24983.got - 2010.04.14 03:12:58.
