data_PCOD8198620
_publ_section_title
;
Structure prediction by ZEFSAII (Michael W. Deem and Ramdas Pophale) SiO2 
 PCOD8198620
Probable space group: P M M M
;
_chemical_formula_sum "Si O2"
_cell_formula_units_Z 48
_cell_length_a 10.290773
_cell_length_b 18.631223
_cell_length_c 13.771572
_cell_angle_alpha 90.000000
_cell_angle_beta 90.000000
_cell_angle_gamma 90.000000
_cell_volume 2640.419184
_symmetry_space_group_name_H-M "P M M M"
_symmetry_group_IT_number 47
_symmetry_cell_setting 'orthorhombic'
loop_
_space_group_symop_operation_xyz
x,y,z
-x,-y,z
x,-y,-z
-x,y,-z
-x,-y,-z
x,y,-z
-x,y,z
x,-y,z
loop_
_atom_site_type_symbol
_atom_site_label
_atom_site_fract_x
_atom_site_fract_y
_atom_site_fract_z
Si Si1 0.500000 0.915346 0.386419
Si Si2 0.355720 0.585109 0.107837
Si Si3 0.848069 0.082716 0.110597
Si Si4 0.849789 0.713290 0.610635
Si Si5 0.245827 0.151981 0.703777
Si Si6 0.852319 0.582106 0.738220
Si Si7 0.000000 0.078787 0.613977
O O1 0.500000 0.897035 0.500000
O O2 0.377405 0.880445 0.335553
O O3 0.500000 0.000000 0.368243
O O4 0.500000 0.609431 0.143131
O O5 0.349364 0.500000 0.103764
O O6 0.244115 0.613221 0.179649
O O7 0.328879 0.616139 0.000000
O O8 0.766744 0.134809 0.181461
O O9 0.000000 0.093304 0.132610
O O10 0.808505 0.000000 0.128495
O O11 0.815900 0.104715 0.000000
O O12 0.800781 0.720106 0.500000
O O13 0.762217 0.762952 0.681478
O O14 0.833319 0.630637 0.642902
O O15 0.000000 0.737295 0.618822
O O16 0.129213 0.117587 0.645158
O O17 0.819097 0.500000 0.709669
O O18 0.000000 0.588111 0.777820
O O19 0.000000 0.073528 0.500000
O O20 0.000000 0.000000 0.662055
#
# Coordination Sequence:
#
# PCOD8198620 Si02
#       7
#     4   8   8   8   8   8   4
#     4  11  24  38  53  79 116 150 179 218 273 331
#     4   8  14  27  49  76 105 136 170 212 264 319
#     4   9  17  31  54  83 110 138 177 223 268 318
#     4  10  20  35  55  78 105 139 180 226 277 329
#     4  12  21  36  56  78 110 144 180 226 276 325
#     4   9  18  32  51  77 107 138 178 224 272 327
#     4  11  20  30  53  83 104 132 179 224 263 317
#
# _framework density 18.178930000000001
#
# number of rings (size 3 to 8) (size 9 to 14) (size 15 to 20)
#    0.000    2.167    1.667    4.000    0.000    2.000 
#    1.500    4.583    0.000    2.500    0.000    2.333 
#    0.000    0.000    0.000    0.000    0.000    0.000 
#
# Total GULP energy -595075.886177 kJ/mol
# GULP energy per Si atom -12397.414295 kJ/mol
# Density = 1.813755 g / cm^3
# Si number density = 18.178930 Si / 1000 Ang^3
#
#
#
# Elastic Constant Matrix: (Units=GPa)
#
#
# Indices 1 2 3 4 5 6 
#
# 1 103.1397 38.7271 54.1687 0.0000 0.0000 0.0000
# 2 38.7271 83.2348 53.5238 0.0000 0.0000 0.0000
# 3 54.1687 53.5238 128.5414 0.0000 0.0000 0.0000
# 4 0.0000 0.0000 0.0000 24.6565 0.0000 0.0000
# 5 0.0000 0.0000 0.0000 0.0000 19.9126 0.0000
# 6 0.0000 0.0000 0.0000 0.0000 0.0000 16.5789
#
#
#
# Elastic Compliance Matrix: (Units=1/GPa)
#
#
# Indices 1 2 3 4 5 6 
#
# 1 0.013154 -0.003490 -0.004090 0.000000 0.000000 0.000000
# 2 -0.003490 0.017334 -0.005747 0.000000 0.000000 0.000000
# 3 -0.004090 -0.005747 0.011896 0.000000 0.000000 0.000000
# 4 0.000000 0.000000 0.000000 0.040557 0.000000 0.000000
# 5 0.000000 0.000000 0.000000 0.000000 0.050219 0.000000
# 6 0.000000 0.000000 0.000000 0.000000 0.000000 0.060318
#
#
# Mechanical properties :
#
#
# Convention : Reuss Voigt Hill
#
# Bulk Modulus (GPa) = 63.57355 67.52834 65.55095
# Shear Modulus (GPa) = 22.18522 23.46270 22.82396
#
# Velocity S-wave (km/s) = 3.49718 3.59646 3.54717
# Velocity P-wave (km/s) = 7.16617 7.38060 7.27417
#
# Compressibility (1/GPa) = 0.01572981
#
# Stress axis : x y z
#
# Youngs Moduli (GPa) = 76.02154 57.69158 84.06140
#
# Poissons Ratio (x) = 0.20136 0.34381
# Poissons Ratio (y) = 0.26533 0.48308
# Poissons Ratio (z) = 0.31093 0.33154
#
# Static dielectric constant tensor:
#      x y z
#    x 3.454940 0.000000 0.000000 
#    y 0.000000 3.274860 0.000000 
#    z 0.000000 0.000000 3.480830 
# 
# 
# High freq. dielectric constant tensor:
#      x y z
#    x 1.689790 0.000000 0.000000 
#    y 0.000000 1.688230 0.000000 
#    z 0.000000 0.000000 1.704810 
# 
# From -- ./inp_files/21046.got.cif
#   From: 2010.03.12/outbox.cif.g09.slc.cpg/sg47_11_cif.got.tgz:21046.got - 2010.04.14 03:12:58.
