data_PCOD8198368
_publ_section_title
;
Structure prediction by ZEFSAII (Michael W. Deem and Ramdas Pophale) SiO2 
 PCOD8198368
Probable space group: P M M M
;
_chemical_formula_sum "Si O2"
_cell_formula_units_Z 64
_cell_length_a 9.005524
_cell_length_b 14.404562
_cell_length_c 25.733379
_cell_angle_alpha 90.000000
_cell_angle_beta 90.000000
_cell_angle_gamma 90.000000
_cell_volume 3338.150105
_symmetry_space_group_name_H-M "P M M M"
_symmetry_group_IT_number 47
_symmetry_cell_setting 'orthorhombic'
loop_
_space_group_symop_operation_xyz
x,y,z
-x,-y,z
x,-y,-z
-x,y,-z
-x,-y,-z
x,y,-z
-x,y,z
x,-y,z
loop_
_atom_site_type_symbol
_atom_site_label
_atom_site_fract_x
_atom_site_fract_y
_atom_site_fract_z
Si Si1 0.170014 0.269040 0.558080
Si Si2 0.323512 0.717593 0.747583
Si Si3 0.834217 0.100803 0.061652
Si Si4 0.173750 0.607320 0.654808
Si Si5 0.323296 0.396979 0.153634
Si Si6 0.675257 0.718691 0.058115
Si Si7 0.825962 0.895190 0.285161
Si Si8 0.328686 0.104556 0.605899
O O1 0.194517 0.308816 0.500000
O O2 0.213540 0.349727 0.598599
O O3 0.272744 0.178026 0.563646
O O4 0.000000 0.238228 0.566569
O O5 0.500000 0.722590 0.744989
O O6 0.265684 0.662873 0.697571
O O7 0.265649 0.665359 0.798972
O O8 0.257970 0.821613 0.751319
O O9 0.725296 0.181589 0.080677
O O10 0.000000 0.121208 0.082423
O O11 0.779881 0.000000 0.082796
O O12 0.834991 0.097984 0.000000
O O13 0.223302 0.500000 0.654747
O O14 0.000000 0.617304 0.667334
O O15 0.500000 0.398832 0.153767
O O16 0.257746 0.500000 0.160518
O O17 0.265227 0.358249 0.098259
O O18 0.500000 0.719027 0.056000
O O19 0.739463 0.698794 0.000000
O O20 0.769703 0.880049 0.343305
O O21 0.000000 0.874365 0.284011
O O22 0.790780 0.000000 0.265921
O O23 0.500000 0.123470 0.620040
O O24 0.308083 0.000000 0.584039
#
# Coordination Sequence:
#
# PCOD8198368 Si02
#       8
#     8   8   8   8   8   8   8   8
#     4  10  21  36  54  78 110 148 186 225 272 323
#     4  11  21  35  58  83 108 140 177 219 268 322
#     4   8  14  26  45  69  99 136 173 208 253 310
#     4  10  21  37  57  80 106 139 181 227 273 322
#     4   9  19  35  53  77 109 141 175 219 270 319
#     4   9  17  30  51  78 105 137 179 223 264 308
#     4  10  20  35  57  83 111 142 175 215 265 321
#     4  10  20  34  54  81 111 144 181 220 266 320
#
# _framework density 19.172294999999998
#
# number of rings (size 3 to 8) (size 9 to 14) (size 15 to 20)
#    0.000    2.375    1.250    1.875    0.000    3.500 
#    0.000    6.875    0.000    5.625    0.000    3.500 
#    0.000    0.000    0.000    0.000    0.000    0.000 
#
# Total GULP energy -793438.230437 kJ/mol
# GULP energy per Si atom -12397.472351 kJ/mol
# Density = 1.912866 g / cm^3
# Si number density = 19.172295 Si / 1000 Ang^3
#
#
#
# Elastic Constant Matrix: (Units=GPa)
#
#
# Indices 1 2 3 4 5 6 
#
# 1 54.1489 45.3176 34.0244 0.0000 0.0000 0.0000
# 2 45.3176 152.4986 70.8190 0.0000 0.0000 0.0000
# 3 34.0244 70.8190 111.0026 0.0000 0.0000 0.0000
# 4 0.0000 0.0000 0.0000 29.0190 0.0000 0.0000
# 5 0.0000 0.0000 0.0000 0.0000 13.7489 0.0000
# 6 0.0000 0.0000 0.0000 0.0000 0.0000 27.3074
#
#
#
# Elastic Compliance Matrix: (Units=1/GPa)
#
#
# Indices 1 2 3 4 5 6 
#
# 1 0.025957 -0.005711 -0.004313 0.000000 0.000000 0.000000
# 2 -0.005711 0.010575 -0.004996 0.000000 0.000000 0.000000
# 3 -0.004313 -0.004996 0.013518 0.000000 0.000000 0.000000
# 4 0.000000 0.000000 0.000000 0.034460 0.000000 0.000000
# 5 0.000000 0.000000 0.000000 0.000000 0.072733 0.000000
# 6 0.000000 0.000000 0.000000 0.000000 0.000000 0.036620
#
#
# Mechanical properties :
#
#
# Convention : Reuss Voigt Hill
#
# Bulk Modulus (GPa) = 49.97397 68.66357 59.31877
# Shear Modulus (GPa) = 21.68516 25.18102 23.43309
#
# Velocity S-wave (km/s) = 3.36678 3.62803 3.49984
# Velocity P-wave (km/s) = 6.42152 7.31039 6.88033
#
# Compressibility (1/GPa) = 0.02001042
#
# Stress axis : x y z
#
# Youngs Moduli (GPa) = 38.52539 94.56605 73.97395
#
# Poissons Ratio (x) = 0.54004 0.31904
# Poissons Ratio (y) = 0.22001 0.36958
# Poissons Ratio (z) = 0.16616 0.47246
#
# Static dielectric constant tensor:
#      x y z
#    x 3.380600 0.000000 0.000000 
#    y 0.000000 3.896340 0.000000 
#    z 0.000000 0.000000 3.433140 
# 
# 
# High freq. dielectric constant tensor:
#      x y z
#    x 1.729910 0.000000 0.000000 
#    y 0.000000 1.756220 0.000000 
#    z 0.000000 0.000000 1.727810 
# 
# From -- ./inp_files/12674.got.cif
#   From: 2010.03.12/outbox.cif.g09.slc.cpg/sg47_7_cif.got.tgz:12674.got - 2010.04.14 03:12:58.
