data_PCOD8198822
_publ_section_title
;
Structure prediction by ZEFSAII (Michael W. Deem and Ramdas Pophale) SiO2 
 PCOD8198822
Probable space group: P M M M
;
_chemical_formula_sum "Si O2"
_cell_formula_units_Z 44
_cell_length_a 7.917957
_cell_length_b 29.726793
_cell_length_c 9.485691
_cell_angle_alpha 90.000000
_cell_angle_beta 90.000000
_cell_angle_gamma 90.000000
_cell_volume 2232.698965
_symmetry_space_group_name_H-M "P M M M"
_symmetry_group_IT_number 47
_symmetry_cell_setting 'orthorhombic'
loop_
_space_group_symop_operation_xyz
x,y,z
-x,-y,z
x,-y,-z
-x,y,-z
-x,-y,-z
x,y,-z
-x,y,z
x,-y,z
loop_
_atom_site_type_symbol
_atom_site_label
_atom_site_fract_x
_atom_site_fract_y
_atom_site_fract_z
Si Si1 0.500000 0.050121 0.167058
Si Si2 0.692603 0.191215 0.660724
Si Si3 0.805774 0.728423 0.160557
Si Si4 0.810800 0.110400 0.162748
Si Si5 0.698991 0.368793 0.839346
Si Si6 0.700869 0.549385 0.658572
O O1 0.670652 0.075141 0.218459
O O2 0.500000 0.000000 0.232750
O O3 0.500000 0.047043 0.000000
O O4 0.758608 0.194923 0.500000
O O5 0.500000 0.174730 0.663818
O O6 0.702846 0.239497 0.735463
O O7 0.804312 0.155496 0.745536
O O8 0.782758 0.677396 0.214196
O O9 0.000000 0.742461 0.167295
O O10 0.736478 0.733006 0.000000
O O11 0.000000 0.089753 0.178444
O O12 0.774137 0.123145 0.000000
O O13 0.500000 0.364466 0.817435
O O14 0.776860 0.410765 0.753652
O O15 0.748303 0.377777 0.000000
O O16 0.765216 0.557061 0.500000
O O17 0.500000 0.551062 0.664391
O O18 0.761755 0.500000 0.712288
#
# Coordination Sequence:
#
# PCOD8198822 Si02
#       6
#     4   8   8   8   8   8
#     4   9  18  34  57  87 121 153 189 237 284 325
#     4  11  23  37  55  80 109 142 181 225 273 325
#     4  10  21  36  53  74 102 137 175 215 264 322
#     4  10  20  35  58  86 115 151 191 230 279 334
#     4   9  17  29  46  69  95 123 158 203 254 307
#     4   8  14  25  42  65  92 121 155 199 251 305
#
# _framework density 19.707090000000001
#
# number of rings (size 3 to 8) (size 9 to 14) (size 15 to 20)
#    0.000    2.455    0.909    2.182    0.000    6.182 
#    0.000    5.455    0.000    1.636    0.000    5.091 
#    0.000    0.000    0.000    0.000    0.000    0.000 
#
# Total GULP energy -545537.013610 kJ/mol
# GULP energy per Si atom -12398.568491 kJ/mol
# Density = 1.966224 g / cm^3
# Si number density = 19.707090 Si / 1000 Ang^3
#
#
#
# Elastic Constant Matrix: (Units=GPa)
#
#
# Indices 1 2 3 4 5 6 
#
# 1 72.5107 40.3532 25.7605 0.0000 0.0000 0.0000
# 2 40.3532 147.0745 69.4111 0.0000 0.0000 0.0000
# 3 25.7605 69.4111 86.8425 0.0000 0.0000 0.0000
# 4 0.0000 0.0000 0.0000 11.0005 0.0000 0.0000
# 5 0.0000 0.0000 0.0000 0.0000 13.9653 0.0000
# 6 0.0000 0.0000 0.0000 0.0000 0.0000 15.2819
#
#
#
# Elastic Compliance Matrix: (Units=1/GPa)
#
#
# Indices 1 2 3 4 5 6 
#
# 1 0.016500 -0.003560 -0.002049 0.000000 0.000000 0.000000
# 2 -0.003560 0.011686 -0.008284 0.000000 0.000000 0.000000
# 3 -0.002049 -0.008284 0.018744 0.000000 0.000000 0.000000
# 4 0.000000 0.000000 0.000000 0.090905 0.000000 0.000000
# 5 0.000000 0.000000 0.000000 0.000000 0.071606 0.000000
# 6 0.000000 0.000000 0.000000 0.000000 0.000000 0.065437
#
#
# Mechanical properties :
#
#
# Convention : Reuss Voigt Hill
#
# Bulk Modulus (GPa) = 52.23649 64.16414 58.20032
# Shear Modulus (GPa) = 16.17886 19.44307 17.81096
#
# Velocity S-wave (km/s) = 2.86836 3.14443 3.00956
# Velocity P-wave (km/s) = 6.12650 6.76852 6.45549
#
# Compressibility (1/GPa) = 0.01914371
#
# Stress axis : x y z
#
# Youngs Moduli (GPa) = 60.60488 85.57468 53.35019
#
# Poissons Ratio (x) = 0.30467 0.10931
# Poissons Ratio (y) = 0.21577 0.44195
# Poissons Ratio (z) = 0.12418 0.70890
#
# Static dielectric constant tensor:
#      x y z
#    x 3.409340 0.000000 0.000000 
#    y 0.000000 3.740840 0.000000 
#    z 0.000000 0.000000 3.523280 
# 
# 
# High freq. dielectric constant tensor:
#      x y z
#    x 1.757210 0.000000 0.000000 
#    y 0.000000 1.768450 0.000000 
#    z 0.000000 0.000000 1.745980 
# 
# From -- ./inp_files/2321.got.cif
#   From: 2010.03.12/outbox.cif.g09.slc.cpg/sg47_2_cif.got.tgz:2321.got - 2010.04.14 03:12:58.
