data_PCOD8198484
_publ_section_title
;
Structure prediction by ZEFSAII (Michael W. Deem and Ramdas Pophale) SiO2 
 PCOD8198484
Probable space group: P M M M
;
_chemical_formula_sum "Si O2"
_cell_formula_units_Z 48
_cell_length_a 9.672381
_cell_length_b 29.003174
_cell_length_c 8.920887
_cell_angle_alpha 90.000000
_cell_angle_beta 90.000000
_cell_angle_gamma 90.000000
_cell_volume 2502.574192
_symmetry_space_group_name_H-M "P M M M"
_symmetry_group_IT_number 47
_symmetry_cell_setting 'orthorhombic'
loop_
_space_group_symop_operation_xyz
x,y,z
-x,-y,z
x,-y,-z
-x,y,-z
-x,-y,-z
x,y,-z
-x,y,z
x,-y,z
loop_
_atom_site_type_symbol
_atom_site_label
_atom_site_fract_x
_atom_site_fract_y
_atom_site_fract_z
Si Si1 0.500000 0.052559 0.176977
Si Si2 0.340218 0.279383 0.177415
Si Si3 0.840764 0.202389 0.325560
Si Si4 0.836270 0.449551 0.167729
Si Si5 0.245183 0.098174 0.325487
Si Si6 0.839545 0.358212 0.324539
Si Si7 0.000000 0.053222 0.165442
O O1 0.375090 0.083545 0.230422
O O2 0.500000 0.000000 0.242788
O O3 0.500000 0.049245 0.000000
O O4 0.500000 0.279221 0.232734
O O5 0.263331 0.233642 0.232129
O O6 0.259833 0.323147 0.240975
O O7 0.333567 0.281287 0.000000
O O8 0.824929 0.214683 0.500000
O O9 0.797649 0.150368 0.292061
O O10 0.000000 0.210271 0.275339
O O11 0.779974 0.500000 0.220384
O O12 0.787940 0.409521 0.280509
O O13 0.000000 0.451434 0.165614
O O14 0.781511 0.438629 0.000000
O O15 0.273570 0.090047 0.500000
O O16 0.127952 0.064916 0.268133
O O17 0.821297 0.351288 0.500000
O O18 0.000000 0.350011 0.277301
O O19 0.000000 0.000000 0.132637
O O20 0.000000 0.077874 0.000000
#
# Coordination Sequence:
#
# PCOD8198484 Si02
#       7
#     4   8   8   8   8   8   4
#     4  11  25  43  61  87 125 163 199 243 292 343
#     4  11  25  41  58  84 114 148 192 238 286 344
#     4  10  22  42  64  88 117 147 184 233 289 345
#     4   8  14  26  47  77 113 152 192 235 284 337
#     4  11  23  41  64  91 120 156 199 242 289 347
#     4  10  20  34  55  84 116 152 193 238 289 342
#     4  11  23  39  61  91 125 159 195 239 292 343
#
# _framework density 19.180250000000001
#
# number of rings (size 3 to 8) (size 9 to 14) (size 15 to 20)
#    0.000    1.833    0.833    3.500    1.167    9.667 
#    0.000    1.667    0.000    0.500    0.000    3.500 
#    0.000    0.000    0.000    0.000    0.000    0.000 
#
# Total GULP energy -595053.742380 kJ/mol
# GULP energy per Si atom -12396.952966 kJ/mol
# Density = 1.913659 g / cm^3
# Si number density = 19.180250 Si / 1000 Ang^3
#
#
#
# Elastic Constant Matrix: (Units=GPa)
#
#
# Indices 1 2 3 4 5 6 
#
# 1 132.2275 55.5350 47.2695 0.0000 0.0000 0.0000
# 2 55.5350 110.8094 53.2472 0.0000 0.0000 0.0000
# 3 47.2695 53.2472 74.0730 0.0000 0.0000 0.0000
# 4 0.0000 0.0000 0.0000 33.4078 0.0000 0.0000
# 5 0.0000 0.0000 0.0000 0.0000 35.1552 0.0000
# 6 0.0000 0.0000 0.0000 0.0000 0.0000 29.7724
#
#
#
# Elastic Compliance Matrix: (Units=1/GPa)
#
#
# Indices 1 2 3 4 5 6 
#
# 1 0.010454 -0.003107 -0.004438 0.000000 0.000000 0.000000
# 2 -0.003107 0.014710 -0.008592 0.000000 0.000000 0.000000
# 3 -0.004438 -0.008592 0.022508 0.000000 0.000000 0.000000
# 4 0.000000 0.000000 0.000000 0.029933 0.000000 0.000000
# 5 0.000000 0.000000 0.000000 0.000000 0.028445 0.000000
# 6 0.000000 0.000000 0.000000 0.000000 0.000000 0.033588
#
#
# Mechanical properties :
#
#
# Convention : Reuss Voigt Hill
#
# Bulk Modulus (GPa) = 64.93643 69.91259 67.42451
# Shear Modulus (GPa) = 28.24134 30.40429 29.32281
#
# Velocity S-wave (km/s) = 3.84137 3.98576 3.91423
# Velocity P-wave (km/s) = 7.32149 7.59679 7.46041
#
# Compressibility (1/GPa) = 0.01539968
#
# Stress axis : x y z
#
# Youngs Moduli (GPa) = 95.65665 67.98029 44.42778
#
# Poissons Ratio (x) = 0.21120 0.19717
# Poissons Ratio (y) = 0.29718 0.38171
# Poissons Ratio (z) = 0.42452 0.58407
#
# Static dielectric constant tensor:
#      x y z
#    x 2.440270 0.000000 0.000000 
#    y 0.000000 3.905390 0.000000 
#    z 0.000000 0.000000 3.580230 
# 
# 
# High freq. dielectric constant tensor:
#      x y z
#    x 1.732660 0.000000 0.000000 
#    y 0.000000 1.761130 0.000000 
#    z 0.000000 0.000000 1.750970 
# 
# From -- ./inp_files/2806.got.cif
#   From: 2010.03.12/outbox.cif.g09.slc.cpg/sg47_2_cif.got.tgz:2806.got - 2010.04.14 03:12:58.
