data_PCOD8198665
_publ_section_title
;
Structure prediction by ZEFSAII (Michael W. Deem and Ramdas Pophale) SiO2 
 PCOD8198665
Probable space group: P M M M
;
_chemical_formula_sum "Si O2"
_cell_formula_units_Z 40
_cell_length_a 9.054042
_cell_length_b 7.852942
_cell_length_c 27.578553
_cell_angle_alpha 90.000000
_cell_angle_beta 90.000000
_cell_angle_gamma 90.000000
_cell_volume 1960.859020
_symmetry_space_group_name_H-M "P M M M"
_symmetry_group_IT_number 47
_symmetry_cell_setting 'orthorhombic'
loop_
_space_group_symop_operation_xyz
x,y,z
-x,-y,z
x,-y,-z
-x,y,-z
-x,-y,-z
x,y,-z
-x,y,z
x,-y,z
loop_
_atom_site_type_symbol
_atom_site_label
_atom_site_fract_x
_atom_site_fract_y
_atom_site_fract_z
Si Si1 0.838239 0.695222 0.217006
Si Si2 0.830135 0.701486 0.595919
Si Si3 0.665703 0.194910 0.308925
Si Si4 0.673947 0.303661 0.877713
Si Si5 0.333224 0.702495 0.500000
Si Si6 0.675206 0.000000 0.054119
O O1 0.863132 0.500000 0.205625
O O2 0.750507 0.707012 0.266994
O O3 0.746944 0.768458 0.171667
O O4 0.000000 0.784668 0.221273
O O5 0.814991 0.500000 0.600826
O O6 0.751039 0.788120 0.640896
O O7 0.751765 0.770014 0.547343
O O8 0.000000 0.758632 0.594520
O O9 0.500000 0.269570 0.314480
O O10 0.659680 0.000000 0.293337
O O11 0.500000 0.291312 0.869708
O O12 0.718342 0.500000 0.890589
O O13 0.728354 0.174234 0.919605
O O14 0.333622 0.500000 0.500000
O O15 0.500000 0.774305 0.500000
O O16 0.500000 0.000000 0.051881
O O17 0.742804 0.000000 0.000000
#
# Coordination Sequence:
#
# PCOD8198665 Si02
#       6
#     8   8   8   8   4   4
#     4  10  21  37  57  81 108 140 180 226 276 329
#     4  10  20  35  56  81 108 138 176 223 272 324
#     4  11  24  38  53  77 109 143 179 221 270 326
#     4   9  18  33  54  80 111 147 187 233 284 336
#     4   9  17  31  54  81 106 137 178 222 270 323
#     4   9  18  32  53  83 115 147 189 238 283 332
#
# _framework density 20.399224
#
# number of rings (size 3 to 8) (size 9 to 14) (size 15 to 20)
#    0.000    2.200    0.000    2.700    1.400    8.000 
#    0.000    2.500    0.000    4.200    0.000    2.800 
#    0.000    0.000    0.000    0.000    0.000    0.000 
#
# Total GULP energy -495935.881953 kJ/mol
# GULP energy per Si atom -12398.397049 kJ/mol
# Density = 2.035279 g / cm^3
# Si number density = 20.399224 Si / 1000 Ang^3
#
#
#
# Elastic Constant Matrix: (Units=GPa)
#
#
# Indices 1 2 3 4 5 6 
#
# 1 131.6534 25.5090 63.9527 0.0000 0.0000 0.0000
# 2 25.5090 58.9524 38.0350 0.0000 0.0000 0.0000
# 3 63.9527 38.0350 177.7038 0.0000 0.0000 0.0000
# 4 0.0000 0.0000 0.0000 21.1745 0.0000 0.0000
# 5 0.0000 0.0000 0.0000 0.0000 4.1517 0.0000
# 6 0.0000 0.0000 0.0000 0.0000 0.0000 13.5525
#
#
#
# Elastic Compliance Matrix: (Units=1/GPa)
#
#
# Indices 1 2 3 4 5 6 
#
# 1 0.009444 -0.002197 -0.002928 0.000000 0.000000 0.000000
# 2 -0.002197 0.020192 -0.003531 0.000000 0.000000 0.000000
# 3 -0.002928 -0.003531 0.007437 0.000000 0.000000 0.000000
# 4 0.000000 0.000000 0.000000 0.047227 0.000000 0.000000
# 5 0.000000 0.000000 0.000000 0.000000 0.240862 0.000000
# 6 0.000000 0.000000 0.000000 0.000000 0.000000 0.073787
#
#
# Mechanical properties :
#
#
# Convention : Reuss Voigt Hill
#
# Bulk Modulus (GPa) = 50.60861 69.25588 59.93225
# Shear Modulus (GPa) = 11.82456 23.82994 17.82725
#
# Velocity S-wave (km/s) = 2.41022 3.42157 2.95942
# Velocity P-wave (km/s) = 5.71038 7.04510 6.41256
#
# Compressibility (1/GPa) = 0.01975948
#
# Stress axis : x y z
#
# Youngs Moduli (GPa) = 105.88793 49.52536 134.46228
#
# Poissons Ratio (x) = 0.10881 0.39377
# Poissons Ratio (y) = 0.23264 0.47480
# Poissons Ratio (z) = 0.31009 0.17488
#
# Static dielectric constant tensor:
#      x y z
#    x 3.935200 0.000000 0.000000 
#    y 0.000000 3.539140 0.000000 
#    z 0.000000 0.000000 3.785990 
# 
# 
# High freq. dielectric constant tensor:
#      x y z
#    x 1.796050 0.000000 0.000000 
#    y 0.000000 1.783790 0.000000 
#    z 0.000000 0.000000 1.799900 
# 
# From -- ./inp_files/13088.got.cif
#   From: 2010.03.12/outbox.cif.g09.slc.cpg/sg47_7_cif.got.tgz:13088.got - 2010.04.14 03:12:58.
