data_PCOD8198834
_publ_section_title
;
Structure prediction by ZEFSAII (Michael W. Deem and Ramdas Pophale) SiO2 
 PCOD8198834
Probable space group: P M M M
;
_chemical_formula_sum "Si O2"
_cell_formula_units_Z 48
_cell_length_a 15.323542
_cell_length_b 17.779771
_cell_length_c 9.124793
_cell_angle_alpha 90.000000
_cell_angle_beta 90.000000
_cell_angle_gamma 90.000000
_cell_volume 2486.041346
_symmetry_space_group_name_H-M "P M M M"
_symmetry_group_IT_number 47
_symmetry_cell_setting 'orthorhombic'
loop_
_space_group_symop_operation_xyz
x,y,z
-x,-y,z
x,-y,-z
-x,y,-z
-x,-y,-z
x,y,-z
-x,y,z
x,-y,z
loop_
_atom_site_type_symbol
_atom_site_label
_atom_site_fract_x
_atom_site_fract_y
_atom_site_fract_z
Si Si1 0.097274 0.854642 0.828252
Si Si2 0.000000 0.583100 0.328118
Si Si3 0.400825 0.000000 0.326929
Si Si4 0.274168 0.133384 0.674474
Si Si5 0.317287 0.714137 0.164667
Si Si6 0.397860 0.582468 0.661979
Si Si7 0.122823 0.683942 0.838758
O O1 0.178315 0.890537 0.738248
O O2 0.095468 0.767014 0.788452
O O3 0.000000 0.887851 0.788373
O O4 0.117009 0.866995 0.000000
O O5 0.086424 0.624998 0.276050
O O6 0.000000 0.500000 0.260673
O O7 0.000000 0.580581 0.500000
O O8 0.346094 0.072611 0.275541
O O9 0.500000 0.000000 0.260352
O O10 0.408695 0.000000 0.500000
O O11 0.265230 0.138562 0.500000
O O12 0.310859 0.211483 0.736824
O O13 0.380638 0.651698 0.230124
O O14 0.225255 0.672940 0.159550
O O15 0.347557 0.736392 0.000000
O O16 0.357904 0.599058 0.500000
O O17 0.500000 0.576508 0.647548
O O18 0.362907 0.500000 0.717752
O O19 0.083652 0.668489 0.000000
#
# Coordination Sequence:
#
# PCOD8198834 Si02
#       7
#     8   4   4   8   8   8   8
#     4   9  17  33  56  80 110 145 179 221 277 335
#     4  11  23  33  43  67 101 134 175 228 275 315
#     4   9  20  40  62  83 114 154 189 229 284 343
#     4  10  20  35  58  87 113 144 192 239 282 337
#     4  10  21  36  55  81 112 144 182 228 278 335
#     4   9  19  36  56  78 106 141 181 228 283 337
#     4   9  18  34  51  68  95 136 179 214 258 319
#
# _framework density 19.307803
#
# number of rings (size 3 to 8) (size 9 to 14) (size 15 to 20)
#    0.000    2.500    0.833    2.750    0.000    6.333 
#    0.000    7.917    0.000    6.000    0.000    0.000 
#    0.000    0.000    0.000    0.000    0.000    0.000 
#
# Total GULP energy -594784.882259 kJ/mol
# GULP energy per Si atom -12391.351714 kJ/mol
# Density = 1.926386 g / cm^3
# Si number density = 19.307803 Si / 1000 Ang^3
#
#
#
# Elastic Constant Matrix: (Units=GPa)
#
#
# Indices 1 2 3 4 5 6 
#
# 1 109.6032 56.2885 42.5071 0.0000 0.0000 0.0000
# 2 56.2885 98.0134 46.3042 0.0000 0.0000 0.0000
# 3 42.5071 46.3042 85.4592 0.0000 0.0000 0.0000
# 4 0.0000 0.0000 0.0000 6.4729 0.0000 0.0000
# 5 0.0000 0.0000 0.0000 0.0000 38.6946 0.0000
# 6 0.0000 0.0000 0.0000 0.0000 0.0000 -4.6827
#
#
#
# Elastic Compliance Matrix: (Units=1/GPa)
#
#
# Indices 1 2 3 4 5 6 
#
# 1 0.013644 -0.006222 -0.003415 0.000000 0.000000 0.000000
# 2 -0.006222 0.016550 -0.005873 0.000000 0.000000 0.000000
# 3 -0.003415 -0.005873 0.016582 0.000000 0.000000 0.000000
# 4 0.000000 0.000000 0.000000 0.154491 0.000000 0.000000
# 5 0.000000 0.000000 0.000000 0.000000 0.025843 0.000000
# 6 0.000000 0.000000 0.000000 0.000000 0.000000 -0.213553
#
#
# Mechanical properties :
#
#
# Convention : Reuss Voigt Hill
#
# Bulk Modulus (GPa) = 63.46525 64.80839 64.13682
# Shear Modulus (GPa) = 100.34302 17.96203 59.15253
#
# Velocity S-wave (km/s) = 7.21686 3.05339 5.54104
# Velocity P-wave (km/s) = 10.11858 6.78747 8.61555
#
# Compressibility (1/GPa) = 0.01575665
#
# Stress axis : x y z
#
# Youngs Moduli (GPa) = 73.29357 60.42139 60.30626
#
# Poissons Ratio (x) = 0.37595 0.20595
# Poissons Ratio (y) = 0.45605 0.35415
# Poissons Ratio (z) = 0.25030 0.35483
#
# Static dielectric constant tensor:
#      x y z
#    x 3.809880 0.000000 0.000000 
#    y 0.000000 3.431660 0.000000 
#    z 0.000000 0.000000 3.556550 
# 
# 
# High freq. dielectric constant tensor:
#      x y z
#    x 1.753450 0.000000 0.000000 
#    y 0.000000 1.739870 0.000000 
#    z 0.000000 0.000000 1.742170 
# 
# From -- ./inp_files/6394.got.cif
#   From: 2010.03.12/outbox.cif.g09.slc.cpg/sg47_4_cif.got.tgz:6394.got - 2010.04.14 03:12:58.
