data_PCOD8198488
_publ_section_title
;
Structure prediction by ZEFSAII (Michael W. Deem and Ramdas Pophale) SiO2 
 PCOD8198488
Probable space group: P M M M
;
_chemical_formula_sum "Si O2"
_cell_formula_units_Z 64
_cell_length_a 14.633370
_cell_length_b 8.717707
_cell_length_c 25.241835
_cell_angle_alpha 90.000000
_cell_angle_beta 90.000000
_cell_angle_gamma 90.000000
_cell_volume 3220.086556
_symmetry_space_group_name_H-M "P M M M"
_symmetry_group_IT_number 47
_symmetry_cell_setting 'orthorhombic'
loop_
_space_group_symop_operation_xyz
x,y,z
-x,-y,z
x,-y,-z
-x,y,-z
-x,-y,-z
x,y,-z
-x,y,z
x,-y,z
loop_
_atom_site_type_symbol
_atom_site_label
_atom_site_fract_x
_atom_site_fract_y
_atom_site_fract_z
Si Si1 0.399353 0.323954 0.592243
Si Si2 0.759777 0.321784 0.133877
Si Si3 0.602121 0.175282 0.296358
Si Si4 0.397717 0.682603 0.940561
Si Si5 0.777375 0.822882 0.441830
Si Si6 0.103819 0.181878 0.657385
Si Si7 0.773746 0.320844 0.251417
Si Si8 0.893192 0.826965 0.059423
O O1 0.500000 0.306785 0.564965
O O2 0.384276 0.500000 0.609805
O O3 0.394979 0.211902 0.641985
O O4 0.317293 0.271763 0.554425
O O5 0.741273 0.500000 0.141591
O O6 0.672300 0.247795 0.103126
O O7 0.780346 0.251931 0.191883
O O8 0.848407 0.294534 0.098460
O O9 0.500000 0.200113 0.273627
O O10 0.669358 0.291274 0.267289
O O11 0.634504 0.000000 0.288387
O O12 0.500000 0.736288 0.925248
O O13 0.391413 0.500000 0.940551
O O14 0.373232 0.741905 0.000000
O O15 0.824246 0.804067 0.500000
O O16 0.843948 0.758411 0.395591
O O17 0.754664 0.000000 0.430444
O O18 0.155043 0.237097 0.710114
O O19 0.000000 0.246249 0.656867
O O20 0.102207 0.000000 0.657571
O O21 0.796129 0.500000 0.253923
O O22 0.000000 0.801336 0.062955
O O23 0.867129 0.000000 0.076280
O O24 0.858705 0.794390 0.000000
#
# Coordination Sequence:
#
# PCOD8198488 Si02
#       8
#     8   8   8   8   8   8   8   8
#     4  10  20  34  55  84 117 152 186 221 268 325
#     4  10  21  34  52  81 112 143 183 229 274 324
#     4  10  20  35  57  82 109 145 188 230 271 322
#     4   8  14  27  49  76 106 141 180 222 268 316
#     4  10  21  37  59  87 116 146 184 232 282 336
#     4  10  22  41  63  83 106 143 189 234 286 345
#     4  11  23  37  55  82 115 150 187 230 281 335
#     4   9  19  36  56  78 106 141 180 224 278 336
#
# _framework density 19.875243000000001
#
# number of rings (size 3 to 8) (size 9 to 14) (size 15 to 20)
#    0.000    2.250    1.250    2.250    0.000    5.500 
#    0.000    6.875    0.000    0.375    0.000    3.500 
#    0.000    0.000    0.000    0.000    0.000    0.000 
#
# Total GULP energy -793289.041228 kJ/mol
# GULP energy per Si atom -12395.141269 kJ/mol
# Density = 1.983001 g / cm^3
# Si number density = 19.875243 Si / 1000 Ang^3
#
#
#
# Elastic Constant Matrix: (Units=GPa)
#
#
# Indices 1 2 3 4 5 6 
#
# 1 122.2139 23.0985 72.8657 0.0000 0.0000 0.0000
# 2 23.0985 22.4864 15.2119 0.0000 0.0000 0.0000
# 3 72.8657 15.2119 140.7191 0.0000 0.0000 0.0000
# 4 0.0000 0.0000 0.0000 21.1874 0.0000 0.0000
# 5 0.0000 0.0000 0.0000 0.0000 12.6265 0.0000
# 6 0.0000 0.0000 0.0000 0.0000 0.0000 26.4654
#
#
#
# Elastic Compliance Matrix: (Units=1/GPa)
#
#
# Indices 1 2 3 4 5 6 
#
# 1 0.013630 -0.009955 -0.005982 0.000000 0.000000 0.000000
# 2 -0.009955 0.055250 -0.000818 0.000000 0.000000 0.000000
# 3 -0.005982 -0.000818 0.010292 0.000000 0.000000 0.000000
# 4 0.000000 0.000000 0.000000 0.047198 0.000000 0.000000
# 5 0.000000 0.000000 0.000000 0.000000 0.079199 0.000000
# 6 0.000000 0.000000 0.000000 0.000000 0.000000 0.037785
#
#
# Mechanical properties :
#
#
# Convention : Reuss Voigt Hill
#
# Bulk Modulus (GPa) = 21.89913 56.41906 39.15910
# Shear Modulus (GPa) = 17.11834 23.67209 20.39522
#
# Velocity S-wave (km/s) = 2.93796 3.45488 3.20685
# Velocity P-wave (km/s) = 4.74879 6.66057 5.78421
#
# Compressibility (1/GPa) = 0.04566390
#
# Stress axis : x y z
#
# Youngs Moduli (GPa) = 73.36647 18.09946 97.16103
#
# Poissons Ratio (x) = 0.18017 0.58119
# Poissons Ratio (y) = 0.73034 0.07948
# Poissons Ratio (z) = 0.43886 0.01481
#
# Static dielectric constant tensor:
#      x y z
#    x 3.778180 0.000000 0.000000 
#    y 0.000000 3.339750 0.000000 
#    z 0.000000 0.000000 3.727650 
# 
# 
# High freq. dielectric constant tensor:
#      x y z
#    x 1.777630 0.000000 0.000000 
#    y 0.000000 1.751300 0.000000 
#    z 0.000000 0.000000 1.772890 
# 
# From -- ./inp_files/12772.got.cif
#   From: 2010.03.12/outbox.cif.g09.slc.cpg/sg47_7_cif.got.tgz:12772.got - 2010.04.14 03:12:58.
