data_PCOD8198008
_publ_section_title
;
Structure prediction by ZEFSAII (Michael W. Deem and Ramdas Pophale) SiO2 
 PCOD8198008
Probable space group: P M M M
;
_chemical_formula_sum "Si O2"
_cell_formula_units_Z 44
_cell_length_a 9.971014
_cell_length_b 13.169579
_cell_length_c 19.549196
_cell_angle_alpha 90.000000
_cell_angle_beta 90.000000
_cell_angle_gamma 90.000000
_cell_volume 2567.084230
_symmetry_space_group_name_H-M "P M M M"
_symmetry_group_IT_number 47
_symmetry_cell_setting 'orthorhombic'
loop_
_space_group_symop_operation_xyz
x,y,z
-x,-y,z
x,-y,-z
-x,y,-z
-x,-y,-z
x,y,-z
-x,y,z
x,-y,z
loop_
_atom_site_type_symbol
_atom_site_label
_atom_site_fract_x
_atom_site_fract_y
_atom_site_fract_z
Si Si1 0.341390 0.886977 0.500000
Si Si2 0.243623 0.305838 0.843366
Si Si3 0.500000 0.619526 0.922876
Si Si4 0.154460 0.383216 0.299743
Si Si5 0.654702 0.885419 0.224629
Si Si6 0.000000 0.385391 0.919792
Si Si7 0.344690 0.226544 0.635907
O O1 0.500000 0.896920 0.500000
O O2 0.293914 0.826751 0.433058
O O3 0.277755 0.000000 0.500000
O O4 0.374713 0.345497 0.879608
O O5 0.214380 0.371311 0.775951
O O6 0.257809 0.187248 0.823996
O O7 0.126219 0.319938 0.897213
O O8 0.500000 0.500000 0.929342
O O9 0.500000 0.666199 0.000000
O O10 0.161544 0.500000 0.321617
O O11 0.247304 0.322168 0.352761
O O12 0.000000 0.344169 0.301575
O O13 0.500000 0.876126 0.202755
O O14 0.672190 0.854450 0.303460
O O15 0.707339 0.000000 0.215312
O O16 0.000000 0.500000 0.887938
O O17 0.000000 0.395311 0.000000
O O18 0.500000 0.263142 0.630976
#
# Coordination Sequence:
#
# PCOD8198008 Si02
#       7
#     4   8   4   8   8   4   8
#     4   9  16  30  54  81 110 138 167 211 268 317
#     4  11  20  35  54  79 104 138 177 217 263 315
#     4  11  22  34  51  79 111 136 168 217 268 319
#     4  10  20  34  52  73 103 141 178 215 259 310
#     4   9  17  32  54  78 104 134 173 216 259 303
#     4  11  22  36  55  77 105 140 172 209 264 323
#     4   9  18  31  52  82 106 133 173 217 259 307
#
# _framework density 17.140067999999999
#
# number of rings (size 3 to 8) (size 9 to 14) (size 15 to 20)
#    0.000    2.091    1.818    2.727    1.273    4.000 
#    0.000    1.364    0.000    8.182    0.000    0.000 
#    0.000    0.000    0.000    0.000    0.000    0.000 
#
# Total GULP energy -545582.336698 kJ/mol
# GULP energy per Si atom -12399.598561 kJ/mol
# Density = 1.710106 g / cm^3
# Si number density = 17.140068 Si / 1000 Ang^3
#
#
#
# Elastic Constant Matrix: (Units=GPa)
#
#
# Indices 1 2 3 4 5 6 
#
# 1 116.9359 59.0387 54.4317 0.0000 0.0000 0.0000
# 2 59.0387 124.3893 55.8483 0.0000 0.0000 0.0000
# 3 54.4317 55.8483 100.6495 0.0000 0.0000 0.0000
# 4 0.0000 0.0000 0.0000 23.8060 0.0000 0.0000
# 5 0.0000 0.0000 0.0000 0.0000 25.5748 0.0000
# 6 0.0000 0.0000 0.0000 0.0000 0.0000 20.2078
#
#
#
# Elastic Compliance Matrix: (Units=1/GPa)
#
#
# Indices 1 2 3 4 5 6 
#
# 1 0.012723 -0.003928 -0.004701 0.000000 0.000000 0.000000
# 2 -0.003928 0.011919 -0.004489 0.000000 0.000000 0.000000
# 3 -0.004701 -0.004489 0.014969 0.000000 0.000000 0.000000
# 4 0.000000 0.000000 0.000000 0.042006 0.000000 0.000000
# 5 0.000000 0.000000 0.000000 0.000000 0.039101 0.000000
# 6 0.000000 0.000000 0.000000 0.000000 0.000000 0.049486
#
#
# Mechanical properties :
#
#
# Convention : Reuss Voigt Hill
#
# Bulk Modulus (GPa) = 74.77123 75.62357 75.19740
# Shear Modulus (GPa) = 24.88799 25.42811 25.15805
#
# Velocity S-wave (km/s) = 3.81469 3.85586 3.83533
# Velocity P-wave (km/s) = 7.94486 8.00252 7.97374
#
# Compressibility (1/GPa) = 0.01337413
#
# Stress axis : x y z
#
# Youngs Moduli (GPa) = 78.59649 83.89731 66.80474
#
# Poissons Ratio (x) = 0.32955 0.31406
# Poissons Ratio (y) = 0.30873 0.29992
# Poissons Ratio (z) = 0.36950 0.37665
#
# Static dielectric constant tensor:
#      x y z
#    x 3.201470 0.000000 0.000000 
#    y 0.000000 3.256500 0.000000 
#    z 0.000000 0.000000 3.250080 
# 
# 
# High freq. dielectric constant tensor:
#      x y z
#    x 1.655170 0.000000 0.000000 
#    y 0.000000 1.656770 0.000000 
#    z 0.000000 0.000000 1.658020 
# 
# From -- ./inp_files/26443.got.cif
#   From: 2010.03.12/outbox.cif.g09.slc.cpg/sg47_14_cif.got.tgz:26443.got - 2010.04.14 03:12:58.
