data_PCOD8198952
_publ_section_title
;
Structure prediction by ZEFSAII (Michael W. Deem and Ramdas Pophale) SiO2 
 PCOD8198952
Probable space group: P M M M
;
_chemical_formula_sum "Si O2"
_cell_formula_units_Z 44
_cell_length_a 28.475972
_cell_length_b 10.092151
_cell_length_c 7.970405
_cell_angle_alpha 90.000000
_cell_angle_beta 90.000000
_cell_angle_gamma 90.000000
_cell_volume 2290.565351
_symmetry_space_group_name_H-M "P M M M"
_symmetry_group_IT_number 47
_symmetry_cell_setting 'orthorhombic'
loop_
_space_group_symop_operation_xyz
x,y,z
-x,-y,z
x,-y,-z
-x,y,-z
-x,-y,-z
x,y,-z
-x,y,z
x,-y,z
loop_
_atom_site_type_symbol
_atom_site_label
_atom_site_fract_x
_atom_site_fract_y
_atom_site_fract_z
Si Si1 0.781377 0.351116 0.696031
Si Si2 0.392426 0.751269 0.807173
Si Si3 0.555251 0.000000 0.690010
Si Si4 0.888154 0.656618 0.314077
Si Si5 0.946664 0.341805 0.000000
Si Si6 0.446590 0.500000 0.201224
Si Si7 0.295288 0.147776 0.194845
O O1 0.771269 0.350962 0.500000
O O2 0.771772 0.500000 0.767233
O O3 0.834750 0.307960 0.733674
O O4 0.749084 0.242458 0.782545
O O5 0.426985 0.873774 0.789897
O O6 0.418221 0.625559 0.723812
O O7 0.341752 0.784881 0.722583
O O8 0.384004 0.716532 0.000000
O O9 0.500000 0.000000 0.693722
O O10 0.574543 0.000000 0.500000
O O11 0.901077 0.714582 0.500000
O O12 0.893810 0.500000 0.323145
O O13 0.921757 0.715016 0.168432
O O14 0.943811 0.500000 0.000000
O O15 0.000000 0.291127 0.000000
O O16 0.500000 0.500000 0.270928
O O17 0.448263 0.500000 0.000000
O O18 0.286663 0.000000 0.272768
O O19 0.305234 0.129224 0.000000
#
# Coordination Sequence:
#
# PCOD8198952 Si02
#       7
#     8   8   4   8   4   4   8
#     4   9  19  34  52  75 101 137 182 217 259 321
#     4  10  20  37  57  77 104 133 166 210 258 309
#     4  11  23  37  55  79 103 133 173 207 249 312
#     4   8  15  28  43  64  99 135 175 226 266 314
#     4   9  16  24  40  68 101 141 185 219 262 323
#     4   9  18  32  55  83 103 125 165 213 255 302
#     4  10  21  35  51  76 105 133 170 216 263 315
#
# _framework density 19.209230999999999
#
# number of rings (size 3 to 8) (size 9 to 14) (size 15 to 20)
#    0.000    2.636    0.909    1.909    2.545    3.273 
#    0.000    2.273    0.000    1.636    0.000    0.000 
#    0.000    1.455    0.000    4.000    0.000    4.000 
#
# Total GULP energy -545332.645691 kJ/mol
# GULP energy per Si atom -12393.923766 kJ/mol
# Density = 1.916551 g / cm^3
# Si number density = 19.209231 Si / 1000 Ang^3
#
#
#
# Elastic Constant Matrix: (Units=GPa)
#
#
# Indices 1 2 3 4 5 6 
#
# 1 145.4462 63.8867 49.9697 0.0000 0.0000 0.0000
# 2 63.8867 114.9960 18.5226 0.0000 0.0000 0.0000
# 3 49.9697 18.5226 55.8970 0.0000 0.0000 0.0000
# 4 0.0000 0.0000 0.0000 10.6465 0.0000 0.0000
# 5 0.0000 0.0000 0.0000 0.0000 13.6927 0.0000
# 6 0.0000 0.0000 0.0000 0.0000 0.0000 14.9543
#
#
#
# Elastic Compliance Matrix: (Units=1/GPa)
#
#
# Indices 1 2 3 4 5 6 
#
# 1 0.012469 -0.005421 -0.009350 0.000000 0.000000 0.000000
# 2 -0.005421 0.011543 0.001021 0.000000 0.000000 0.000000
# 3 -0.009350 0.001021 0.025911 0.000000 0.000000 0.000000
# 4 0.000000 0.000000 0.000000 0.093928 0.000000 0.000000
# 5 0.000000 0.000000 0.000000 0.000000 0.073032 0.000000
# 6 0.000000 0.000000 0.000000 0.000000 0.000000 0.066870
#
#
# Mechanical properties :
#
#
# Convention : Reuss Voigt Hill
#
# Bulk Modulus (GPa) = 44.59886 64.56636 54.58261
# Shear Modulus (GPa) = 15.68739 20.12271 17.90505
#
# Velocity S-wave (km/s) = 2.86082 3.24011 3.05635
# Velocity P-wave (km/s) = 5.84639 6.90528 6.39778
#
# Compressibility (1/GPa) = 0.02242210
#
# Stress axis : x y z
#
# Youngs Moduli (GPa) = 80.19829 86.63088 38.59429
#
# Poissons Ratio (x) = 0.46964 0.36087
# Poissons Ratio (y) = 0.43477 -0.03941
# Poissons Ratio (z) = 0.74989 -0.08847
#
# Static dielectric constant tensor:
#      x y z
#    x 3.628580 0.000000 0.000000 
#    y 0.000000 3.317350 0.000000 
#    z 0.000000 0.000000 3.536150 
# 
# 
# High freq. dielectric constant tensor:
#      x y z
#    x 1.749100 0.000000 0.000000 
#    y 0.000000 1.714800 0.000000 
#    z 0.000000 0.000000 1.732910 
# 
# From -- ./inp_files/13710.got.cif
#   From: 2010.03.12/outbox.cif.g09.slc.cpg/sg47_7_cif.got.tgz:13710.got - 2010.04.14 03:12:58.
