data_PCOD8198085
_publ_section_title
;
Structure prediction by ZEFSAII (Michael W. Deem and Ramdas Pophale) SiO2 
 PCOD8198085
Probable space group: P M M M
;
_chemical_formula_sum "Si O2"
_cell_formula_units_Z 44
_cell_length_a 10.297245
_cell_length_b 25.442093
_cell_length_c 9.235161
_cell_angle_alpha 90.000000
_cell_angle_beta 90.000000
_cell_angle_gamma 90.000000
_cell_volume 2419.459478
_symmetry_space_group_name_H-M "P M M M"
_symmetry_group_IT_number 47
_symmetry_cell_setting 'orthorhombic'
loop_
_space_group_symop_operation_xyz
x,y,z
-x,-y,z
x,-y,-z
-x,y,-z
-x,-y,-z
x,y,-z
-x,y,z
x,-y,z
loop_
_atom_site_type_symbol
_atom_site_label
_atom_site_fract_x
_atom_site_fract_y
_atom_site_fract_z
Si Si1 0.853717 0.348501 0.841244
Si Si2 0.648759 0.841235 0.329641
Si Si3 0.500000 0.437965 0.162009
Si Si4 0.653976 0.057487 0.837878
Si Si5 0.151436 0.751522 0.669531
Si Si6 0.754043 0.439228 0.329261
O O1 0.793537 0.300117 0.751528
O O2 0.858801 0.402018 0.746194
O O3 0.000000 0.332559 0.869950
O O4 0.785680 0.356154 0.000000
O O5 0.651486 0.847384 0.500000
O O6 0.500000 0.828202 0.278217
O O7 0.702537 0.895955 0.265340
O O8 0.751665 0.797431 0.278139
O O9 0.500000 0.500000 0.149775
O O10 0.622133 0.419317 0.254707
O O11 0.500000 0.413389 0.000000
O O12 0.500000 0.056694 0.837639
O O13 0.704694 0.000000 0.784076
O O14 0.705621 0.068219 0.000000
O O15 0.167087 0.740413 0.500000
O O16 0.000000 0.765055 0.705300
O O17 0.746630 0.429788 0.500000
O O18 0.786355 0.500000 0.295054
#
# Coordination Sequence:
#
# PCOD8198085 Si02
#       6
#     8   8   4   8   8   8
#     4  10  21  36  53  73  97 126 163 206 249 295
#     4   9  17  29  47  73 100 123 156 205 250 285
#     4   9  17  31  51  73  99 129 159 193 234 283
#     4   8  14  25  42  66  97 131 162 193 236 289
#     4   9  18  34  53  69  92 130 168 200 244 304
#     4  10  20  34  53  76 101 130 163 198 242 298
#
# _framework density 18.185879
#
# number of rings (size 3 to 8) (size 9 to 14) (size 15 to 20)
#    0.000    2.818    0.000    1.909    0.000    4.727 
#    1.636    3.636    0.000    0.545    0.000    3.818 
#    0.000    0.000    0.000    0.000    0.000    0.000 
#
# Total GULP energy -545172.472591 kJ/mol
# GULP energy per Si atom -12390.283468 kJ/mol
# Density = 1.814449 g / cm^3
# Si number density = 18.185879 Si / 1000 Ang^3
#
#
#
# Elastic Constant Matrix: (Units=GPa)
#
#
# Indices 1 2 3 4 5 6 
#
# 1 49.8426 41.8715 26.7527 0.0000 0.0000 0.0000
# 2 41.8715 145.4533 69.0158 0.0000 0.0000 0.0000
# 3 26.7527 69.0158 90.5546 0.0000 0.0000 0.0000
# 4 0.0000 0.0000 0.0000 32.3021 0.0000 0.0000
# 5 0.0000 0.0000 0.0000 0.0000 18.2114 0.0000
# 6 0.0000 0.0000 0.0000 0.0000 0.0000 23.0200
#
#
#
# Elastic Compliance Matrix: (Units=1/GPa)
#
#
# Indices 1 2 3 4 5 6 
#
# 1 0.027050 -0.006258 -0.003222 0.000000 0.000000 0.000000
# 2 -0.006258 0.012218 -0.007463 0.000000 0.000000 0.000000
# 3 -0.003222 -0.007463 0.017683 0.000000 0.000000 0.000000
# 4 0.000000 0.000000 0.000000 0.030958 0.000000 0.000000
# 5 0.000000 0.000000 0.000000 0.000000 0.054911 0.000000
# 6 0.000000 0.000000 0.000000 0.000000 0.000000 0.043441
#
#
# Mechanical properties :
#
#
# Convention : Reuss Voigt Hill
#
# Bulk Modulus (GPa) = 43.35640 62.34783 52.85211
# Shear Modulus (GPa) = 21.94598 24.58737 23.26667
#
# Velocity S-wave (km/s) = 3.47761 3.68095 3.58072
# Velocity P-wave (km/s) = 6.32594 7.24044 6.79858
#
# Compressibility (1/GPa) = 0.02306465
#
# Stress axis : x y z
#
# Youngs Moduli (GPa) = 36.96901 81.84966 56.55292
#
# Poissons Ratio (x) = 0.51222 0.18220
# Poissons Ratio (y) = 0.23135 0.42204
# Poissons Ratio (z) = 0.11911 0.61082
#
# Static dielectric constant tensor:
#      x y z
#    x 3.210160 0.000000 0.000000 
#    y 0.000000 3.490930 0.000000 
#    z 0.000000 0.000000 3.555640 
# 
# 
# High freq. dielectric constant tensor:
#      x y z
#    x 1.670750 0.000000 0.000000 
#    y 0.000000 1.701900 0.000000 
#    z 0.000000 0.000000 1.710820 
# 
# From -- ./inp_files/4327.got.cif
#   From: 2010.03.12/outbox.cif.g09.slc.cpg/sg47_3_cif.got.tgz:4327.got - 2010.04.14 03:12:58.
