data_PCOD8198073
_publ_section_title
;
Structure prediction by ZEFSAII (Michael W. Deem and Ramdas Pophale) SiO2 
 PCOD8198073
Probable space group: P M M M
;
_chemical_formula_sum "Si O2"
_cell_formula_units_Z 48
_cell_length_a 8.850549
_cell_length_b 30.873093
_cell_length_c 9.192727
_cell_angle_alpha 90.000000
_cell_angle_beta 90.000000
_cell_angle_gamma 90.000000
_cell_volume 2511.855864
_symmetry_space_group_name_H-M "P M M M"
_symmetry_group_IT_number 47
_symmetry_cell_setting 'orthorhombic'
loop_
_space_group_symop_operation_xyz
x,y,z
-x,-y,z
x,-y,-z
-x,y,-z
-x,-y,-z
x,y,-z
-x,y,z
x,-y,z
loop_
_atom_site_type_symbol
_atom_site_label
_atom_site_fract_x
_atom_site_fract_y
_atom_site_fract_z
Si Si1 0.319922 0.787154 0.835681
Si Si2 0.325531 0.449997 0.667005
Si Si3 0.320624 0.703474 0.664956
Si Si4 0.320315 0.952247 0.163426
Si Si5 0.680381 0.129478 0.336433
Si Si6 0.176740 0.624760 0.167423
O O1 0.500000 0.787292 0.835638
O O2 0.257642 0.745232 0.750820
O O3 0.257933 0.830073 0.756332
O O4 0.257126 0.786207 0.000000
O O5 0.288376 0.438447 0.500000
O O6 0.500000 0.439606 0.700103
O O7 0.289786 0.500000 0.698269
O O8 0.220226 0.422369 0.772798
O O9 0.259837 0.705339 0.500000
O O10 0.500000 0.703184 0.666907
O O11 0.264289 0.660348 0.740942
O O12 0.500000 0.950199 0.163734
O O13 0.254602 0.915061 0.268252
O O14 0.267183 0.000000 0.217323
O O15 0.260991 0.943849 0.000000
O O16 0.742225 0.133580 0.500000
O O17 0.500000 0.129220 0.335171
O O18 0.000000 0.632167 0.186254
O O19 0.226502 0.628182 0.000000
#
# Coordination Sequence:
#
# PCOD8198073 Si02
#       6
#     8   8   8   8   8   8
#     4   9  16  26  41  60  82 109 142 183 233 285
#     4   9  19  37  60  84 108 135 170 210 249 290
#     4  10  20  34  53  75  97 123 160 205 249 294
#     4   8  13  20  28  38  56  87 128 172 219 273
#     4   9  15  21  30  46  69  96 130 176 226 274
#     4  11  24  38  52  75 107 139 170 204 243 290
#
# _framework density 19.109376999999999
#
# number of rings (size 3 to 8) (size 9 to 14) (size 15 to 20)
#    0.000    2.667    0.000    3.500    0.000    9.667 
#    0.000    4.167    0.000    0.000    0.000    0.000 
#    0.000    0.000    0.000    0.000    0.000    0.833 
#
# Total GULP energy -595155.642066 kJ/mol
# GULP energy per Si atom -12399.075876 kJ/mol
# Density = 1.906588 g / cm^3
# Si number density = 19.109377 Si / 1000 Ang^3
#
#
#
# Elastic Constant Matrix: (Units=GPa)
#
#
# Indices 1 2 3 4 5 6 
#
# 1 5.3848 8.7773 14.3258 0.0000 0.0000 0.0000
# 2 8.7773 142.3728 84.6931 0.0000 0.0000 0.0000
# 3 14.3258 84.6931 164.0874 0.0000 0.0000 0.0000
# 4 0.0000 0.0000 0.0000 44.7515 0.0000 0.0000
# 5 0.0000 0.0000 0.0000 0.0000 14.7116 0.0000
# 6 0.0000 0.0000 0.0000 0.0000 0.0000 -1.0009
#
#
#
# Elastic Compliance Matrix: (Units=1/GPa)
#
#
# Indices 1 2 3 4 5 6 
#
# 1 0.243034 -0.003407 -0.019460 0.000000 0.000000 0.000000
# 2 -0.003407 0.010184 -0.004959 0.000000 0.000000 0.000000
# 3 -0.019460 -0.004959 0.010353 0.000000 0.000000 0.000000
# 4 0.000000 0.000000 0.000000 0.022346 0.000000 0.000000
# 5 0.000000 0.000000 0.000000 0.000000 0.067973 0.000000
# 6 0.000000 0.000000 0.000000 0.000000 0.000000 -0.999053
#
#
# Mechanical properties :
#
#
# Convention : Reuss Voigt Hill
#
# Bulk Modulus (GPa) = 4.80955 58.60417 31.70686
# Shear Modulus (GPa) = -9.61160 25.29567 7.84204
#
# Velocity S-wave (km/s) = -2.24515 3.64226 2.02797
# Velocity P-wave (km/s) = 2.04905 6.95862 4.70233
#
# Compressibility (1/GPa) = 0.20791946
#
# Stress axis : x y z
#
# Youngs Moduli (GPa) = 4.11464 98.19600 96.59251
#
# Poissons Ratio (x) = 0.33455 1.87968
# Poissons Ratio (y) = 0.01402 0.47899
# Poissons Ratio (z) = 0.08007 0.48694
#
# Static dielectric constant tensor:
#      x y z
#    x 2.840230 0.000000 0.000000 
#    y 0.000000 3.737470 0.000000 
#    z 0.000000 0.000000 3.719750 
# 
# 
# High freq. dielectric constant tensor:
#      x y z
#    x 1.673920 0.000000 0.000000 
#    y 0.000000 1.762190 0.000000 
#    z 0.000000 0.000000 1.753550 
# 
# From -- ./inp_files/2504.got.cif
#   From: 2010.03.12/outbox.cif.g09.slc.cpg/sg47_2_cif.got.tgz:2504.got - 2010.04.14 03:12:58.
