data_PCOD8198186
_publ_section_title
;
Structure prediction by ZEFSAII (Michael W. Deem and Ramdas Pophale) SiO2 
 PCOD8198186
Probable space group: P M M M
;
_chemical_formula_sum "Si O2"
_cell_formula_units_Z 48
_cell_length_a 28.998192
_cell_length_b 9.036869
_cell_length_c 10.029843
_cell_angle_alpha 90.000000
_cell_angle_beta 90.000000
_cell_angle_gamma 90.000000
_cell_volume 2628.349067
_symmetry_space_group_name_H-M "P M M M"
_symmetry_group_IT_number 47
_symmetry_cell_setting 'orthorhombic'
loop_
_space_group_symop_operation_xyz
x,y,z
-x,-y,z
x,-y,-z
-x,y,-z
-x,-y,-z
x,y,-z
-x,y,z
x,-y,z
loop_
_atom_site_type_symbol
_atom_site_label
_atom_site_fract_x
_atom_site_fract_y
_atom_site_fract_z
Si Si1 0.121573 0.328574 0.346408
Si Si2 0.397276 0.824074 0.765181
Si Si3 0.303728 0.325318 0.845038
Si Si4 0.051922 0.825378 0.149686
Si Si5 0.445993 0.665255 0.000000
Si Si6 0.224754 0.675679 0.647789
Si Si7 0.551947 0.174959 0.500000
O O1 0.108227 0.301737 0.500000
O O2 0.118498 0.500000 0.309332
O O3 0.086405 0.242525 0.254954
O O4 0.173272 0.267655 0.318764
O O5 0.346597 0.759024 0.781780
O O6 0.418788 0.770954 0.626107
O O7 0.395249 0.000000 0.779397
O O8 0.431135 0.757379 0.873224
O O9 0.311147 0.500000 0.828245
O O10 0.259459 0.267998 0.762189
O O11 0.297339 0.282427 0.000000
O O12 0.000000 0.771503 0.181940
O O13 0.054768 0.000000 0.161485
O O14 0.065567 0.775152 0.000000
O O15 0.423361 0.500000 0.000000
O O16 0.500000 0.649278 0.000000
O O17 0.239859 0.733149 0.500000
O O18 0.223807 0.500000 0.644561
O O19 0.500000 0.243310 0.500000
O O20 0.547388 0.000000 0.500000
#
# Coordination Sequence:
#
# PCOD8198186 Si02
#       7
#     8   8   8   8   4   8   4
#     4   9  18  33  53  79 109 137 175 225 270 317
#     4  11  22  37  58  82 110 143 178 217 264 317
#     4  10  20  34  53  78 109 140 175 218 261 309
#     4   9  19  35  52  72 103 143 184 224 269 322
#     4  11  23  39  59  83 111 141 177 221 264 311
#     4   8  16  32  53  76 103 140 180 218 264 317
#     4   9  20  38  57  79 107 139 177 217 258 311
#
# _framework density 18.262414
#
# number of rings (size 3 to 8) (size 9 to 14) (size 15 to 20)
#    0.000    2.500    0.833    2.750    1.167    3.333 
#    0.000    6.250    0.000    4.000    0.000    0.000 
#    0.000    0.000    0.000    0.000    0.000    0.000 
#
# Total GULP energy -595074.500573 kJ/mol
# GULP energy per Si atom -12397.385429 kJ/mol
# Density = 1.822085 g / cm^3
# Si number density = 18.262414 Si / 1000 Ang^3
#
#
#
# Elastic Constant Matrix: (Units=GPa)
#
#
# Indices 1 2 3 4 5 6 
#
# 1 140.0767 38.8886 93.3744 0.0000 0.0000 0.0000
# 2 38.8886 41.7459 41.1664 0.0000 0.0000 0.0000
# 3 93.3744 41.1664 153.5431 0.0000 0.0000 0.0000
# 4 0.0000 0.0000 0.0000 27.5234 0.0000 0.0000
# 5 0.0000 0.0000 0.0000 0.0000 -0.2511 0.0000
# 6 0.0000 0.0000 0.0000 0.0000 0.0000 -19.7114
#
#
#
# Elastic Compliance Matrix: (Units=1/GPa)
#
#
# Indices 1 2 3 4 5 6 
#
# 1 0.012980 -0.005856 -0.006323 0.000000 0.000000 0.000000
# 2 -0.005856 0.035206 -0.005878 0.000000 0.000000 0.000000
# 3 -0.006323 -0.005878 0.011934 0.000000 0.000000 0.000000
# 4 0.000000 0.000000 0.000000 0.036333 0.000000 0.000000
# 5 0.000000 0.000000 0.000000 0.000000 -3.982640 0.000000
# 6 0.000000 0.000000 0.000000 0.000000 0.000000 -0.050732
#
#
# Mechanical properties :
#
#
# Convention : Reuss Voigt Hill
#
# Bulk Modulus (GPa) = 41.65709 75.80272 58.72990
# Shear Modulus (GPa) = -1.28442 12.30794 5.51176
#
# Velocity S-wave (km/s) = -0.83955 2.59887 1.73915
# Velocity P-wave (km/s) = 4.68188 7.11359 6.02176
#
# Compressibility (1/GPa) = 0.02400552
#
# Stress axis : x y z
#
# Youngs Moduli (GPa) = 77.04270 28.40451 83.79250
#
# Poissons Ratio (x) = 0.16633 0.52986
# Poissons Ratio (y) = 0.45114 0.49253
# Poissons Ratio (z) = 0.48718 0.16696
#
# Static dielectric constant tensor:
#      x y z
#    x 3.630970 0.000000 0.000000 
#    y 0.000000 3.126620 0.000000 
#    z 0.000000 0.000000 4.000310 
# 
# 
# High freq. dielectric constant tensor:
#      x y z
#    x 1.717820 0.000000 0.000000 
#    y 0.000000 1.681770 0.000000 
#    z 0.000000 0.000000 1.719200 
# 
# From -- ./inp_files/13906.got.cif
#   From: 2010.03.12/outbox.cif.g09.slc.cpg/sg47_7_cif.got.tgz:13906.got - 2010.04.14 03:12:58.
