data_PCOD8198994
_publ_section_title
;
Structure prediction by ZEFSAII (Michael W. Deem and Ramdas Pophale) SiO2 
 PCOD8198994
Probable space group: P M M M
;
_chemical_formula_sum "Si O2"
_cell_formula_units_Z 48
_cell_length_a 8.914557
_cell_length_b 19.035753
_cell_length_c 14.976746
_cell_angle_alpha 90.000000
_cell_angle_beta 90.000000
_cell_angle_gamma 90.000000
_cell_volume 2541.483483
_symmetry_space_group_name_H-M "P M M M"
_symmetry_group_IT_number 47
_symmetry_cell_setting 'orthorhombic'
loop_
_space_group_symop_operation_xyz
x,y,z
-x,-y,z
x,-y,-z
-x,y,-z
-x,-y,-z
x,y,-z
-x,y,z
x,-y,z
loop_
_atom_site_type_symbol
_atom_site_label
_atom_site_fract_x
_atom_site_fract_y
_atom_site_fract_z
Si Si1 0.676827 0.581088 0.500000
Si Si2 0.676821 0.420212 0.000000
Si Si3 0.673321 0.180892 0.396217
Si Si4 0.173742 0.326577 0.647528
Si Si5 0.821945 0.825174 0.901013
Si Si6 0.173539 0.670799 0.852574
Si Si7 0.176412 0.081447 0.260989
O O1 0.724584 0.500000 0.500000
O O2 0.500000 0.591334 0.500000
O O3 0.740463 0.616847 0.588422
O O4 0.736309 0.384538 0.089485
O O5 0.733428 0.500000 0.000000
O O6 0.500000 0.414964 0.000000
O O7 0.696247 0.165298 0.500000
O O8 0.500000 0.193316 0.372550
O O9 0.765016 0.249008 0.367784
O O10 0.736066 0.113555 0.344526
O O11 0.197695 0.348818 0.749625
O O12 0.000000 0.326594 0.620766
O O13 0.762809 0.748672 0.871714
O O14 0.764372 0.882635 0.830328
O O15 0.000000 0.824942 0.901549
O O16 0.760250 0.843715 0.000000
O O17 0.000000 0.666917 0.880168
O O18 0.000000 0.094699 0.274515
O O19 0.216162 0.000000 0.254755
#
# Coordination Sequence:
#
# PCOD8198994 Si02
#       7
#     4   4   8   8   8   8   8
#     4  11  25  43  61  87 126 163 196 241 299 361
#     4  11  25  41  57  85 124 159 194 242 298 354
#     4  11  23  38  59  86 117 155 199 245 299 361
#     4  11  22  38  64  92 119 153 200 253 298 350
#     4   9  16  31  57  86 115 147 189 238 288 342
#     4  10  20  37  62  89 115 151 199 248 293 347
#     4  10  21  37  58  87 121 154 194 246 299 349
#
# _framework density 18.886607999999999
#
# number of rings (size 3 to 8) (size 9 to 14) (size 15 to 20)
#    0.000    1.667    3.333    1.500    0.000    5.333 
#    0.000    6.667    0.000    0.000    0.000    1.167 
#    0.000    0.000    0.000    0.000    0.000    0.000 
#
# Total GULP energy -595361.704202 kJ/mol
# GULP energy per Si atom -12403.368838 kJ/mol
# Density = 1.884362 g / cm^3
# Si number density = 18.886608 Si / 1000 Ang^3
#
#
#
# Elastic Constant Matrix: (Units=GPa)
#
#
# Indices 1 2 3 4 5 6 
#
# 1 55.8694 47.7571 39.8449 0.0000 0.0000 0.0000
# 2 47.7571 149.2592 68.0322 0.0000 0.0000 0.0000
# 3 39.8449 68.0322 123.5047 0.0000 0.0000 0.0000
# 4 0.0000 0.0000 0.0000 28.6684 0.0000 0.0000
# 5 0.0000 0.0000 0.0000 0.0000 -3.7692 0.0000
# 6 0.0000 0.0000 0.0000 0.0000 0.0000 20.6507
#
#
#
# Elastic Compliance Matrix: (Units=1/GPa)
#
#
# Indices 1 2 3 4 5 6 
#
# 1 0.026986 -0.006231 -0.005274 0.000000 0.000000 0.000000
# 2 -0.006231 0.010384 -0.003710 0.000000 0.000000 0.000000
# 3 -0.005274 -0.003710 0.011842 0.000000 0.000000 0.000000
# 4 0.000000 0.000000 0.000000 0.034882 0.000000 0.000000
# 5 0.000000 0.000000 0.000000 0.000000 -0.265305 0.000000
# 6 0.000000 0.000000 0.000000 0.000000 0.000000 0.048425
#
#
# Mechanical properties :
#
#
# Convention : Reuss Voigt Hill
#
# Bulk Modulus (GPa) = 53.23966 71.10021 62.16993
# Shear Modulus (GPa) = -52.03130 20.64325 -15.69403
#
# Velocity S-wave (km/s) = -5.25444 3.30966 -2.88577
# Velocity P-wave (km/s) = 2.92606 7.23413 4.67818
#
# Compressibility (1/GPa) = 0.01878299
#
# Stress axis : x y z
#
# Youngs Moduli (GPa) = 37.05600 96.29882 84.44455
#
# Poissons Ratio (x) = 0.60000 0.44537
# Poissons Ratio (y) = 0.23088 0.31330
# Poissons Ratio (z) = 0.19544 0.35728
#
# Static dielectric constant tensor:
#      x y z
#    x 3.364090 0.000000 0.000000 
#    y 0.000000 3.480620 0.000000 
#    z 0.000000 0.000000 3.883870 
# 
# 
# High freq. dielectric constant tensor:
#      x y z
#    x 1.719340 0.000000 0.000000 
#    y 0.000000 1.733430 0.000000 
#    z 0.000000 0.000000 1.752180 
# 
# From -- ./inp_files/21082.got.cif
#   From: 2010.03.12/outbox.cif.g09.slc.cpg/sg47_11_cif.got.tgz:21082.got - 2010.04.14 03:12:58.
