data_PCOD8198179
_publ_section_title
;
Structure prediction by ZEFSAII (Michael W. Deem and Ramdas Pophale) SiO2 
 PCOD8198179
Probable space group: P M M M
;
_chemical_formula_sum "Si O2"
_cell_formula_units_Z 48
_cell_length_a 31.024876
_cell_length_b 8.933507
_cell_length_c 8.927441
_cell_angle_alpha 90.000000
_cell_angle_beta 90.000000
_cell_angle_gamma 90.000000
_cell_volume 2474.338001
_symmetry_space_group_name_H-M "P M M M"
_symmetry_group_IT_number 47
_symmetry_cell_setting 'orthorhombic'
loop_
_space_group_symop_operation_xyz
x,y,z
-x,-y,z
x,-y,-z
-x,y,-z
-x,-y,-z
x,y,-z
-x,y,z
x,-y,z
loop_
_atom_site_type_symbol
_atom_site_label
_atom_site_fract_x
_atom_site_fract_y
_atom_site_fract_z
Si Si1 0.081071 0.174934 0.825646
Si Si2 0.161450 0.673796 0.676208
Si Si3 0.000000 0.677149 0.671544
Si Si4 0.500000 0.331466 0.822011
Si Si5 0.334532 0.672368 0.675585
Si Si6 0.248311 0.322297 0.168437
Si Si7 0.586247 0.824053 0.171862
O O1 0.125249 0.226273 0.751707
O O2 0.042116 0.262517 0.751647
O O3 0.074283 0.000000 0.797636
O O4 0.082414 0.214536 0.000000
O O5 0.160450 0.699172 0.500000
O O6 0.153808 0.500000 0.717324
O O7 0.207069 0.732975 0.738276
O O8 0.000000 0.500000 0.682778
O O9 0.000000 0.731110 0.500000
O O10 0.500000 0.500000 0.759888
O O11 0.542702 0.249122 0.762605
O O12 0.500000 0.326525 0.000000
O O13 0.327748 0.689987 0.500000
O O14 0.342756 0.500000 0.720685
O O15 0.291829 0.737763 0.754851
O O16 0.374539 0.770156 0.727491
O O17 0.249351 0.500000 0.168910
O O18 0.245441 0.258593 0.000000
O O19 0.581021 0.000000 0.186021
O O20 0.594389 0.775131 0.000000
#
# Coordination Sequence:
#
# PCOD8198179 Si02
#       7
#     8   8   4   4   8   8   8
#     4  11  24  40  58  83 115 150 188 229 274 326
#     4  10  20  35  57  85 115 147 185 228 274 326
#     4  11  24  41  62  88 114 143 184 231 278 330
#     4   9  17  31  54  81 106 135 174 220 268 319
#     4  10  20  34  53  78 108 142 181 225 271 320
#     4   9  17  31  54  82 110 142 181 226 274 321
#     4  10  20  34  53  78 108 141 177 219 268 322
#
# _framework density 19.39913
#
# number of rings (size 3 to 8) (size 9 to 14) (size 15 to 20)
#    0.000    2.000    0.000    3.750    0.000   11.000 
#    0.000    1.250    0.000    7.500    0.000    0.000 
#    0.000    0.000    0.000    0.000    0.000    0.000 
#
# Total GULP energy -595377.773074 kJ/mol
# GULP energy per Si atom -12403.703606 kJ/mol
# Density = 1.935498 g / cm^3
# Si number density = 19.399130 Si / 1000 Ang^3
#
#
#
# Elastic Constant Matrix: (Units=GPa)
#
#
# Indices 1 2 3 4 5 6 
#
# 1 162.6223 39.2625 55.3857 0.0000 0.0000 0.0000
# 2 39.2625 53.2759 34.3391 0.0000 0.0000 0.0000
# 3 55.3857 34.3391 101.2225 0.0000 0.0000 0.0000
# 4 0.0000 0.0000 0.0000 25.1194 0.0000 0.0000
# 5 0.0000 0.0000 0.0000 0.0000 45.9193 0.0000
# 6 0.0000 0.0000 0.0000 0.0000 0.0000 -18.1754
#
#
#
# Elastic Compliance Matrix: (Units=1/GPa)
#
#
# Indices 1 2 3 4 5 6 
#
# 1 0.008180 -0.004023 -0.003111 0.000000 0.000000 0.000000
# 2 -0.004023 0.026002 -0.006620 0.000000 0.000000 0.000000
# 3 -0.003111 -0.006620 0.013827 0.000000 0.000000 0.000000
# 4 0.000000 0.000000 0.000000 0.039810 0.000000 0.000000
# 5 0.000000 0.000000 0.000000 0.000000 0.021777 0.000000
# 6 0.000000 0.000000 0.000000 0.000000 0.000000 -0.055019
#
#
# Mechanical properties :
#
#
# Convention : Reuss Voigt Hill
#
# Bulk Modulus (GPa) = 48.77716 63.89948 56.33832
# Shear Modulus (GPa) = 56.23135 23.11489 39.67312
#
# Velocity S-wave (km/s) = 5.38975 3.45562 4.52718
# Velocity P-wave (km/s) = 7.99570 6.99518 7.51212
#
# Compressibility (1/GPa) = 0.02050140
#
# Stress axis : x y z
#
# Youngs Moduli (GPa) = 122.24771 38.45879 72.32155
#
# Poissons Ratio (x) = 0.15473 0.22500
# Poissons Ratio (y) = 0.49183 0.47874
# Poissons Ratio (z) = 0.38032 0.25458
#
# Static dielectric constant tensor:
#      x y z
#    x 3.817950 0.000000 0.000000 
#    y 0.000000 3.383840 0.000000 
#    z 0.000000 0.000000 3.601570 
# 
# 
# High freq. dielectric constant tensor:
#      x y z
#    x 1.775120 0.000000 0.000000 
#    y 0.000000 1.737080 0.000000 
#    z 0.000000 0.000000 1.756590 
# 
# From -- ./inp_files/13811.got.cif
#   From: 2010.03.12/outbox.cif.g09.slc.cpg/sg47_7_cif.got.tgz:13811.got - 2010.04.14 03:12:58.
