data_PCOD8198550
_publ_section_title
;
Structure prediction by ZEFSAII (Michael W. Deem and Ramdas Pophale) SiO2 
 PCOD8198550
Probable space group: P M M M
;
_chemical_formula_sum "Si O2"
_cell_formula_units_Z 52
_cell_length_a 13.342116
_cell_length_b 9.439671
_cell_length_c 22.505362
_cell_angle_alpha 90.000000
_cell_angle_beta 90.000000
_cell_angle_gamma 90.000000
_cell_volume 2834.441991
_symmetry_space_group_name_H-M "P M M M"
_symmetry_group_IT_number 47
_symmetry_cell_setting 'orthorhombic'
loop_
_space_group_symop_operation_xyz
x,y,z
-x,-y,z
x,-y,-z
-x,y,-z
-x,-y,-z
x,y,-z
-x,y,z
x,-y,z
loop_
_atom_site_type_symbol
_atom_site_label
_atom_site_fract_x
_atom_site_fract_y
_atom_site_fract_z
Si Si1 0.220963 0.336352 0.565914
Si Si2 0.887659 0.334091 0.683366
Si Si3 0.315890 0.833689 0.125685
Si Si4 0.277046 0.162100 0.741060
Si Si5 0.387131 0.164553 0.622342
Si Si6 0.500000 0.664618 0.070348
Si Si7 0.110513 0.167886 0.932875
O O1 0.177131 0.305197 0.500000
O O2 0.248902 0.500000 0.573096
O O3 0.140958 0.290203 0.615813
O O4 0.322391 0.249150 0.574683
O O5 0.874430 0.500000 0.692836
O O6 0.821296 0.256559 0.732465
O O7 0.000000 0.283334 0.694102
O O8 0.327772 0.806310 0.195822
O O9 0.400550 0.742058 0.093759
O O10 0.204665 0.779097 0.106430
O O11 0.330814 0.000000 0.109903
O O12 0.356835 0.199866 0.690111
O O13 0.241817 0.000000 0.737341
O O14 0.500000 0.215072 0.613735
O O15 0.373297 0.000000 0.608693
O O16 0.500000 0.500000 0.090618
O O17 0.500000 0.676863 0.000000
O O18 0.000000 0.221979 0.909853
O O19 0.109282 0.000000 0.931804
O O20 0.127099 0.222809 0.000000
#
# Coordination Sequence:
#
# PCOD8198550 Si02
#       7
#     8   8   8   8   8   4   8
#     4   9  18  32  49  71  98 126 165 216 259 299
#     4   9  18  33  52  73 101 138 174 208 253 310
#     4  10  20  34  57  83 105 136 181 226 264 311
#     4   9  19  33  51  76 102 129 165 215 262 303
#     4   9  18  32  49  67  94 130 162 199 254 316
#     4  11  25  41  55  77 113 151 182 219 268 319
#     4   8  14  26  46  74 105 131 160 206 260 307
#
# _framework density 18.345763000000002
#
# number of rings (size 3 to 8) (size 9 to 14) (size 15 to 20)
#    0.000    2.846    0.000    1.154    1.077    4.000 
#    0.000    4.615    0.000    0.462    0.000    6.462 
#    0.000    0.000    0.000    0.000    0.000    0.000 
#
# Total GULP energy -644608.673074 kJ/mol
# GULP energy per Si atom -12396.320636 kJ/mol
# Density = 1.830401 g / cm^3
# Si number density = 18.345763 Si / 1000 Ang^3
#
#
#
# Elastic Constant Matrix: (Units=GPa)
#
#
# Indices 1 2 3 4 5 6 
#
# 1 102.5085 41.8593 17.9209 0.0000 0.0000 0.0000
# 2 41.8593 48.2901 26.2021 0.0000 0.0000 0.0000
# 3 17.9209 26.2021 67.1891 0.0000 0.0000 0.0000
# 4 0.0000 0.0000 0.0000 22.4329 0.0000 0.0000
# 5 0.0000 0.0000 0.0000 0.0000 17.3888 0.0000
# 6 0.0000 0.0000 0.0000 0.0000 0.0000 27.2321
#
#
#
# Elastic Compliance Matrix: (Units=1/GPa)
#
#
# Indices 1 2 3 4 5 6 
#
# 1 0.015200 -0.013922 0.001375 0.000000 0.000000 0.000000
# 2 -0.013922 0.039017 -0.011503 0.000000 0.000000 0.000000
# 3 0.001375 -0.011503 0.019002 0.000000 0.000000 0.000000
# 4 0.000000 0.000000 0.000000 0.044577 0.000000 0.000000
# 5 0.000000 0.000000 0.000000 0.000000 0.057508 0.000000
# 6 0.000000 0.000000 0.000000 0.000000 0.000000 0.036721
#
#
# Mechanical properties :
#
#
# Convention : Reuss Voigt Hill
#
# Bulk Modulus (GPa) = 39.80760 43.32805 41.56783
# Shear Modulus (GPa) = 18.62209 22.21113 20.41661
#
# Velocity S-wave (km/s) = 3.18946 3.48328 3.33960
# Velocity P-wave (km/s) = 5.94215 6.31240 6.13007
#
# Compressibility (1/GPa) = 0.02512083
#
# Stress axis : x y z
#
# Youngs Moduli (GPa) = 65.79025 25.62977 52.62517
#
# Poissons Ratio (x) = 0.35681 -0.07236
# Poissons Ratio (y) = 0.91591 0.60532
# Poissons Ratio (z) = -0.09046 0.29481
#
# Static dielectric constant tensor:
#      x y z
#    x 3.590250 0.000000 0.000000 
#    y 0.000000 3.189700 0.000000 
#    z 0.000000 0.000000 3.450240 
# 
# 
# High freq. dielectric constant tensor:
#      x y z
#    x 1.713790 0.000000 0.000000 
#    y 0.000000 1.686520 0.000000 
#    z 0.000000 0.000000 1.712590 
# 
# From -- ./inp_files/30859.got.cif
#   From: 2010.03.12/outbox.cif.g09.slc.cpg/sg47_16_cif.got.tgz:30859.got - 2010.04.14 03:12:58.
