data_PCOD8198125
_publ_section_title
;
Structure prediction by ZEFSAII (Michael W. Deem and Ramdas Pophale) SiO2 
 PCOD8198125
Probable space group: P M M M
;
_chemical_formula_sum "Si O2"
_cell_formula_units_Z 64
_cell_length_a 14.127998
_cell_length_b 9.120470
_cell_length_c 31.299564
_cell_angle_alpha 90.000000
_cell_angle_beta 90.000000
_cell_angle_gamma 90.000000
_cell_volume 4033.073454
_symmetry_space_group_name_H-M "P M M M"
_symmetry_group_IT_number 47
_symmetry_cell_setting 'orthorhombic'
loop_
_space_group_symop_operation_xyz
x,y,z
-x,-y,z
x,-y,-z
-x,y,-z
-x,-y,-z
x,y,-z
-x,y,z
x,-y,z
loop_
_atom_site_type_symbol
_atom_site_label
_atom_site_fract_x
_atom_site_fract_y
_atom_site_fract_z
Si Si1 0.612437 0.336004 0.046379
Si Si2 0.893087 0.668726 0.587654
Si Si3 0.717150 0.325840 0.704961
Si Si4 0.730649 0.167363 0.547604
Si Si5 0.892607 0.828912 0.323724
Si Si6 0.612309 0.161782 0.125831
Si Si7 0.611019 0.169659 0.220703
Si Si8 0.390680 0.829207 0.628689
O O1 0.500000 0.336133 0.050638
O O2 0.651983 0.500000 0.048307
O O3 0.658094 0.252685 0.086795
O O4 0.640658 0.266245 0.000000
O O5 0.870861 0.500000 0.599172
O O6 0.821491 0.727143 0.551945
O O7 0.876872 0.767763 0.629034
O O8 0.000000 0.685221 0.570293
O O9 0.722184 0.500000 0.702924
O O10 0.822696 0.258325 0.707700
O O11 0.663687 0.277061 0.747392
O O12 0.664281 0.266611 0.663191
O O13 0.688653 0.190733 0.500000
O O14 0.649637 0.207415 0.581748
O O15 0.764262 0.000000 0.554031
O O16 0.000000 0.802363 0.308106
O O17 0.866536 0.000000 0.323987
O O18 0.500000 0.156903 0.121406
O O19 0.638187 0.223654 0.172775
O O20 0.654793 0.000000 0.121531
O O21 0.500000 0.185969 0.228973
O O22 0.640850 0.000000 0.227592
O O23 0.500000 0.783406 0.629143
O O24 0.377967 0.000000 0.640343
#
# Coordination Sequence:
#
# PCOD8198125 Si02
#       8
#     8   8   8   8   8   8   8   8
#     4   8  13  20  30  46  70 102 140 183 232 281
#     4  10  20  34  53  77 102 125 147 175 217 264
#     4  12  23  33  50  75  99 121 148 184 225 270
#     4  10  21  36  54  75  97 124 157 187 218 262
#     4  10  20  35  56  77  96 120 148 178 215 262
#     4   8  14  24  37  53  74 104 145 192 235 270
#     4   9  18  32  47  63  88 123 160 196 234 274
#     4  10  21  37  55  72  93 123 156 190 226 262
#
# _framework density 15.868791
#
# number of rings (size 3 to 8) (size 9 to 14) (size 15 to 20)
#    0.000    2.375    1.250    3.375    0.000    5.000 
#    0.000    5.000    0.000    0.000    0.000    1.750 
#    0.000    0.000    0.000    0.000    0.000    0.625 
#
# Total GULP energy -793337.256635 kJ/mol
# GULP energy per Si atom -12395.894635 kJ/mol
# Density = 1.583267 g / cm^3
# Si number density = 15.868791 Si / 1000 Ang^3
#
#
#
# Elastic Constant Matrix: (Units=GPa)
#
#
# Indices 1 2 3 4 5 6 
#
# 1 67.2441 42.7274 37.5675 0.0000 0.0000 0.0000
# 2 42.7274 96.8080 58.0361 0.0000 0.0000 0.0000
# 3 37.5675 58.0361 120.8957 0.0000 0.0000 0.0000
# 4 0.0000 0.0000 0.0000 14.9200 0.0000 0.0000
# 5 0.0000 0.0000 0.0000 0.0000 4.4091 0.0000
# 6 0.0000 0.0000 0.0000 0.0000 0.0000 17.9106
#
#
#
# Elastic Compliance Matrix: (Units=1/GPa)
#
#
# Indices 1 2 3 4 5 6 
#
# 1 0.021401 -0.007665 -0.002971 0.000000 0.000000 0.000000
# 2 -0.007665 0.017249 -0.005899 0.000000 0.000000 0.000000
# 3 -0.002971 -0.005899 0.012026 0.000000 0.000000 0.000000
# 4 0.000000 0.000000 0.000000 0.067024 0.000000 0.000000
# 5 0.000000 0.000000 0.000000 0.000000 0.226805 0.000000
# 6 0.000000 0.000000 0.000000 0.000000 0.000000 0.055833
#
#
# Mechanical properties :
#
#
# Convention : Reuss Voigt Hill
#
# Bulk Modulus (GPa) = 56.79174 62.40108 59.59641
# Shear Modulus (GPa) = 11.38238 17.22238 14.30238
#
# Velocity S-wave (km/s) = 2.68112 3.29796 3.00541
# Velocity P-wave (km/s) = 6.74170 7.34238 7.04844
#
# Compressibility (1/GPa) = 0.01760819
#
# Stress axis : x y z
#
# Youngs Moduli (GPa) = 46.72659 57.97514 83.15058
#
# Poissons Ratio (x) = 0.44436 0.24703
# Poissons Ratio (y) = 0.35814 0.49047
# Poissons Ratio (z) = 0.13882 0.34197
#
# Static dielectric constant tensor:
#      x y z
#    x 2.853370 0.000000 0.000000 
#    y 0.000000 3.117240 0.000000 
#    z 0.000000 0.000000 3.128220 
# 
# 
# High freq. dielectric constant tensor:
#      x y z
#    x 1.569660 0.000000 0.000000 
#    y 0.000000 1.612670 0.000000 
#    z 0.000000 0.000000 1.604570 
# 
# From -- ./inp_files/8210.got.cif
#   From: 2010.03.12/outbox.cif.g09.slc.cpg/sg47_5_cif.got.tgz:8210.got - 2010.04.14 03:12:58.
