data_PCOD8198044
_publ_section_title
;
Structure prediction by ZEFSAII (Michael W. Deem and Ramdas Pophale) SiO2 
 PCOD8198044
Probable space group: P M M M
;
_chemical_formula_sum "Si O2"
_cell_formula_units_Z 56
_cell_length_a 22.218068
_cell_length_b 9.183086
_cell_length_c 15.039023
_cell_angle_alpha 90.000000
_cell_angle_beta 90.000000
_cell_angle_gamma 90.000000
_cell_volume 3068.418317
_symmetry_space_group_name_H-M "P M M M"
_symmetry_group_IT_number 47
_symmetry_cell_setting 'orthorhombic'
loop_
_space_group_symop_operation_xyz
x,y,z
-x,-y,z
x,-y,-z
-x,y,-z
-x,-y,-z
x,y,-z
-x,y,z
x,-y,z
loop_
_atom_site_type_symbol
_atom_site_label
_atom_site_fract_x
_atom_site_fract_y
_atom_site_fract_z
Si Si1 0.728511 0.835191 0.598281
Si Si2 0.781869 0.169548 0.099205
Si Si3 0.339953 0.331340 0.857549
Si Si4 0.500000 0.170830 0.395610
Si Si5 0.930210 0.330387 0.600019
Si Si6 0.380775 0.669839 0.659566
Si Si7 0.162838 0.171132 0.280318
Si Si8 0.566544 0.327504 0.000000
O O1 0.757656 0.830515 0.500000
O O2 0.669745 0.733730 0.594505
O O3 0.777379 0.775594 0.668070
O O4 0.709130 0.000000 0.623346
O O5 0.719183 0.248820 0.112308
O O6 0.829735 0.215713 0.176050
O O7 0.768052 0.000000 0.109956
O O8 0.807751 0.204632 0.000000
O O9 0.327809 0.500000 0.876681
O O10 0.355210 0.299754 0.756615
O O11 0.397111 0.274829 0.913422
O O12 0.500000 0.201690 0.500000
O O13 0.442398 0.244653 0.351839
O O14 0.500000 0.000000 0.374295
O O15 0.912225 0.278296 0.500000
O O16 0.916119 0.500000 0.609231
O O17 0.894615 0.247944 0.677237
O O18 0.000000 0.297685 0.616556
O O19 0.391631 0.500000 0.639760
O O20 0.153630 0.000000 0.292724
O O21 0.559645 0.500000 0.000000
O O22 0.500000 0.255741 0.000000
#
# Coordination Sequence:
#
# PCOD8198044 Si02
#       8
#     8   8   8   4   8   8   8   4
#     4  10  20  34  52  75 106 142 177 215 265 323
#     4  10  20  35  56  80 109 143 180 227 277 322
#     4  10  20  34  54  78 103 134 172 215 266 328
#     4  11  25  43  59  72  93 134 180 218 268 333
#     4   9  19  36  57  83 117 154 189 228 275 324
#     4  11  23  36  54  79 104 131 172 222 270 321
#     4  10  20  34  54  82 114 147 186 228 272 324
#     4   9  18  32  53  75  99 131 166 209 264 323
#
# _framework density 18.250444999999999
#
# number of rings (size 3 to 8) (size 9 to 14) (size 15 to 20)
#    0.000    2.000    2.143    1.929    1.000    5.429 
#    0.000    0.714    0.000    0.857    0.000    3.000 
#    0.000    0.000    0.000    0.000    0.000    0.000 
#
# Total GULP energy -694332.120943 kJ/mol
# GULP energy per Si atom -12398.787874 kJ/mol
# Density = 1.820891 g / cm^3
# Si number density = 18.250445 Si / 1000 Ang^3
#
#
#
# Elastic Constant Matrix: (Units=GPa)
#
#
# Indices 1 2 3 4 5 6 
#
# 1 100.0499 41.1826 57.9829 0.0000 0.0000 0.0000
# 2 41.1826 57.4995 42.8677 0.0000 0.0000 0.0000
# 3 57.9829 42.8677 130.7742 0.0000 0.0000 0.0000
# 4 0.0000 0.0000 0.0000 19.4835 0.0000 0.0000
# 5 0.0000 0.0000 0.0000 0.0000 34.5587 0.0000
# 6 0.0000 0.0000 0.0000 0.0000 0.0000 36.8451
#
#
#
# Elastic Compliance Matrix: (Units=1/GPa)
#
#
# Indices 1 2 3 4 5 6 
#
# 1 0.015867 -0.008099 -0.004380 0.000000 0.000000 0.000000
# 2 -0.008099 0.027150 -0.005309 0.000000 0.000000 0.000000
# 3 -0.004380 -0.005309 0.011329 0.000000 0.000000 0.000000
# 4 0.000000 0.000000 0.000000 0.051325 0.000000 0.000000
# 5 0.000000 0.000000 0.000000 0.000000 0.028936 0.000000
# 6 0.000000 0.000000 0.000000 0.000000 0.000000 0.027141
#
#
# Mechanical properties :
#
#
# Convention : Reuss Voigt Hill
#
# Bulk Modulus (GPa) = 53.27598 63.59890 58.43744
# Shear Modulus (GPa) = 24.56014 27.93016 26.24515
#
# Velocity S-wave (km/s) = 3.67240 3.91625 3.79628
# Velocity P-wave (km/s) = 6.87292 7.44130 7.16275
#
# Compressibility (1/GPa) = 0.01877019
#
# Stress axis : x y z
#
# Youngs Moduli (GPa) = 63.02271 36.83248 88.26710
#
# Poissons Ratio (x) = 0.29830 0.38665
# Poissons Ratio (y) = 0.51041 0.46860
# Poissons Ratio (z) = 0.27607 0.19554
#
# Static dielectric constant tensor:
#      x y z
#    x 3.219820 0.000000 0.000000 
#    y 0.000000 3.269410 0.000000 
#    z 0.000000 0.000000 3.730730 
# 
# 
# High freq. dielectric constant tensor:
#      x y z
#    x 1.691340 0.000000 0.000000 
#    y 0.000000 1.697730 0.000000 
#    z 0.000000 0.000000 1.720320 
# 
# From -- ./inp_files/11372.got.cif
#   From: 2010.03.12/outbox.cif.g09.slc.cpg/sg47_6_cif.got.tgz:11372.got - 2010.04.14 03:12:58.
