data_PCOD8198839
_publ_section_title
;
Structure prediction by ZEFSAII (Michael W. Deem and Ramdas Pophale) SiO2 
 PCOD8198839
Probable space group: P M M M
;
_chemical_formula_sum "Si O2"
_cell_formula_units_Z 64
_cell_length_a 14.591947
_cell_length_b 8.770451
_cell_length_c 24.607653
_cell_angle_alpha 90.000000
_cell_angle_beta 90.000000
_cell_angle_gamma 90.000000
_cell_volume 3149.237137
_symmetry_space_group_name_H-M "P M M M"
_symmetry_group_IT_number 47
_symmetry_cell_setting 'orthorhombic'
loop_
_space_group_symop_operation_xyz
x,y,z
-x,-y,z
x,-y,-z
-x,y,-z
-x,-y,-z
x,y,-z
-x,y,z
x,-y,z
loop_
_atom_site_type_symbol
_atom_site_label
_atom_site_fract_x
_atom_site_fract_y
_atom_site_fract_z
Si Si1 0.398395 0.330130 0.563586
Si Si2 0.742841 0.824484 0.367723
Si Si3 0.396074 0.319580 0.158245
Si Si4 0.266393 0.679467 0.256263
Si Si5 0.105904 0.321987 0.561619
Si Si6 0.102425 0.826145 0.797090
Si Si7 0.897231 0.321651 0.910948
Si Si8 0.285292 0.824991 0.060457
O O1 0.402241 0.305430 0.500000
O O2 0.500000 0.312732 0.588332
O O3 0.359959 0.500000 0.577101
O O4 0.334295 0.199102 0.587082
O O5 0.705660 0.725854 0.316811
O O6 0.839138 0.770191 0.392723
O O7 0.751088 0.000000 0.350934
O O8 0.500000 0.254207 0.160386
O O9 0.398545 0.500000 0.156476
O O10 0.341481 0.264291 0.211979
O O11 0.345807 0.265640 0.103672
O O12 0.251198 0.500000 0.251355
O O13 0.171093 0.768595 0.248613
O O14 0.136643 0.278018 0.500000
O O15 0.123274 0.500000 0.571033
O O16 0.000000 0.280423 0.569625
O O17 0.116043 0.715335 0.847901
O O18 0.000000 0.812701 0.773397
O O19 0.123964 0.000000 0.814469
O O20 0.882591 0.500000 0.920217
O O21 0.819582 0.232670 0.943735
O O22 0.000000 0.272711 0.930117
O O23 0.284947 0.000000 0.078472
O O24 0.327870 0.804742 0.000000
#
# Coordination Sequence:
#
# PCOD8198839 Si02
#       8
#     8   8   8   8   8   8   8   8
#     4   9  19  38  63  87 113 150 195 242 293 350
#     4  12  25  37  55  87 125 160 195 243 302 358
#     4  10  23  44  68  91 114 147 196 252 307 362
#     4  11  23  40  62  86 115 156 202 247 295 351
#     4   9  19  38  63  88 117 159 210 258 302 353
#     4  10  20  35  58  87 119 153 188 233 289 346
#     4  10  20  35  58  88 121 159 200 239 283 339
#     4  11  24  40  61  91 126 161 197 243 299 357
#
# _framework density 20.322381
#
# number of rings (size 3 to 8) (size 9 to 14) (size 15 to 20)
#    0.000    1.750    1.250    3.750    0.000    7.250 
#    0.000    5.000    0.000    0.000    0.000    0.000 
#    0.000    0.000    0.000    0.000    0.000    0.000 
#
# Total GULP energy -793575.353372 kJ/mol
# GULP energy per Si atom -12399.614896 kJ/mol
# Density = 2.027613 g / cm^3
# Si number density = 20.322381 Si / 1000 Ang^3
#
#
#
# Elastic Constant Matrix: (Units=GPa)
#
#
# Indices 1 2 3 4 5 6 
#
# 1 118.1141 33.5085 48.4882 0.0000 0.0000 0.0000
# 2 33.5085 53.0047 27.0387 0.0000 0.0000 0.0000
# 3 48.4882 27.0387 90.6596 0.0000 0.0000 0.0000
# 4 0.0000 0.0000 0.0000 27.2664 0.0000 0.0000
# 5 0.0000 0.0000 0.0000 0.0000 10.5572 0.0000
# 6 0.0000 0.0000 0.0000 0.0000 0.0000 18.6848
#
#
#
# Elastic Compliance Matrix: (Units=1/GPa)
#
#
# Indices 1 2 3 4 5 6 
#
# 1 0.011889 -0.005039 -0.004856 0.000000 0.000000 0.000000
# 2 -0.005039 0.024387 -0.004578 0.000000 0.000000 0.000000
# 3 -0.004856 -0.004578 0.014993 0.000000 0.000000 0.000000
# 4 0.000000 0.000000 0.000000 0.036675 0.000000 0.000000
# 5 0.000000 0.000000 0.000000 0.000000 0.094722 0.000000
# 6 0.000000 0.000000 0.000000 0.000000 0.000000 0.053520
#
#
# Mechanical properties :
#
#
# Convention : Reuss Voigt Hill
#
# Bulk Modulus (GPa) = 44.79714 53.31656 49.05685
# Shear Modulus (GPa) = 18.34363 21.48454 19.91409
#
# Velocity S-wave (km/s) = 3.00764 3.25497 3.13375
# Velocity P-wave (km/s) = 5.84400 6.35758 6.10619
#
# Compressibility (1/GPa) = 0.02232285
#
# Stress axis : x y z
#
# Youngs Moduli (GPa) = 84.10802 41.00487 66.69818
#
# Poissons Ratio (x) = 0.20663 0.32389
# Poissons Ratio (y) = 0.42383 0.30536
# Poissons Ratio (z) = 0.40843 0.18773
#
# Static dielectric constant tensor:
#      x y z
#    x 3.875740 0.000000 0.000000 
#    y 0.000000 3.569980 0.000000 
#    z 0.000000 0.000000 3.568540 
# 
# 
# High freq. dielectric constant tensor:
#      x y z
#    x 1.798620 0.000000 0.000000 
#    y 0.000000 1.788430 0.000000 
#    z 0.000000 0.000000 1.790020 
# 
# From -- ./inp_files/7820.got.cif
#   From: 2010.03.12/outbox.cif.g09.slc.cpg/sg47_4_cif.got.tgz:7820.got - 2010.04.14 03:12:58.
