data_PCOD8198122
_publ_section_title
;
Structure prediction by ZEFSAII (Michael W. Deem and Ramdas Pophale) SiO2 
 PCOD8198122
Probable space group: P M M M
;
_chemical_formula_sum "Si O2"
_cell_formula_units_Z 48
_cell_length_a 8.981928
_cell_length_b 8.744104
_cell_length_c 31.186355
_cell_angle_alpha 90.000000
_cell_angle_beta 90.000000
_cell_angle_gamma 90.000000
_cell_volume 2449.342408
_symmetry_space_group_name_H-M "P M M M"
_symmetry_group_IT_number 47
_symmetry_cell_setting 'orthorhombic'
loop_
_space_group_symop_operation_xyz
x,y,z
-x,-y,z
x,-y,-z
-x,y,-z
-x,-y,-z
x,y,-z
-x,y,z
x,-y,z
loop_
_atom_site_type_symbol
_atom_site_label
_atom_site_fract_x
_atom_site_fract_y
_atom_site_fract_z
Si Si1 0.328799 0.321478 0.666161
Si Si2 0.174979 0.822746 0.585780
Si Si3 0.167823 0.818543 0.253555
Si Si4 0.667656 0.181660 0.500000
Si Si5 0.831946 0.182383 0.915476
Si Si6 0.331989 0.817622 0.000000
Si Si7 0.668069 0.817692 0.169048
O O1 0.500000 0.274080 0.659481
O O2 0.310731 0.500000 0.674585
O O3 0.236847 0.276357 0.624456
O O4 0.265623 0.233091 0.706703
O O5 0.248195 0.758805 0.542214
O O6 0.000000 0.798705 0.582142
O O7 0.215570 0.000000 0.593581
O O8 0.241770 0.754976 0.210015
O O9 0.000000 0.753535 0.257291
O O10 0.164589 0.000000 0.252876
O O11 0.500000 0.246464 0.500000
O O12 0.669069 0.000000 0.500000
O O13 0.751120 0.245649 0.957923
O O14 0.746116 0.245639 0.873836
O O15 0.000000 0.245016 0.914702
O O16 0.831107 0.000000 0.915472
O O17 0.500000 0.754994 0.000000
O O18 0.330952 0.000000 0.000000
O O19 0.500000 0.754417 0.171003
O O20 0.667987 0.000000 0.168791
#
# Coordination Sequence:
#
# PCOD8198122 Si02
#       7
#     8   8   8   4   8   4   8
#     4  11  24  39  54  75 104 137 172 210 253 301
#     4  10  20  35  57  84 111 139 173 212 252 296
#     4  10  20  34  53  76  99 126 164 208 253 302
#     4   9  17  31  54  83 112 141 172 208 250 293
#     4   9  15  22  32  48  73 106 145 189 235 284
#     4   9  15  21  29  43  67 103 146 187 230 285
#     4   9  16  26  41  61  85 114 150 194 242 290
#
# _framework density 19.597097999999999
#
# number of rings (size 3 to 8) (size 9 to 14) (size 15 to 20)
#    0.000    2.333    0.000    3.500    0.000   11.333 
#    0.000    0.417    0.000    2.500    0.000    0.000 
#    0.000    0.000    0.000    0.750    0.000   14.667 
#
# Total GULP energy -595280.350037 kJ/mol
# GULP energy per Si atom -12401.673959 kJ/mol
# Density = 1.955249 g / cm^3
# Si number density = 19.597098 Si / 1000 Ang^3
#
#
#
# Elastic Constant Matrix: (Units=GPa)
#
#
# Indices 1 2 3 4 5 6 
#
# 1 137.6100 17.2465 60.6805 0.0000 0.0000 0.0000
# 2 17.2465 6.2350 9.2096 0.0000 0.0000 0.0000
# 3 60.6805 9.2096 167.2837 0.0000 0.0000 0.0000
# 4 0.0000 0.0000 0.0000 -6.3534 0.0000 0.0000
# 5 0.0000 0.0000 0.0000 0.0000 48.6555 0.0000
# 6 0.0000 0.0000 0.0000 0.0000 0.0000 14.6932
#
#
#
# Elastic Compliance Matrix: (Units=1/GPa)
#
#
# Indices 1 2 3 4 5 6 
#
# 1 0.012219 -0.029664 -0.002799 0.000000 0.000000 0.000000
# 2 -0.029664 0.246600 -0.002816 0.000000 0.000000 0.000000
# 3 -0.002799 -0.002816 0.007148 0.000000 0.000000 0.000000
# 4 0.000000 0.000000 0.000000 -0.157396 0.000000 0.000000
# 5 0.000000 0.000000 0.000000 0.000000 0.020553 0.000000
# 6 0.000000 0.000000 0.000000 0.000000 0.000000 0.068059
#
#
# Mechanical properties :
#
#
# Convention : Reuss Voigt Hill
#
# Bulk Modulus (GPa) = 5.11749 53.93356 29.52553
# Shear Modulus (GPa) = 15.02055 26.33186 20.67621
#
# Velocity S-wave (km/s) = 2.77152 3.66958 3.25170
# Velocity P-wave (km/s) = 3.58591 6.74799 5.40343
#
# Compressibility (1/GPa) = 0.19540830
#
# Stress axis : x y z
#
# Youngs Moduli (GPa) = 81.83933 4.05515 139.89396
#
# Poissons Ratio (x) = 0.12029 0.39159
# Poissons Ratio (y) = 2.42772 0.39391
# Poissons Ratio (z) = 0.22908 0.01142
#
# Static dielectric constant tensor:
#      x y z
#    x 3.868320 0.000000 0.000000 
#    y 0.000000 2.923970 0.000000 
#    z 0.000000 0.000000 3.834260 
# 
# 
# High freq. dielectric constant tensor:
#      x y z
#    x 1.785230 0.000000 0.000000 
#    y 0.000000 1.694560 0.000000 
#    z 0.000000 0.000000 1.784010 
# 
# From -- ./inp_files/34142.got.cif
#   From: 2010.03.12/outbox.cif.g09.slc.cpg/sg47_18_cif.got.tgz:34142.got - 2010.04.14 03:12:58.
