data_PCOD8198486
_publ_section_title
;
Structure prediction by ZEFSAII (Michael W. Deem and Ramdas Pophale) SiO2 
 PCOD8198486
Probable space group: P M M M
;
_chemical_formula_sum "Si O2"
_cell_formula_units_Z 64
_cell_length_a 25.189820
_cell_length_b 8.685867
_cell_length_c 14.742915
_cell_angle_alpha 90.000000
_cell_angle_beta 90.000000
_cell_angle_gamma 90.000000
_cell_volume 3225.682372
_symmetry_space_group_name_H-M "P M M M"
_symmetry_group_IT_number 47
_symmetry_cell_setting 'orthorhombic'
loop_
_space_group_symop_operation_xyz
x,y,z
-x,-y,z
x,-y,-z
-x,y,-z
-x,-y,-z
x,y,-z
-x,y,z
x,-y,z
loop_
_atom_site_type_symbol
_atom_site_label
_atom_site_fract_x
_atom_site_fract_y
_atom_site_fract_z
Si Si1 0.365544 0.317255 0.248331
Si Si2 0.842408 0.817514 0.396576
Si Si3 0.246948 0.320854 0.270972
Si Si4 0.941765 0.822287 0.722287
Si Si5 0.200910 0.175398 0.899173
Si Si6 0.559354 0.819758 0.104762
Si Si7 0.910369 0.323332 0.900575
Si Si8 0.441274 0.683105 0.599539
O O1 0.363902 0.500000 0.247622
O O2 0.306731 0.253785 0.269237
O O3 0.392118 0.263688 0.154917
O O4 0.401238 0.245977 0.328239
O O5 0.842973 0.753187 0.500000
O O6 0.789277 0.763415 0.345461
O O7 0.895239 0.757302 0.343620
O O8 0.842742 0.000000 0.398562
O O9 0.245501 0.500000 0.294741
O O10 0.227296 0.294302 0.169121
O O11 0.946468 0.727936 0.816458
O O12 0.000000 0.804303 0.675237
O O13 0.930025 0.000000 0.744700
O O14 0.138951 0.208778 0.899669
O O15 0.209877 0.000000 0.866310
O O16 0.224929 0.199970 0.000000
O O17 0.500000 0.765593 0.136907
O O18 0.564988 0.000000 0.121149
O O19 0.566212 0.777689 0.000000
O O20 0.892352 0.500000 0.886414
O O21 0.938832 0.307191 0.000000
O O22 0.422617 0.736242 0.500000
O O23 0.500000 0.747080 0.620149
O O24 0.441682 0.500000 0.605591
#
# Coordination Sequence:
#
# PCOD8198486 Si02
#       8
#     8   8   8   8   8   8   8   8
#     4  10  21  34  52  81 112 143 184 231 276 327
#     4  10  22  41  63  84 109 146 192 238 286 343
#     4  11  23  37  55  82 115 150 187 231 284 339
#     4  10  21  37  59  87 117 150 190 235 280 333
#     4  10  20  35  57  81 106 142 186 228 272 326
#     4   9  19  36  56  79 111 152 194 234 281 336
#     4  10  20  34  55  84 117 151 184 221 271 330
#     4   8  14  27  49  75 102 133 170 214 264 317
#
# _framework density 19.840764
#
# number of rings (size 3 to 8) (size 9 to 14) (size 15 to 20)
#    0.000    2.250    1.250    2.250    0.000    5.500 
#    0.000    6.875    0.000    0.375    0.000    3.500 
#    0.000    0.000    0.000    0.000    0.000    0.000 
#
# Total GULP energy -793183.476950 kJ/mol
# GULP energy per Si atom -12393.491827 kJ/mol
# Density = 1.979561 g / cm^3
# Si number density = 19.840764 Si / 1000 Ang^3
#
#
#
# Elastic Constant Matrix: (Units=GPa)
#
#
# Indices 1 2 3 4 5 6 
#
# 1 137.4974 17.4196 71.2788 0.0000 0.0000 0.0000
# 2 17.4196 27.1910 23.2915 0.0000 0.0000 0.0000
# 3 71.2788 23.2915 131.8818 0.0000 0.0000 0.0000
# 4 0.0000 0.0000 0.0000 21.7364 0.0000 0.0000
# 5 0.0000 0.0000 0.0000 0.0000 12.0504 0.0000
# 6 0.0000 0.0000 0.0000 0.0000 0.0000 22.8530
#
#
#
# Elastic Compliance Matrix: (Units=1/GPa)
#
#
# Indices 1 2 3 4 5 6 
#
# 1 0.010208 -0.002137 -0.005140 0.000000 0.000000 0.000000
# 2 -0.002137 0.043780 -0.006577 0.000000 0.000000 0.000000
# 3 -0.005140 -0.006577 0.011522 0.000000 0.000000 0.000000
# 4 0.000000 0.000000 0.000000 0.046006 0.000000 0.000000
# 5 0.000000 0.000000 0.000000 0.000000 0.082985 0.000000
# 6 0.000000 0.000000 0.000000 0.000000 0.000000 0.043758
#
#
# Mechanical properties :
#
#
# Convention : Reuss Voigt Hill
#
# Bulk Modulus (GPa) = 26.45334 57.83889 42.14612
# Shear Modulus (GPa) = 17.94903 23.63331 20.79117
#
# Velocity S-wave (km/s) = 3.01101 3.45505 3.24064
# Velocity P-wave (km/s) = 5.04480 6.71798 5.94059
#
# Compressibility (1/GPa) = 0.03780241
#
# Stress axis : x y z
#
# Youngs Moduli (GPa) = 97.96161 22.84164 86.79027
#
# Poissons Ratio (x) = 0.04881 0.44608
# Poissons Ratio (y) = 0.20934 0.57081
# Poissons Ratio (z) = 0.50350 0.15023
#
# Static dielectric constant tensor:
#      x y z
#    x 3.789670 0.000000 0.000000 
#    y 0.000000 3.303470 0.000000 
#    z 0.000000 0.000000 3.870420 
# 
# 
# High freq. dielectric constant tensor:
#      x y z
#    x 1.771440 0.000000 0.000000 
#    y 0.000000 1.750830 0.000000 
#    z 0.000000 0.000000 1.777880 
# 
# From -- ./inp_files/25533.got.cif
#   From: 2010.03.12/outbox.cif.g09.slc.cpg/sg47_13_cif.got.tgz:25533.got - 2010.04.14 03:12:58.
