data_PCOD8198562
_publ_section_title
;
Structure prediction by ZEFSAII (Michael W. Deem and Ramdas Pophale) SiO2 
 PCOD8198562
Probable space group: P M M M
;
_chemical_formula_sum "Si O2"
_cell_formula_units_Z 48
_cell_length_a 20.030059
_cell_length_b 13.470755
_cell_length_c 9.600261
_cell_angle_alpha 90.000000
_cell_angle_beta 90.000000
_cell_angle_gamma 90.000000
_cell_volume 2590.342590
_symmetry_space_group_name_H-M "P M M M"
_symmetry_group_IT_number 47
_symmetry_cell_setting 'orthorhombic'
loop_
_space_group_symop_operation_xyz
x,y,z
-x,-y,z
x,-y,-z
-x,y,-z
-x,-y,-z
x,y,-z
-x,y,z
x,-y,z
loop_
_atom_site_type_symbol
_atom_site_label
_atom_site_fract_x
_atom_site_fract_y
_atom_site_fract_z
Si Si1 0.628476 0.117184 0.664463
Si Si2 0.075868 0.617235 0.500000
Si Si3 0.926172 0.381625 0.000000
Si Si4 0.254694 0.217606 0.164226
Si Si5 0.500000 0.117121 0.159559
Si Si6 0.834581 0.383361 0.246141
Si Si7 0.117099 0.882603 0.846672
Si Si8 0.000000 0.118314 0.655658
O O1 0.622103 0.144674 0.500000
O O2 0.687452 0.176842 0.737833
O O3 0.563314 0.151963 0.749797
O O4 0.640838 0.000000 0.681298
O O5 0.066772 0.500000 0.500000
O O6 0.122479 0.652313 0.375592
O O7 0.000000 0.662932 0.500000
O O8 0.884257 0.343709 0.870977
O O9 0.931006 0.500000 0.000000
O O10 0.000000 0.335390 0.000000
O O11 0.235765 0.327319 0.222868
O O12 0.191953 0.146979 0.192024
O O13 0.275318 0.220072 0.000000
O O14 0.500000 0.000000 0.146500
O O15 0.500000 0.161314 0.000000
O O16 0.818709 0.500000 0.243947
O O17 0.065483 0.840099 0.733455
O O18 0.113249 0.000000 0.848258
O O19 0.097457 0.841007 0.000000
O O20 0.000000 0.161944 0.500000
O O21 0.000000 0.000000 0.653419
#
# Coordination Sequence:
#
# PCOD8198562 Si02
#       8
#     8   4   4   8   4   8   8   4
#     4  10  21  36  57  85 118 149 179 215 257 307
#     4   9  18  34  54  72  95 132 175 226 291 350
#     4   9  16  30  52  72  95 130 173 228 289 338
#     4  11  22  35  51  77 105 140 179 219 264 320
#     4   9  17  33  59  89 118 149 178 209 251 304
#     4  10  20  35  52  74 104 137 178 228 280 336
#     4   9  18  33  49  64  89 126 168 212 258 307
#     4   9  17  31  49  65  84 117 162 214 264 308
#
# _framework density 18.530367999999999
#
# number of rings (size 3 to 8) (size 9 to 14) (size 15 to 20)
#    0.000    2.333    0.833    2.000    1.167    6.333 
#    3.000    1.667    0.000    0.000    0.000    0.583 
#    0.000    3.333    0.000    0.000    0.000    0.000 
#
# Total GULP energy -594847.709242 kJ/mol
# GULP energy per Si atom -12392.660609 kJ/mol
# Density = 1.848819 g / cm^3
# Si number density = 18.530368 Si / 1000 Ang^3
#
#
#
# Elastic Constant Matrix: (Units=GPa)
#
#
# Indices 1 2 3 4 5 6 
#
# 1 144.2557 36.9121 92.5736 0.0000 0.0000 0.0000
# 2 36.9121 42.8089 39.6083 0.0000 0.0000 0.0000
# 3 92.5736 39.6083 181.0116 0.0000 0.0000 0.0000
# 4 0.0000 0.0000 0.0000 16.1351 0.0000 0.0000
# 5 0.0000 0.0000 0.0000 0.0000 43.6299 0.0000
# 6 0.0000 0.0000 0.0000 0.0000 0.0000 16.3333
#
#
#
# Elastic Compliance Matrix: (Units=1/GPa)
#
#
# Indices 1 2 3 4 5 6 
#
# 1 0.011263 -0.005494 -0.004558 0.000000 0.000000 0.000000
# 2 -0.005494 0.031970 -0.004186 0.000000 0.000000 0.000000
# 3 -0.004558 -0.004186 0.008771 0.000000 0.000000 0.000000
# 4 0.000000 0.000000 0.000000 0.061977 0.000000 0.000000
# 5 0.000000 0.000000 0.000000 0.000000 0.022920 0.000000
# 6 0.000000 0.000000 0.000000 0.000000 0.000000 0.061225
#
#
# Mechanical properties :
#
#
# Convention : Reuss Voigt Hill
#
# Bulk Modulus (GPa) = 42.50165 78.47378 60.48771
# Shear Modulus (GPa) = 21.32702 28.48512 24.90607
#
# Velocity S-wave (km/s) = 3.39621 3.92498 3.67013
# Velocity P-wave (km/s) = 6.19394 7.93608 7.11851
#
# Compressibility (1/GPa) = 0.02352850
#
# Stress axis : x y z
#
# Youngs Moduli (GPa) = 88.78640 31.27947 114.00712
#
# Poissons Ratio (x) = 0.17186 0.51963
# Poissons Ratio (y) = 0.48783 0.47718
# Poissons Ratio (z) = 0.40468 0.13092
#
# Static dielectric constant tensor:
#      x y z
#    x 3.341510 0.000000 0.000000 
#    y 0.000000 3.216500 0.000000 
#    z 0.000000 0.000000 3.939010 
# 
# 
# High freq. dielectric constant tensor:
#      x y z
#    x 1.698070 0.000000 0.000000 
#    y 0.000000 1.706280 0.000000 
#    z 0.000000 0.000000 1.738520 
# 
# From -- ./inp_files/9287.got.cif
#   From: 2010.03.12/outbox.cif.g09.slc.cpg/sg47_5_cif.got.tgz:9287.got - 2010.04.14 03:12:58.
