data_PCOD8198798
_publ_section_title
;
Structure prediction by ZEFSAII (Michael W. Deem and Ramdas Pophale) SiO2 
 PCOD8198798
Probable space group: P M M M
;
_chemical_formula_sum "Si O2"
_cell_formula_units_Z 64
_cell_length_a 14.244647
_cell_length_b 25.162638
_cell_length_c 8.963949
_cell_angle_alpha 90.000000
_cell_angle_beta 90.000000
_cell_angle_gamma 90.000000
_cell_volume 3212.974199
_symmetry_space_group_name_H-M "P M M M"
_symmetry_group_IT_number 47
_symmetry_cell_setting 'orthorhombic'
loop_
_space_group_symop_operation_xyz
x,y,z
-x,-y,z
x,-y,-z
-x,y,-z
-x,-y,-z
x,y,-z
-x,y,z
x,-y,z
loop_
_atom_site_type_symbol
_atom_site_label
_atom_site_fract_x
_atom_site_fract_y
_atom_site_fract_z
Si Si1 0.720042 0.744110 0.824006
Si Si2 0.713060 0.562126 0.172839
Si Si3 0.102892 0.563080 0.667288
Si Si4 0.894102 0.896440 0.173928
Si Si5 0.278602 0.940082 0.328316
Si Si6 0.106007 0.783820 0.673665
Si Si7 0.609626 0.349035 0.671510
Si Si8 0.392190 0.849016 0.174851
O O1 0.821827 0.742009 0.745250
O O2 0.662314 0.693540 0.772013
O O3 0.665389 0.797282 0.773993
O O4 0.733379 0.741349 0.000000
O O5 0.701022 0.500000 0.207524
O O6 0.816381 0.583245 0.221137
O O7 0.634727 0.592388 0.268540
O O8 0.699269 0.574963 0.000000
O O9 0.124560 0.583874 0.500000
O O10 0.101092 0.500000 0.667146
O O11 0.000000 0.584204 0.719310
O O12 0.822136 0.937446 0.246961
O O13 0.877367 0.839485 0.246086
O O14 0.000000 0.916988 0.202132
O O15 0.871842 0.890929 0.000000
O O16 0.264067 0.924843 0.500000
O O17 0.354385 0.900780 0.257975
O O18 0.316919 0.000000 0.310188
O O19 0.127382 0.791185 0.500000
O O20 0.000000 0.763095 0.700341
O O21 0.640501 0.343606 0.500000
O O22 0.500000 0.339655 0.691070
O O23 0.500000 0.839987 0.220115
O O24 0.380812 0.858894 0.000000
#
# Coordination Sequence:
#
# PCOD8198798 Si02
#       8
#     8   8   8   8   8   8   8   8
#     4  11  22  39  65  93 121 153 192 240 293 351
#     4  10  21  37  59  88 122 160 200 245 298 353
#     4   8  14  27  50  80 114 153 195 237 282 336
#     4  10  20  35  57  85 116 153 197 241 289 348
#     4  11  24  39  56  82 117 156 198 246 299 354
#     4  10  20  35  59  91 125 159 194 234 284 345
#     4  11  25  43  63  88 118 155 199 247 299 352
#     4  10  22  40  62  87 113 148 194 241 295 357
#
# _framework density 19.919239000000001
#
# number of rings (size 3 to 8) (size 9 to 14) (size 15 to 20)
#    0.000    1.875    1.250    3.000    0.000    6.500 
#    0.000    5.625    0.000    3.750    0.000    0.000 
#    0.000    0.000    0.000    0.000    0.000    0.000 
#
# Total GULP energy -793737.352399 kJ/mol
# GULP energy per Si atom -12402.146131 kJ/mol
# Density = 1.987390 g / cm^3
# Si number density = 19.919239 Si / 1000 Ang^3
#
#
#
# Elastic Constant Matrix: (Units=GPa)
#
#
# Indices 1 2 3 4 5 6 
#
# 1 106.7753 38.7232 47.7495 0.0000 0.0000 0.0000
# 2 38.7232 71.6404 33.9830 0.0000 0.0000 0.0000
# 3 47.7495 33.9830 86.1008 0.0000 0.0000 0.0000
# 4 0.0000 0.0000 0.0000 31.4476 0.0000 0.0000
# 5 0.0000 0.0000 0.0000 0.0000 32.8901 0.0000
# 6 0.0000 0.0000 0.0000 0.0000 0.0000 27.5039
#
#
#
# Elastic Compliance Matrix: (Units=1/GPa)
#
#
# Indices 1 2 3 4 5 6 
#
# 1 0.013604 -0.004644 -0.005711 0.000000 0.000000 0.000000
# 2 -0.004644 0.018759 -0.004829 0.000000 0.000000 0.000000
# 3 -0.005711 -0.004829 0.016688 0.000000 0.000000 0.000000
# 4 0.000000 0.000000 0.000000 0.031799 0.000000 0.000000
# 5 0.000000 0.000000 0.000000 0.000000 0.030404 0.000000
# 6 0.000000 0.000000 0.000000 0.000000 0.000000 0.036358
#
#
# Mechanical properties :
#
#
# Convention : Reuss Voigt Hill
#
# Bulk Modulus (GPa) = 53.52587 56.15867 54.84227
# Shear Modulus (GPa) = 27.14328 27.97237 27.55783
#
# Velocity S-wave (km/s) = 3.69544 3.75145 3.72355
# Velocity P-wave (km/s) = 6.71849 6.85703 6.78811
#
# Compressibility (1/GPa) = 0.01868256
#
# Stress axis : x y z
#
# Youngs Moduli (GPa) = 73.50916 53.30716 59.92499
#
# Poissons Ratio (x) = 0.24755 0.34226
# Poissons Ratio (y) = 0.34137 0.28936
# Poissons Ratio (z) = 0.41984 0.25740
#
# Static dielectric constant tensor:
#      x y z
#    x 3.876020 0.000000 0.000000 
#    y 0.000000 3.385390 0.000000 
#    z 0.000000 0.000000 3.705420 
# 
# 
# High freq. dielectric constant tensor:
#      x y z
#    x 1.787220 0.000000 0.000000 
#    y 0.000000 1.758030 0.000000 
#    z 0.000000 0.000000 1.785330 
# 
# From -- ./inp_files/7955.got.cif
#   From: 2010.03.12/outbox.cif.g09.slc.cpg/sg47_4_cif.got.tgz:7955.got - 2010.04.14 03:12:58.
