data_PCOD8198821
_publ_section_title
;
Structure prediction by ZEFSAII (Michael W. Deem and Ramdas Pophale) SiO2 
 PCOD8198821
Probable space group: P M M M
;
_chemical_formula_sum "Si O2"
_cell_formula_units_Z 64
_cell_length_a 14.713216
_cell_length_b 25.071174
_cell_length_c 8.711106
_cell_angle_alpha 90.000000
_cell_angle_beta 90.000000
_cell_angle_gamma 90.000000
_cell_volume 3213.331861
_symmetry_space_group_name_H-M "P M M M"
_symmetry_group_IT_number 47
_symmetry_cell_setting 'orthorhombic'
loop_
_space_group_symop_operation_xyz
x,y,z
-x,-y,z
x,-y,-z
-x,y,-z
-x,-y,-z
x,y,-z
-x,y,z
x,-y,z
loop_
_atom_site_type_symbol
_atom_site_label
_atom_site_fract_x
_atom_site_fract_y
_atom_site_fract_z
Si Si1 0.268094 0.748152 0.822281
Si Si2 0.248268 0.634662 0.681162
Si Si3 0.605330 0.154537 0.818347
Si Si4 0.279739 0.059028 0.676807
Si Si5 0.899868 0.090425 0.822928
Si Si6 0.104691 0.440415 0.819891
Si Si7 0.101178 0.202814 0.674786
Si Si8 0.599308 0.441049 0.317465
O O1 0.275340 0.693655 0.730638
O O2 0.341901 0.791890 0.763685
O O3 0.166515 0.768631 0.794549
O O4 0.283151 0.736388 0.000000
O O5 0.244569 0.633544 0.500000
O O6 0.154690 0.609416 0.740750
O O7 0.327204 0.598293 0.753445
O O8 0.500000 0.158205 0.765830
O O9 0.651821 0.102616 0.745252
O O10 0.613456 0.148536 0.000000
O O11 0.261315 0.073539 0.500000
O O12 0.183599 0.054485 0.766618
O O13 0.324341 0.000000 0.691961
O O14 0.898759 0.140951 0.712764
O O15 0.000000 0.062392 0.807068
O O16 0.883634 0.106980 0.000000
O O17 0.137851 0.500000 0.765736
O O18 0.000000 0.433962 0.774905
O O19 0.119131 0.435275 0.000000
O O20 0.135327 0.211070 0.500000
O O21 0.000000 0.226751 0.694744
O O22 0.605285 0.441770 0.500000
O O23 0.500000 0.421367 0.264583
O O24 0.618423 0.500000 0.252602
#
# Coordination Sequence:
#
# PCOD8198821 Si02
#       8
#     8   8   8   8   8   8   8   8
#     4  11  23  39  59  83 114 154 195 237 289 349
#     4  11  22  34  54  85 117 149 190 240 289 340
#     4  10  23  44  67  88 112 149 198 249 302 361
#     4  11  24  40  61  91 125 158 195 244 297 349
#     4  10  20  35  58  88 121 158 196 232 277 338
#     4   9  19  37  59  82 113 156 201 243 292 350
#     4  10  20  35  58  86 115 147 185 232 282 335
#     4   8  15  30  52  78 109 143 179 223 277 336
#
# _framework density 19.917023
#
# number of rings (size 3 to 8) (size 9 to 14) (size 15 to 20)
#    0.000    2.000    1.250    3.000    0.000    5.750 
#    0.000    3.125    0.000    1.125    0.000    4.375 
#    0.000    0.000    0.000    0.000    0.000    0.000 
#
# Total GULP energy -793249.230165 kJ/mol
# GULP energy per Si atom -12394.519221 kJ/mol
# Density = 1.987169 g / cm^3
# Si number density = 19.917023 Si / 1000 Ang^3
#
#
#
# Elastic Constant Matrix: (Units=GPa)
#
#
# Indices 1 2 3 4 5 6 
#
# 1 135.4642 73.8215 42.8519 0.0000 0.0000 0.0000
# 2 73.8215 129.9562 31.6817 0.0000 0.0000 0.0000
# 3 42.8519 31.6817 53.7356 0.0000 0.0000 0.0000
# 4 0.0000 0.0000 0.0000 17.2184 0.0000 0.0000
# 5 0.0000 0.0000 0.0000 0.0000 21.8522 0.0000
# 6 0.0000 0.0000 0.0000 0.0000 0.0000 11.0859
#
#
#
# Elastic Compliance Matrix: (Units=1/GPa)
#
#
# Indices 1 2 3 4 5 6 
#
# 1 0.012484 -0.005447 -0.006744 0.000000 0.000000 0.000000
# 2 -0.005447 0.011364 -0.002356 0.000000 0.000000 0.000000
# 3 -0.006744 -0.002356 0.025376 0.000000 0.000000 0.000000
# 4 0.000000 0.000000 0.000000 0.058077 0.000000 0.000000
# 5 0.000000 0.000000 0.000000 0.000000 0.045762 0.000000
# 6 0.000000 0.000000 0.000000 0.000000 0.000000 0.090205
#
#
# Mechanical properties :
#
#
# Convention : Reuss Voigt Hill
#
# Bulk Modulus (GPa) = 49.67661 68.42959 59.05310
# Shear Modulus (GPa) = 17.91658 21.41804 19.66731
#
# Velocity S-wave (km/s) = 3.00252 3.28283 3.14580
# Velocity P-wave (km/s) = 6.08409 6.98579 6.55047
#
# Compressibility (1/GPa) = 0.02013020
#
# Stress axis : x y z
#
# Youngs Moduli (GPa) = 80.10349 88.00034 39.40689
#
# Poissons Ratio (x) = 0.47938 0.26575
# Poissons Ratio (y) = 0.43636 0.09283
# Poissons Ratio (z) = 0.54019 0.20730
#
# Static dielectric constant tensor:
#      x y z
#    x 3.970220 0.000000 0.000000 
#    y 0.000000 3.705700 0.000000 
#    z 0.000000 0.000000 3.458330 
# 
# 
# High freq. dielectric constant tensor:
#      x y z
#    x 1.781560 0.000000 0.000000 
#    y 0.000000 1.773940 0.000000 
#    z 0.000000 0.000000 1.767620 
# 
# From -- ./inp_files/7821.got.cif
#   From: 2010.03.12/outbox.cif.g09.slc.cpg/sg47_4_cif.got.tgz:7821.got - 2010.04.14 03:12:58.
