data_PCOD8198148
_publ_section_title
;
Structure prediction by ZEFSAII (Michael W. Deem and Ramdas Pophale) SiO2 
 PCOD8198148
Probable space group: P M M M
;
_chemical_formula_sum "Si O2"
_cell_formula_units_Z 52
_cell_length_a 10.230948
_cell_length_b 9.011076
_cell_length_c 30.660824
_cell_angle_alpha 90.000000
_cell_angle_beta 90.000000
_cell_angle_gamma 90.000000
_cell_volume 2826.678086
_symmetry_space_group_name_H-M "P M M M"
_symmetry_group_IT_number 47
_symmetry_cell_setting 'orthorhombic'
loop_
_space_group_symop_operation_xyz
x,y,z
-x,-y,z
x,-y,-z
-x,y,-z
-x,-y,-z
x,y,-z
-x,y,z
x,-y,z
loop_
_atom_site_type_symbol
_atom_site_label
_atom_site_fract_x
_atom_site_fract_y
_atom_site_fract_z
Si Si1 0.646476 0.161950 0.628571
Si Si2 0.844564 0.833307 0.952025
Si Si3 0.000000 0.165326 0.551460
Si Si4 0.346368 0.674514 0.286468
Si Si5 0.260242 0.675498 0.549876
Si Si6 0.151250 0.175193 0.218969
Si Si7 0.845768 0.664544 0.130901
O O1 0.500000 0.130933 0.642643
O O2 0.706566 0.260840 0.667330
O O3 0.638235 0.250350 0.582692
O O4 0.717410 0.000000 0.623997
O O5 0.784996 0.730214 0.913895
O O6 0.000000 0.835317 0.948714
O O7 0.791276 0.000000 0.945420
O O8 0.802050 0.773447 0.000000
O O9 0.123418 0.259440 0.566895
O O10 0.000000 0.152363 0.500000
O O11 0.000000 0.000000 0.572145
O O12 0.500000 0.709902 0.277414
O O13 0.322657 0.500000 0.287416
O O14 0.253405 0.746292 0.250621
O O15 0.292213 0.721903 0.500000
O O16 0.260414 0.500000 0.554453
O O17 0.190368 0.227980 0.170697
O O18 0.000000 0.218716 0.229885
O O19 0.170459 0.000000 0.222125
O O20 0.787094 0.500000 0.138897
O O21 0.000000 0.653831 0.125888
#
# Coordination Sequence:
#
# PCOD8198148 Si02
#       7
#     8   8   4   8   8   8   8
#     4  10  21  37  56  77 102 132 166 204 246 294
#     4   8  13  21  33  51  80 121 166 207 249 302
#     4   9  17  31  51  73  99 131 165 201 241 285
#     4  10  21  38  59  80 104 135 170 211 261 314
#     4  10  20  34  53  77 105 135 167 203 244 291
#     4  10  20  34  53  77 105 136 172 214 259 309
#     4   9  16  25  39  61  91 127 165 208 258 306
#
# _framework density 18.396153000000002
#
# number of rings (size 3 to 8) (size 9 to 14) (size 15 to 20)
#    0.000    2.538    0.000    3.000    0.000    7.077 
#    1.385    3.077    0.000    0.000    0.000    0.000 
#    0.000    0.615    0.000    6.462    0.000    8.923 
#
# Total GULP energy -644376.410246 kJ/mol
# GULP energy per Si atom -12391.854043 kJ/mol
# Density = 1.835428 g / cm^3
# Si number density = 18.396153 Si / 1000 Ang^3
#
#
#
# Elastic Constant Matrix: (Units=GPa)
#
#
# Indices 1 2 3 4 5 6 
#
# 1 41.3745 33.7368 37.5609 0.0000 0.0000 0.0000
# 2 33.7368 131.2916 73.8801 0.0000 0.0000 0.0000
# 3 37.5609 73.8801 144.5209 0.0000 0.0000 0.0000
# 4 0.0000 0.0000 0.0000 37.4206 0.0000 0.0000
# 5 0.0000 0.0000 0.0000 0.0000 6.8751 0.0000
# 6 0.0000 0.0000 0.0000 0.0000 0.0000 22.4072
#
#
#
# Elastic Compliance Matrix: (Units=1/GPa)
#
#
# Indices 1 2 3 4 5 6 
#
# 1 0.034068 -0.005295 -0.006147 0.000000 0.000000 0.000000
# 2 -0.005295 0.011515 -0.004511 0.000000 0.000000 0.000000
# 3 -0.006147 -0.004511 0.010823 0.000000 0.000000 0.000000
# 4 0.000000 0.000000 0.000000 0.026723 0.000000 0.000000
# 5 0.000000 0.000000 0.000000 0.000000 0.145453 0.000000
# 6 0.000000 0.000000 0.000000 0.000000 0.000000 0.044629
#
#
# Mechanical properties :
#
#
# Convention : Reuss Voigt Hill
#
# Bulk Modulus (GPa) = 40.81577 67.50474 54.16026
# Shear Modulus (GPa) = 15.95997 24.80785 20.38391
#
# Velocity S-wave (km/s) = 2.94865 3.67622 3.33235
# Velocity P-wave (km/s) = 5.81619 7.40231 6.65666
#
# Compressibility (1/GPa) = 0.02450033
#
# Stress axis : x y z
#
# Youngs Moduli (GPa) = 29.35337 86.84024 92.39585
#
# Poissons Ratio (x) = 0.45980 0.56800
# Poissons Ratio (y) = 0.15542 0.41676
# Poissons Ratio (z) = 0.18045 0.39171
#
# Static dielectric constant tensor:
#      x y z
#    x 3.034810 0.000000 0.000000 
#    y 0.000000 3.714050 0.000000 
#    z 0.000000 0.000000 3.508420 
# 
# 
# High freq. dielectric constant tensor:
#      x y z
#    x 1.658780 0.000000 0.000000 
#    y 0.000000 1.730510 0.000000 
#    z 0.000000 0.000000 1.717730 
# 
# From -- ./inp_files/19819.got.cif
#   From: 2010.03.12/outbox.cif.g09.slc.cpg/sg47_10_cif.got.tgz:19819.got - 2010.04.14 03:12:58.
