data_PCOD8198606
_publ_section_title
;
Structure prediction by ZEFSAII (Michael W. Deem and Ramdas Pophale) SiO2 
 PCOD8198606
Probable space group: P M M M
;
_chemical_formula_sum "Si O2"
_cell_formula_units_Z 56
_cell_length_a 13.807873
_cell_length_b 9.469048
_cell_length_c 23.265479
_cell_angle_alpha 90.000000
_cell_angle_beta 90.000000
_cell_angle_gamma 90.000000
_cell_volume 3041.901173
_symmetry_space_group_name_H-M "P M M M"
_symmetry_group_IT_number 47
_symmetry_cell_setting 'orthorhombic'
loop_
_space_group_symop_operation_xyz
x,y,z
-x,-y,z
x,-y,-z
-x,y,-z
-x,-y,-z
x,y,-z
-x,y,z
x,-y,z
loop_
_atom_site_type_symbol
_atom_site_label
_atom_site_fract_x
_atom_site_fract_y
_atom_site_fract_z
Si Si1 0.717461 0.661582 0.064211
Si Si2 0.105833 0.157913 0.931706
Si Si3 0.272649 0.834696 0.734293
Si Si4 0.389851 0.337173 0.175712
Si Si5 0.111991 0.335044 0.674198
Si Si6 0.610164 0.836663 0.379768
Si Si7 0.769079 0.337976 0.435816
O O1 0.748900 0.500000 0.060709
O O2 0.809934 0.741441 0.091362
O O3 0.627927 0.683601 0.107394
O O4 0.688866 0.716462 0.000000
O O5 0.000000 0.208715 0.909242
O O6 0.126395 0.000000 0.909210
O O7 0.105782 0.160739 0.000000
O O8 0.317601 0.764948 0.790735
O O9 0.171227 0.758550 0.719768
O O10 0.349095 0.808552 0.683639
O O11 0.253303 0.000000 0.745072
O O12 0.500000 0.293401 0.188621
O O13 0.370902 0.500000 0.193479
O O14 0.128458 0.500000 0.687886
O O15 0.147225 0.297660 0.609550
O O16 0.000000 0.292913 0.678990
O O17 0.500000 0.782444 0.381522
O O18 0.672082 0.751747 0.426242
O O19 0.617091 0.000000 0.396329
O O20 0.808988 0.307845 0.500000
O O21 0.738779 0.500000 0.428255
#
# Coordination Sequence:
#
# PCOD8198606 Si02
#       7
#     8   8   8   8   8   8   8
#     4   9  18  32  50  74 103 133 166 204 246 295
#     4   8  14  26  45  68  94 125 159 194 234 280
#     4  10  20  35  55  77 101 128 165 214 261 306
#     4  10  21  36  54  76 102 133 168 206 251 304
#     4   9  18  34  56  79 104 136 171 208 253 303
#     4   9  18  32  49  69  95 130 170 211 257 304
#     4   9  18  31  47  72 105 137 171 210 250 295
#
# _framework density 18.409538999999999
#
# number of rings (size 3 to 8) (size 9 to 14) (size 15 to 20)
#    0.000    2.857    0.000    1.286    0.000    4.000 
#    0.000    6.429    0.000    0.857    0.000    7.000 
#    0.000    0.000    0.000    0.000    0.000    0.000 
#
# Total GULP energy -694266.611227 kJ/mol
# GULP energy per Si atom -12397.618058 kJ/mol
# Density = 1.836764 g / cm^3
# Si number density = 18.409539 Si / 1000 Ang^3
#
#
#
# Elastic Constant Matrix: (Units=GPa)
#
#
# Indices 1 2 3 4 5 6 
#
# 1 132.5446 57.6027 47.9909 0.0000 0.0000 0.0000
# 2 57.6027 73.1434 42.3282 0.0000 0.0000 0.0000
# 3 47.9909 42.3282 83.1621 0.0000 0.0000 0.0000
# 4 0.0000 0.0000 0.0000 21.9718 0.0000 0.0000
# 5 0.0000 0.0000 0.0000 0.0000 20.7344 0.0000
# 6 0.0000 0.0000 0.0000 0.0000 0.0000 24.8706
#
#
#
# Elastic Compliance Matrix: (Units=1/GPa)
#
#
# Indices 1 2 3 4 5 6 
#
# 1 0.011973 -0.007698 -0.002991 0.000000 0.000000 0.000000
# 2 -0.007698 0.024330 -0.007941 0.000000 0.000000 0.000000
# 3 -0.002991 -0.007941 0.017793 0.000000 0.000000 0.000000
# 4 0.000000 0.000000 0.000000 0.045513 0.000000 0.000000
# 5 0.000000 0.000000 0.000000 0.000000 0.048229 0.000000
# 6 0.000000 0.000000 0.000000 0.000000 0.000000 0.040208
#
#
# Mechanical properties :
#
#
# Convention : Reuss Voigt Hill
#
# Bulk Modulus (GPa) = 59.40054 64.96596 62.18325
# Shear Modulus (GPa) = 21.65264 22.91057 22.28161
#
# Velocity S-wave (km/s) = 3.43325 3.53157 3.48275
# Velocity P-wave (km/s) = 6.93199 7.21077 7.07275
#
# Compressibility (1/GPa) = 0.01683486
#
# Stress axis : x y z
#
# Youngs Moduli (GPa) = 83.51924 41.10164 56.20286
#
# Poissons Ratio (x) = 0.31641 0.16811
# Poissons Ratio (y) = 0.64296 0.44631
# Poissons Ratio (z) = 0.24982 0.32639
#
# Static dielectric constant tensor:
#      x y z
#    x 3.479040 0.000000 0.000000 
#    y 0.000000 3.416800 0.000000 
#    z 0.000000 0.000000 3.260990 
# 
# 
# High freq. dielectric constant tensor:
#      x y z
#    x 1.709790 0.000000 0.000000 
#    y 0.000000 1.709790 0.000000 
#    z 0.000000 0.000000 1.700040 
# 
# From -- ./inp_files/21575.got.cif
#   From: 2010.03.12/outbox.cif.g09.slc.cpg/sg47_11_cif.got.tgz:21575.got - 2010.04.14 03:12:58.
