data_PCOD8198737
_publ_section_title
;
Structure prediction by ZEFSAII (Michael W. Deem and Ramdas Pophale) SiO2 
 PCOD8198737
Probable space group: P M M M
;
_chemical_formula_sum "Si O2"
_cell_formula_units_Z 44
_cell_length_a 8.834548
_cell_length_b 9.193451
_cell_length_c 28.564182
_cell_angle_alpha 90.000000
_cell_angle_beta 90.000000
_cell_angle_gamma 90.000000
_cell_volume 2319.982409
_symmetry_space_group_name_H-M "P M M M"
_symmetry_group_IT_number 47
_symmetry_cell_setting 'orthorhombic'
loop_
_space_group_symop_operation_xyz
x,y,z
-x,-y,z
x,-y,-z
-x,y,-z
-x,-y,-z
x,y,-z
-x,y,z
x,-y,z
loop_
_atom_site_type_symbol
_atom_site_label
_atom_site_fract_x
_atom_site_fract_y
_atom_site_fract_z
Si Si1 0.679939 0.664236 0.051176
Si Si2 0.169527 0.172566 0.766252
Si Si3 0.324864 0.170491 0.140596
Si Si4 0.177849 0.331311 0.413605
Si Si5 0.320763 0.833612 0.500000
Si Si6 0.323629 0.170107 0.328681
O O1 0.500000 0.672146 0.052043
O O2 0.735792 0.500000 0.058901
O O3 0.746053 0.761057 0.093347
O O4 0.736854 0.720391 0.000000
O O5 0.238549 0.235679 0.814337
O O6 0.273728 0.221232 0.722938
O O7 0.000000 0.233716 0.759353
O O8 0.168217 0.000000 0.769380
O O9 0.500000 0.211751 0.146584
O O10 0.300728 0.000000 0.136441
O O11 0.224634 0.500000 0.415446
O O12 0.262126 0.246394 0.454288
O O13 0.226755 0.264334 0.364439
O O14 0.000000 0.311483 0.420436
O O15 0.500000 0.828084 0.500000
O O16 0.262960 0.000000 0.500000
O O17 0.500000 0.203289 0.335424
O O18 0.288384 0.000000 0.336822
#
# Coordination Sequence:
#
# PCOD8198737 Si02
#       6
#     8   8   8   8   4   8
#     4   8  14  25  41  62  89 120 153 191 239 295
#     4   9  17  30  49  72  99 132 167 204 250 302
#     4   9  16  26  43  68  94 119 154 202 248 289
#     4  11  24  40  58  83 115 148 181 218 263 313
#     4  11  24  41  62  88 114 143 184 227 264 308
#     4  10  20  35  57  83 108 137 177 220 260 308
#
# _framework density 18.965661999999998
#
# number of rings (size 3 to 8) (size 9 to 14) (size 15 to 20)
#    0.000    2.455    0.000    3.273    0.000    9.091 
#    0.000    2.727    0.000    4.364    0.000    3.818 
#    0.000    0.000    0.000    0.000    0.000    0.000 
#
# Total GULP energy -545539.211920 kJ/mol
# GULP energy per Si atom -12398.618453 kJ/mol
# Density = 1.892250 g / cm^3
# Si number density = 18.965662 Si / 1000 Ang^3
#
#
#
# Elastic Constant Matrix: (Units=GPa)
#
#
# Indices 1 2 3 4 5 6 
#
# 1 54.1605 34.2690 31.3140 0.0000 0.0000 0.0000
# 2 34.2690 70.9587 54.6605 0.0000 0.0000 0.0000
# 3 31.3140 54.6605 155.0411 0.0000 0.0000 0.0000
# 4 0.0000 0.0000 0.0000 -31.5385 0.0000 0.0000
# 5 0.0000 0.0000 0.0000 0.0000 -19.0259 0.0000
# 6 0.0000 0.0000 0.0000 0.0000 0.0000 18.7814
#
#
#
# Elastic Compliance Matrix: (Units=1/GPa)
#
#
# Indices 1 2 3 4 5 6 
#
# 1 0.026740 -0.012017 -0.001164 0.000000 0.000000 0.000000
# 2 -0.012017 0.024748 -0.006298 0.000000 0.000000 0.000000
# 3 -0.001164 -0.006298 0.008905 0.000000 0.000000 0.000000
# 4 0.000000 0.000000 0.000000 -0.031707 0.000000 0.000000
# 5 0.000000 0.000000 0.000000 0.000000 -0.052560 0.000000
# 6 0.000000 0.000000 0.000000 0.000000 0.000000 0.053244
#
#
# Mechanical properties :
#
#
# Convention : Reuss Voigt Hill
#
# Bulk Modulus (GPa) = 46.65262 57.84971 52.25116
# Shear Modulus (GPa) = 66.24828 4.30453 35.27641
#
# Velocity S-wave (km/s) = 5.91663 1.50817 4.31747
# Velocity P-wave (km/s) = 8.44554 5.79666 7.24322
#
# Compressibility (1/GPa) = 0.02143503
#
# Stress axis : x y z
#
# Youngs Moduli (GPa) = 37.39655 40.40789 112.29283
#
# Poissons Ratio (x) = 0.48560 0.13071
# Poissons Ratio (y) = 0.44941 0.70719
# Poissons Ratio (z) = 0.04353 0.25448
#
# Static dielectric constant tensor:
#      x y z
#    x 3.376800 0.000000 0.000000 
#    y 0.000000 3.369880 0.000000 
#    z 0.000000 0.000000 3.983260 
# 
# 
# High freq. dielectric constant tensor:
#      x y z
#    x 1.722120 0.000000 0.000000 
#    y 0.000000 1.711690 0.000000 
#    z 0.000000 0.000000 1.759580 
# 
# From -- ./inp_files/33920.got.cif
#   From: 2010.03.12/outbox.cif.g09.slc.cpg/sg47_17_cif.got.tgz:33920.got - 2010.04.14 03:12:58.
