data_PCOD8198587
_publ_section_title
;
Structure prediction by ZEFSAII (Michael W. Deem and Ramdas Pophale) SiO2 
 PCOD8198587
Probable space group: P M M M
;
_chemical_formula_sum "Si O2"
_cell_formula_units_Z 64
_cell_length_a 15.038821
_cell_length_b 9.309493
_cell_length_c 23.654905
_cell_angle_alpha 90.000000
_cell_angle_beta 90.000000
_cell_angle_gamma 90.000000
_cell_volume 3311.776561
_symmetry_space_group_name_H-M "P M M M"
_symmetry_group_IT_number 47
_symmetry_cell_setting 'orthorhombic'
loop_
_space_group_symop_operation_xyz
x,y,z
-x,-y,z
x,-y,-z
-x,y,-z
-x,-y,-z
x,y,-z
-x,y,z
x,-y,z
loop_
_atom_site_type_symbol
_atom_site_label
_atom_site_fract_x
_atom_site_fract_y
_atom_site_fract_z
Si Si1 0.604738 0.660418 0.936890
Si Si2 0.098388 0.332595 0.061818
Si Si3 0.164173 0.844955 0.844196
Si Si4 0.640225 0.161822 0.824664
Si Si5 0.599043 0.665552 0.285830
Si Si6 0.101499 0.167641 0.565532
Si Si7 0.777676 0.669331 0.652918
Si Si8 0.098044 0.162671 0.270811
O O1 0.500000 0.650061 0.937800
O O2 0.643986 0.500000 0.925145
O O3 0.630822 0.768172 0.886685
O O4 0.637376 0.712324 0.000000
O O5 0.092338 0.500000 0.069917
O O6 0.166690 0.272060 0.106904
O O7 0.000000 0.265918 0.070757
O O8 0.134724 0.292598 0.000000
O O9 0.256124 0.843191 0.810277
O O10 0.090469 0.814018 0.796626
O O11 0.147559 0.000000 0.872827
O O12 0.596477 0.248774 0.773366
O O13 0.600150 0.000000 0.826588
O O14 0.500000 0.684650 0.313132
O O15 0.617376 0.500000 0.270069
O O16 0.675098 0.714445 0.331360
O O17 0.119140 0.197527 0.500000
O O18 0.179867 0.250755 0.598705
O O19 0.000000 0.217333 0.581053
O O20 0.110928 0.000000 0.579911
O O21 0.784210 0.500000 0.642216
O O22 0.837474 0.715678 0.705635
O O23 0.000000 0.184063 0.296920
O O24 0.131804 0.000000 0.284494
#
# Coordination Sequence:
#
# PCOD8198587 Si02
#       8
#     8   8   8   8   8   8   8   8
#     4   9  19  36  55  73  96 130 170 212 269 346
#     4   9  19  35  52  70  93 124 167 219 271 323
#     4  10  21  35  50  71 101 134 171 215 265 327
#     4  11  22  35  53  78 106 134 173 230 286 334
#     4  10  22  40  59  79 109 151 194 234 282 344
#     4   9  19  37  61  89 124 167 204 229 266 325
#     4  11  22  35  56  87 118 148 189 240 283 319
#     4  10  20  35  54  75 107 150 185 217 267 331
#
# _framework density 19.324974999999998
#
# number of rings (size 3 to 8) (size 9 to 14) (size 15 to 20)
#    0.000    2.125    1.250    3.000    0.000    8.000 
#    0.000    4.375    0.000    0.375    0.000    2.625 
#    0.000    0.000    0.000    0.000    0.000    0.000 
#
# Total GULP energy -792918.067989 kJ/mol
# GULP energy per Si atom -12389.344812 kJ/mol
# Density = 1.928099 g / cm^3
# Si number density = 19.324975 Si / 1000 Ang^3
#
#
#
# Elastic Constant Matrix: (Units=GPa)
#
#
# Indices 1 2 3 4 5 6 
#
# 1 103.6647 40.4991 47.1402 0.0000 0.0000 0.0000
# 2 40.4991 72.5708 53.0819 0.0000 0.0000 0.0000
# 3 47.1402 53.0819 113.2303 0.0000 0.0000 0.0000
# 4 0.0000 0.0000 0.0000 35.0966 0.0000 0.0000
# 5 0.0000 0.0000 0.0000 0.0000 23.8883 0.0000
# 6 0.0000 0.0000 0.0000 0.0000 0.0000 20.8449
#
#
#
# Elastic Compliance Matrix: (Units=1/GPa)
#
#
# Indices 1 2 3 4 5 6 
#
# 1 0.012997 -0.005015 -0.003060 0.000000 0.000000 0.000000
# 2 -0.005015 0.022905 -0.008650 0.000000 0.000000 0.000000
# 3 -0.003060 -0.008650 0.014161 0.000000 0.000000 0.000000
# 4 0.000000 0.000000 0.000000 0.028493 0.000000 0.000000
# 5 0.000000 0.000000 0.000000 0.000000 0.041861 0.000000
# 6 0.000000 0.000000 0.000000 0.000000 0.000000 0.047973
#
#
# Mechanical properties :
#
#
# Convention : Reuss Voigt Hill
#
# Bulk Modulus (GPa) = 60.19371 63.43423 61.81397
# Shear Modulus (GPa) = 24.11043 25.88226 24.99635
#
# Velocity S-wave (km/s) = 3.53601 3.66364 3.60039
# Velocity P-wave (km/s) = 6.92004 7.12689 7.02423
#
# Compressibility (1/GPa) = 0.01661303
#
# Stress axis : x y z
#
# Youngs Moduli (GPa) = 76.93950 43.65767 70.61826
#
# Poissons Ratio (x) = 0.21895 0.21609
# Poissons Ratio (y) = 0.38586 0.61086
# Poissons Ratio (z) = 0.23543 0.37764
#
# Static dielectric constant tensor:
#      x y z
#    x 3.818800 0.000000 0.000000 
#    y 0.000000 3.545920 0.000000 
#    z 0.000000 0.000000 3.456650 
# 
# 
# High freq. dielectric constant tensor:
#      x y z
#    x 1.753860 0.000000 0.000000 
#    y 0.000000 1.744620 0.000000 
#    z 0.000000 0.000000 1.737860 
# 
# From -- ./inp_files/32133.got.cif
#   From: 2010.03.12/outbox.cif.g09.slc.cpg/sg47_17_cif.got.tgz:32133.got - 2010.04.14 03:12:58.
