data_PCOD8198011
_publ_section_title
;
Structure prediction by ZEFSAII (Michael W. Deem and Ramdas Pophale) SiO2 
 PCOD8198011
Probable space group: P M M M
;
_chemical_formula_sum "Si O2"
_cell_formula_units_Z 52
_cell_length_a 9.314519
_cell_length_b 10.654907
_cell_length_c 29.567726
_cell_angle_alpha 90.000000
_cell_angle_beta 90.000000
_cell_angle_gamma 90.000000
_cell_volume 2934.458833
_symmetry_space_group_name_H-M "P M M M"
_symmetry_group_IT_number 47
_symmetry_cell_setting 'orthorhombic'
loop_
_space_group_symop_operation_xyz
x,y,z
-x,-y,z
x,-y,-z
-x,y,-z
-x,-y,-z
x,y,-z
-x,y,z
x,-y,z
loop_
_atom_site_type_symbol
_atom_site_label
_atom_site_fract_x
_atom_site_fract_y
_atom_site_fract_z
Si Si1 0.167200 0.356208 0.291876
Si Si2 0.829837 0.500000 0.949178
Si Si3 0.831644 0.855852 0.636092
Si Si4 0.343394 0.144275 0.951097
Si Si5 0.169055 0.723736 0.885104
Si Si6 0.335622 0.645642 0.200687
Si Si7 0.660325 0.148656 0.450504
O O1 0.196495 0.500000 0.309318
O O2 0.214447 0.248499 0.327237
O O3 0.262104 0.326652 0.248366
O O4 0.000000 0.341840 0.279288
O O5 0.776981 0.382670 0.919892
O O6 0.000000 0.500000 0.952522
O O7 0.763772 0.500000 0.000000
O O8 0.764369 0.806078 0.589270
O O9 0.000000 0.855052 0.629082
O O10 0.781860 0.000000 0.648718
O O11 0.500000 0.202740 0.937340
O O12 0.223540 0.154992 0.911825
O O13 0.366284 0.000000 0.958587
O O14 0.293076 0.201866 0.000000
O O15 0.247511 0.719176 0.837179
O O16 0.000000 0.722949 0.876137
O O17 0.500000 0.692581 0.202429
O O18 0.326820 0.500000 0.188584
O O19 0.712906 0.198043 0.500000
O O20 0.500000 0.199486 0.440770
O O21 0.658524 0.000000 0.451513
#
# Coordination Sequence:
#
# PCOD8198011 Si02
#       7
#     8   4   8   8   8   8   8
#     4   9  18  33  52  71  94 127 166 204 249 303
#     4   9  18  30  45  71 103 127 147 181 232 283
#     4   9  17  29  47  73 101 126 157 204 254 294
#     4   9  19  36  54  71  96 130 164 198 237 282
#     4  11  20  32  52  75 101 128 157 196 240 287
#     4  10  20  34  52  73  97 125 162 203 242 288
#     4   8  14  25  42  66  97 132 167 201 240 290
#
# _framework density 17.720472999999998
#
# number of rings (size 3 to 8) (size 9 to 14) (size 15 to 20)
#    0.000    2.692    0.769    2.308    0.000    2.769 
#    0.000    3.077    0.000    5.077    0.000    3.231 
#    0.000    0.000    0.000    0.000    0.000    0.000 
#
# Total GULP energy -644225.248989 kJ/mol
# GULP energy per Si atom -12388.947096 kJ/mol
# Density = 1.768014 g / cm^3
# Si number density = 17.720473 Si / 1000 Ang^3
#
#
#
# Elastic Constant Matrix: (Units=GPa)
#
#
# Indices 1 2 3 4 5 6 
#
# 1 80.9149 29.6473 70.7935 0.0000 0.0000 0.0000
# 2 29.6473 57.3802 52.9686 0.0000 0.0000 0.0000
# 3 70.7935 52.9686 147.5005 0.0000 0.0000 0.0000
# 4 0.0000 0.0000 0.0000 20.1632 0.0000 0.0000
# 5 0.0000 0.0000 0.0000 0.0000 35.3512 0.0000
# 6 0.0000 0.0000 0.0000 0.0000 0.0000 17.8353
#
#
#
# Elastic Compliance Matrix: (Units=1/GPa)
#
#
# Indices 1 2 3 4 5 6 
#
# 1 0.021518 -0.002370 -0.009477 0.000000 0.000000 0.000000
# 2 -0.002370 0.026331 -0.008318 0.000000 0.000000 0.000000
# 3 -0.009477 -0.008318 0.014315 0.000000 0.000000 0.000000
# 4 0.000000 0.000000 0.000000 0.049595 0.000000 0.000000
# 5 0.000000 0.000000 0.000000 0.000000 0.028288 0.000000
# 6 0.000000 0.000000 0.000000 0.000000 0.000000 0.056069
#
#
# Mechanical properties :
#
#
# Convention : Reuss Voigt Hill
#
# Bulk Modulus (GPa) = 45.79899 65.84603 55.82251
# Shear Modulus (GPa) = 20.51506 23.49569 22.00537
#
# Velocity S-wave (km/s) = 3.40620 3.64525 3.52775
# Velocity P-wave (km/s) = 6.43202 7.41323 6.93999
#
# Compressibility (1/GPa) = 0.02183454
#
# Stress axis : x y z
#
# Youngs Moduli (GPa) = 46.47195 37.97848 69.85632
#
# Poissons Ratio (x) = 0.09001 0.66201
# Poissons Ratio (y) = 0.11014 0.58107
# Poissons Ratio (z) = 0.44040 0.31591
#
# Static dielectric constant tensor:
#      x y z
#    x 3.267390 0.000000 0.000000 
#    y 0.000000 3.141990 0.000000 
#    z 0.000000 0.000000 3.435410 
# 
# 
# High freq. dielectric constant tensor:
#      x y z
#    x 1.683980 0.000000 0.000000 
#    y 0.000000 1.653910 0.000000 
#    z 0.000000 0.000000 1.688480 
# 
# From -- ./inp_files/34271.got.cif
#   From: 2010.03.12/outbox.cif.g09.slc.cpg/sg47_18_cif.got.tgz:34271.got - 2010.04.14 03:12:58.
