data_PCOD8198213
_publ_section_title
;
Structure prediction by ZEFSAII (Michael W. Deem and Ramdas Pophale) SiO2 
 PCOD8198213
Probable space group: P M M M
;
_chemical_formula_sum "Si O2"
_cell_formula_units_Z 64
_cell_length_a 14.098421
_cell_length_b 9.114469
_cell_length_c 31.210838
_cell_angle_alpha 90.000000
_cell_angle_beta 90.000000
_cell_angle_gamma 90.000000
_cell_volume 4010.580859
_symmetry_space_group_name_H-M "P M M M"
_symmetry_group_IT_number 47
_symmetry_cell_setting 'orthorhombic'
loop_
_space_group_symop_operation_xyz
x,y,z
-x,-y,z
x,-y,-z
-x,y,-z
-x,-y,-z
x,y,-z
-x,y,z
x,-y,z
loop_
_atom_site_type_symbol
_atom_site_label
_atom_site_fract_x
_atom_site_fract_y
_atom_site_fract_z
Si Si1 0.612680 0.335831 0.046497
Si Si2 0.894986 0.666336 0.590167
Si Si3 0.715938 0.325905 0.703743
Si Si4 0.701921 0.330672 0.548545
Si Si5 0.892535 0.829468 0.322761
Si Si6 0.612626 0.162136 0.126295
Si Si7 0.611458 0.169231 0.221334
Si Si8 0.389147 0.829117 0.625934
O O1 0.500000 0.335520 0.050722
O O2 0.652128 0.500000 0.048394
O O3 0.658457 0.252806 0.087082
O O4 0.641093 0.266004 0.000000
O O5 0.886024 0.500000 0.608209
O O6 0.814688 0.695993 0.554819
O O7 0.878222 0.779216 0.628486
O O8 0.000000 0.690277 0.569852
O O9 0.716013 0.500000 0.700184
O O10 0.822958 0.264459 0.707387
O O11 0.661949 0.277739 0.746229
O O12 0.667191 0.260196 0.661662
O O13 0.676617 0.287367 0.500000
O O14 0.676217 0.500000 0.557743
O O15 0.639662 0.228721 0.579209
O O16 0.000000 0.800307 0.307368
O O17 0.865983 0.000000 0.319731
O O18 0.500000 0.158644 0.122205
O O19 0.639600 0.223305 0.173366
O O20 0.654507 0.000000 0.121765
O O21 0.500000 0.183156 0.228813
O O22 0.642462 0.000000 0.228625
O O23 0.500000 0.802930 0.633240
O O24 0.362979 0.000000 0.629780
#
# Coordination Sequence:
#
# PCOD8198213 Si02
#       8
#     8   8   8   8   8   8   8   8
#     4   8  13  20  30  46  70 102 141 186 234 278
#     4   9  17  31  52  77 103 127 149 175 211 258
#     4  12  23  34  52  76  98 120 149 186 229 274
#     4  10  21  36  54  77 102 127 153 182 221 267
#     4  10  20  34  54  77  99 123 149 178 215 261
#     4   8  14  24  37  53  75 106 145 189 233 273
#     4   9  18  32  47  64  90 123 157 194 236 278
#     4  11  24  40  56  72  92 122 158 193 229 267
#
# _framework density 15.957789
#
# number of rings (size 3 to 8) (size 9 to 14) (size 15 to 20)
#    0.000    2.375    1.250    3.375    0.000    5.000 
#    0.000    5.000    0.000    0.000    0.000    2.625 
#    0.000    0.000    0.000    0.000    0.000    0.625 
#
# Total GULP energy -793294.113621 kJ/mol
# GULP energy per Si atom -12395.220525 kJ/mol
# Density = 1.592147 g / cm^3
# Si number density = 15.957789 Si / 1000 Ang^3
#
#
#
# Elastic Constant Matrix: (Units=GPa)
#
#
# Indices 1 2 3 4 5 6 
#
# 1 55.0888 41.4586 31.4989 0.0000 0.0000 0.0000
# 2 41.4586 103.0151 58.7553 0.0000 0.0000 0.0000
# 3 31.4989 58.7553 113.2762 0.0000 0.0000 0.0000
# 4 0.0000 0.0000 0.0000 29.5887 0.0000 0.0000
# 5 0.0000 0.0000 0.0000 0.0000 2.7466 0.0000
# 6 0.0000 0.0000 0.0000 0.0000 0.0000 20.6710
#
#
#
# Elastic Compliance Matrix: (Units=1/GPa)
#
#
# Indices 1 2 3 4 5 6 
#
# 1 0.026574 -0.009203 -0.002616 0.000000 0.000000 0.000000
# 2 -0.009203 0.016973 -0.006245 0.000000 0.000000 0.000000
# 3 -0.002616 -0.006245 0.012794 0.000000 0.000000 0.000000
# 4 0.000000 0.000000 0.000000 0.033797 0.000000 0.000000
# 5 0.000000 0.000000 0.000000 0.000000 0.364087 0.000000
# 6 0.000000 0.000000 0.000000 0.000000 0.000000 0.048377
#
#
# Mechanical properties :
#
#
# Convention : Reuss Voigt Hill
#
# Bulk Modulus (GPa) = 49.46963 59.42285 54.44624
# Shear Modulus (GPa) = 9.16646 19.91240 14.53943
#
# Velocity S-wave (km/s) = 2.39930 3.53628 3.02175
# Velocity P-wave (km/s) = 6.22440 7.34793 6.80938
#
# Compressibility (1/GPa) = 0.02021442
#
# Stress axis : x y z
#
# Youngs Moduli (GPa) = 37.63064 58.91875 78.15897
#
# Poissons Ratio (x) = 0.54221 0.20448
# Poissons Ratio (y) = 0.34630 0.48806
# Poissons Ratio (z) = 0.09845 0.36792
#
# Static dielectric constant tensor:
#      x y z
#    x 2.917140 0.000000 0.000000 
#    y 0.000000 3.159180 0.000000 
#    z 0.000000 0.000000 3.114680 
# 
# 
# High freq. dielectric constant tensor:
#      x y z
#    x 1.577600 0.000000 0.000000 
#    y 0.000000 1.617540 0.000000 
#    z 0.000000 0.000000 1.604390 
# 
# From -- ./inp_files/14356.got.cif
#   From: 2010.03.12/outbox.cif.g09.slc.cpg/sg47_8_cif.got.tgz:14356.got - 2010.04.14 03:12:58.
