data_PCOD8198960
_publ_section_title
;
Structure prediction by ZEFSAII (Michael W. Deem and Ramdas Pophale) SiO2 
 PCOD8198960
Probable space group: P M M M
;
_chemical_formula_sum "Si O2"
_cell_formula_units_Z 56
_cell_length_a 21.064149
_cell_length_b 9.041464
_cell_length_c 15.110203
_cell_angle_alpha 90.000000
_cell_angle_beta 90.000000
_cell_angle_gamma 90.000000
_cell_volume 2877.749417
_symmetry_space_group_name_H-M "P M M M"
_symmetry_group_IT_number 47
_symmetry_cell_setting 'orthorhombic'
loop_
_space_group_symop_operation_xyz
x,y,z
-x,-y,z
x,-y,-z
-x,y,-z
-x,-y,-z
x,y,-z
-x,y,z
x,-y,z
loop_
_atom_site_type_symbol
_atom_site_label
_atom_site_fract_x
_atom_site_fract_y
_atom_site_fract_z
Si Si1 0.570992 0.330261 0.345829
Si Si2 0.689906 0.169003 0.403461
Si Si3 0.245217 0.175432 0.227347
Si Si4 0.075106 0.833559 0.599024
Si Si5 0.000000 0.324652 0.898349
Si Si6 0.884924 0.675375 0.226461
Si Si7 0.425677 0.164787 0.000000
Si Si8 0.365138 0.670788 0.159518
O O1 0.500000 0.264217 0.358959
O O2 0.571156 0.500000 0.374320
O O3 0.622026 0.248911 0.406665
O O4 0.591604 0.309986 0.245092
O O5 0.722205 0.189884 0.500000
O O6 0.738416 0.226888 0.328439
O O7 0.674512 0.000000 0.382138
O O8 0.180154 0.249661 0.195894
O O9 0.299870 0.238110 0.164585
O O10 0.239706 0.000000 0.217442
O O11 0.097202 0.784417 0.500000
O O12 0.100945 0.722713 0.672793
O O13 0.000000 0.832937 0.603120
O O14 0.100544 0.000000 0.618545
O O15 0.061520 0.269798 0.843194
O O16 0.000000 0.500000 0.902341
O O17 0.000000 0.262004 0.000000
O O18 0.878396 0.500000 0.224460
O O19 0.406079 0.259119 0.083487
O O20 0.500000 0.147764 0.000000
O O21 0.394916 0.000000 0.000000
O O22 0.348994 0.500000 0.140514
#
# Coordination Sequence:
#
# PCOD8198960 Si02
#       8
#     8   8   8   8   4   8   4   8
#     4   9  18  32  51  76 106 140 179 226 280 332
#     4   9  19  35  53  74 103 143 189 230 269 322
#     4  10  21  38  58  80 112 152 189 232 284 340
#     4   9  18  33  54  81 115 153 187 224 282 351
#     4   9  20  40  62  85 114 148 185 231 282 339
#     4  11  21  36  60  88 115 148 192 240 288 340
#     4  11  23  37  57  87 119 148 181 228 287 349
#     4  10  20  37  58  80 108 145 189 235 282 337
#
# _framework density 19.459651000000001
#
# number of rings (size 3 to 8) (size 9 to 14) (size 15 to 20)
#    0.000    2.286    0.714    2.357    0.000    4.000 
#    1.286    3.571    0.000    3.000    0.000    0.000 
#    0.000    0.000    0.000    0.000    0.000    0.000 
#
# Total GULP energy -694250.568942 kJ/mol
# GULP energy per Si atom -12397.331588 kJ/mol
# Density = 1.941536 g / cm^3
# Si number density = 19.459651 Si / 1000 Ang^3
#
#
#
# Elastic Constant Matrix: (Units=GPa)
#
#
# Indices 1 2 3 4 5 6 
#
# 1 113.4372 34.9276 29.8008 0.0000 0.0000 0.0000
# 2 34.9276 73.0461 30.7509 0.0000 0.0000 0.0000
# 3 29.8008 30.7509 88.5501 0.0000 0.0000 0.0000
# 4 0.0000 0.0000 0.0000 31.4499 0.0000 0.0000
# 5 0.0000 0.0000 0.0000 0.0000 18.9629 0.0000
# 6 0.0000 0.0000 0.0000 0.0000 0.0000 33.0887
#
#
#
# Elastic Compliance Matrix: (Units=1/GPa)
#
#
# Indices 1 2 3 4 5 6 
#
# 1 0.010670 -0.004205 -0.002131 0.000000 0.000000 0.000000
# 2 -0.004205 0.017691 -0.004729 0.000000 0.000000 0.000000
# 3 -0.002131 -0.004729 0.013652 0.000000 0.000000 0.000000
# 4 0.000000 0.000000 0.000000 0.031797 0.000000 0.000000
# 5 0.000000 0.000000 0.000000 0.000000 0.052735 0.000000
# 6 0.000000 0.000000 0.000000 0.000000 0.000000 0.030222
#
#
# Mechanical properties :
#
#
# Convention : Reuss Voigt Hill
#
# Bulk Modulus (GPa) = 50.28883 51.77689 51.03286
# Shear Modulus (GPa) = 26.95087 28.67057 27.81072
#
# Velocity S-wave (km/s) = 3.72554 3.84257 3.78451
# Velocity P-wave (km/s) = 6.66370 6.80824 6.73636
#
# Compressibility (1/GPa) = 0.01988513
#
# Stress axis : x y z
#
# Youngs Moduli (GPa) = 93.72164 56.52518 73.24848
#
# Poissons Ratio (x) = 0.23769 0.15606
# Poissons Ratio (y) = 0.39410 0.34636
# Poissons Ratio (z) = 0.19968 0.26728
#
# Static dielectric constant tensor:
#      x y z
#    x 3.599210 0.000000 0.000000 
#    y 0.000000 3.555620 0.000000 
#    z 0.000000 0.000000 3.667340 
# 
# 
# High freq. dielectric constant tensor:
#      x y z
#    x 1.758160 0.000000 0.000000 
#    y 0.000000 1.751200 0.000000 
#    z 0.000000 0.000000 1.754750 
# 
# From -- ./inp_files/21612.got.cif
#   From: 2010.03.12/outbox.cif.g09.slc.cpg/sg47_11_cif.got.tgz:21612.got - 2010.04.14 03:12:58.
