data_PCOD8198863
_publ_section_title
;
Structure prediction by ZEFSAII (Michael W. Deem and Ramdas Pophale) SiO2 
 PCOD8198863
Probable space group: P M M M
;
_chemical_formula_sum "Si O2"
_cell_formula_units_Z 28
_cell_length_a 12.557322
_cell_length_b 7.648061
_cell_length_c 17.426819
_cell_angle_alpha 90.000000
_cell_angle_beta 90.000000
_cell_angle_gamma 90.000000
_cell_volume 1673.657139
_symmetry_space_group_name_H-M "P M M M"
_symmetry_group_IT_number 47
_symmetry_cell_setting 'orthorhombic'
loop_
_space_group_symop_operation_xyz
x,y,z
-x,-y,z
x,-y,-z
-x,y,-z
-x,-y,-z
x,y,-z
-x,y,z
x,-y,z
loop_
_atom_site_type_symbol
_atom_site_label
_atom_site_fract_x
_atom_site_fract_y
_atom_site_fract_z
Si Si1 0.621937 0.700845 0.134423
Si Si2 0.734572 0.310183 0.287406
Si Si3 0.231847 0.000000 0.916616
Si Si4 0.124570 0.000000 0.755549
Si Si5 0.626409 0.500000 0.412477
O O1 0.500000 0.749236 0.118497
O O2 0.645097 0.500000 0.111455
O O3 0.645747 0.736954 0.224055
O O4 0.695874 0.826663 0.084631
O O5 0.786338 0.500000 0.266894
O O6 0.827499 0.167971 0.287698
O O7 0.673878 0.326863 0.369666
O O8 0.147856 0.000000 0.846823
O O9 0.173239 0.000000 0.000000
O O10 0.000000 0.000000 0.742098
O O11 0.500000 0.500000 0.406333
O O12 0.665335 0.500000 0.500000
#
# Coordination Sequence:
#
# PCOD8198863 Si02
#       5
#     8   8   4   4   4
#     4   9  16  28  47  68  95 133 167 194 237 297
#     4   8  17  31  51  75 103 131 166 210 241 286
#     4  10  21  33  44  68  99 122 158 212 259 298
#     4  10  20  36  56  73  89 128 181 217 253 290
#     4   9  16  30  55  83 112 139 157 187 243 301
#
# _framework density 16.729831000000001
#
# number of rings (size 3 to 8) (size 9 to 14) (size 15 to 20)
#    0.857    2.143    0.000    1.286    0.000    2.571 
#    0.000    4.286    0.000    4.286    0.000    8.000 
#    0.000    0.000    0.000    0.000    0.000    0.000 
#
# Total GULP energy -346911.479902 kJ/mol
# GULP energy per Si atom -12389.695711 kJ/mol
# Density = 1.669175 g / cm^3
# Si number density = 16.729831 Si / 1000 Ang^3
#
#
#
# Elastic Constant Matrix: (Units=GPa)
#
#
# Indices 1 2 3 4 5 6 
#
# 1 84.3304 41.1235 27.6346 0.0000 0.0000 0.0000
# 2 41.1235 85.5289 25.2747 0.0000 0.0000 0.0000
# 3 27.6346 25.2747 114.5586 0.0000 0.0000 0.0000
# 4 0.0000 0.0000 0.0000 19.2931 0.0000 0.0000
# 5 0.0000 0.0000 0.0000 0.0000 13.3704 0.0000
# 6 0.0000 0.0000 0.0000 0.0000 0.0000 19.6753
#
#
#
# Elastic Compliance Matrix: (Units=1/GPa)
#
#
# Indices 1 2 3 4 5 6 
#
# 1 0.016046 -0.007030 -0.002320 0.000000 0.000000 0.000000
# 2 -0.007030 0.015587 -0.001743 0.000000 0.000000 0.000000
# 3 -0.002320 -0.001743 0.009673 0.000000 0.000000 0.000000
# 4 0.000000 0.000000 0.000000 0.051832 0.000000 0.000000
# 5 0.000000 0.000000 0.000000 0.000000 0.074792 0.000000
# 6 0.000000 0.000000 0.000000 0.000000 0.000000 0.050825
#
#
# Mechanical properties :
#
#
# Convention : Reuss Voigt Hill
#
# Bulk Modulus (GPa) = 52.29792 52.49820 52.39806
# Shear Modulus (GPa) = 20.21711 23.16011 21.68861
#
# Velocity S-wave (km/s) = 3.48004 3.72474 3.60447
# Velocity P-wave (km/s) = 6.89026 7.06727 6.97933
#
# Compressibility (1/GPa) = 0.01912122
#
# Stress axis : x y z
#
# Youngs Moduli (GPa) = 62.31928 64.15562 103.37675
#
# Poissons Ratio (x) = 0.45100 0.23982
# Poissons Ratio (y) = 0.43809 0.18020
# Poissons Ratio (z) = 0.14457 0.11183
#
# Static dielectric constant tensor:
#      x y z
#    x 2.780720 0.000000 0.000000 
#    y 0.000000 1.007560 0.000000 
#    z 0.000000 0.000000 3.058080 
# 
# 
# High freq. dielectric constant tensor:
#      x y z
#    x 1.614000 0.000000 0.000000 
#    y 0.000000 1.646540 0.000000 
#    z 0.000000 0.000000 1.632640 
# 
# From -- ./inp_files/27191.got.cif
#   From: 2010.03.12/outbox.cif.g09.slc.cpg/sg47_14_cif.got.tgz:27191.got - 2010.04.14 03:12:58.
