data_PCOD8198047
_publ_section_title
;
Structure prediction by ZEFSAII (Michael W. Deem and Ramdas Pophale) SiO2 
 PCOD8198047
Probable space group: P M M M
;
_chemical_formula_sum "Si O2"
_cell_formula_units_Z 44
_cell_length_a 14.007301
_cell_length_b 8.928662
_cell_length_c 18.398206
_cell_angle_alpha 90.000000
_cell_angle_beta 90.000000
_cell_angle_gamma 90.000000
_cell_volume 2300.998424
_symmetry_space_group_name_H-M "P M M M"
_symmetry_group_IT_number 47
_symmetry_cell_setting 'orthorhombic'
loop_
_space_group_symop_operation_xyz
x,y,z
-x,-y,z
x,-y,-z
-x,y,-z
-x,-y,-z
x,y,-z
-x,y,z
x,-y,z
loop_
_atom_site_type_symbol
_atom_site_label
_atom_site_fract_x
_atom_site_fract_y
_atom_site_fract_z
Si Si1 0.113111 0.831968 0.079424
Si Si2 0.386255 0.170443 0.000000
Si Si3 0.606917 0.177857 0.420112
Si Si4 0.613125 0.673051 0.853631
Si Si5 0.890498 0.674645 0.778164
Si Si6 0.717680 0.177734 0.719071
O O1 0.147879 0.716384 0.140946
O O2 0.000000 0.823368 0.072933
O O3 0.144460 0.000000 0.101947
O O4 0.157428 0.790717 0.000000
O O5 0.346798 0.251696 0.927599
O O6 0.500000 0.178738 0.000000
O O7 0.349478 0.000000 0.000000
O O8 0.643032 0.231628 0.500000
O O9 0.500000 0.238998 0.406366
O O10 0.675256 0.239477 0.356850
O O11 0.605402 0.000000 0.417686
O O12 0.500000 0.692633 0.848814
O O13 0.643457 0.500000 0.853336
O O14 0.657819 0.754701 0.784856
O O15 0.876903 0.500000 0.765944
O O16 0.826914 0.765127 0.720576
O O17 0.000000 0.724589 0.767476
O O18 0.713718 0.000000 0.724000
#
# Coordination Sequence:
#
# PCOD8198047 Si02
#       6
#     8   4   8   8   8   8
#     4   8  14  27  48  71  94 122 161 214 272 322
#     4   9  17  31  51  73 100 137 182 227 267 309
#     4   8  15  30  54  85 117 142 165 203 260 321
#     4  10  20  34  52  75 107 144 178 216 264 317
#     4  10  21  36  52  71 100 139 181 224 272 324
#     4  11  21  33  54  82 108 137 177 222 266 318
#
# _framework density 19.122133999999999
#
# number of rings (size 3 to 8) (size 9 to 14) (size 15 to 20)
#    0.000    2.636    0.000    3.545    0.000    4.364 
#    1.636    1.818    0.000    2.727    0.000   10.182 
#    0.000    0.000    0.000    0.000    0.000    0.000 
#
# Total GULP energy -545488.494269 kJ/mol
# GULP energy per Si atom -12397.465779 kJ/mol
# Density = 1.907861 g / cm^3
# Si number density = 19.122134 Si / 1000 Ang^3
#
#
#
# Elastic Constant Matrix: (Units=GPa)
#
#
# Indices 1 2 3 4 5 6 
#
# 1 62.3726 35.7270 71.5721 0.0000 0.0000 0.0000
# 2 35.7270 89.9724 56.2760 0.0000 0.0000 0.0000
# 3 71.5721 56.2760 170.6501 0.0000 0.0000 0.0000
# 4 0.0000 0.0000 0.0000 4.1915 0.0000 0.0000
# 5 0.0000 0.0000 0.0000 0.0000 30.3205 0.0000
# 6 0.0000 0.0000 0.0000 0.0000 0.0000 25.4335
#
#
#
# Elastic Compliance Matrix: (Units=1/GPa)
#
#
# Indices 1 2 3 4 5 6 
#
# 1 0.033007 -0.005604 -0.011996 0.000000 0.000000 0.000000
# 2 -0.005604 0.014954 -0.002581 0.000000 0.000000 0.000000
# 3 -0.011996 -0.002581 0.011742 0.000000 0.000000 0.000000
# 4 0.000000 0.000000 0.000000 0.238580 0.000000 0.000000
# 5 0.000000 0.000000 0.000000 0.000000 0.032981 0.000000
# 6 0.000000 0.000000 0.000000 0.000000 0.000000 0.039318
#
#
# Mechanical properties :
#
#
# Convention : Reuss Voigt Hill
#
# Bulk Modulus (GPa) = 51.69949 72.23836 61.96892
# Shear Modulus (GPa) = 11.97916 22.61710 17.29813
#
# Velocity S-wave (km/s) = 2.50562 3.44287 3.01094
# Velocity P-wave (km/s) = 5.95534 7.32556 6.67570
#
# Compressibility (1/GPa) = 0.01934255
#
# Stress axis : x y z
#
# Youngs Moduli (GPa) = 30.29631 66.87063 85.16295
#
# Poissons Ratio (x) = 0.37473 1.02158
# Poissons Ratio (y) = 0.16978 0.21983
# Poissons Ratio (z) = 0.36342 0.17261
#
# Static dielectric constant tensor:
#      x y z
#    x 3.562540 0.000000 0.000000 
#    y 0.000000 3.362300 0.000000 
#    z 0.000000 0.000000 3.820010 
# 
# 
# High freq. dielectric constant tensor:
#      x y z
#    x 1.743510 0.000000 0.000000 
#    y 0.000000 1.729320 0.000000 
#    z 0.000000 0.000000 1.731000 
# 
# From -- ./inp_files/8954.got.cif
#   From: 2010.03.12/outbox.cif.g09.slc.cpg/sg47_5_cif.got.tgz:8954.got - 2010.04.14 03:12:58.
