data_PCOD8198022
_publ_section_title
;
Structure prediction by ZEFSAII (Michael W. Deem and Ramdas Pophale) SiO2 
 PCOD8198022
Probable space group: P M M M
;
_chemical_formula_sum "Si O2"
_cell_formula_units_Z 44
_cell_length_a 8.526423
_cell_length_b 17.488275
_cell_length_c 15.218377
_cell_angle_alpha 90.000000
_cell_angle_beta 90.000000
_cell_angle_gamma 90.000000
_cell_volume 2269.249178
_symmetry_space_group_name_H-M "P M M M"
_symmetry_group_IT_number 47
_symmetry_cell_setting 'orthorhombic'
loop_
_space_group_symop_operation_xyz
x,y,z
-x,-y,z
x,-y,-z
-x,y,-z
-x,-y,-z
x,y,-z
-x,y,z
x,-y,z
loop_
_atom_site_type_symbol
_atom_site_label
_atom_site_fract_x
_atom_site_fract_y
_atom_site_fract_z
Si Si1 0.819335 0.363605 0.322197
Si Si2 0.317986 0.414864 0.849877
Si Si3 0.817575 0.911023 0.400689
Si Si4 0.182411 0.742813 0.098062
Si Si5 0.327293 0.588769 0.500000
Si Si6 0.681881 0.208215 0.727750
O O1 0.712996 0.411094 0.254389
O O2 0.776798 0.387722 0.418756
O O3 0.788559 0.273589 0.314372
O O4 0.000000 0.381421 0.302446
O O5 0.500000 0.400175 0.868754
O O6 0.270106 0.500000 0.883956
O O7 0.220857 0.347826 0.896686
O O8 0.770162 0.884743 0.500000
O O9 0.718174 0.869058 0.325201
O O10 0.000000 0.894256 0.385219
O O11 0.780307 0.000000 0.389888
O O12 0.277387 0.794991 0.167882
O O13 0.000000 0.753002 0.118311
O O14 0.224422 0.771600 0.000000
O O15 0.354961 0.500000 0.500000
O O16 0.500000 0.628808 0.500000
O O17 0.500000 0.228559 0.717782
#
# Coordination Sequence:
#
# PCOD8198022 Si02
#       6
#     8   8   8   8   4   8
#     4  11  22  35  52  73 100 138 183 228 271 323
#     4  10  20  34  52  74 103 138 176 224 282 338
#     4   9  19  37  61  88 119 153 186 221 263 315
#     4  10  21  37  57  80 106 140 186 235 280 331
#     4  11  23  37  51  69  98 135 178 229 281 329
#     4  11  22  36  57  83 114 148 181 224 273 325
#
# _framework density 19.389672999999998
#
# number of rings (size 3 to 8) (size 9 to 14) (size 15 to 20)
#    0.000    1.727    0.000    7.909    1.273    6.909 
#    0.000    2.727    0.000    0.545    0.000    3.818 
#    0.000    0.000    0.000    0.000    0.000    0.000 
#
# Total GULP energy -545520.121678 kJ/mol
# GULP energy per Si atom -12398.184584 kJ/mol
# Density = 1.934554 g / cm^3
# Si number density = 19.389673 Si / 1000 Ang^3
#
#
#
# Elastic Constant Matrix: (Units=GPa)
#
#
# Indices 1 2 3 4 5 6 
#
# 1 70.5817 19.8752 29.0429 0.0000 0.0000 0.0000
# 2 19.8752 61.6108 36.9953 0.0000 0.0000 0.0000
# 3 29.0429 36.9953 121.6488 0.0000 0.0000 0.0000
# 4 0.0000 0.0000 0.0000 29.5706 0.0000 0.0000
# 5 0.0000 0.0000 0.0000 0.0000 23.9292 0.0000
# 6 0.0000 0.0000 0.0000 0.0000 0.0000 27.8170
#
#
#
# Elastic Compliance Matrix: (Units=1/GPa)
#
#
# Indices 1 2 3 4 5 6 
#
# 1 0.016333 -0.003581 -0.002810 0.000000 0.000000 0.000000
# 2 -0.003581 0.020642 -0.005423 0.000000 0.000000 0.000000
# 3 -0.002810 -0.005423 0.010540 0.000000 0.000000 0.000000
# 4 0.000000 0.000000 0.000000 0.033817 0.000000 0.000000
# 5 0.000000 0.000000 0.000000 0.000000 0.041790 0.000000
# 6 0.000000 0.000000 0.000000 0.000000 0.000000 0.035949
#
#
# Mechanical properties :
#
#
# Convention : Reuss Voigt Hill
#
# Bulk Modulus (GPa) = 41.86358 47.29646 44.58002
# Shear Modulus (GPa) = 26.22429 27.45857 26.84143
#
# Velocity S-wave (km/s) = 3.68161 3.76725 3.72468
# Velocity P-wave (km/s) = 6.30157 6.58547 6.44509
#
# Compressibility (1/GPa) = 0.02388711
#
# Stress axis : x y z
#
# Youngs Moduli (GPa) = 61.22640 48.44398 94.87300
#
# Poissons Ratio (x) = 0.17350 0.26661
# Poissons Ratio (y) = 0.21928 0.51446
# Poissons Ratio (z) = 0.17206 0.26269
#
# Static dielectric constant tensor:
#      x y z
#    x 3.619150 0.000000 0.000000 
#    y 0.000000 3.317280 0.000000 
#    z 0.000000 0.000000 3.669660 
# 
# 
# High freq. dielectric constant tensor:
#      x y z
#    x 1.763550 0.000000 0.000000 
#    y 0.000000 1.726490 0.000000 
#    z 0.000000 0.000000 1.760290 
# 
# From -- ./inp_files/20945.got.cif
#   From: 2010.03.12/outbox.cif.g09.slc.cpg/sg47_11_cif.got.tgz:20945.got - 2010.04.14 03:12:58.
