data_PCOD8198577
_publ_section_title
;
Structure prediction by ZEFSAII (Michael W. Deem and Ramdas Pophale) SiO2 
 PCOD8198577
Probable space group: P M M M
;
_chemical_formula_sum "Si O2"
_cell_formula_units_Z 36
_cell_length_a 17.678814
_cell_length_b 9.337552
_cell_length_c 12.563664
_cell_angle_alpha 90.000000
_cell_angle_beta 90.000000
_cell_angle_gamma 90.000000
_cell_volume 2073.970015
_symmetry_space_group_name_H-M "P M M M"
_symmetry_group_IT_number 47
_symmetry_cell_setting 'orthorhombic'
loop_
_space_group_symop_operation_xyz
x,y,z
-x,-y,z
x,-y,-z
-x,y,-z
-x,-y,-z
x,y,-z
-x,y,z
x,-y,z
loop_
_atom_site_type_symbol
_atom_site_label
_atom_site_fract_x
_atom_site_fract_y
_atom_site_fract_z
Si Si1 0.500000 0.159180 0.872626
Si Si2 0.090327 0.829041 0.000000
Si Si3 0.858958 0.662590 0.381736
Si Si4 0.636520 0.657165 0.879136
Si Si5 0.196634 0.666239 0.840677
Si Si6 0.000000 0.156294 0.374729
O O1 0.425151 0.238072 0.826058
O O2 0.500000 0.000000 0.824751
O O3 0.500000 0.152081 0.000000
O O4 0.130738 0.760423 0.895754
O O5 0.000000 0.793230 0.000000
O O6 0.102679 0.000000 0.000000
O O7 0.828915 0.709556 0.500000
O O8 0.888027 0.500000 0.388361
O O9 0.798366 0.681841 0.288072
O O10 0.926946 0.758462 0.338822
O O11 0.635113 0.500000 0.823093
O O12 0.721193 0.722047 0.876858
O O13 0.610955 0.638372 0.000000
O O14 0.183847 0.500000 0.873669
O O15 0.000000 0.139761 0.500000
O O16 0.000000 0.000000 0.319394
#
# Coordination Sequence:
#
# PCOD8198577 Si02
#       6
#     4   4   8   8   8   4
#     4   9  17  27  43  69  98 125 152 186 235 288
#     4  11  25  39  49  68  99 134 171 209 248 289
#     4   9  18  32  50  72  95 121 159 206 250 289
#     4   9  16  29  47  68  94 124 158 193 233 284
#     4  10  20  35  54  73  96 131 169 203 243 293
#     4   9  17  29  45  64  89 120 155 199 247 291
#
# _framework density 17.358014000000001
#
# number of rings (size 3 to 8) (size 9 to 14) (size 15 to 20)
#    0.000    2.556    1.111    1.000    1.556    5.333 
#    0.000    0.000    0.000    0.000    0.000    0.778 
#    0.000    6.222    0.000    0.000    0.000    0.000 
#
# Total GULP energy -445975.779878 kJ/mol
# GULP energy per Si atom -12388.216108 kJ/mol
# Density = 1.731851 g / cm^3
# Si number density = 17.358014 Si / 1000 Ang^3
#
#
#
# Elastic Constant Matrix: (Units=GPa)
#
#
# Indices 1 2 3 4 5 6 
#
# 1 125.2182 61.3439 25.4911 0.0000 0.0000 0.0000
# 2 61.3439 94.4644 23.0782 0.0000 0.0000 0.0000
# 3 25.4911 23.0782 76.4455 0.0000 0.0000 0.0000
# 4 0.0000 0.0000 0.0000 12.2214 0.0000 0.0000
# 5 0.0000 0.0000 0.0000 0.0000 9.6142 0.0000
# 6 0.0000 0.0000 0.0000 0.0000 0.0000 22.0893
#
#
#
# Elastic Compliance Matrix: (Units=1/GPa)
#
#
# Indices 1 2 3 4 5 6 
#
# 1 0.011930 -0.007315 -0.001770 0.000000 0.000000 0.000000
# 2 -0.007315 0.015914 -0.002365 0.000000 0.000000 0.000000
# 3 -0.001770 -0.002365 0.014385 0.000000 0.000000 0.000000
# 4 0.000000 0.000000 0.000000 0.081824 0.000000 0.000000
# 5 0.000000 0.000000 0.000000 0.000000 0.104013 0.000000
# 6 0.000000 0.000000 0.000000 0.000000 0.000000 0.045271
#
#
# Mechanical properties :
#
#
# Convention : Reuss Voigt Hill
#
# Bulk Modulus (GPa) = 51.73360 57.32827 54.53093
# Shear Modulus (GPa) = 16.51915 21.19930 18.85922
#
# Velocity S-wave (km/s) = 3.08827 3.49850 3.29976
# Velocity P-wave (km/s) = 6.52573 7.02979 6.78244
#
# Compressibility (1/GPa) = 0.01932980
#
# Stress axis : x y z
#
# Youngs Moduli (GPa) = 83.82395 62.83838 69.51501
#
# Poissons Ratio (x) = 0.45964 0.12303
# Poissons Ratio (y) = 0.61314 0.16441
# Poissons Ratio (z) = 0.14835 0.14862
#
# Static dielectric constant tensor:
#      x y z
#    x 3.156650 0.000000 0.000000 
#    y 0.000000 3.526880 0.000000 
#    z 0.000000 0.000000 3.023060 
# 
# 
# High freq. dielectric constant tensor:
#      x y z
#    x 1.656830 0.000000 0.000000 
#    y 0.000000 1.672270 0.000000 
#    z 0.000000 0.000000 1.635200 
# 
# From -- ./inp_files/23292.got.cif
#   From: 2010.03.12/outbox.cif.g09.slc.cpg/sg47_12_cif.got.tgz:23292.got - 2010.04.14 03:12:58.
