data_PCOD8198223
_publ_section_title
;
Structure prediction by ZEFSAII (Michael W. Deem and Ramdas Pophale) SiO2 
 PCOD8198223
Probable space group: P M M M
;
_chemical_formula_sum "Si O2"
_cell_formula_units_Z 44
_cell_length_a 29.861902
_cell_length_b 7.978139
_cell_length_c 9.368361
_cell_angle_alpha 90.000000
_cell_angle_beta 90.000000
_cell_angle_gamma 90.000000
_cell_volume 2231.940855
_symmetry_space_group_name_H-M "P M M M"
_symmetry_group_IT_number 47
_symmetry_cell_setting 'orthorhombic'
loop_
_space_group_symop_operation_xyz
x,y,z
-x,-y,z
x,-y,-z
-x,y,-z
-x,-y,-z
x,y,-z
-x,y,z
x,-y,z
loop_
_atom_site_type_symbol
_atom_site_label
_atom_site_fract_x
_atom_site_fract_y
_atom_site_fract_z
Si Si1 0.707346 0.697748 0.157977
Si Si2 0.212654 0.693549 0.342893
Si Si3 0.050956 0.696651 0.662130
Si Si4 0.868300 0.808301 0.160976
Si Si5 0.392215 0.312663 0.829854
Si Si6 0.449340 0.000000 0.170257
O O1 0.714118 0.500000 0.145206
O O2 0.745420 0.778109 0.259728
O O3 0.657942 0.735673 0.221228
O O4 0.712656 0.777795 0.000000
O O5 0.207574 0.777437 0.500000
O O6 0.223537 0.500000 0.363150
O O7 0.166986 0.707489 0.255113
O O8 0.062509 0.749791 0.500000
O O9 0.058422 0.500000 0.681067
O O10 0.082530 0.793610 0.771499
O O11 0.000000 0.746139 0.698362
O O12 0.853386 0.000000 0.159604
O O13 0.868997 0.735604 0.000000
O O14 0.405836 0.500000 0.773785
O O15 0.425639 0.169403 0.770896
O O16 0.392688 0.316618 0.000000
O O17 0.500000 0.000000 0.227393
O O18 0.447797 0.000000 0.000000
#
# Coordination Sequence:
#
# PCOD8198223 Si02
#       6
#     8   8   8   8   8   4
#     4   8  14  27  47  68  93 127 164 201 246 302
#     4  10  20  34  54  78 102 130 166 210 259 309
#     4   9  19  37  60  83 104 129 166 210 255 304
#     4  11  24  38  51  73 106 140 173 208 249 300
#     4   8  14  25  40  59  87 125 165 205 253 306
#     4   9  16  24  36  60  93 127 165 207 252 305
#
# _framework density 19.713782999999999
#
# number of rings (size 3 to 8) (size 9 to 14) (size 15 to 20)
#    0.000    2.818    0.000    3.273    0.000    6.182 
#    1.636    4.545    0.000    0.000    0.000    0.000 
#    0.000    1.455    0.000    7.091    0.000    7.273 
#
# Total GULP energy -545397.306868 kJ/mol
# GULP energy per Si atom -12395.393338 kJ/mol
# Density = 1.966891 g / cm^3
# Si number density = 19.713783 Si / 1000 Ang^3
#
#
#
# Elastic Constant Matrix: (Units=GPa)
#
#
# Indices 1 2 3 4 5 6 
#
# 1 150.3543 40.2586 64.1074 0.0000 0.0000 0.0000
# 2 40.2586 60.4842 22.5859 0.0000 0.0000 0.0000
# 3 64.1074 22.5859 105.9898 0.0000 0.0000 0.0000
# 4 0.0000 0.0000 0.0000 12.3588 0.0000 0.0000
# 5 0.0000 0.0000 0.0000 0.0000 9.8159 0.0000
# 6 0.0000 0.0000 0.0000 0.0000 0.0000 15.4643
#
#
#
# Elastic Compliance Matrix: (Units=1/GPa)
#
#
# Indices 1 2 3 4 5 6 
#
# 1 0.010114 -0.004832 -0.005088 0.000000 0.000000 0.000000
# 2 -0.004832 0.020271 -0.001397 0.000000 0.000000 0.000000
# 3 -0.005088 -0.001397 0.012810 0.000000 0.000000 0.000000
# 4 0.000000 0.000000 0.000000 0.080914 0.000000 0.000000
# 5 0.000000 0.000000 0.000000 0.000000 0.101876 0.000000
# 6 0.000000 0.000000 0.000000 0.000000 0.000000 0.064665
#
#
# Mechanical properties :
#
#
# Convention : Reuss Voigt Hill
#
# Bulk Modulus (GPa) = 48.63486 63.41468 56.02477
# Shear Modulus (GPa) = 15.61830 20.18624 17.90227
#
# Velocity S-wave (km/s) = 2.81775 3.20342 3.01675
# Velocity P-wave (km/s) = 5.94225 6.77643 6.37300
#
# Compressibility (1/GPa) = 0.02056138
#
# Stress axis : x y z
#
# Youngs Moduli (GPa) = 98.87188 49.33111 78.06486
#
# Poissons Ratio (x) = 0.23837 0.39718
# Poissons Ratio (y) = 0.47776 0.10906
# Poissons Ratio (z) = 0.50304 0.06891
#
# Static dielectric constant tensor:
#      x y z
#    x 3.701250 0.000000 0.000000 
#    y 0.000000 3.424250 0.000000 
#    z 0.000000 0.000000 3.579980 
# 
# 
# High freq. dielectric constant tensor:
#      x y z
#    x 1.772390 0.000000 0.000000 
#    y 0.000000 1.749640 0.000000 
#    z 0.000000 0.000000 1.732610 
# 
# From -- ./inp_files/13600.got.cif
#   From: 2010.03.12/outbox.cif.g09.slc.cpg/sg47_7_cif.got.tgz:13600.got - 2010.04.14 03:12:58.
