data_PCOD8198928
_publ_section_title
;
Structure prediction by ZEFSAII (Michael W. Deem and Ramdas Pophale) SiO2 
 PCOD8198928
Probable space group: P M M M
;
_chemical_formula_sum "Si O2"
_cell_formula_units_Z 48
_cell_length_a 15.459044
_cell_length_b 17.812798
_cell_length_c 8.837509
_cell_angle_alpha 90.000000
_cell_angle_beta 90.000000
_cell_angle_gamma 90.000000
_cell_volume 2433.574496
_symmetry_space_group_name_H-M "P M M M"
_symmetry_group_IT_number 47
_symmetry_cell_setting 'orthorhombic'
loop_
_space_group_symop_operation_xyz
x,y,z
-x,-y,z
x,-y,-z
-x,y,-z
-x,-y,-z
x,y,-z
-x,y,z
x,-y,z
loop_
_atom_site_type_symbol
_atom_site_label
_atom_site_fract_x
_atom_site_fract_y
_atom_site_fract_z
Si Si1 0.597308 0.199663 0.825204
Si Si2 0.597567 0.500000 0.320033
Si Si3 0.000000 0.417135 0.820414
Si Si4 0.668175 0.342101 0.678802
Si Si5 0.903566 0.837357 0.673001
Si Si6 0.150531 0.689144 0.177504
Si Si7 0.271146 0.915438 0.323752
O O1 0.500000 0.168646 0.800568
O O2 0.603178 0.280235 0.744619
O O3 0.665976 0.140447 0.763184
O O4 0.618657 0.212067 0.000000
O O5 0.500000 0.500000 0.258088
O O6 0.598413 0.500000 0.500000
O O7 0.644902 0.574904 0.258391
O O8 0.085794 0.375204 0.764966
O O9 0.000000 0.500000 0.749023
O O10 0.000000 0.419490 0.000000
O O11 0.659564 0.339978 0.500000
O O12 0.763693 0.320029 0.726693
O O13 0.893043 0.809102 0.500000
O O14 0.892829 0.768539 0.787239
O O15 0.829806 0.898437 0.710278
O O16 0.000000 0.872098 0.697165
O O17 0.170874 0.683471 0.000000
O O18 0.291482 0.906390 0.500000
O O19 0.289607 0.000000 0.268407
#
# Coordination Sequence:
#
# PCOD8198928 Si02
#       7
#     8   4   4   8   8   8   8
#     4  11  24  41  62  89 120 157 201 247 299 356
#     4   9  20  38  59  84 115 150 188 236 294 353
#     4   9  20  36  53  79 116 159 200 240 290 348
#     4  11  22  38  61  88 118 153 196 243 297 354
#     4  10  20  36  60  88 119 155 195 240 290 348
#     4  11  21  35  57  83 114 155 199 241 288 345
#     4  10  22  40  62  90 123 160 200 243 295 356
#
# _framework density 19.724073000000001
#
# number of rings (size 3 to 8) (size 9 to 14) (size 15 to 20)
#    0.000    1.667    2.500    2.000    1.167    3.000 
#    0.000    4.583    0.000    5.000    0.000    2.333 
#    0.000    0.000    0.000    0.000    0.000    0.000 
#
# Total GULP energy -595235.000775 kJ/mol
# GULP energy per Si atom -12400.729183 kJ/mol
# Density = 1.967918 g / cm^3
# Si number density = 19.724073 Si / 1000 Ang^3
#
#
#
# Elastic Constant Matrix: (Units=GPa)
#
#
# Indices 1 2 3 4 5 6 
#
# 1 127.7422 46.0032 34.9272 0.0000 0.0000 0.0000
# 2 46.0032 127.0276 43.8662 0.0000 0.0000 0.0000
# 3 34.9272 43.8662 64.4510 0.0000 0.0000 0.0000
# 4 0.0000 0.0000 0.0000 17.9026 0.0000 0.0000
# 5 0.0000 0.0000 0.0000 0.0000 21.8299 0.0000
# 6 0.0000 0.0000 0.0000 0.0000 0.0000 26.4488
#
#
#
# Elastic Compliance Matrix: (Units=1/GPa)
#
#
# Indices 1 2 3 4 5 6 
#
# 1 0.009641 -0.002206 -0.003723 0.000000 0.000000 0.000000
# 2 -0.002206 0.010796 -0.006152 0.000000 0.000000 0.000000
# 3 -0.003723 -0.006152 0.021721 0.000000 0.000000 0.000000
# 4 0.000000 0.000000 0.000000 0.055858 0.000000 0.000000
# 5 0.000000 0.000000 0.000000 0.000000 0.045809 0.000000
# 6 0.000000 0.000000 0.000000 0.000000 0.000000 0.037809
#
#
# Mechanical properties :
#
#
# Convention : Reuss Voigt Hill
#
# Bulk Modulus (GPa) = 55.57259 63.20157 59.38708
# Shear Modulus (GPa) = 23.60795 26.19788 24.90292
#
# Velocity S-wave (km/s) = 3.46339 3.64843 3.55711
# Velocity P-wave (km/s) = 6.65054 7.06119 6.85894
#
# Compressibility (1/GPa) = 0.01799448
#
# Stress axis : x y z
#
# Youngs Moduli (GPa) = 103.72836 92.62974 46.03890
#
# Poissons Ratio (x) = 0.20430 0.17141
# Poissons Ratio (y) = 0.22878 0.28325
# Poissons Ratio (z) = 0.38621 0.56990
#
# Static dielectric constant tensor:
#      x y z
#    x 3.752390 0.000000 0.000000 
#    y 0.000000 3.774350 0.000000 
#    z 0.000000 0.000000 3.430150 
# 
# 
# High freq. dielectric constant tensor:
#      x y z
#    x 1.784570 0.000000 0.000000 
#    y 0.000000 1.767630 0.000000 
#    z 0.000000 0.000000 1.753660 
# 
# From -- ./inp_files/6488.got.cif
#   From: 2010.03.12/outbox.cif.g09.slc.cpg/sg47_4_cif.got.tgz:6488.got - 2010.04.14 03:12:58.
