data_PCOD8198247
_publ_section_title
;
Structure prediction by ZEFSAII (Michael W. Deem and Ramdas Pophale) SiO2 
 PCOD8198247
Probable space group: P M M M
;
_chemical_formula_sum "Si O2"
_cell_formula_units_Z 40
_cell_length_a 9.315436
_cell_length_b 26.040881
_cell_length_c 9.052111
_cell_angle_alpha 90.000000
_cell_angle_beta 90.000000
_cell_angle_gamma 90.000000
_cell_volume 2195.880642
_symmetry_space_group_name_H-M "P M M M"
_symmetry_group_IT_number 47
_symmetry_cell_setting 'orthorhombic'
loop_
_space_group_symop_operation_xyz
x,y,z
-x,-y,z
x,-y,-z
-x,y,-z
-x,-y,-z
x,y,-z
-x,y,z
x,-y,z
loop_
_atom_site_type_symbol
_atom_site_label
_atom_site_fract_x
_atom_site_fract_y
_atom_site_fract_z
Si Si1 0.667481 0.591590 0.326827
Si Si2 0.160968 0.000000 0.323564
Si Si3 0.671227 0.791962 0.335197
Si Si4 0.670346 0.305871 0.164804
Si Si5 0.168361 0.500000 0.173374
Si Si6 0.339900 0.904376 0.323811
O O1 0.698823 0.588866 0.500000
O O2 0.500000 0.581477 0.292883
O O3 0.717730 0.646924 0.267519
O O4 0.761427 0.549893 0.244008
O O5 0.238096 0.949046 0.260914
O O6 0.164991 0.000000 0.500000
O O7 0.000000 0.000000 0.262612
O O8 0.732481 0.783108 0.500000
O O9 0.500000 0.790101 0.340721
O O10 0.733765 0.747078 0.231142
O O11 0.718076 0.848141 0.273493
O O12 0.500000 0.302305 0.160270
O O13 0.732470 0.313625 0.000000
O O14 0.000000 0.500000 0.208216
O O15 0.200071 0.500000 0.000000
O O16 0.343920 0.905334 0.500000
O O17 0.500000 0.914191 0.261930
#
# Coordination Sequence:
#
# PCOD8198247 Si02
#       6
#     8   4   8   8   4   8
#     4  10  20  34  54  79 104 131 165 203 241 284
#     4   9  15  21  31  51  80 109 136 174 224 269
#     4   8  13  22  37  58  84 114 148 184 222 269
#     4   9  16  26  43  69  98 124 151 189 237 282
#     4  11  24  39  54  74 102 135 168 203 244 288
#     4   8  13  21  34  52  76 108 143 176 213 262
#
# _framework density 18.215926
#
# number of rings (size 3 to 8) (size 9 to 14) (size 15 to 20)
#    0.000    3.000    0.000    3.300    0.000    6.800 
#    0.000    0.000    0.000    1.200    0.000    3.500 
#    0.000    5.600    0.000    0.000    0.000    0.000 
#
# Total GULP energy -495807.242774 kJ/mol
# GULP energy per Si atom -12395.181069 kJ/mol
# Density = 1.817447 g / cm^3
# Si number density = 18.215926 Si / 1000 Ang^3
#
#
#
# Elastic Constant Matrix: (Units=GPa)
#
#
# Indices 1 2 3 4 5 6 
#
# 1 64.4212 65.6997 36.7216 0.0000 0.0000 0.0000
# 2 65.6997 194.0545 65.4326 0.0000 0.0000 0.0000
# 3 36.7216 65.4326 87.1740 0.0000 0.0000 0.0000
# 4 0.0000 0.0000 0.0000 1.4904 0.0000 0.0000
# 5 0.0000 0.0000 0.0000 0.0000 12.5476 0.0000
# 6 0.0000 0.0000 0.0000 0.0000 0.0000 -0.2417
#
#
#
# Elastic Compliance Matrix: (Units=1/GPa)
#
#
# Indices 1 2 3 4 5 6 
#
# 1 0.025695 -0.006761 -0.005749 0.000000 0.000000 0.000000
# 2 -0.006761 0.008678 -0.003666 0.000000 0.000000 0.000000
# 3 -0.005749 -0.003666 0.016645 0.000000 0.000000 0.000000
# 4 0.000000 0.000000 0.000000 0.670977 0.000000 0.000000
# 5 0.000000 0.000000 0.000000 0.000000 0.079697 0.000000
# 6 0.000000 0.000000 0.000000 0.000000 0.000000 -4.138109
#
#
# Mechanical properties :
#
#
# Convention : Reuss Voigt Hill
#
# Bulk Modulus (GPa) = 53.57303 75.70639 64.63971
# Shear Modulus (GPa) = -1.51614 14.61231 6.54809
#
# Velocity S-wave (km/s) = -0.91330 2.83534 1.89803
# Velocity P-wave (km/s) = 5.32557 7.23669 6.35340
#
# Compressibility (1/GPa) = 0.01866611
#
# Stress axis : x y z
#
# Youngs Moduli (GPa) = 38.91807 115.23054 60.07886
#
# Poissons Ratio (x) = 0.77905 0.34541
# Poissons Ratio (y) = 0.26312 0.22024
# Poissons Ratio (z) = 0.22375 0.42243
#
# Static dielectric constant tensor:
#      x y z
#    x 2.992530 0.000000 0.000000 
#    y 0.000000 3.790370 0.000000 
#    z 0.000000 0.000000 3.213680 
# 
# 
# High freq. dielectric constant tensor:
#      x y z
#    x 1.652590 0.000000 0.000000 
#    y 0.000000 1.729650 0.000000 
#    z 0.000000 0.000000 1.677120 
# 
# From -- ./inp_files/1847.got.cif
#   From: 2010.03.12/outbox.cif.g09.slc.cpg/sg47_1_cif.got.tgz:1847.got - 2010.04.14 03:12:58.
