data_PCOD8198425
_publ_section_title
;
Structure prediction by ZEFSAII (Michael W. Deem and Ramdas Pophale) SiO2 
 PCOD8198425
Probable space group: P M M M
;
_chemical_formula_sum "Si O2"
_cell_formula_units_Z 56
_cell_length_a 13.270284
_cell_length_b 21.138509
_cell_length_c 9.530853
_cell_angle_alpha 90.000000
_cell_angle_beta 90.000000
_cell_angle_gamma 90.000000
_cell_volume 2673.537868
_symmetry_space_group_name_H-M "P M M M"
_symmetry_group_IT_number 47
_symmetry_cell_setting 'orthorhombic'
loop_
_space_group_symop_operation_xyz
x,y,z
-x,-y,z
x,-y,-z
-x,y,-z
-x,-y,-z
x,y,-z
-x,y,z
x,-y,z
loop_
_atom_site_type_symbol
_atom_site_label
_atom_site_fract_x
_atom_site_fract_y
_atom_site_fract_z
Si Si1 0.112468 0.300031 0.340965
Si Si2 0.380720 0.883607 0.840041
Si Si3 0.120332 0.816157 0.158956
Si Si4 0.620418 0.000000 0.340048
Si Si5 0.880217 0.929869 0.342116
Si Si6 0.303455 0.630613 0.660453
Si Si7 0.381433 0.743325 0.155254
Si Si8 0.614786 0.500000 0.666486
O O1 0.113474 0.273400 0.500000
O O2 0.158625 0.246438 0.239359
O O3 0.182548 0.361916 0.328050
O O4 0.000000 0.320151 0.295953
O O5 0.500000 0.881324 0.818121
O O6 0.335497 0.936589 0.734473
O O7 0.334518 0.813111 0.806999
O O8 0.355367 0.902950 0.000000
O O9 0.165023 0.879392 0.231414
O O10 0.000000 0.816970 0.168924
O O11 0.159123 0.814013 0.000000
O O12 0.500000 0.000000 0.329867
O O13 0.658199 0.000000 0.500000
O O14 0.853813 0.907943 0.500000
O O15 0.000000 0.933435 0.324232
O O16 0.834228 0.000000 0.312585
O O17 0.340804 0.632707 0.500000
O O18 0.355773 0.689308 0.734847
O O19 0.333015 0.563184 0.728768
O O20 0.500000 0.752663 0.153465
O O21 0.343823 0.722971 0.000000
O O22 0.500000 0.500000 0.716090
O O23 0.626159 0.500000 0.500000
#
# Coordination Sequence:
#
# PCOD8198425 Si02
#       8
#     8   8   8   4   8   8   8   4
#     4   9  18  33  51  72 101 136 176 222 267 313
#     4   8  14  25  40  59  89 131 172 207 251 310
#     4   9  16  25  40  64  92 124 165 214 267 318
#     4   9  15  21  33  59  93 127 168 217 260 299
#     4   8  13  21  34  55  86 124 164 207 260 322
#     4  10  20  34  55  81 106 140 181 216 258 315
#     4   9  18  32  50  75 107 140 175 217 264 314
#     4   9  18  34  56  84 118 147 171 207 258 315
#
# _framework density 20.94603
#
# number of rings (size 3 to 8) (size 9 to 14) (size 15 to 20)
#    0.000    3.143    0.000    2.357    0.000    4.857 
#    0.000    3.571    0.000    3.429    1.857    0.000 
#    0.000    3.429    0.000    0.000    0.000    0.000 
#
# Total GULP energy -694269.820280 kJ/mol
# GULP energy per Si atom -12397.675362 kJ/mol
# Density = 2.089836 g / cm^3
# Si number density = 20.946030 Si / 1000 Ang^3
#
#
#
# Elastic Constant Matrix: (Units=GPa)
#
#
# Indices 1 2 3 4 5 6 
#
# 1 32.3271 51.1437 20.7295 0.0000 0.0000 0.0000
# 2 51.1437 189.8860 87.0061 0.0000 0.0000 0.0000
# 3 20.7295 87.0061 112.4764 0.0000 0.0000 0.0000
# 4 0.0000 0.0000 0.0000 22.2353 0.0000 0.0000
# 5 0.0000 0.0000 0.0000 0.0000 12.6594 0.0000
# 6 0.0000 0.0000 0.0000 0.0000 0.0000 35.3516
#
#
#
# Elastic Compliance Matrix: (Units=1/GPa)
#
#
# Indices 1 2 3 4 5 6 
#
# 1 0.054197 -0.015522 0.002019 0.000000 0.000000 0.000000
# 2 -0.015522 0.012603 -0.006889 0.000000 0.000000 0.000000
# 3 0.002019 -0.006889 0.013847 0.000000 0.000000 0.000000
# 4 0.000000 0.000000 0.000000 0.044974 0.000000 0.000000
# 5 0.000000 0.000000 0.000000 0.000000 0.078993 0.000000
# 6 0.000000 0.000000 0.000000 0.000000 0.000000 0.028287
#
#
# Mechanical properties :
#
#
# Convention : Reuss Voigt Hill
#
# Bulk Modulus (GPa) = 25.08580 72.49425 48.79002
# Shear Modulus (GPa) = 17.42323 25.76994 21.59658
#
# Velocity S-wave (km/s) = 2.88725 3.51137 3.21449
# Velocity P-wave (km/s) = 4.80805 7.15016 6.09271
#
# Compressibility (1/GPa) = 0.03986320
#
# Stress axis : x y z
#
# Youngs Moduli (GPa) = 18.45133 79.34327 72.21575
#
# Poissons Ratio (x) = 1.23159 -0.14579
# Poissons Ratio (y) = 0.28641 0.49747
# Poissons Ratio (z) = -0.03725 0.54657
#
# Static dielectric constant tensor:
#      x y z
#    x 3.747840 0.000000 0.000000 
#    y 0.000000 3.898340 0.000000 
#    z 0.000000 0.000000 3.696230 
# 
# 
# High freq. dielectric constant tensor:
#      x y z
#    x 1.838910 0.000000 0.000000 
#    y 0.000000 1.805920 0.000000 
#    z 0.000000 0.000000 1.801650 
# 
# From -- ./inp_files/7457.got.cif
#   From: 2010.03.12/outbox.cif.g09.slc.cpg/sg47_4_cif.got.tgz:7457.got - 2010.04.14 03:12:58.
