data_PCOD8198575
_publ_section_title
;
Structure prediction by ZEFSAII (Michael W. Deem and Ramdas Pophale) SiO2 
 PCOD8198575
Probable space group: P M M M
;
_chemical_formula_sum "Si O2"
_cell_formula_units_Z 44
_cell_length_a 10.853142
_cell_length_b 8.939049
_cell_length_c 24.249536
_cell_angle_alpha 90.000000
_cell_angle_beta 90.000000
_cell_angle_gamma 90.000000
_cell_volume 2352.611612
_symmetry_space_group_name_H-M "P M M M"
_symmetry_group_IT_number 47
_symmetry_cell_setting 'orthorhombic'
loop_
_space_group_symop_operation_xyz
x,y,z
-x,-y,z
x,-y,-z
-x,y,-z
-x,-y,-z
x,y,-z
-x,y,z
x,-y,z
loop_
_atom_site_type_symbol
_atom_site_label
_atom_site_fract_x
_atom_site_fract_y
_atom_site_fract_z
Si Si1 0.500000 0.676860 0.063184
Si Si2 0.142941 0.664721 0.060112
Si Si3 0.359291 0.176809 0.360477
Si Si4 0.862467 0.177506 0.562112
Si Si5 0.294368 0.173389 0.136360
Si Si6 0.356579 0.330191 0.755003
O O1 0.500000 0.500000 0.066506
O O2 0.616435 0.738572 0.095564
O O3 0.500000 0.733391 0.000000
O O4 0.194129 0.500000 0.078101
O O5 0.165383 0.791875 0.106591
O O6 0.000000 0.653740 0.052222
O O7 0.201646 0.706364 0.000000
O O8 0.500000 0.217778 0.380148
O O9 0.253639 0.238080 0.402203
O O10 0.328381 0.254287 0.303059
O O11 0.348408 0.000000 0.352647
O O12 0.844336 0.238170 0.500000
O O13 0.000000 0.228025 0.583705
O O14 0.857478 0.000000 0.562147
O O15 0.288020 0.237411 0.197942
O O16 0.328175 0.000000 0.139412
O O17 0.500000 0.324987 0.769228
O O18 0.307799 0.500000 0.753428
#
# Coordination Sequence:
#
# PCOD8198575 Si02
#       6
#     4   8   8   8   8   8
#     4  11  23  37  53  75 105 139 172 207 254 317
#     4   9  19  37  58  76  98 133 173 210 254 314
#     4   9  17  29  48  75 104 132 171 223 268 306
#     4   8  14  26  46  74 108 143 174 207 257 319
#     4  12  23  34  53  79 106 133 167 216 267 314
#     4  10  20  35  54  72  97 136 177 213 258 317
#
# _framework density 18.702621000000001
#
# number of rings (size 3 to 8) (size 9 to 14) (size 15 to 20)
#    0.000    2.273    0.909    4.091    0.000    4.727 
#    0.000    3.636    0.000    4.364    0.000    3.818 
#    0.000    0.000    0.000    0.000    0.000    0.000 
#
# Total GULP energy -545190.373899 kJ/mol
# GULP energy per Si atom -12390.690316 kJ/mol
# Density = 1.866005 g / cm^3
# Si number density = 18.702621 Si / 1000 Ang^3
#
#
#
# Elastic Constant Matrix: (Units=GPa)
#
#
# Indices 1 2 3 4 5 6 
#
# 1 92.0668 29.9272 67.4952 0.0000 0.0000 0.0000
# 2 29.9272 68.9922 47.3459 0.0000 0.0000 0.0000
# 3 67.4952 47.3459 131.8857 0.0000 0.0000 0.0000
# 4 0.0000 0.0000 0.0000 12.4809 0.0000 0.0000
# 5 0.0000 0.0000 0.0000 0.0000 -38.2946 0.0000
# 6 0.0000 0.0000 0.0000 0.0000 0.0000 9.9271
#
#
#
# Elastic Compliance Matrix: (Units=1/GPa)
#
#
# Indices 1 2 3 4 5 6 
#
# 1 0.017575 -0.001926 -0.008303 0.000000 0.000000 0.000000
# 2 -0.001926 0.019443 -0.005995 0.000000 0.000000 0.000000
# 3 -0.008303 -0.005995 0.013983 0.000000 0.000000 0.000000
# 4 0.000000 0.000000 0.000000 0.080123 0.000000 0.000000
# 5 0.000000 0.000000 0.000000 0.000000 -0.026113 0.000000
# 6 0.000000 0.000000 0.000000 0.000000 0.000000 0.100735
#
#
# Mechanical properties :
#
#
# Convention : Reuss Voigt Hill
#
# Bulk Modulus (GPa) = 53.89260 64.72014 59.30637
# Shear Modulus (GPa) = 20.46024 6.70110 13.58067
#
# Velocity S-wave (km/s) = 3.31112 1.89493 2.69762
# Velocity P-wave (km/s) = 6.59516 6.28233 6.44064
#
# Compressibility (1/GPa) = 0.01855542
#
# Stress axis : x y z
#
# Youngs Moduli (GPa) = 56.90053 51.43121 71.51292
#
# Poissons Ratio (x) = 0.09903 0.59376
# Poissons Ratio (y) = 0.10957 0.42869
# Poissons Ratio (z) = 0.47244 0.30831
#
# Static dielectric constant tensor:
#      x y z
#    x 3.988990 0.000000 0.000000 
#    y 0.000000 3.259810 0.000000 
#    z 0.000000 0.000000 3.516400 
# 
# 
# High freq. dielectric constant tensor:
#      x y z
#    x 1.721420 0.000000 0.000000 
#    y 0.000000 1.704750 0.000000 
#    z 0.000000 0.000000 1.725490 
# 
# From -- ./inp_files/31860.got.cif
#   From: 2010.03.12/outbox.cif.g09.slc.cpg/sg47_16_cif.got.tgz:31860.got - 2010.04.14 03:12:58.
