data_PCOD8198346
_publ_section_title
;
Structure prediction by ZEFSAII (Michael W. Deem and Ramdas Pophale) SiO2 
 PCOD8198346
Probable space group: P M M M
;
_chemical_formula_sum "Si O2"
_cell_formula_units_Z 44
_cell_length_a 8.118238
_cell_length_b 14.142321
_cell_length_c 19.155620
_cell_angle_alpha 90.000000
_cell_angle_beta 90.000000
_cell_angle_gamma 90.000000
_cell_volume 2199.270673
_symmetry_space_group_name_H-M "P M M M"
_symmetry_group_IT_number 47
_symmetry_cell_setting 'orthorhombic'
loop_
_space_group_symop_operation_xyz
x,y,z
-x,-y,z
x,-y,-z
-x,y,-z
-x,-y,-z
x,y,-z
-x,y,z
x,-y,z
loop_
_atom_site_type_symbol
_atom_site_label
_atom_site_fract_x
_atom_site_fract_y
_atom_site_fract_z
Si Si1 0.194016 0.106963 0.921075
Si Si2 0.500000 0.112808 0.579112
Si Si3 0.309864 0.396217 0.278837
Si Si4 0.817322 0.888401 0.338176
Si Si5 0.308785 0.788374 0.791190
Si Si6 0.812850 0.387942 0.575159
O O1 0.281902 0.182499 0.871165
O O2 0.000000 0.116371 0.912572
O O3 0.249981 0.000000 0.902548
O O4 0.247583 0.131359 0.000000
O O5 0.500000 0.148328 0.500000
O O6 0.668184 0.153414 0.614561
O O7 0.500000 0.000000 0.584073
O O8 0.500000 0.412655 0.267234
O O9 0.222141 0.500000 0.269684
O O10 0.245441 0.319603 0.222340
O O11 0.282411 0.351079 0.356316
O O12 0.793347 0.858503 0.257982
O O13 0.000000 0.854225 0.363970
O O14 0.810462 0.000000 0.341121
O O15 0.500000 0.796292 0.771326
O O16 0.740845 0.350965 0.500000
O O17 0.800326 0.500000 0.574952
O O18 0.000000 0.353959 0.582116
#
# Coordination Sequence:
#
# PCOD8198346 Si02
#       6
#     8   4   8   8   8   8
#     4   9  19  36  57  83 114 143 171 210 266 332
#     4   9  18  34  54  76 106 144 188 235 276 324
#     4   9  19  34  50  71 101 139 183 228 274 323
#     4  10  20  34  54  80 109 142 181 227 281 335
#     4  11  21  33  53  79 109 144 182 226 272 324
#     4   8  14  26  45  68  93 122 161 215 275 326
#
# _framework density 20.006633000000001
#
# number of rings (size 3 to 8) (size 9 to 14) (size 15 to 20)
#    0.000    2.636    0.909    2.182    0.000    5.091 
#    0.000    5.455    0.000    0.545    0.000    3.818 
#    0.000    0.000    0.000    0.000    0.000    0.000 
#
# Total GULP energy -545194.149584 kJ/mol
# GULP energy per Si atom -12390.776127 kJ/mol
# Density = 1.996110 g / cm^3
# Si number density = 20.006633 Si / 1000 Ang^3
#
#
#
# Elastic Constant Matrix: (Units=GPa)
#
#
# Indices 1 2 3 4 5 6 
#
# 1 88.1304 25.9779 37.2190 0.0000 0.0000 0.0000
# 2 25.9779 64.0096 65.1278 0.0000 0.0000 0.0000
# 3 37.2190 65.1278 137.0180 0.0000 0.0000 0.0000
# 4 0.0000 0.0000 0.0000 26.5523 0.0000 0.0000
# 5 0.0000 0.0000 0.0000 0.0000 29.4229 0.0000
# 6 0.0000 0.0000 0.0000 0.0000 0.0000 11.0137
#
#
#
# Elastic Compliance Matrix: (Units=1/GPa)
#
#
# Indices 1 2 3 4 5 6 
#
# 1 0.013168 -0.003301 -0.002008 0.000000 0.000000 0.000000
# 2 -0.003301 0.031082 -0.013877 0.000000 0.000000 0.000000
# 3 -0.002008 -0.013877 0.014440 0.000000 0.000000 0.000000
# 4 0.000000 0.000000 0.000000 0.037662 0.000000 0.000000
# 5 0.000000 0.000000 0.000000 0.000000 0.033987 0.000000
# 6 0.000000 0.000000 0.000000 0.000000 0.000000 0.090796
#
#
# Mechanical properties :
#
#
# Convention : Reuss Voigt Hill
#
# Bulk Modulus (GPa) = 49.21925 60.64530 54.93227
# Shear Modulus (GPa) = 18.77725 24.12000 21.44863
#
# Velocity S-wave (km/s) = 3.06690 3.47594 3.27781
# Velocity P-wave (km/s) = 6.09886 6.81821 6.46854
#
# Compressibility (1/GPa) = 0.02031726
#
# Stress axis : x y z
#
# Youngs Moduli (GPa) = 75.94277 32.17267 69.25263
#
# Poissons Ratio (x) = 0.10621 0.13903
# Poissons Ratio (y) = 0.25071 0.96104
# Poissons Ratio (z) = 0.15247 0.44647
#
# Static dielectric constant tensor:
#      x y z
#    x 3.711870 0.000000 0.000000 
#    y 0.000000 3.740660 0.000000 
#    z 0.000000 0.000000 3.297180 
# 
# 
# High freq. dielectric constant tensor:
#      x y z
#    x 1.774330 0.000000 0.000000 
#    y 0.000000 1.767790 0.000000 
#    z 0.000000 0.000000 1.761960 
# 
# From -- ./inp_files/8986.got.cif
#   From: 2010.03.12/outbox.cif.g09.slc.cpg/sg47_5_cif.got.tgz:8986.got - 2010.04.14 03:12:58.
