data_PCOD8198231
_publ_section_title
;
Structure prediction by ZEFSAII (Michael W. Deem and Ramdas Pophale) SiO2 
 PCOD8198231
Probable space group: P M M M
;
_chemical_formula_sum "Si O2"
_cell_formula_units_Z 64
_cell_length_a 9.008481
_cell_length_b 20.597244
_cell_length_c 18.535664
_cell_angle_alpha 90.000000
_cell_angle_beta 90.000000
_cell_angle_gamma 90.000000
_cell_volume 3439.290254
_symmetry_space_group_name_H-M "P M M M"
_symmetry_group_IT_number 47
_symmetry_cell_setting 'orthorhombic'
loop_
_space_group_symop_operation_xyz
x,y,z
-x,-y,z
x,-y,-z
-x,y,-z
-x,-y,-z
x,y,-z
-x,y,z
x,-y,z
loop_
_atom_site_type_symbol
_atom_site_label
_atom_site_fract_x
_atom_site_fract_y
_atom_site_fract_z
Si Si1 0.824790 0.820239 0.419665
Si Si2 0.827880 0.812614 0.083123
Si Si3 0.332113 0.569143 0.322687
Si Si4 0.325998 0.074738 0.840747
Si Si5 0.172649 0.571392 0.175711
Si Si6 0.671769 0.300621 0.169650
Si Si7 0.667328 0.292342 0.340198
Si Si8 0.172907 0.074151 0.692363
O O1 0.755687 0.824890 0.500000
O O2 0.778781 0.753812 0.381635
O O3 0.769084 0.881729 0.373417
O O4 0.000000 0.820904 0.424613
O O5 0.751074 0.881641 0.098759
O O6 0.757186 0.757005 0.131265
O O7 0.000000 0.818613 0.102641
O O8 0.802502 0.795015 0.000000
O O9 0.500000 0.575419 0.289561
O O10 0.318941 0.500000 0.366025
O O11 0.212436 0.567650 0.259638
O O12 0.306026 0.633848 0.370659
O O13 0.500000 0.088279 0.841055
O O14 0.264483 0.094664 0.762562
O O15 0.288377 0.000000 0.858286
O O16 0.207662 0.500000 0.140697
O O17 0.266019 0.630164 0.140112
O O18 0.000000 0.588090 0.167295
O O19 0.500000 0.295974 0.149328
O O20 0.699978 0.293102 0.254888
O O21 0.500000 0.268732 0.355683
O O22 0.000000 0.085981 0.708994
O O23 0.204224 0.000000 0.670380
#
# Coordination Sequence:
#
# PCOD8198231 Si02
#       8
#     8   8   8   8   8   8   8   8
#     4  10  21  34  48  70 100 133 168 207 252 301
#     4  11  24  39  55  77 106 139 174 213 256 303
#     4   8  14  26  44  67  96 127 162 208 257 302
#     4  10  21  37  58  83 109 136 168 208 252 302
#     4   9  16  26  44  73 106 136 168 209 257 307
#     4  10  20  34  54  78 104 136 174 216 260 308
#     4   9  18  31  49  74  99 127 165 206 250 300
#     4   9  18  34  56  78 100 130 168 209 252 298
#
# _framework density 18.608491000000001
#
# number of rings (size 3 to 8) (size 9 to 14) (size 15 to 20)
#    0.000    2.500    0.000    3.000    0.000    8.250 
#    0.000    2.500    0.000    0.750    0.000    7.875 
#    0.000    0.000    0.000    0.000    0.000    0.000 
#
# Total GULP energy -793252.765627 kJ/mol
# GULP energy per Si atom -12394.574463 kJ/mol
# Density = 1.856614 g / cm^3
# Si number density = 18.608491 Si / 1000 Ang^3
#
#
#
# Elastic Constant Matrix: (Units=GPa)
#
#
# Indices 1 2 3 4 5 6 
#
# 1 64.3624 37.4887 25.3369 0.0000 0.0000 0.0000
# 2 37.4887 120.8227 34.0725 0.0000 0.0000 0.0000
# 3 25.3369 34.0725 46.5697 0.0000 0.0000 0.0000
# 4 0.0000 0.0000 0.0000 2.7614 0.0000 0.0000
# 5 0.0000 0.0000 0.0000 0.0000 13.1308 0.0000
# 6 0.0000 0.0000 0.0000 0.0000 0.0000 33.9637
#
#
#
# Elastic Compliance Matrix: (Units=1/GPa)
#
#
# Indices 1 2 3 4 5 6 
#
# 1 0.021353 -0.004220 -0.008530 0.000000 0.000000 0.000000
# 2 -0.004220 0.011262 -0.005944 0.000000 0.000000 0.000000
# 3 -0.008530 -0.005944 0.030463 0.000000 0.000000 0.000000
# 4 0.000000 0.000000 0.000000 0.362132 0.000000 0.000000
# 5 0.000000 0.000000 0.000000 0.000000 0.076157 0.000000
# 6 0.000000 0.000000 0.000000 0.000000 0.000000 0.029443
#
#
# Mechanical properties :
#
#
# Convention : Reuss Voigt Hill
#
# Bulk Modulus (GPa) = 38.92506 47.28344 43.10425
# Shear Modulus (GPa) = 8.66911 18.96164 13.81538
#
# Velocity S-wave (km/s) = 2.16074 3.19561 2.72770
# Velocity P-wave (km/s) = 5.21425 6.25145 5.75626
#
# Compressibility (1/GPa) = 0.02569039
#
# Stress axis : x y z
#
# Youngs Moduli (GPa) = 46.83228 88.79283 32.82678
#
# Poissons Ratio (x) = 0.37469 0.28001
# Poissons Ratio (y) = 0.19763 0.19512
# Poissons Ratio (z) = 0.39947 0.52779
#
# Static dielectric constant tensor:
#      x y z
#    x 3.429760 0.000000 0.000000 
#    y 0.000000 3.865160 0.000000 
#    z 0.000000 0.000000 3.112270 
# 
# 
# High freq. dielectric constant tensor:
#      x y z
#    x 1.725170 0.000000 0.000000 
#    y 0.000000 1.747830 0.000000 
#    z 0.000000 0.000000 1.673550 
# 
# From -- ./inp_files/11579.got.cif
#   From: 2010.03.12/outbox.cif.g09.slc.cpg/sg47_6_cif.got.tgz:11579.got - 2010.04.14 03:12:58.
