data_PCOD8198720
_publ_section_title
;
Structure prediction by ZEFSAII (Michael W. Deem and Ramdas Pophale) SiO2 
 PCOD8198720
Probable space group: P M M M
;
_chemical_formula_sum "Si O2"
_cell_formula_units_Z 52
_cell_length_a 14.198718
_cell_length_b 20.659933
_cell_length_c 9.057499
_cell_angle_alpha 90.000000
_cell_angle_beta 90.000000
_cell_angle_gamma 90.000000
_cell_volume 2656.968082
_symmetry_space_group_name_H-M "P M M M"
_symmetry_group_IT_number 47
_symmetry_cell_setting 'orthorhombic'
loop_
_space_group_symop_operation_xyz
x,y,z
-x,-y,z
x,-y,-z
-x,y,-z
-x,-y,-z
x,y,-z
-x,y,z
x,-y,z
loop_
_atom_site_type_symbol
_atom_site_label
_atom_site_fract_x
_atom_site_fract_y
_atom_site_fract_z
Si Si1 0.391761 0.000000 0.825307
Si Si2 0.391533 0.753106 0.667891
Si Si3 0.106205 0.814307 0.328357
Si Si4 0.223268 0.427363 0.329828
Si Si5 0.288024 0.884121 0.670283
Si Si6 0.889148 0.683489 0.831466
Si Si7 0.392344 0.624207 0.826638
O O1 0.334745 0.937830 0.771464
O O2 0.500000 0.000000 0.765747
O O3 0.392284 0.000000 0.000000
O O4 0.370573 0.731406 0.500000
O O5 0.500000 0.770750 0.690528
O O6 0.334139 0.816147 0.711259
O O7 0.360096 0.695874 0.776843
O O8 0.110775 0.795747 0.500000
O O9 0.176130 0.874930 0.296255
O O10 0.141870 0.751092 0.241579
O O11 0.000000 0.834571 0.281293
O O12 0.231189 0.407551 0.500000
O O13 0.182711 0.500000 0.312041
O O14 0.155196 0.377630 0.249314
O O15 0.327087 0.426891 0.257256
O O16 0.305490 0.903244 0.500000
O O17 0.000000 0.675211 0.818069
O O18 0.854587 0.683844 0.000000
O O19 0.500000 0.611014 0.779793
O O20 0.378054 0.617230 0.000000
#
# Coordination Sequence:
#
# PCOD8198720 Si02
#       7
#     4   8   8   8   8   8   8
#     4  11  25  41  56  79 112 148 185 227 276 327
#     4   9  17  30  51  79 107 136 176 225 272 322
#     4   9  18  34  58  88 118 146 180 223 269 318
#     4  11  24  39  55  76 104 143 189 232 275 328
#     4  10  20  35  57  82 109 146 187 223 263 314
#     4  10  21  37  59  87 116 145 178 222 278 334
#     4  10  21  36  55  80 109 141 178 225 282 338
#
# _framework density 19.571182
#
# number of rings (size 3 to 8) (size 9 to 14) (size 15 to 20)
#    0.000    2.077    0.000    3.000    0.000    7.385 
#    0.000    5.000    0.000    2.308    0.000    0.000 
#    0.000    0.000    0.000    0.000    0.000    0.000 
#
# Total GULP energy -644851.164994 kJ/mol
# GULP energy per Si atom -12400.983942 kJ/mol
# Density = 1.952664 g / cm^3
# Si number density = 19.571182 Si / 1000 Ang^3
#
#
#
# Elastic Constant Matrix: (Units=GPa)
#
#
# Indices 1 2 3 4 5 6 
#
# 1 78.3573 54.4007 36.3871 0.0000 0.0000 0.0000
# 2 54.4007 83.7082 50.0017 0.0000 0.0000 0.0000
# 3 36.3871 50.0017 98.3917 0.0000 0.0000 0.0000
# 4 0.0000 0.0000 0.0000 5.0006 0.0000 0.0000
# 5 0.0000 0.0000 0.0000 0.0000 29.1546 0.0000
# 6 0.0000 0.0000 0.0000 0.0000 0.0000 25.4810
#
#
#
# Elastic Compliance Matrix: (Units=1/GPa)
#
#
# Indices 1 2 3 4 5 6 
#
# 1 0.023374 -0.014398 -0.001328 0.000000 0.000000 0.000000
# 2 -0.014398 0.026022 -0.007899 0.000000 0.000000 0.000000
# 3 -0.001328 -0.007899 0.014669 0.000000 0.000000 0.000000
# 4 0.000000 0.000000 0.000000 0.199975 0.000000 0.000000
# 5 0.000000 0.000000 0.000000 0.000000 0.034300 0.000000
# 6 0.000000 0.000000 0.000000 0.000000 0.000000 0.039245
#
#
# Mechanical properties :
#
#
# Convention : Reuss Voigt Hill
#
# Bulk Modulus (GPa) = 59.46861 60.22624 59.84743
# Shear Modulus (GPa) = 12.80610 19.90510 16.35560
#
# Velocity S-wave (km/s) = 2.56077 3.19260 2.89398
# Velocity P-wave (km/s) = 6.26060 6.66558 6.46626
#
# Compressibility (1/GPa) = 0.01681559
#
# Stress axis : x y z
#
# Youngs Moduli (GPa) = 42.78213 38.42965 68.17189
#
# Poissons Ratio (x) = 0.55329 0.09050
# Poissons Ratio (y) = 0.61596 0.53852
# Poissons Ratio (z) = 0.05680 0.30357
#
# Static dielectric constant tensor:
#      x y z
#    x 3.881820 0.000000 0.000000 
#    y 0.000000 3.573500 0.000000 
#    z 0.000000 0.000000 3.598820 
# 
# 
# High freq. dielectric constant tensor:
#      x y z
#    x 1.776760 0.000000 0.000000 
#    y 0.000000 1.747230 0.000000 
#    z 0.000000 0.000000 1.762220 
# 
# From -- ./inp_files/7090.got.cif
#   From: 2010.03.12/outbox.cif.g09.slc.cpg/sg47_4_cif.got.tgz:7090.got - 2010.04.14 03:12:58.
