data_PCOD8198876
_publ_section_title
;
Structure prediction by ZEFSAII (Michael W. Deem and Ramdas Pophale) SiO2 
 PCOD8198876
Probable space group: P M M M
;
_chemical_formula_sum "Si O2"
_cell_formula_units_Z 48
_cell_length_a 18.343152
_cell_length_b 14.384495
_cell_length_c 9.675576
_cell_angle_alpha 90.000000
_cell_angle_beta 90.000000
_cell_angle_gamma 90.000000
_cell_volume 2552.968246
_symmetry_space_group_name_H-M "P M M M"
_symmetry_group_IT_number 47
_symmetry_cell_setting 'orthorhombic'
loop_
_space_group_symop_operation_xyz
x,y,z
-x,-y,z
x,-y,-z
-x,y,-z
-x,-y,-z
x,y,-z
-x,y,z
x,-y,z
loop_
_atom_site_type_symbol
_atom_site_label
_atom_site_fract_x
_atom_site_fract_y
_atom_site_fract_z
Si Si1 0.916447 0.397808 0.000000
Si Si2 0.084427 0.389413 0.500000
Si Si3 0.678282 0.324156 0.162789
Si Si4 0.816528 0.896961 0.343427
Si Si5 0.582105 0.500000 0.838173
Si Si6 0.157689 0.301159 0.760426
Si Si7 0.650491 0.149496 0.341412
Si Si8 0.416646 0.000000 0.152842
O O1 0.899801 0.333559 0.871251
O O2 0.876353 0.500000 0.000000
O O3 0.000000 0.421031 0.000000
O O4 0.085351 0.500000 0.500000
O O5 0.131686 0.350413 0.623617
O O6 0.000000 0.354379 0.500000
O O7 0.629904 0.411889 0.206029
O O8 0.763400 0.339791 0.194945
O O9 0.648987 0.248199 0.268073
O O10 0.668997 0.298044 0.000000
O O11 0.844824 0.882690 0.500000
O O12 0.845884 0.811759 0.250548
O O13 0.729669 0.896176 0.341428
O O14 0.841627 0.000000 0.289036
O O15 0.500000 0.500000 0.771185
O O16 0.571544 0.500000 0.000000
O O17 0.621802 0.156921 0.500000
O O18 0.599097 0.088955 0.245643
O O19 0.500000 0.000000 0.117010
O O20 0.376411 0.000000 0.000000
#
# Coordination Sequence:
#
# PCOD8198876 Si02
#       8
#     4   4   8   8   4   8   8   4
#     4  11  24  40  61  87 125 165 195 244 313 369
#     4  11  24  40  59  87 125 161 199 250 311 375
#     4  10  21  36  59  88 119 155 201 254 299 357
#     4   9  17  34  59  85 116 149 193 246 299 348
#     4   9  20  38  59  83 114 159 203 245 303 363
#     4  11  21  37  60  92 118 158 208 251 301 362
#     4  10  20  36  57  85 114 151 196 249 303 356
#     4  11  23  37  55  81 117 159 196 243 306 373
#
# _framework density 18.801642999999999
#
# number of rings (size 3 to 8) (size 9 to 14) (size 15 to 20)
#    0.000    1.833    2.500    1.750    3.500    2.667 
#    0.000    2.500    0.000    3.500    0.000    0.000 
#    0.000    0.000    0.000    0.000    0.000    0.000 
#
# Total GULP energy -594768.851467 kJ/mol
# GULP energy per Si atom -12391.017739 kJ/mol
# Density = 1.875885 g / cm^3
# Si number density = 18.801643 Si / 1000 Ang^3
#
#
#
# Elastic Constant Matrix: (Units=GPa)
#
#
# Indices 1 2 3 4 5 6 
#
# 1 65.2433 46.8694 33.7413 0.0000 0.0000 0.0000
# 2 46.8694 140.5075 59.7858 0.0000 0.0000 0.0000
# 3 33.7413 59.7858 145.0645 0.0000 0.0000 0.0000
# 4 0.0000 0.0000 0.0000 22.9179 0.0000 0.0000
# 5 0.0000 0.0000 0.0000 0.0000 57.4412 0.0000
# 6 0.0000 0.0000 0.0000 0.0000 0.0000 18.0436
#
#
#
# Elastic Compliance Matrix: (Units=1/GPa)
#
#
# Indices 1 2 3 4 5 6 
#
# 1 0.020826 -0.005925 -0.002402 0.000000 0.000000 0.000000
# 2 -0.005925 0.010316 -0.002874 0.000000 0.000000 0.000000
# 3 -0.002402 -0.002874 0.008636 0.000000 0.000000 0.000000
# 4 0.000000 0.000000 0.000000 0.043634 0.000000 0.000000
# 5 0.000000 0.000000 0.000000 0.000000 0.017409 0.000000
# 6 0.000000 0.000000 0.000000 0.000000 0.000000 0.055421
#
#
# Mechanical properties :
#
#
# Convention : Reuss Voigt Hill
#
# Bulk Modulus (GPa) = 57.54597 70.17869 63.86233
# Shear Modulus (GPa) = 27.10965 33.70847 30.40906
#
# Velocity S-wave (km/s) = 3.80132 4.23880 4.02601
# Velocity P-wave (km/s) = 7.06683 7.83348 7.46001
#
# Compressibility (1/GPa) = 0.01737741
#
# Stress axis : x y z
#
# Youngs Moduli (GPa) = 48.01731 96.93605 115.78780
#
# Poissons Ratio (x) = 0.57433 0.27814
# Poissons Ratio (y) = 0.28449 0.33272
# Poissons Ratio (z) = 0.11535 0.27855
#
# Static dielectric constant tensor:
#      x y z
#    x 3.389600 0.000000 0.000000 
#    y 0.000000 3.740980 0.000000 
#    z 0.000000 0.000000 3.531620 
# 
# 
# High freq. dielectric constant tensor:
#      x y z
#    x 1.712060 0.000000 0.000000 
#    y 0.000000 1.742540 0.000000 
#    z 0.000000 0.000000 1.732050 
# 
# From -- ./inp_files/9275.got.cif
#   From: 2010.03.12/outbox.cif.g09.slc.cpg/sg47_5_cif.got.tgz:9275.got - 2010.04.14 03:12:58.
