data_PCOD8198188
_publ_section_title
;
Structure prediction by ZEFSAII (Michael W. Deem and Ramdas Pophale) SiO2 
 PCOD8198188
Probable space group: P M M M
;
_chemical_formula_sum "Si O2"
_cell_formula_units_Z 44
_cell_length_a 14.575468
_cell_length_b 12.273208
_cell_length_c 13.613568
_cell_angle_alpha 90.000000
_cell_angle_beta 90.000000
_cell_angle_gamma 90.000000
_cell_volume 2435.300555
_symmetry_space_group_name_H-M "P M M M"
_symmetry_group_IT_number 47
_symmetry_cell_setting 'orthorhombic'
loop_
_space_group_symop_operation_xyz
x,y,z
-x,-y,z
x,-y,-z
-x,y,-z
-x,-y,-z
x,y,-z
-x,y,z
x,-y,z
loop_
_atom_site_type_symbol
_atom_site_label
_atom_site_fract_x
_atom_site_fract_y
_atom_site_fract_z
Si Si1 0.000000 0.126511 0.391919
Si Si2 0.741607 0.671794 0.614279
Si Si3 0.283070 0.796523 0.885741
Si Si4 0.185041 0.129140 0.710160
Si Si5 0.894611 0.500000 0.384583
Si Si6 0.400599 0.000000 0.115987
Si Si7 0.395765 0.623109 0.222145
O O1 0.914913 0.160267 0.326675
O O2 0.000000 0.185377 0.500000
O O3 0.000000 0.000000 0.413423
O O4 0.721935 0.654080 0.500000
O O5 0.748379 0.800906 0.639239
O O6 0.834676 0.606656 0.646956
O O7 0.652961 0.627363 0.671841
O O8 0.192441 0.820939 0.820722
O O9 0.349431 0.892540 0.849638
O O10 0.335085 0.685702 0.859314
O O11 0.256206 0.799354 0.000000
O O12 0.206702 0.000000 0.703745
O O13 0.906439 0.500000 0.500000
O O14 0.000000 0.500000 0.339290
O O15 0.500000 0.000000 0.166310
O O16 0.409285 0.000000 0.000000
O O17 0.500000 0.669548 0.228995
O O18 0.399113 0.500000 0.184362
#
# Coordination Sequence:
#
# PCOD8198188 Si02
#       7
#     4   8   8   8   4   4   8
#     4   9  18  32  51  78 110 141 177 216 260 312
#     4  10  20  34  53  78 109 143 182 224 270 326
#     4  10  20  35  54  77 105 137 175 219 270 323
#     4  10  20  34  53  79 109 142 179 222 268 322
#     4   9  18  32  51  77 106 139 181 227 273 314
#     4   9  16  28  50  75  95 122 164 211 261 314
#     4  10  21  36  54  78 107 139 179 226 274 327
#
# _framework density 18.067585999999999
#
# number of rings (size 3 to 8) (size 9 to 14) (size 15 to 20)
#    0.000    2.273    1.818    1.091    1.273    2.909 
#    0.000    2.273    0.000    1.636    0.000    2.545 
#    0.000    5.818    0.000    0.000    0.000    0.000 
#
# Total GULP energy -545191.956104 kJ/mol
# GULP energy per Si atom -12390.726275 kJ/mol
# Density = 1.802646 g / cm^3
# Si number density = 18.067586 Si / 1000 Ang^3
#
#
#
# Elastic Constant Matrix: (Units=GPa)
#
#
# Indices 1 2 3 4 5 6 
#
# 1 100.0734 28.0392 54.5959 0.0000 0.0000 0.0000
# 2 28.0392 95.9680 34.3516 0.0000 0.0000 0.0000
# 3 54.5959 34.3516 109.6392 0.0000 0.0000 0.0000
# 4 0.0000 0.0000 0.0000 17.3994 0.0000 0.0000
# 5 0.0000 0.0000 0.0000 0.0000 31.7950 0.0000
# 6 0.0000 0.0000 0.0000 0.0000 0.0000 22.5590
#
#
#
# Elastic Compliance Matrix: (Units=1/GPa)
#
#
# Indices 1 2 3 4 5 6 
#
# 1 0.013989 -0.001795 -0.006404 0.000000 0.000000 0.000000
# 2 -0.001795 0.011967 -0.002855 0.000000 0.000000 0.000000
# 3 -0.006404 -0.002855 0.013204 0.000000 0.000000 0.000000
# 4 0.000000 0.000000 0.000000 0.057473 0.000000 0.000000
# 5 0.000000 0.000000 0.000000 0.000000 0.031451 0.000000
# 6 0.000000 0.000000 0.000000 0.000000 0.000000 0.044328
#
#
# Mechanical properties :
#
#
# Convention : Reuss Voigt Hill
#
# Bulk Modulus (GPa) = 58.64490 59.96155 59.30323
# Shear Modulus (GPa) = 24.97438 26.93029 25.95234
#
# Velocity S-wave (km/s) = 3.72193 3.86493 3.79410
# Velocity P-wave (km/s) = 7.14139 7.29221 7.21719
#
# Compressibility (1/GPa) = 0.01705178
#
# Stress axis : x y z
#
# Youngs Moduli (GPa) = 71.48386 83.56497 75.73332
#
# Poissons Ratio (x) = 0.15001 0.48497
# Poissons Ratio (y) = 0.12832 0.21626
# Poissons Ratio (z) = 0.45775 0.23862
#
# Static dielectric constant tensor:
#      x y z
#    x 3.664670 0.000000 0.000000 
#    y 0.000000 3.482510 0.000000 
#    z 0.000000 0.000000 3.167030 
# 
# 
# High freq. dielectric constant tensor:
#      x y z
#    x 1.690510 0.000000 0.000000 
#    y 0.000000 1.712220 0.000000 
#    z 0.000000 0.000000 1.679710 
# 
# From -- ./inp_files/23505.got.cif
#   From: 2010.03.12/outbox.cif.g09.slc.cpg/sg47_12_cif.got.tgz:23505.got - 2010.04.14 03:12:58.
