data_PCOD8198777
_publ_section_title
;
Structure prediction by ZEFSAII (Michael W. Deem and Ramdas Pophale) SiO2 
 PCOD8198777
Probable space group: P M M M
;
_chemical_formula_sum "Si O2"
_cell_formula_units_Z 44
_cell_length_a 31.289872
_cell_length_b 7.695510
_cell_length_c 9.286558
_cell_angle_alpha 90.000000
_cell_angle_beta 90.000000
_cell_angle_gamma 90.000000
_cell_volume 2236.124443
_symmetry_space_group_name_H-M "P M M M"
_symmetry_group_IT_number 47
_symmetry_cell_setting 'orthorhombic'
loop_
_space_group_symop_operation_xyz
x,y,z
-x,-y,z
x,-y,-z
-x,y,-z
-x,-y,-z
x,y,-z
-x,y,z
x,-y,z
loop_
_atom_site_type_symbol
_atom_site_label
_atom_site_fract_x
_atom_site_fract_y
_atom_site_fract_z
Si Si1 0.373807 0.804460 0.657952
Si Si2 0.235469 0.000000 0.172420
Si Si3 0.716639 0.695031 0.668221
Si Si4 0.148117 0.000000 0.666122
Si Si5 0.452930 0.702674 0.834720
Si Si6 0.082181 0.699223 0.333958
Si Si7 0.000000 0.294015 0.838624
O O1 0.387299 0.736372 0.500000
O O2 0.333419 0.694675 0.715331
O O3 0.415519 0.802331 0.755564
O O4 0.356705 0.000000 0.651166
O O5 0.257349 0.173805 0.232418
O O6 0.186863 0.000000 0.223575
O O7 0.238048 0.000000 0.000000
O O8 0.720784 0.749200 0.500000
O O9 0.734425 0.500000 0.692653
O O10 0.121768 0.175182 0.698498
O O11 0.163916 0.000000 0.500000
O O12 0.500000 0.754396 0.774110
O O13 0.445199 0.500000 0.814075
O O14 0.450635 0.756769 0.000000
O O15 0.068513 0.710660 0.500000
O O16 0.094573 0.500000 0.293047
O O17 0.042334 0.770945 0.242402
O O18 0.000000 0.500000 0.839135
O O19 0.000000 0.217753 0.000000
#
# Coordination Sequence:
#
# PCOD8198777 Si02
#       7
#     8   4   8   4   8   8   4
#     4  10  20  35  57  84 113 142 181 235 286 335
#     4  12  26  42  61  89 125 155 187 240 302 364
#     4  10  21  41  68  90 113 151 196 241 291 350
#     4  10  22  39  59  82 111 149 197 244 286 345
#     4   9  19  35  52  73 107 150 191 229 273 332
#     4   9  18  34  56  81 110 148 194 241 286 333
#     4   9  17  30  51  80 115 153 190 233 285 340
#
# _framework density 19.6769
#
# number of rings (size 3 to 8) (size 9 to 14) (size 15 to 20)
#    0.000    2.273    0.909    2.182    0.000    6.182 
#    0.000    6.364    0.000    0.000    0.000    0.000 
#    0.000    0.000    0.000    0.000    0.000    0.000 
#
# Total GULP energy -545490.085721 kJ/mol
# GULP energy per Si atom -12397.501948 kJ/mol
# Density = 1.963211 g / cm^3
# Si number density = 19.676900 Si / 1000 Ang^3
#
#
#
# Elastic Constant Matrix: (Units=GPa)
#
#
# Indices 1 2 3 4 5 6 
#
# 1 131.2525 53.8649 72.9856 0.0000 0.0000 0.0000
# 2 53.8649 98.5489 48.5141 0.0000 0.0000 0.0000
# 3 72.9856 48.5141 102.2197 0.0000 0.0000 0.0000
# 4 0.0000 0.0000 0.0000 20.2561 0.0000 0.0000
# 5 0.0000 0.0000 0.0000 0.0000 -13.9849 0.0000
# 6 0.0000 0.0000 0.0000 0.0000 0.0000 6.9065
#
#
#
# Elastic Compliance Matrix: (Units=1/GPa)
#
#
# Indices 1 2 3 4 5 6 
#
# 1 0.013469 -0.003429 -0.007989 0.000000 0.000000 0.000000
# 2 -0.003429 0.014114 -0.004250 0.000000 0.000000 0.000000
# 3 -0.007989 -0.004250 0.017505 0.000000 0.000000 0.000000
# 4 0.000000 0.000000 0.000000 0.049368 0.000000 0.000000
# 5 0.000000 0.000000 0.000000 0.000000 -0.071506 0.000000
# 6 0.000000 0.000000 0.000000 0.000000 0.000000 0.144792
#
#
# Mechanical properties :
#
#
# Convention : Reuss Voigt Hill
#
# Bulk Modulus (GPa) = 72.72711 75.86115 74.29413
# Shear Modulus (GPa) = 24.55059 13.07930 18.81495
#
# Velocity S-wave (km/s) = 3.53609 2.58098 3.09559
# Velocity P-wave (km/s) = 7.32890 6.89341 7.11449
#
# Compressibility (1/GPa) = 0.01375003
#
# Stress axis : x y z
#
# Youngs Moduli (GPa) = 74.24618 70.85335 57.12764
#
# Poissons Ratio (x) = 0.24293 0.45642
# Poissons Ratio (y) = 0.25456 0.24281
# Poissons Ratio (z) = 0.59319 0.30115
#
# Static dielectric constant tensor:
#      x y z
#    x 3.436120 0.000000 0.000000 
#    y 0.000000 3.638180 0.000000 
#    z 0.000000 0.000000 3.537290 
# 
# 
# High freq. dielectric constant tensor:
#      x y z
#    x 1.764470 0.000000 0.000000 
#    y 0.000000 1.772270 0.000000 
#    z 0.000000 0.000000 1.751200 
# 
# From -- ./inp_files/13695.got.cif
#   From: 2010.03.12/outbox.cif.g09.slc.cpg/sg47_7_cif.got.tgz:13695.got - 2010.04.14 03:12:58.
