data_PCOD8198323
_publ_section_title
;
Structure prediction by ZEFSAII (Michael W. Deem and Ramdas Pophale) SiO2 
 PCOD8198323
Probable space group: P M M M
;
_chemical_formula_sum "Si O2"
_cell_formula_units_Z 48
_cell_length_a 30.773417
_cell_length_b 8.919374
_cell_length_c 9.393726
_cell_angle_alpha 90.000000
_cell_angle_beta 90.000000
_cell_angle_gamma 90.000000
_cell_volume 2578.386300
_symmetry_space_group_name_H-M "P M M M"
_symmetry_group_IT_number 47
_symmetry_cell_setting 'orthorhombic'
loop_
_space_group_symop_operation_xyz
x,y,z
-x,-y,z
x,-y,-z
-x,y,-z
-x,-y,-z
x,y,-z
-x,y,z
x,-y,z
loop_
_atom_site_type_symbol
_atom_site_label
_atom_site_fract_x
_atom_site_fract_y
_atom_site_fract_z
Si Si1 0.000000 0.678250 0.160855
Si Si2 0.247528 0.673890 0.164719
Si Si3 0.500000 0.830883 0.330768
Si Si4 0.663647 0.173334 0.833306
Si Si5 0.082639 0.326032 0.335277
Si Si6 0.171810 0.827946 0.666911
Si Si7 0.586939 0.324153 0.664400
O O1 0.957240 0.736472 0.242018
O O2 0.000000 0.500000 0.163357
O O3 0.000000 0.740683 0.000000
O O4 0.256498 0.500000 0.194805
O O5 0.289530 0.766307 0.215119
O O6 0.206611 0.727083 0.253754
O O7 0.237397 0.704539 0.000000
O O8 0.500000 0.823982 0.500000
O O9 0.543060 0.749309 0.272929
O O10 0.500000 0.000000 0.273037
O O11 0.627520 0.265252 0.751269
O O12 0.660326 0.000000 0.791197
O O13 0.656631 0.199990 0.000000
O O14 0.070547 0.302160 0.500000
O O15 0.092444 0.500000 0.303316
O O16 0.124322 0.230171 0.290141
O O17 0.179651 0.808241 0.500000
O O18 0.176373 0.000000 0.714808
O O19 0.593693 0.280086 0.500000
O O20 0.582613 0.500000 0.685138
#
# Coordination Sequence:
#
# PCOD8198323 Si02
#       7
#     4   8   4   8   8   8   8
#     4   9  17  29  48  75 102 128 166 215 258 299
#     4  10  21  37  57  79 103 135 174 214 259 311
#     4   9  17  31  52  77 106 139 174 216 266 315
#     4  10  21  37  56  78 106 140 176 215 261 312
#     4   9  17  31  51  73  99 133 170 208 254 306
#     4  10  21  36  54  78 107 138 173 214 260 309
#     4  10  20  34  54  80 108 139 176 217 261 311
#
# _framework density 18.616294
#
# number of rings (size 3 to 8) (size 9 to 14) (size 15 to 20)
#    0.000    2.333    0.000    2.500    0.000    7.333 
#    0.000    2.500    0.000    5.000    0.000    0.000 
#    0.000    0.000    0.000    0.000    0.000    0.000 
#
# Total GULP energy -595367.981387 kJ/mol
# GULP energy per Si atom -12403.499612 kJ/mol
# Density = 1.857392 g / cm^3
# Si number density = 18.616294 Si / 1000 Ang^3
#
#
#
# Elastic Constant Matrix: (Units=GPa)
#
#
# Indices 1 2 3 4 5 6 
#
# 1 123.8304 27.3164 51.0175 0.0000 0.0000 0.0000
# 2 27.3164 58.7233 23.1758 0.0000 0.0000 0.0000
# 3 51.0175 23.1758 52.2064 0.0000 0.0000 0.0000
# 4 0.0000 0.0000 0.0000 24.7075 0.0000 0.0000
# 5 0.0000 0.0000 0.0000 0.0000 190.3765 0.0000
# 6 0.0000 0.0000 0.0000 0.0000 0.0000 16.9792
#
#
#
# Elastic Compliance Matrix: (Units=1/GPa)
#
#
# Indices 1 2 3 4 5 6 
#
# 1 0.013601 -0.001311 -0.012709 0.000000 0.000000 0.000000
# 2 -0.001311 0.020773 -0.007940 0.000000 0.000000 0.000000
# 3 -0.012709 -0.007940 0.035099 0.000000 0.000000 0.000000
# 4 0.000000 0.000000 0.000000 0.040474 0.000000 0.000000
# 5 0.000000 0.000000 0.000000 0.000000 0.005253 0.000000
# 6 0.000000 0.000000 0.000000 0.000000 0.000000 0.058896
#
#
# Mechanical properties :
#
#
# Convention : Reuss Voigt Hill
#
# Bulk Modulus (GPa) = 39.13611 48.64214 43.88913
# Shear Modulus (GPa) = 22.07181 55.29599 38.68390
#
# Velocity S-wave (km/s) = 3.44702 5.45596 4.56341
# Velocity P-wave (km/s) = 6.07542 8.11637 7.16890
#
# Compressibility (1/GPa) = 0.02555185
#
# Stress axis : x y z
#
# Youngs Moduli (GPa) = 73.52480 48.14034 28.49047
#
# Poissons Ratio (x) = 0.06311 0.36209
# Poissons Ratio (y) = 0.09638 0.22623
# Poissons Ratio (z) = 0.93444 0.38226
#
# Static dielectric constant tensor:
#      x y z
#    x 3.546070 0.000000 0.000000 
#    y 0.000000 3.463220 0.000000 
#    z 0.000000 0.000000 3.299440 
# 
# 
# High freq. dielectric constant tensor:
#      x y z
#    x 1.736700 0.000000 0.000000 
#    y 0.000000 1.725370 0.000000 
#    z 0.000000 0.000000 1.705830 
# 
# From -- ./inp_files/2616.got.cif
#   From: 2010.03.12/outbox.cif.g09.slc.cpg/sg47_2_cif.got.tgz:2616.got - 2010.04.14 03:12:58.
