data_PCOD8198287
_publ_section_title
;
Structure prediction by ZEFSAII (Michael W. Deem and Ramdas Pophale) SiO2 
 PCOD8198287
Probable space group: P M M M
;
_chemical_formula_sum "Si O2"
_cell_formula_units_Z 52
_cell_length_a 19.351862
_cell_length_b 15.626826
_cell_length_c 8.866121
_cell_angle_alpha 90.000000
_cell_angle_beta 90.000000
_cell_angle_gamma 90.000000
_cell_volume 2681.187517
_symmetry_space_group_name_H-M "P M M M"
_symmetry_group_IT_number 47
_symmetry_cell_setting 'orthorhombic'
loop_
_space_group_symop_operation_xyz
x,y,z
-x,-y,z
x,-y,-z
-x,y,-z
-x,-y,-z
x,y,-z
-x,y,z
x,-y,z
loop_
_atom_site_type_symbol
_atom_site_label
_atom_site_fract_x
_atom_site_fract_y
_atom_site_fract_z
Si Si1 0.790413 0.096079 0.673029
Si Si2 0.421985 0.315431 0.320011
Si Si3 0.921918 0.153478 0.176149
Si Si4 0.418594 0.500000 0.663715
Si Si5 0.293707 0.245697 0.822185
Si Si6 0.797105 0.405416 0.825263
Si Si7 0.922400 0.333808 0.326240
O O1 0.788980 0.125928 0.500000
O O2 0.869210 0.094546 0.731907
O O3 0.744599 0.160363 0.770313
O O4 0.760744 0.000000 0.690304
O O5 0.416350 0.316316 0.500000
O O6 0.500000 0.291259 0.270605
O O7 0.400415 0.410145 0.253270
O O8 0.370045 0.246178 0.250267
O O9 0.910264 0.250849 0.224334
O O10 0.000000 0.123400 0.212698
O O11 0.905464 0.145493 0.000000
O O12 0.500000 0.500000 0.637151
O O13 0.381840 0.500000 0.500000
O O14 0.253590 0.330877 0.766382
O O15 0.301029 0.243802 0.000000
O O16 0.763695 0.500000 0.799713
O O17 0.868204 0.404092 0.730570
O O18 0.814796 0.390732 0.000000
O O19 0.908739 0.309846 0.500000
O O20 0.000000 0.369876 0.304775
#
# Coordination Sequence:
#
# PCOD8198287 Si02
#       7
#     8   8   8   4   8   8   8
#     4  11  24  41  62  87 114 146 187 236 288 341
#     4   9  18  34  57  84 116 154 193 233 277 329
#     4  10  20  35  57  84 114 148 185 228 283 344
#     4   7  12  26  49  79 113 149 190 229 266 315
#     4  11  23  38  59  85 116 153 189 232 283 337
#     4  10  22  38  54  77 112 154 197 237 284 341
#     4  10  20  34  54  79 108 145 192 244 291 335
#
# _framework density 19.394392
#
# number of rings (size 3 to 8) (size 9 to 14) (size 15 to 20)
#    0.000    2.077    1.538    2.769    1.077    4.923 
#    0.000    3.077    0.000    1.846    0.000    3.231 
#    0.000    0.000    0.000    0.000    0.000    0.000 
#
# Total GULP energy -644640.815328 kJ/mol
# GULP energy per Si atom -12396.938756 kJ/mol
# Density = 1.935025 g / cm^3
# Si number density = 19.394392 Si / 1000 Ang^3
#
#
#
# Elastic Constant Matrix: (Units=GPa)
#
#
# Indices 1 2 3 4 5 6 
#
# 1 108.4232 46.8234 36.3305 0.0000 0.0000 0.0000
# 2 46.8234 87.1619 23.5052 0.0000 0.0000 0.0000
# 3 36.3305 23.5052 53.9755 0.0000 0.0000 0.0000
# 4 0.0000 0.0000 0.0000 23.6916 0.0000 0.0000
# 5 0.0000 0.0000 0.0000 0.0000 30.2125 0.0000
# 6 0.0000 0.0000 0.0000 0.0000 0.0000 19.1097
#
#
#
# Elastic Compliance Matrix: (Units=1/GPa)
#
#
# Indices 1 2 3 4 5 6 
#
# 1 0.013991 -0.005639 -0.006962 0.000000 0.000000 0.000000
# 2 -0.005639 0.015272 -0.002855 0.000000 0.000000 0.000000
# 3 -0.006962 -0.002855 0.024456 0.000000 0.000000 0.000000
# 4 0.000000 0.000000 0.000000 0.042209 0.000000 0.000000
# 5 0.000000 0.000000 0.000000 0.000000 0.033099 0.000000
# 6 0.000000 0.000000 0.000000 0.000000 0.000000 0.052330
#
#
# Mechanical properties :
#
#
# Convention : Reuss Voigt Hill
#
# Bulk Modulus (GPa) = 43.84448 51.43100 47.63774
# Shear Modulus (GPa) = 22.74065 24.12950 23.43508
#
# Velocity S-wave (km/s) = 3.42795 3.53108 3.47989
# Velocity P-wave (km/s) = 6.19061 6.57273 6.38453
#
# Compressibility (1/GPa) = 0.02280789
#
# Stress axis : x y z
#
# Youngs Moduli (GPa) = 71.47503 65.47957 40.88935
#
# Poissons Ratio (x) = 0.36921 0.28466
# Poissons Ratio (y) = 0.40301 0.11675
# Poissons Ratio (z) = 0.49759 0.18697
#
# Static dielectric constant tensor:
#      x y z
#    x 3.530010 0.000000 0.000000 
#    y 0.000000 3.413290 0.000000 
#    z 0.000000 0.000000 3.408780 
# 
# 
# High freq. dielectric constant tensor:
#      x y z
#    x 1.747520 0.000000 0.000000 
#    y 0.000000 1.737110 0.000000 
#    z 0.000000 0.000000 1.750550 
# 
# From -- ./inp_files/10964.got.cif
#   From: 2010.03.12/outbox.cif.g09.slc.cpg/sg47_6_cif.got.tgz:10964.got - 2010.04.14 03:12:58.
