data_PCOD8198133
_publ_section_title
;
Structure prediction by ZEFSAII (Michael W. Deem and Ramdas Pophale) SiO2 
 PCOD8198133
Probable space group: P M M M
;
_chemical_formula_sum "Si O2"
_cell_formula_units_Z 48
_cell_length_a 8.975193
_cell_length_b 8.643074
_cell_length_c 31.029906
_cell_angle_alpha 90.000000
_cell_angle_beta 90.000000
_cell_angle_gamma 90.000000
_cell_volume 2407.090881
_symmetry_space_group_name_H-M "P M M M"
_symmetry_group_IT_number 47
_symmetry_cell_setting 'orthorhombic'
loop_
_space_group_symop_operation_xyz
x,y,z
-x,-y,z
x,-y,-z
-x,y,-z
-x,-y,-z
x,y,-z
-x,y,z
x,-y,z
loop_
_atom_site_type_symbol
_atom_site_label
_atom_site_fract_x
_atom_site_fract_y
_atom_site_fract_z
Si Si1 0.672845 0.820602 0.662167
Si Si2 0.667487 0.683806 0.830461
Si Si3 0.666677 0.181984 0.500000
Si Si4 0.168166 0.315358 0.914971
Si Si5 0.175109 0.679733 0.256511
Si Si6 0.829615 0.319348 0.581287
Si Si7 0.331947 0.684465 0.000000
O O1 0.500000 0.776852 0.665430
O O2 0.750374 0.783378 0.707114
O O3 0.746518 0.717490 0.625411
O O4 0.695698 0.000000 0.650811
O O5 0.500000 0.750151 0.827695
O O6 0.664551 0.500000 0.832881
O O7 0.746473 0.750518 0.873156
O O8 0.759764 0.737907 0.788877
O O9 0.500000 0.253858 0.500000
O O10 0.753181 0.232116 0.542263
O O11 0.655482 0.000000 0.500000
O O12 0.169289 0.500000 0.914654
O O13 0.248916 0.251703 0.957684
O O14 0.000000 0.252219 0.914367
O O15 0.213187 0.500000 0.264831
O O16 0.000000 0.708770 0.256418
O O17 0.820055 0.500000 0.571880
O O18 0.000000 0.263833 0.585122
O O19 0.330887 0.500000 0.000000
O O20 0.500000 0.747970 0.000000
#
# Coordination Sequence:
#
# PCOD8198133 Si02
#       7
#     8   8   4   8   8   8   4
#     4  11  24  40  58  82 111 143 180 221 267 320
#     4   9  16  26  41  61  86 118 157 202 252 305
#     4  11  24  41  62  90 122 155 192 231 272 320
#     4   9  15  22  32  48  73 107 149 197 247 300
#     4  10  20  34  53  77 103 133 172 216 262 315
#     4  11  24  41  62  89 118 149 188 230 271 319
#     4   9  15  21  29  43  67 103 148 195 244 301
#
# _framework density 19.941084
#
# number of rings (size 3 to 8) (size 9 to 14) (size 15 to 20)
#    0.000    2.000    0.000    4.250    0.000   14.333 
#    0.000    0.000    0.000    0.000    0.000    0.000 
#    0.000    0.000    0.000    0.750    0.000   14.667 
#
# Total GULP energy -595355.660577 kJ/mol
# GULP energy per Si atom -12403.242929 kJ/mol
# Density = 1.989570 g / cm^3
# Si number density = 19.941084 Si / 1000 Ang^3
#
#
#
# Elastic Constant Matrix: (Units=GPa)
#
#
# Indices 1 2 3 4 5 6 
#
# 1 169.2712 24.9817 74.7964 0.0000 0.0000 0.0000
# 2 24.9817 27.8579 15.8915 0.0000 0.0000 0.0000
# 3 74.7964 15.8915 161.1545 0.0000 0.0000 0.0000
# 4 0.0000 0.0000 0.0000 -13.2867 0.0000 0.0000
# 5 0.0000 0.0000 0.0000 0.0000 48.0901 0.0000
# 6 0.0000 0.0000 0.0000 0.0000 0.0000 19.1049
#
#
#
# Elastic Compliance Matrix: (Units=1/GPa)
#
#
# Indices 1 2 3 4 5 6 
#
# 1 0.008146 -0.005455 -0.003243 0.000000 0.000000 0.000000
# 2 -0.005455 0.041689 -0.001579 0.000000 0.000000 0.000000
# 3 -0.003243 -0.001579 0.007866 0.000000 0.000000 0.000000
# 4 0.000000 0.000000 0.000000 -0.075263 0.000000 0.000000
# 5 0.000000 0.000000 0.000000 0.000000 0.020794 0.000000
# 6 0.000000 0.000000 0.000000 0.000000 0.000000 0.052342
#
#
# Mechanical properties :
#
#
# Convention : Reuss Voigt Hill
#
# Bulk Modulus (GPa) = 26.92001 65.51364 46.21683
# Shear Modulus (GPa) = 56.49090 26.95594 41.72342
#
# Velocity S-wave (km/s) = 5.32826 3.68064 4.57917
# Velocity P-wave (km/s) = 7.16819 7.14057 7.15439
#
# Compressibility (1/GPa) = 0.03714708
#
# Stress axis : x y z
#
# Youngs Moduli (GPa) = 122.76603 23.98717 127.12968
#
# Poissons Ratio (x) = 0.13084 0.41224
# Poissons Ratio (y) = 0.66966 0.20077
# Poissons Ratio (z) = 0.39809 0.03788
#
# Static dielectric constant tensor:
#      x y z
#    x 3.935080 0.000000 0.000000 
#    y 0.000000 3.121950 0.000000 
#    z 0.000000 0.000000 3.677280 
# 
# 
# High freq. dielectric constant tensor:
#      x y z
#    x 1.799850 0.000000 0.000000 
#    y 0.000000 1.727080 0.000000 
#    z 0.000000 0.000000 1.797440 
# 
# From -- ./inp_files/13978.got.cif
#   From: 2010.03.12/outbox.cif.g09.slc.cpg/sg47_7_cif.got.tgz:13978.got - 2010.04.14 03:12:58.
