data_PCOD8198477
_publ_section_title
;
Structure prediction by ZEFSAII (Michael W. Deem and Ramdas Pophale) SiO2 
 PCOD8198477
Probable space group: P M M M
;
_chemical_formula_sum "Si O2"
_cell_formula_units_Z 56
_cell_length_a 8.677783
_cell_length_b 14.363948
_cell_length_c 22.605066
_cell_angle_alpha 90.000000
_cell_angle_beta 90.000000
_cell_angle_gamma 90.000000
_cell_volume 2817.658720
_symmetry_space_group_name_H-M "P M M M"
_symmetry_group_IT_number 47
_symmetry_cell_setting 'orthorhombic'
loop_
_space_group_symop_operation_xyz
x,y,z
-x,-y,z
x,-y,-z
-x,y,-z
-x,-y,-z
x,y,-z
-x,y,z
x,-y,z
loop_
_atom_site_type_symbol
_atom_site_label
_atom_site_fract_x
_atom_site_fract_y
_atom_site_fract_z
Si Si1 0.822473 0.216118 0.064940
Si Si2 0.677386 0.767027 0.716422
Si Si3 0.317753 0.392486 0.500000
Si Si4 0.826397 0.603874 0.775406
Si Si5 0.819186 0.251819 0.590423
Si Si6 0.318066 0.107011 0.825439
Si Si7 0.181910 0.898341 0.500000
Si Si8 0.323047 0.397621 0.899940
O O1 0.755834 0.150747 0.116035
O O2 0.732480 0.314207 0.058490
O O3 0.000000 0.235634 0.079517
O O4 0.804536 0.167979 0.000000
O O5 0.500000 0.785015 0.701042
O O6 0.699982 0.664135 0.741752
O O7 0.776479 0.770121 0.657415
O O8 0.737613 0.840965 0.765590
O O9 0.260556 0.500000 0.500000
O O10 0.500000 0.388050 0.500000
O O11 0.259053 0.341893 0.439984
O O12 0.814375 0.500000 0.749681
O O13 0.787959 0.605877 0.844007
O O14 0.000000 0.642841 0.766311
O O15 0.764268 0.158635 0.557250
O O16 0.000000 0.268952 0.584608
O O17 0.500000 0.117683 0.831989
O O18 0.266091 0.000000 0.820583
O O19 0.000000 0.909959 0.500000
O O20 0.261545 0.000000 0.500000
O O21 0.500000 0.380802 0.880873
O O22 0.307005 0.500000 0.930601
#
# Coordination Sequence:
#
# PCOD8198477 Si02
#       8
#     8   8   4   8   8   8   4   8
#     4  11  24  40  60  87 118 153 196 247 301 359
#     4  11  22  37  59  86 119 156 195 242 292 348
#     4  10  21  39  62  87 120 163 207 250 294 342
#     4  10  20  34  55  83 115 150 187 230 281 339
#     4  10  21  36  58  88 120 156 196 240 290 345
#     4  10  23  43  64  86 114 152 198 249 307 367
#     4   8  16  34  58  83 112 145 185 232 280 334
#     4  10  20  35  57  85 116 151 190 231 281 345
#
# _framework density 19.874656999999999
#
# number of rings (size 3 to 8) (size 9 to 14) (size 15 to 20)
#    0.000    1.857    1.429    2.786    0.000    6.000 
#    0.000    2.857    0.000    7.286    0.000    0.000 
#    0.000    0.000    0.000    0.000    0.000    0.000 
#
# Total GULP energy -694162.122717 kJ/mol
# GULP energy per Si atom -12395.752191 kJ/mol
# Density = 1.982942 g / cm^3
# Si number density = 19.874657 Si / 1000 Ang^3
#
#
#
# Elastic Constant Matrix: (Units=GPa)
#
#
# Indices 1 2 3 4 5 6 
#
# 1 64.2077 44.8889 29.3103 0.0000 0.0000 0.0000
# 2 44.8889 151.7264 71.1379 0.0000 0.0000 0.0000
# 3 29.3103 71.1379 133.6211 0.0000 0.0000 0.0000
# 4 0.0000 0.0000 0.0000 10.4908 0.0000 0.0000
# 5 0.0000 0.0000 0.0000 0.0000 27.6121 0.0000
# 6 0.0000 0.0000 0.0000 0.0000 0.0000 23.7942
#
#
#
# Elastic Compliance Matrix: (Units=1/GPa)
#
#
# Indices 1 2 3 4 5 6 
#
# 1 0.019902 -0.005119 -0.001640 0.000000 0.000000 0.000000
# 2 -0.005119 0.010100 -0.004254 0.000000 0.000000 0.000000
# 3 -0.001640 -0.004254 0.010109 0.000000 0.000000 0.000000
# 4 0.000000 0.000000 0.000000 0.095322 0.000000 0.000000
# 5 0.000000 0.000000 0.000000 0.000000 0.036216 0.000000
# 6 0.000000 0.000000 0.000000 0.000000 0.000000 0.042027
#
#
# Mechanical properties :
#
#
# Convention : Reuss Voigt Hill
#
# Bulk Modulus (GPa) = 55.29911 71.13659 63.21785
# Shear Modulus (GPa) = 20.68425 25.99397 23.33911
#
# Velocity S-wave (km/s) = 3.22954 3.62041 3.43055
# Velocity P-wave (km/s) = 6.46459 7.30389 6.89702
#
# Compressibility (1/GPa) = 0.01808347
#
# Stress axis : x y z
#
# Youngs Moduli (GPa) = 50.24608 99.01099 98.92662
#
# Poissons Ratio (x) = 0.50684 0.16227
# Poissons Ratio (y) = 0.25721 0.42085
# Poissons Ratio (z) = 0.08242 0.42121
#
# Static dielectric constant tensor:
#      x y z
#    x 3.563360 0.000000 0.000000 
#    y 0.000000 3.961760 0.000000 
#    z 0.000000 0.000000 3.622700 
# 
# 
# High freq. dielectric constant tensor:
#      x y z
#    x 1.776010 0.000000 0.000000 
#    y 0.000000 1.775850 0.000000 
#    z 0.000000 0.000000 1.771960 
# 
# From -- ./inp_files/29805.got.cif
#   From: 2010.03.12/outbox.cif.g09.slc.cpg/sg47_15_cif.got.tgz:29805.got - 2010.04.14 03:12:58.
