data_PCOD8198376
_publ_section_title
;
Structure prediction by ZEFSAII (Michael W. Deem and Ramdas Pophale) SiO2 
 PCOD8198376
Probable space group: P M M M
;
_chemical_formula_sum "Si O2"
_cell_formula_units_Z 48
_cell_length_a 8.949495
_cell_length_b 30.912475
_cell_length_c 9.007209
_cell_angle_alpha 90.000000
_cell_angle_beta 90.000000
_cell_angle_gamma 90.000000
_cell_volume 2491.853741
_symmetry_space_group_name_H-M "P M M M"
_symmetry_group_IT_number 47
_symmetry_cell_setting 'orthorhombic'
loop_
_space_group_symop_operation_xyz
x,y,z
-x,-y,z
x,-y,-z
-x,y,-z
-x,-y,-z
x,y,-z
-x,y,z
x,-y,z
loop_
_atom_site_type_symbol
_atom_site_label
_atom_site_fract_x
_atom_site_fract_y
_atom_site_fract_z
Si Si1 0.174837 0.331390 0.670218
Si Si2 0.823562 0.000000 0.670603
Si Si3 0.324296 0.080699 0.172660
Si Si4 0.169712 0.500000 0.824569
Si Si5 0.325606 0.420471 0.327919
Si Si6 0.672239 0.253052 0.174013
Si Si7 0.677532 0.833116 0.332724
O O1 0.215146 0.320131 0.500000
O O2 0.256690 0.374915 0.721517
O O3 0.229586 0.293209 0.775015
O O4 0.000000 0.338444 0.692238
O O5 0.760358 0.042072 0.749121
O O6 0.771955 0.000000 0.500000
O O7 0.000000 0.000000 0.686295
O O8 0.500000 0.074714 0.199351
O O9 0.264247 0.125321 0.242972
O O10 0.284336 0.080919 0.000000
O O11 0.251485 0.542392 0.767596
O O12 0.000000 0.500000 0.766163
O O13 0.176532 0.500000 0.000000
O O14 0.292784 0.429890 0.500000
O O15 0.500000 0.419379 0.293165
O O16 0.500000 0.261548 0.217517
O O17 0.736104 0.210322 0.254186
O O18 0.690765 0.245961 0.000000
O O19 0.740703 0.834902 0.500000
O O20 0.500000 0.832991 0.331700
#
# Coordination Sequence:
#
# PCOD8198376 Si02
#       7
#     8   4   8   4   8   8   8
#     4  10  21  37  57  81 109 143 183 226 272 322
#     4  11  24  39  54  76 108 145 184 225 270 322
#     4  10  20  35  57  84 111 140 178 224 273 326
#     4  11  24  39  56  82 116 151 184 221 270 326
#     4  10  21  38  61  86 110 141 184 230 275 325
#     4  10  20  34  54  81 112 145 180 220 268 321
#     4   9  17  31  54  82 110 141 178 222 270 319
#
# _framework density 19.262768000000001
#
# number of rings (size 3 to 8) (size 9 to 14) (size 15 to 20)
#    0.000    2.000    0.000    3.500    0.000   10.000 
#    0.000    0.833    0.000    5.000    0.000    0.000 
#    0.000    0.000    0.000    0.000    0.000    0.000 
#
# Total GULP energy -595414.433241 kJ/mol
# GULP energy per Si atom -12404.467359 kJ/mol
# Density = 1.921892 g / cm^3
# Si number density = 19.262768 Si / 1000 Ang^3
#
#
#
# Elastic Constant Matrix: (Units=GPa)
#
#
# Indices 1 2 3 4 5 6 
#
# 1 73.4839 58.9861 47.1661 0.0000 0.0000 0.0000
# 2 58.9861 174.4834 77.9112 0.0000 0.0000 0.0000
# 3 47.1661 77.9112 117.3901 0.0000 0.0000 0.0000
# 4 0.0000 0.0000 0.0000 92.7573 0.0000 0.0000
# 5 0.0000 0.0000 0.0000 0.0000 26.6385 0.0000
# 6 0.0000 0.0000 0.0000 0.0000 0.0000 333.2793
#
#
#
# Elastic Compliance Matrix: (Units=1/GPa)
#
#
# Indices 1 2 3 4 5 6 
#
# 1 0.020708 -0.004669 -0.005221 0.000000 0.000000 0.000000
# 2 -0.004669 0.009198 -0.004229 0.000000 0.000000 0.000000
# 3 -0.005221 -0.004229 0.013423 0.000000 0.000000 0.000000
# 4 0.000000 0.000000 0.000000 0.010781 0.000000 0.000000
# 5 0.000000 0.000000 0.000000 0.000000 0.037540 0.000000
# 6 0.000000 0.000000 0.000000 0.000000 0.000000 0.003000
#
#
# Mechanical properties :
#
#
# Convention : Reuss Voigt Hill
#
# Bulk Modulus (GPa) = 66.26649 81.49826 73.88237
# Shear Modulus (GPa) = 39.08779 102.62128 70.85454
#
# Velocity S-wave (km/s) = 4.50954 7.30685 6.07149
# Velocity P-wave (km/s) = 7.84797 10.65773 9.35890
#
# Compressibility (1/GPa) = 0.01509058
#
# Stress axis : x y z
#
# Youngs Moduli (GPa) = 48.29149 108.72195 74.49931
#
# Poissons Ratio (x) = 0.50762 0.38898
# Poissons Ratio (y) = 0.22547 0.31503
# Poissons Ratio (z) = 0.25214 0.45974
#
# Static dielectric constant tensor:
#      x y z
#    x 3.382540 0.000000 0.000000 
#    y 0.000000 3.689160 0.000000 
#    z 0.000000 0.000000 3.613880 
# 
# 
# High freq. dielectric constant tensor:
#      x y z
#    x 1.732850 0.000000 0.000000 
#    y 0.000000 1.767510 0.000000 
#    z 0.000000 0.000000 1.756980 
# 
# From -- ./inp_files/2648.got.cif
#   From: 2010.03.12/outbox.cif.g09.slc.cpg/sg47_2_cif.got.tgz:2648.got - 2010.04.14 03:12:58.
