data_PCOD8198874
_publ_section_title
;
Structure prediction by ZEFSAII (Michael W. Deem and Ramdas Pophale) SiO2 
 PCOD8198874
Probable space group: P M M M
;
_chemical_formula_sum "Si O2"
_cell_formula_units_Z 56
_cell_length_a 9.717985
_cell_length_b 14.052746
_cell_length_c 20.916040
_cell_angle_alpha 90.000000
_cell_angle_beta 90.000000
_cell_angle_gamma 90.000000
_cell_volume 2856.385927
_symmetry_space_group_name_H-M "P M M M"
_symmetry_group_IT_number 47
_symmetry_cell_setting 'orthorhombic'
loop_
_space_group_symop_operation_xyz
x,y,z
-x,-y,z
x,-y,-z
-x,y,-z
-x,-y,-z
x,y,-z
-x,y,z
x,-y,z
loop_
_atom_site_type_symbol
_atom_site_label
_atom_site_fract_x
_atom_site_fract_y
_atom_site_fract_z
Si Si1 0.341422 0.603891 0.682565
Si Si2 0.348054 0.893715 0.925980
Si Si3 0.500000 0.388472 0.927406
Si Si4 0.165193 0.113741 0.500000
Si Si5 0.343017 0.789965 0.390794
Si Si6 0.346743 0.892456 0.737741
Si Si7 0.264984 0.392265 0.828462
Si Si8 0.151911 0.203441 0.166346
O O1 0.500000 0.600001 0.665339
O O2 0.273943 0.500000 0.665171
O O3 0.282427 0.690296 0.638960
O O4 0.330931 0.621466 0.758447
O O5 0.500000 0.848971 0.913100
O O6 0.228181 0.831272 0.896737
O O7 0.343657 0.000000 0.896269
O O8 0.317397 0.899610 0.000000
O O9 0.500000 0.500000 0.936913
O O10 0.368502 0.360247 0.884925
O O11 0.500000 0.341907 0.000000
O O12 0.233982 0.168072 0.559460
O O13 0.000000 0.129293 0.500000
O O14 0.198744 0.000000 0.500000
O O15 0.500000 0.777367 0.418592
O O16 0.349585 0.868983 0.336409
O O17 0.500000 0.876730 0.766919
O O18 0.238083 0.825441 0.771927
O O19 0.297969 0.000000 0.746852
O O20 0.212457 0.500000 0.838295
O O21 0.139354 0.318389 0.834437
O O22 0.000000 0.159245 0.169126
#
# Coordination Sequence:
#
# PCOD8198874 Si02
#       8
#     8   8   4   4   8   8   8   8
#     4   9  16  31  59  93 121 152 195 249 305 347
#     4   9  20  40  63  83 105 141 191 245 299 354
#     4   9  18  32  56  90 117 146 197 256 309 358
#     4  11  25  43  62  87 124 166 203 243 298 363
#     4  10  20  37  64  92 119 154 199 250 290 350
#     4  10  21  37  59  87 117 150 191 246 301 346
#     4  10  20  36  57  81 119 159 198 249 301 354
#     4  12  25  36  53  83 118 154 193 235 291 361
#
# _framework density 19.605194000000001
#
# number of rings (size 3 to 8) (size 9 to 14) (size 15 to 20)
#    0.000    2.000    2.143    1.929    2.000    5.143 
#    0.000    1.071    0.000    2.571    0.000    3.000 
#    0.000    0.000    0.000    0.000    0.000    0.000 
#
# Total GULP energy -693783.317816 kJ/mol
# GULP energy per Si atom -12388.987818 kJ/mol
# Density = 1.956057 g / cm^3
# Si number density = 19.605194 Si / 1000 Ang^3
#
#
#
# Elastic Constant Matrix: (Units=GPa)
#
#
# Indices 1 2 3 4 5 6 
#
# 1 106.7711 52.4292 42.3580 0.0000 0.0000 0.0000
# 2 52.4292 118.5394 50.9710 0.0000 0.0000 0.0000
# 3 42.3580 50.9710 102.6086 0.0000 0.0000 0.0000
# 4 0.0000 0.0000 0.0000 29.2592 0.0000 0.0000
# 5 0.0000 0.0000 0.0000 0.0000 35.9462 0.0000
# 6 0.0000 0.0000 0.0000 0.0000 0.0000 17.9398
#
#
#
# Elastic Compliance Matrix: (Units=1/GPa)
#
#
# Indices 1 2 3 4 5 6 
#
# 1 0.012704 -0.004277 -0.003119 0.000000 0.000000 0.000000
# 2 -0.004277 0.012168 -0.004278 0.000000 0.000000 0.000000
# 3 -0.003119 -0.004278 0.013159 0.000000 0.000000 0.000000
# 4 0.000000 0.000000 0.000000 0.034177 0.000000 0.000000
# 5 0.000000 0.000000 0.000000 0.000000 0.027819 0.000000
# 6 0.000000 0.000000 0.000000 0.000000 0.000000 0.055742
#
#
# Mechanical properties :
#
#
# Convention : Reuss Voigt Hill
#
# Bulk Modulus (GPa) = 68.12231 68.82615 68.47423
# Shear Modulus (GPa) = 27.17202 28.77310 27.97256
#
# Velocity S-wave (km/s) = 3.72689 3.83512 3.78139
# Velocity P-wave (km/s) = 7.30357 7.40224 7.35307
#
# Compressibility (1/GPa) = 0.01467948
#
# Stress axis : x y z
#
# Youngs Moduli (GPa) = 78.71673 82.18530 75.99445
#
# Poissons Ratio (x) = 0.35154 0.23706
# Poissons Ratio (y) = 0.33671 0.32514
# Poissons Ratio (z) = 0.24555 0.35163
#
# Static dielectric constant tensor:
#      x y z
#    x 3.240760 0.000000 0.000000 
#    y 0.000000 4.031820 0.000000 
#    z 0.000000 0.000000 3.518570 
# 
# 
# High freq. dielectric constant tensor:
#      x y z
#    x 1.726400 0.000000 0.000000 
#    y 0.000000 1.783450 0.000000 
#    z 0.000000 0.000000 1.756790 
# 
# From -- ./inp_files/29739.got.cif
#   From: 2010.03.12/outbox.cif.g09.slc.cpg/sg47_15_cif.got.tgz:29739.got - 2010.04.14 03:12:58.
