data_PCOD8198936
_publ_section_title
;
Structure prediction by ZEFSAII (Michael W. Deem and Ramdas Pophale) SiO2 
 PCOD8198936
Probable space group: P M M M
;
_chemical_formula_sum "Si O2"
_cell_formula_units_Z 52
_cell_length_a 15.552285
_cell_length_b 8.926437
_cell_length_c 19.209373
_cell_angle_alpha 90.000000
_cell_angle_beta 90.000000
_cell_angle_gamma 90.000000
_cell_volume 2666.769872
_symmetry_space_group_name_H-M "P M M M"
_symmetry_group_IT_number 47
_symmetry_cell_setting 'orthorhombic'
loop_
_space_group_symop_operation_xyz
x,y,z
-x,-y,z
x,-y,-z
-x,y,-z
-x,-y,-z
x,y,-z
-x,y,z
x,-y,z
loop_
_atom_site_type_symbol
_atom_site_label
_atom_site_fract_x
_atom_site_fract_y
_atom_site_fract_z
Si Si1 0.399016 0.335093 0.076121
Si Si2 0.128767 0.821826 0.815230
Si Si3 0.251339 0.324714 0.579562
Si Si4 0.093946 0.672039 0.325335
Si Si5 0.679093 0.174911 0.199610
Si Si6 0.000000 0.677371 0.081620
Si Si7 0.598013 0.821693 0.658610
O O1 0.500000 0.339204 0.070450
O O2 0.365049 0.500000 0.098884
O O3 0.374148 0.209913 0.130990
O O4 0.360661 0.293513 0.000000
O O5 0.085257 0.771760 0.743631
O O6 0.225864 0.760051 0.810818
O O7 0.084307 0.746559 0.882010
O O8 0.121995 0.000000 0.823514
O O9 0.229862 0.286340 0.500000
O O10 0.265925 0.500000 0.590796
O O11 0.169841 0.266812 0.624711
O O12 0.339541 0.241379 0.599263
O O13 0.112834 0.500000 0.304766
O O14 0.000000 0.683973 0.362790
O O15 0.632148 0.243132 0.267459
O O16 0.684436 0.000000 0.210436
O O17 0.000000 0.500000 0.092326
O O18 0.000000 0.720170 0.000000
O O19 0.500000 0.765664 0.646640
O O20 0.601066 0.000000 0.656654
#
# Coordination Sequence:
#
# PCOD8198936 Si02
#       7
#     8   8   8   8   8   4   8
#     4   9  19  35  53  76 108 144 182 227 280 336
#     4  11  22  37  60  86 114 150 190 239 290 338
#     4  10  22  39  59  87 122 156 193 242 294 348
#     4  10  20  36  61  89 117 152 193 234 284 352
#     4  10  21  36  56  83 112 144 188 240 290 343
#     4  11  25  43  61  85 120 159 198 239 287 350
#     4  10  21  38  59  83 115 156 201 247 296 354
#
# _framework density 19.499245999999999
#
# number of rings (size 3 to 8) (size 9 to 14) (size 15 to 20)
#    0.000    1.923    2.308    1.615    0.000    5.538 
#    0.000    6.923    0.000    0.000    0.000    2.154 
#    0.000    0.000    0.000    0.000    0.000    0.000 
#
# Total GULP energy -644681.160337 kJ/mol
# GULP energy per Si atom -12397.714622 kJ/mol
# Density = 1.945486 g / cm^3
# Si number density = 19.499246 Si / 1000 Ang^3
#
#
#
# Elastic Constant Matrix: (Units=GPa)
#
#
# Indices 1 2 3 4 5 6 
#
# 1 134.3559 36.0003 59.7948 0.0000 0.0000 0.0000
# 2 36.0003 40.5263 33.1350 0.0000 0.0000 0.0000
# 3 59.7948 33.1350 122.2397 0.0000 0.0000 0.0000
# 4 0.0000 0.0000 0.0000 24.7216 0.0000 0.0000
# 5 0.0000 0.0000 0.0000 0.0000 33.1124 0.0000
# 6 0.0000 0.0000 0.0000 0.0000 0.0000 28.3309
#
#
#
# Elastic Compliance Matrix: (Units=1/GPa)
#
#
# Indices 1 2 3 4 5 6 
#
# 1 0.010789 -0.006769 -0.003443 0.000000 0.000000 0.000000
# 2 -0.006769 0.035948 -0.006433 0.000000 0.000000 0.000000
# 3 -0.003443 -0.006433 0.011608 0.000000 0.000000 0.000000
# 4 0.000000 0.000000 0.000000 0.040450 0.000000 0.000000
# 5 0.000000 0.000000 0.000000 0.000000 0.030200 0.000000
# 6 0.000000 0.000000 0.000000 0.000000 0.000000 0.035297
#
#
# Mechanical properties :
#
#
# Convention : Reuss Voigt Hill
#
# Bulk Modulus (GPa) = 39.91096 61.66469 50.78782
# Shear Modulus (GPa) = 24.27948 28.44577 26.36263
#
# Velocity S-wave (km/s) = 3.53250 3.82359 3.68092
# Velocity P-wave (km/s) = 6.09511 7.15443 6.64591
#
# Compressibility (1/GPa) = 0.02505578
#
# Stress axis : x y z
#
# Youngs Moduli (GPa) = 92.68863 27.81764 86.14439
#
# Poissons Ratio (x) = 0.18830 0.29656
# Poissons Ratio (y) = 0.62743 0.55418
# Poissons Ratio (z) = 0.31909 0.17896
#
# Static dielectric constant tensor:
#      x y z
#    x 3.793430 0.000000 0.000000 
#    y 0.000000 3.399130 0.000000 
#    z 0.000000 0.000000 3.576550 
# 
# 
# High freq. dielectric constant tensor:
#      x y z
#    x 1.770890 0.000000 0.000000 
#    y 0.000000 1.746410 0.000000 
#    z 0.000000 0.000000 1.755370 
# 
# From -- ./inp_files/30876.got.cif
#   From: 2010.03.12/outbox.cif.g09.slc.cpg/sg47_16_cif.got.tgz:30876.got - 2010.04.14 03:12:58.
