data_PCOD8198043
_publ_section_title
;
Structure prediction by ZEFSAII (Michael W. Deem and Ramdas Pophale) SiO2 
 PCOD8198043
Probable space group: P M M M
;
_chemical_formula_sum "Si O2"
_cell_formula_units_Z 56
_cell_length_a 9.501912
_cell_length_b 22.178678
_cell_length_c 14.461740
_cell_angle_alpha 90.000000
_cell_angle_beta 90.000000
_cell_angle_gamma 90.000000
_cell_volume 3047.664870
_symmetry_space_group_name_H-M "P M M M"
_symmetry_group_IT_number 47
_symmetry_cell_setting 'orthorhombic'
loop_
_space_group_symop_operation_xyz
x,y,z
-x,-y,z
x,-y,-z
-x,y,-z
-x,-y,-z
x,y,-z
-x,y,z
x,-y,z
loop_
_atom_site_type_symbol
_atom_site_label
_atom_site_fract_x
_atom_site_fract_y
_atom_site_fract_z
Si Si1 0.836214 0.930743 0.726391
Si Si2 0.163654 0.152934 0.105933
Si Si3 0.662639 0.758798 0.775141
Si Si4 0.663828 0.432869 0.000000
Si Si5 0.664114 0.841497 0.606490
Si Si6 0.336714 0.621484 0.190251
Si Si7 0.154983 0.430608 0.337989
Si Si8 0.342750 0.572238 0.500000
O O1 0.801718 0.903949 0.828063
O O2 0.749832 0.898570 0.644830
O O3 0.000000 0.922899 0.702802
O O4 0.790089 0.000000 0.728584
O O5 0.249117 0.209896 0.143836
O O6 0.000000 0.169702 0.110822
O O7 0.208083 0.138024 0.000000
O O8 0.500000 0.769573 0.799198
O O9 0.699175 0.784282 0.672648
O O10 0.700811 0.688681 0.777797
O O11 0.705795 0.390602 0.085149
O O12 0.736150 0.500000 0.000000
O O13 0.500000 0.445268 0.000000
O O14 0.707946 0.827305 0.500000
O O15 0.500000 0.857792 0.611830
O O16 0.500000 0.605964 0.210326
O O17 0.234208 0.575603 0.241732
O O18 0.134327 0.500000 0.362328
O O19 0.258140 0.400922 0.413273
O O20 0.000000 0.399690 0.337742
O O21 0.351203 0.500000 0.500000
O O22 0.500000 0.599633 0.500000
#
# Coordination Sequence:
#
# PCOD8198043 Si02
#       8
#     8   8   8   4   8   8   8   4
#     4   9  18  32  50  75 106 136 171 215 256 301
#     4   9  18  32  51  74 101 136 173 209 257 311
#     4   9  19  34  52  75 100 130 172 219 262 305
#     4   9  18  32  51  75 103 133 166 211 262 312
#     4   9  18  34  53  72 100 137 172 210 260 310
#     4  10  20  34  53  77 101 132 175 219 261 311
#     4  10  20  34  52  75 106 139 168 207 261 316
#     4   9  17  31  53  77  99 129 169 207 244 297
#
# _framework density 18.374722999999999
#
# number of rings (size 3 to 8) (size 9 to 14) (size 15 to 20)
#    0.000    2.714    0.000    1.071    1.000    4.286 
#    1.286    3.214    0.000    1.286    0.000    4.000 
#    0.000    0.000    0.000    0.000    0.000    0.000 
#
# Total GULP energy -694155.569475 kJ/mol
# GULP energy per Si atom -12395.635169 kJ/mol
# Density = 1.833290 g / cm^3
# Si number density = 18.374723 Si / 1000 Ang^3
#
#
#
# Elastic Constant Matrix: (Units=GPa)
#
#
# Indices 1 2 3 4 5 6 
#
# 1 83.9355 29.8170 57.5048 0.0000 0.0000 0.0000
# 2 29.8170 75.9016 40.5952 0.0000 0.0000 0.0000
# 3 57.5048 40.5952 152.2916 0.0000 0.0000 0.0000
# 4 0.0000 0.0000 0.0000 14.0202 0.0000 0.0000
# 5 0.0000 0.0000 0.0000 0.0000 23.8905 0.0000
# 6 0.0000 0.0000 0.0000 0.0000 0.0000 23.6257
#
#
#
# Elastic Compliance Matrix: (Units=1/GPa)
#
#
# Indices 1 2 3 4 5 6 
#
# 1 0.016950 -0.003773 -0.005394 0.000000 0.000000 0.000000
# 2 -0.003773 0.016206 -0.002895 0.000000 0.000000 0.000000
# 3 -0.005394 -0.002895 0.009375 0.000000 0.000000 0.000000
# 4 0.000000 0.000000 0.000000 0.071325 0.000000 0.000000
# 5 0.000000 0.000000 0.000000 0.000000 0.041858 0.000000
# 6 0.000000 0.000000 0.000000 0.000000 0.000000 0.042327
#
#
# Mechanical properties :
#
#
# Convention : Reuss Voigt Hill
#
# Bulk Modulus (GPa) = 54.33312 63.10696 58.72004
# Shear Modulus (GPa) = 21.90085 24.58806 23.24445
#
# Velocity S-wave (km/s) = 3.45614 3.66204 3.56058
# Velocity P-wave (km/s) = 6.74983 7.23185 6.99499
#
# Compressibility (1/GPa) = 0.01840498
#
# Stress axis : x y z
#
# Youngs Moduli (GPa) = 58.99644 61.70683 106.66701
#
# Poissons Ratio (x) = 0.23285 0.57541
# Poissons Ratio (y) = 0.22262 0.30880
# Poissons Ratio (z) = 0.31825 0.17864
#
# Static dielectric constant tensor:
#      x y z
#    x 3.431350 0.000000 0.000000 
#    y 0.000000 3.180000 0.000000 
#    z 0.000000 0.000000 3.600410 
# 
# 
# High freq. dielectric constant tensor:
#      x y z
#    x 1.707480 0.000000 0.000000 
#    y 0.000000 1.691180 0.000000 
#    z 0.000000 0.000000 1.720800 
# 
# From -- ./inp_files/21652.got.cif
#   From: 2010.03.12/outbox.cif.g09.slc.cpg/sg47_11_cif.got.tgz:21652.got - 2010.04.14 03:12:58.
