data_PCOD8198284
_publ_section_title
;
Structure prediction by ZEFSAII (Michael W. Deem and Ramdas Pophale) SiO2 
 PCOD8198284
Probable space group: P M M M
;
_chemical_formula_sum "Si O2"
_cell_formula_units_Z 64
_cell_length_a 18.394560
_cell_length_b 20.466676
_cell_length_c 9.055146
_cell_angle_alpha 90.000000
_cell_angle_beta 90.000000
_cell_angle_gamma 90.000000
_cell_volume 3409.040615
_symmetry_space_group_name_H-M "P M M M"
_symmetry_group_IT_number 47
_symmetry_cell_setting 'orthorhombic'
loop_
_space_group_symop_operation_xyz
x,y,z
-x,-y,z
x,-y,-z
-x,y,-z
-x,-y,-z
x,y,-z
-x,y,z
x,-y,z
loop_
_atom_site_type_symbol
_atom_site_label
_atom_site_fract_x
_atom_site_fract_y
_atom_site_fract_z
Si Si1 0.416781 0.423987 0.330392
Si Si2 0.086350 0.071976 0.334014
Si Si3 0.913642 0.801144 0.168644
Si Si4 0.413599 0.928924 0.333137
Si Si5 0.676922 0.319376 0.825216
Si Si6 0.417875 0.197139 0.173623
Si Si7 0.831598 0.314664 0.674868
Si Si8 0.915750 0.575249 0.168598
O O1 0.401506 0.404740 0.500000
O O2 0.500000 0.407572 0.288722
O O3 0.401038 0.500000 0.305296
O O4 0.363148 0.385347 0.223243
O O5 0.114708 0.085697 0.500000
O O6 0.115482 0.128510 0.225616
O O7 0.000000 0.072652 0.333456
O O8 0.113617 0.000000 0.280896
O O9 0.879731 0.744901 0.267705
O O10 0.000000 0.795987 0.183232
O O11 0.888280 0.792688 0.000000
O O12 0.387049 0.918390 0.500000
O O13 0.500000 0.928440 0.323973
O O14 0.382126 0.869495 0.236521
O O15 0.385465 0.000000 0.275533
O O16 0.628555 0.258424 0.772491
O O17 0.752807 0.311633 0.745173
O O18 0.688776 0.320963 0.000000
O O19 0.500000 0.207051 0.232906
O O20 0.417187 0.190822 0.000000
O O21 0.825514 0.310703 0.500000
O O22 0.868443 0.382782 0.719311
O O23 0.894478 0.500000 0.192020
O O24 0.000000 0.586693 0.204531
O O25 0.899401 0.596579 0.000000
#
# Coordination Sequence:
#
# PCOD8198284 Si02
#       8
#     8   8   8   8   8   8   8   8
#     4   9  19  37  60  85 112 140 172 213 260 311
#     4   8  14  26  46  74 107 139 172 214 263 313
#     4  10  20  34  54  79 107 140 178 220 266 318
#     4   8  14  25  43  70 102 133 166 205 250 302
#     4  11  23  38  55  76 106 142 180 222 264 311
#     4   9  18  32  51  76 103 132 169 213 260 308
#     4  12  25  38  54  77 107 143 181 221 265 314
#     4   9  19  38  63  87 110 137 170 210 258 313
#
# _framework density 18.773610999999999
#
# number of rings (size 3 to 8) (size 9 to 14) (size 15 to 20)
#    0.000    2.500    0.000    4.125    0.000    5.750 
#    0.000    5.000    0.000    0.750    0.000    3.500 
#    0.000    0.000    0.000    0.000    0.000    0.000 
#
# Total GULP energy -793488.695562 kJ/mol
# GULP energy per Si atom -12398.260868 kJ/mol
# Density = 1.873088 g / cm^3
# Si number density = 18.773611 Si / 1000 Ang^3
#
#
#
# Elastic Constant Matrix: (Units=GPa)
#
#
# Indices 1 2 3 4 5 6 
#
# 1 60.2404 47.0833 42.2954 0.0000 0.0000 0.0000
# 2 47.0833 128.2287 58.7851 0.0000 0.0000 0.0000
# 3 42.2954 58.7851 94.3996 0.0000 0.0000 0.0000
# 4 0.0000 0.0000 0.0000 38.2209 0.0000 0.0000
# 5 0.0000 0.0000 0.0000 0.0000 -7.5225 0.0000
# 6 0.0000 0.0000 0.0000 0.0000 0.0000 -5.5752
#
#
#
# Elastic Compliance Matrix: (Units=1/GPa)
#
#
# Indices 1 2 3 4 5 6 
#
# 1 0.027328 -0.006187 -0.008391 0.000000 0.000000 0.000000
# 2 -0.006187 0.012315 -0.004897 0.000000 0.000000 0.000000
# 3 -0.008391 -0.004897 0.017402 0.000000 0.000000 0.000000
# 4 0.000000 0.000000 0.000000 0.026164 0.000000 0.000000
# 5 0.000000 0.000000 0.000000 0.000000 -0.132935 0.000000
# 6 0.000000 0.000000 0.000000 0.000000 0.000000 -0.179367
#
#
# Mechanical properties :
#
#
# Convention : Reuss Voigt Hill
#
# Bulk Modulus (GPa) = 55.26487 64.35514 59.81000
# Shear Modulus (GPa) = -27.15746 14.00499 -6.57623
#
# Velocity S-wave (km/s) = -3.80751 2.73425 -1.87364
# Velocity P-wave (km/s) = 3.18934 6.65749 5.21987
#
# Compressibility (1/GPa) = 0.01809468
#
# Stress axis : x y z
#
# Youngs Moduli (GPa) = 36.59307 81.19919 57.46409
#
# Poissons Ratio (x) = 0.50242 0.48218
# Poissons Ratio (y) = 0.22642 0.28139
# Poissons Ratio (z) = 0.30705 0.39762
#
# Static dielectric constant tensor:
#      x y z
#    x 3.196590 0.000000 0.000000 
#    y 0.000000 3.805820 0.000000 
#    z 0.000000 0.000000 3.451290 
# 
# 
# High freq. dielectric constant tensor:
#      x y z
#    x 1.695540 0.000000 0.000000 
#    y 0.000000 1.747670 0.000000 
#    z 0.000000 0.000000 1.726000 
# 
# From -- ./inp_files/10006.got.cif
#   From: 2010.03.12/outbox.cif.g09.slc.cpg/sg47_6_cif.got.tgz:10006.got - 2010.04.14 03:12:58.
