data_PCOD8198347
_publ_section_title
;
Structure prediction by ZEFSAII (Michael W. Deem and Ramdas Pophale) SiO2 
 PCOD8198347
Probable space group: P M M M
;
_chemical_formula_sum "Si O2"
_cell_formula_units_Z 52
_cell_length_a 20.760146
_cell_length_b 8.879436
_cell_length_c 14.307288
_cell_angle_alpha 90.000000
_cell_angle_beta 90.000000
_cell_angle_gamma 90.000000
_cell_volume 2637.382403
_symmetry_space_group_name_H-M "P M M M"
_symmetry_group_IT_number 47
_symmetry_cell_setting 'orthorhombic'
loop_
_space_group_symop_operation_xyz
x,y,z
-x,-y,z
x,-y,-z
-x,y,-z
-x,-y,-z
x,y,-z
-x,y,z
x,-y,z
loop_
_atom_site_type_symbol
_atom_site_label
_atom_site_fract_x
_atom_site_fract_y
_atom_site_fract_z
Si Si1 0.000000 0.178850 0.108485
Si Si2 0.227171 0.172118 0.891740
Si Si3 0.641146 0.672052 0.895768
Si Si4 0.570151 0.325056 0.714927
Si Si5 0.683744 0.832645 0.609811
Si Si6 0.117571 0.677078 0.218075
Si Si7 0.171261 0.821553 0.606732
O O1 0.062030 0.240943 0.160941
O O2 0.000000 0.000000 0.114637
O O3 0.000000 0.231331 0.000000
O O4 0.300663 0.215742 0.872644
O O5 0.184156 0.285158 0.832426
O O6 0.215936 0.000000 0.859216
O O7 0.209152 0.191754 0.000000
O O8 0.665727 0.500000 0.885262
O O9 0.583967 0.707528 0.824008
O O10 0.614525 0.701331 0.000000
O O11 0.500000 0.251862 0.691059
O O12 0.565823 0.500000 0.694802
O O13 0.628033 0.267820 0.652126
O O14 0.674208 0.834343 0.500000
O O15 0.755534 0.771995 0.633376
O O16 0.676317 0.000000 0.650966
O O17 0.104449 0.500000 0.218996
O O18 0.121398 0.737031 0.324852
O O19 0.155394 0.774520 0.500000
O O20 0.163936 0.000000 0.618492
#
# Coordination Sequence:
#
# PCOD8198347 Si02
#       7
#     4   8   8   8   8   8   8
#     4  11  25  45  66  87 116 157 201 236 268 315
#     4  10  20  34  54  80 109 142 182 228 277 331
#     4   9  18  33  52  74 101 134 175 225 279 331
#     4  10  21  34  48  71 103 139 179 221 270 331
#     4   9  19  36  57  80 105 136 177 225 275 325
#     4  12  24  37  58  88 121 153 185 227 277 327
#     4   9  19  38  63  88 114 146 186 231 278 329
#
# _framework density 19.716519999999999
#
# number of rings (size 3 to 8) (size 9 to 14) (size 15 to 20)
#    0.000    2.077    0.000    4.385    0.000    8.615 
#    0.000    5.000    0.000    2.308    0.000    3.231 
#    0.000    0.000    0.000    0.000    0.000    0.000 
#
# Total GULP energy -644723.678493 kJ/mol
# GULP energy per Si atom -12398.532279 kJ/mol
# Density = 1.967164 g / cm^3
# Si number density = 19.716520 Si / 1000 Ang^3
#
#
#
# Elastic Constant Matrix: (Units=GPa)
#
#
# Indices 1 2 3 4 5 6 
#
# 1 84.6095 37.3323 66.9038 0.0000 0.0000 0.0000
# 2 37.3323 71.8305 43.0943 0.0000 0.0000 0.0000
# 3 66.9038 43.0943 92.6399 0.0000 0.0000 0.0000
# 4 0.0000 0.0000 0.0000 28.9643 0.0000 0.0000
# 5 0.0000 0.0000 0.0000 0.0000 22.3185 0.0000
# 6 0.0000 0.0000 0.0000 0.0000 0.0000 29.2661
#
#
#
# Elastic Compliance Matrix: (Units=1/GPa)
#
#
# Indices 1 2 3 4 5 6 
#
# 1 0.028132 -0.003374 -0.018747 0.000000 0.000000 0.000000
# 2 -0.003374 0.019716 -0.006735 0.000000 0.000000 0.000000
# 3 -0.018747 -0.006735 0.027466 0.000000 0.000000 0.000000
# 4 0.000000 0.000000 0.000000 0.034525 0.000000 0.000000
# 5 0.000000 0.000000 0.000000 0.000000 0.044806 0.000000
# 6 0.000000 0.000000 0.000000 0.000000 0.000000 0.034169
#
#
# Mechanical properties :
#
#
# Convention : Reuss Voigt Hill
#
# Bulk Modulus (GPa) = 56.81037 60.41563 58.61300
# Shear Modulus (GPa) = 19.81043 22.89310 21.35177
#
# Velocity S-wave (km/s) = 3.17324 3.41121 3.29437
# Velocity P-wave (km/s) = 6.50400 6.79881 6.65304
#
# Compressibility (1/GPa) = 0.01760242
#
# Stress axis : x y z
#
# Youngs Moduli (GPa) = 35.54732 50.72136 36.40808
#
# Poissons Ratio (x) = 0.17111 0.68254
# Poissons Ratio (y) = 0.11992 0.24521
# Poissons Ratio (z) = 0.66641 0.34161
#
# Static dielectric constant tensor:
#      x y z
#    x 3.657150 0.000000 0.000000 
#    y 0.000000 3.626290 0.000000 
#    z 0.000000 0.000000 3.802390 
# 
# 
# High freq. dielectric constant tensor:
#      x y z
#    x 1.756810 0.000000 0.000000 
#    y 0.000000 1.759330 0.000000 
#    z 0.000000 0.000000 1.782410 
# 
# From -- ./inp_files/25015.got.cif
#   From: 2010.03.12/outbox.cif.g09.slc.cpg/sg47_13_cif.got.tgz:25015.got - 2010.04.14 03:12:58.
