data_PCOD8198330
_publ_section_title
;
Structure prediction by ZEFSAII (Michael W. Deem and Ramdas Pophale) SiO2 
 PCOD8198330
Probable space group: P M M M
;
_chemical_formula_sum "Si O2"
_cell_formula_units_Z 52
_cell_length_a 21.095526
_cell_length_b 14.111602
_cell_length_c 8.932683
_cell_angle_alpha 90.000000
_cell_angle_beta 90.000000
_cell_angle_gamma 90.000000
_cell_volume 2659.185292
_symmetry_space_group_name_H-M "P M M M"
_symmetry_group_IT_number 47
_symmetry_cell_setting 'orthorhombic'
loop_
_space_group_symop_operation_xyz
x,y,z
-x,-y,z
x,-y,-z
-x,y,-z
-x,-y,-z
x,y,-z
-x,y,z
x,-y,z
loop_
_atom_site_type_symbol
_atom_site_label
_atom_site_fract_x
_atom_site_fract_y
_atom_site_fract_z
Si Si1 0.360746 0.609219 0.327277
Si Si2 0.429275 0.236460 0.174177
Si Si3 0.813282 0.892947 0.325553
Si Si4 0.000000 0.391045 0.822702
Si Si5 0.684939 0.893146 0.823470
Si Si6 0.232586 0.612113 0.830449
Si Si7 0.118004 0.291742 0.325795
O O1 0.346222 0.630212 0.500000
O O2 0.376401 0.500000 0.300046
O O3 0.421234 0.667312 0.268849
O O4 0.301078 0.643720 0.229015
O O5 0.500000 0.196116 0.203203
O O6 0.377040 0.162265 0.233627
O O7 0.419338 0.259203 0.000000
O O8 0.797843 0.892969 0.500000
O O9 0.750388 0.852812 0.244225
O O10 0.871253 0.820607 0.291048
O O11 0.831180 0.000000 0.271021
O O12 0.060672 0.333175 0.768974
O O13 0.000000 0.500000 0.762032
O O14 0.000000 0.393027 0.000000
O O15 0.676089 0.000000 0.766550
O O16 0.690870 0.887183 0.000000
O O17 0.225818 0.500000 0.826197
O O18 0.180955 0.653065 0.718602
O O19 0.223752 0.650363 0.000000
O O20 0.103505 0.308319 0.500000
#
# Coordination Sequence:
#
# PCOD8198330 Si02
#       7
#     8   8   8   4   8   8   8
#     4  10  21  36  53  74 101 134 175 224 274 322
#     4  10  21  35  51  73 102 138 178 219 268 327
#     4   9  19  36  57  82 111 141 175 217 267 320
#     4  11  25  43  60  81 114 154 189 221 264 317
#     4   9  18  33  54  80 108 138 174 218 267 318
#     4  10  20  34  54  80 109 140 174 217 271 326
#     4  11  22  36  58  85 112 146 185 224 265 309
#
# _framework density 19.554862
#
# number of rings (size 3 to 8) (size 9 to 14) (size 15 to 20)
#    0.000    2.077    0.000    3.000    0.000    9.538 
#    0.000    3.462    0.000    2.308    0.000    3.231 
#    0.000    0.000    0.000    0.000    0.000    0.000 
#
# Total GULP energy -644821.194754 kJ/mol
# GULP energy per Si atom -12400.407591 kJ/mol
# Density = 1.951035 g / cm^3
# Si number density = 19.554862 Si / 1000 Ang^3
#
#
#
# Elastic Constant Matrix: (Units=GPa)
#
#
# Indices 1 2 3 4 5 6 
#
# 1 97.5053 67.1698 26.8805 0.0000 0.0000 0.0000
# 2 67.1698 82.4434 36.9227 0.0000 0.0000 0.0000
# 3 26.8805 36.9227 53.7738 0.0000 0.0000 0.0000
# 4 0.0000 0.0000 0.0000 27.1983 0.0000 0.0000
# 5 0.0000 0.0000 0.0000 0.0000 -209.0095 0.0000
# 6 0.0000 0.0000 0.0000 0.0000 0.0000 28.6486
#
#
#
# Elastic Compliance Matrix: (Units=1/GPa)
#
#
# Indices 1 2 3 4 5 6 
#
# 1 0.023527 -0.020074 0.002023 0.000000 0.000000 0.000000
# 2 -0.020074 0.034644 -0.013753 0.000000 0.000000 0.000000
# 3 0.002023 -0.013753 0.027028 0.000000 0.000000 0.000000
# 4 0.000000 0.000000 0.000000 0.036767 0.000000 0.000000
# 5 0.000000 0.000000 0.000000 0.000000 -0.004784 0.000000
# 6 0.000000 0.000000 0.000000 0.000000 0.000000 0.034906
#
#
# Mechanical properties :
#
#
# Convention : Reuss Voigt Hill
#
# Bulk Modulus (GPa) = 46.31590 55.07428 50.69509
# Shear Modulus (GPa) = 22.43222 -23.78254 -0.67516
#
# Velocity S-wave (km/s) = 3.39062 -3.49118 -0.58823
# Velocity P-wave (km/s) = 6.25020 3.46034 5.05168
#
# Compressibility (1/GPa) = 0.02159086
#
# Stress axis : x y z
#
# Youngs Moduli (GPa) = 42.50417 28.86484 36.99823
#
# Poissons Ratio (x) = 0.57944 -0.07484
# Poissons Ratio (y) = 0.85325 0.50883
# Poissons Ratio (z) = -0.08598 0.39698
#
# Static dielectric constant tensor:
#      x y z
#    x 3.661600 0.000000 0.000000 
#    y 0.000000 3.853420 0.000000 
#    z 0.000000 0.000000 3.552270 
# 
# 
# High freq. dielectric constant tensor:
#      x y z
#    x 1.749810 0.000000 0.000000 
#    y 0.000000 1.770250 0.000000 
#    z 0.000000 0.000000 1.761570 
# 
# From -- ./inp_files/6982.got.cif
#   From: 2010.03.12/outbox.cif.g09.slc.cpg/sg47_4_cif.got.tgz:6982.got - 2010.04.14 03:12:58.
