data_PCOD8198411
_publ_section_title
;
Structure prediction by ZEFSAII (Michael W. Deem and Ramdas Pophale) SiO2 
 PCOD8198411
Probable space group: P M M M
;
_chemical_formula_sum "Si O2"
_cell_formula_units_Z 44
_cell_length_a 31.746195
_cell_length_b 9.609097
_cell_length_c 7.701041
_cell_angle_alpha 90.000000
_cell_angle_beta 90.000000
_cell_angle_gamma 90.000000
_cell_volume 2349.220016
_symmetry_space_group_name_H-M "P M M M"
_symmetry_group_IT_number 47
_symmetry_cell_setting 'orthorhombic'
loop_
_space_group_symop_operation_xyz
x,y,z
-x,-y,z
x,-y,-z
-x,y,-z
-x,-y,-z
x,y,-z
-x,y,z
x,-y,z
loop_
_atom_site_type_symbol
_atom_site_label
_atom_site_fract_x
_atom_site_fract_y
_atom_site_fract_z
Si Si1 0.621967 0.650426 0.699913
Si Si2 0.000000 0.343013 0.294646
Si Si3 0.078430 0.159866 0.299575
Si Si4 0.546460 0.844408 0.795311
Si Si5 0.856185 0.840783 0.000000
Si Si6 0.227343 0.665926 0.000000
Si Si7 0.712882 0.665743 0.694382
O O1 0.630245 0.623860 0.500000
O O2 0.612280 0.500000 0.789138
O O3 0.582510 0.749357 0.720008
O O4 0.666547 0.714472 0.766585
O O5 0.958858 0.259637 0.232411
O O6 0.000000 0.500000 0.216793
O O7 0.000000 0.349164 0.500000
O O8 0.091009 0.192037 0.500000
O O9 0.063302 0.000000 0.281279
O O10 0.117749 0.189612 0.175146
O O11 0.500000 0.790274 0.737780
O O12 0.553102 0.000000 0.723257
O O13 0.549765 0.844327 0.000000
O O14 0.817823 0.735506 0.000000
O O15 0.840268 0.000000 0.000000
O O16 0.251978 0.719037 0.171461
O O17 0.222016 0.500000 0.000000
O O18 0.722768 0.724260 0.500000
O O19 0.712361 0.500000 0.690375
#
# Coordination Sequence:
#
# PCOD8198411 Si02
#       7
#     8   4   8   8   4   4   8
#     4   9  18  32  51  75  99 123 158 205 249 292
#     4   9  17  30  51  80 109 135 170 217 259 292
#     4   9  18  34  54  73 100 141 178 207 248 301
#     4   9  19  34  48  66  97 134 167 198 237 290
#     4  10  22  37  51  74 105 133 171 216 252 296
#     4  10  20  34  55  77  97 131 169 201 252 313
#     4   8  16  32  52  76 103 127 159 205 252 302
#
# _framework density 18.729621999999999
#
# number of rings (size 3 to 8) (size 9 to 14) (size 15 to 20)
#    0.000    3.000    0.000    1.909    1.273    4.364 
#    0.000    5.455    0.000    1.091    0.000    0.000 
#    0.000    0.000    0.000    0.000    0.000    0.000 
#
# Total GULP energy -545236.563605 kJ/mol
# GULP energy per Si atom -12391.740082 kJ/mol
# Density = 1.868699 g / cm^3
# Si number density = 18.729622 Si / 1000 Ang^3
#
#
#
# Elastic Constant Matrix: (Units=GPa)
#
#
# Indices 1 2 3 4 5 6 
#
# 1 153.1825 67.7127 55.1208 0.0000 0.0000 0.0000
# 2 67.7127 73.5154 28.0737 0.0000 0.0000 0.0000
# 3 55.1208 28.0737 79.9534 0.0000 0.0000 0.0000
# 4 0.0000 0.0000 0.0000 16.3648 0.0000 0.0000
# 5 0.0000 0.0000 0.0000 0.0000 31.6348 0.0000
# 6 0.0000 0.0000 0.0000 0.0000 0.0000 29.4229
#
#
#
# Elastic Compliance Matrix: (Units=1/GPa)
#
#
# Indices 1 2 3 4 5 6 
#
# 1 0.012748 -0.009684 -0.005388 0.000000 0.000000 0.000000
# 2 -0.009684 0.023065 -0.001423 0.000000 0.000000 0.000000
# 3 -0.005388 -0.001423 0.016721 0.000000 0.000000 0.000000
# 4 0.000000 0.000000 0.000000 0.061107 0.000000 0.000000
# 5 0.000000 0.000000 0.000000 0.000000 0.031611 0.000000
# 6 0.000000 0.000000 0.000000 0.000000 0.000000 0.033987
#
#
# Mechanical properties :
#
#
# Convention : Reuss Voigt Hill
#
# Bulk Modulus (GPa) = 51.16357 67.60729 59.38543
# Shear Modulus (GPa) = 22.85782 25.86744 24.36263
#
# Velocity S-wave (km/s) = 3.49723 3.72034 3.61051
# Velocity P-wave (km/s) = 6.60936 7.39117 7.01117
#
# Compressibility (1/GPa) = 0.01954516
#
# Stress axis : x y z
#
# Youngs Moduli (GPa) = 78.44570 43.35496 59.80338
#
# Poissons Ratio (x) = 0.41984 0.32223
# Poissons Ratio (y) = 0.75966 0.08508
# Poissons Ratio (z) = 0.42268 0.06168
#
# Static dielectric constant tensor:
#      x y z
#    x 5.095950 0.000000 0.000000 
#    y 0.000000 2.527520 0.000000 
#    z 0.000000 0.000000 3.555050 
# 
# 
# High freq. dielectric constant tensor:
#      x y z
#    x 1.726510 0.000000 0.000000 
#    y 0.000000 1.700090 0.000000 
#    z 0.000000 0.000000 1.728140 
# 
# From -- ./inp_files/13701.got.cif
#   From: 2010.03.12/outbox.cif.g09.slc.cpg/sg47_7_cif.got.tgz:13701.got - 2010.04.14 03:12:58.
