data_PCOD8198596
_publ_section_title
;
Structure prediction by ZEFSAII (Michael W. Deem and Ramdas Pophale) SiO2 
 PCOD8198596
Probable space group: P M M M
;
_chemical_formula_sum "Si O2"
_cell_formula_units_Z 52
_cell_length_a 7.880533
_cell_length_b 14.561607
_cell_length_c 25.073098
_cell_angle_alpha 90.000000
_cell_angle_beta 90.000000
_cell_angle_gamma 90.000000
_cell_volume 2877.218844
_symmetry_space_group_name_H-M "P M M M"
_symmetry_group_IT_number 47
_symmetry_cell_setting 'orthorhombic'
loop_
_space_group_symop_operation_xyz
x,y,z
-x,-y,z
x,-y,-z
-x,y,-z
-x,-y,-z
x,y,-z
-x,y,z
x,-y,z
loop_
_atom_site_type_symbol
_atom_site_label
_atom_site_fract_x
_atom_site_fract_y
_atom_site_fract_z
Si Si1 0.306662 0.213752 0.059107
Si Si2 0.801424 0.602562 0.103519
Si Si3 0.500000 0.108719 0.559408
Si Si4 0.194963 0.101100 0.842188
Si Si5 0.195131 0.891952 0.634119
Si Si6 0.798374 0.599140 0.775195
Si Si7 0.798598 0.208614 0.258745
O O1 0.500000 0.182604 0.063301
O O2 0.294684 0.323151 0.067828
O O3 0.204405 0.157232 0.103021
O O4 0.235367 0.190795 0.000000
O O5 0.760553 0.500000 0.082255
O O6 0.737430 0.612564 0.164183
O O7 0.000000 0.623428 0.099986
O O8 0.500000 0.151541 0.500000
O O9 0.673833 0.140755 0.588441
O O10 0.500000 0.000000 0.556144
O O11 0.280062 0.155894 0.792640
O O12 0.000000 0.087899 0.827938
O O13 0.280165 0.000000 0.847868
O O14 0.257883 0.841184 0.687372
O O15 0.000000 0.866186 0.618445
O O16 0.209481 0.000000 0.644855
O O17 0.729907 0.500000 0.753327
O O18 0.730179 0.685725 0.740812
O O19 0.000000 0.596666 0.774276
O O20 0.000000 0.209455 0.254108
#
# Coordination Sequence:
#
# PCOD8198596 Si02
#       7
#     8   8   4   8   8   8   8
#     4  11  24  38  49  65  93 125 156 195 245 302
#     4   9  17  32  54  75  92 114 151 196 239 289
#     4   9  18  32  48  70 103 141 180 214 242 281
#     4  10  20  35  55  74  90 116 158 204 249 296
#     4   9  17  29  46  71 103 137 171 208 249 288
#     4   8  13  23  44  72  97 121 149 186 238 295
#     4   9  15  27  48  72 100 127 154 196 246 295
#
# _framework density 18.073007
#
# number of rings (size 3 to 8) (size 9 to 14) (size 15 to 20)
#    0.000    2.692    1.538    1.846    0.000    4.615 
#    1.385    4.615    0.000    0.000    0.000    0.000 
#    0.000    1.231    0.000    6.000    0.000    0.154 
#
# Total GULP energy -644401.234129 kJ/mol
# GULP energy per Si atom -12392.331426 kJ/mol
# Density = 1.803187 g / cm^3
# Si number density = 18.073007 Si / 1000 Ang^3
#
#
#
# Elastic Constant Matrix: (Units=GPa)
#
#
# Indices 1 2 3 4 5 6 
#
# 1 43.6526 16.4648 32.9455 0.0000 0.0000 0.0000
# 2 16.4648 115.8373 58.3021 0.0000 0.0000 0.0000
# 3 32.9455 58.3021 130.2611 0.0000 0.0000 0.0000
# 4 0.0000 0.0000 0.0000 17.5481 0.0000 0.0000
# 5 0.0000 0.0000 0.0000 0.0000 -9.5294 0.0000
# 6 0.0000 0.0000 0.0000 0.0000 0.0000 6.3423
#
#
#
# Elastic Compliance Matrix: (Units=1/GPa)
#
#
# Indices 1 2 3 4 5 6 
#
# 1 0.028339 -0.000543 -0.006925 0.000000 0.000000 0.000000
# 2 -0.000543 0.011153 -0.004855 0.000000 0.000000 0.000000
# 3 -0.006925 -0.004855 0.011601 0.000000 0.000000 0.000000
# 4 0.000000 0.000000 0.000000 0.056986 0.000000 0.000000
# 5 0.000000 0.000000 0.000000 0.000000 -0.104939 0.000000
# 6 0.000000 0.000000 0.000000 0.000000 0.000000 0.157671
#
#
# Mechanical properties :
#
#
# Convention : Reuss Voigt Hill
#
# Bulk Modulus (GPa) = 37.80815 56.13064 46.96939
# Shear Modulus (GPa) = 25.73703 15.00811 20.37257
#
# Velocity S-wave (km/s) = 3.77776 2.88482 3.36108
# Velocity P-wave (km/s) = 6.32406 6.49780 6.41152
#
# Compressibility (1/GPa) = 0.02644932
#
# Stress axis : x y z
#
# Youngs Moduli (GPa) = 35.28708 89.65892 86.19875
#
# Poissons Ratio (x) = 0.04867 0.59688
# Poissons Ratio (y) = 0.01916 0.41847
# Poissons Ratio (z) = 0.24435 0.43527
#
# Static dielectric constant tensor:
#      x y z
#    x 3.062590 0.000000 0.000000 
#    y 0.000000 3.663200 0.000000 
#    z 0.000000 0.000000 3.243480 
# 
# 
# High freq. dielectric constant tensor:
#      x y z
#    x 1.678530 0.000000 0.000000 
#    y 0.000000 1.696910 0.000000 
#    z 0.000000 0.000000 1.665950 
# 
# From -- ./inp_files/12574.got.cif
#   From: 2010.03.12/outbox.cif.g09.slc.cpg/sg47_7_cif.got.tgz:12574.got - 2010.04.14 03:12:58.
