data_PCOD8198435
_publ_section_title
;
Structure prediction by ZEFSAII (Michael W. Deem and Ramdas Pophale) SiO2 
 PCOD8198435
Probable space group: P M M M
;
_chemical_formula_sum "Si O2"
_cell_formula_units_Z 48
_cell_length_a 9.212703
_cell_length_b 9.045006
_cell_length_c 30.767273
_cell_angle_alpha 90.000000
_cell_angle_beta 90.000000
_cell_angle_gamma 90.000000
_cell_volume 2563.804674
_symmetry_space_group_name_H-M "P M M M"
_symmetry_group_IT_number 47
_symmetry_cell_setting 'orthorhombic'
loop_
_space_group_symop_operation_xyz
x,y,z
-x,-y,z
x,-y,-z
-x,y,-z
-x,-y,-z
x,y,-z
-x,y,z
x,-y,z
loop_
_atom_site_type_symbol
_atom_site_label
_atom_site_fract_x
_atom_site_fract_y
_atom_site_fract_z
Si Si1 0.332439 0.825752 0.500000
Si Si2 0.331069 0.826888 0.078206
Si Si3 0.829212 0.328020 0.000000
Si Si4 0.170253 0.170071 0.758657
Si Si5 0.170559 0.329137 0.422259
Si Si6 0.668544 0.330118 0.834048
Si Si7 0.827936 0.163521 0.662089
O O1 0.500000 0.778395 0.500000
O O2 0.257005 0.762893 0.542563
O O3 0.312615 0.000000 0.500000
O O4 0.500000 0.792144 0.069694
O O5 0.236940 0.745770 0.042420
O O6 0.280932 0.766538 0.124907
O O7 0.298742 0.000000 0.076179
O O8 0.789171 0.500000 0.000000
O O9 0.000000 0.300776 0.000000
O O10 0.248188 0.278861 0.791503
O O11 0.225330 0.212236 0.710036
O O12 0.000000 0.196172 0.763190
O O13 0.210084 0.000000 0.768873
O O14 0.208277 0.500000 0.428089
O O15 0.224464 0.278502 0.374501
O O16 0.000000 0.298816 0.428522
O O17 0.500000 0.306076 0.824887
O O18 0.705883 0.500000 0.843945
O O19 0.000000 0.156034 0.663379
O O20 0.767014 0.000000 0.650763
#
# Coordination Sequence:
#
# PCOD8198435 Si02
#       7
#     4   8   4   8   8   8   8
#     4  11  24  39  54  74 102 137 176 215 258 310
#     4  10  21  38  60  82 104 137 181 222 262 311
#     4  11  24  39  56  82 114 143 172 211 262 316
#     4   9  18  33  54  80 108 139 176 217 262 311
#     4  10  20  34  55  82 107 133 170 214 260 312
#     4  10  21  36  54  78 108 142 180 220 262 310
#     4   8  15  30  52  77 105 137 174 215 257 304
#
# _framework density 18.722175
#
# number of rings (size 3 to 8) (size 9 to 14) (size 15 to 20)
#    0.000    2.333    0.000    3.500    0.000    8.000 
#    0.000    2.500    0.000    1.000    0.000    0.000 
#    0.000    0.000    0.000    0.000    0.000    0.000 
#
# Total GULP energy -595234.312043 kJ/mol
# GULP energy per Si atom -12400.714834 kJ/mol
# Density = 1.867956 g / cm^3
# Si number density = 18.722175 Si / 1000 Ang^3
#
#
#
# Elastic Constant Matrix: (Units=GPa)
#
#
# Indices 1 2 3 4 5 6 
#
# 1 53.0550 51.6033 54.8226 0.0000 0.0000 0.0000
# 2 51.6033 106.0045 69.5257 0.0000 0.0000 0.0000
# 3 54.8226 69.5257 148.7173 0.0000 0.0000 0.0000
# 4 0.0000 0.0000 0.0000 143.5600 0.0000 0.0000
# 5 0.0000 0.0000 0.0000 0.0000 44.1517 0.0000
# 6 0.0000 0.0000 0.0000 0.0000 0.0000 27.9781
#
#
#
# Elastic Compliance Matrix: (Units=1/GPa)
#
#
# Indices 1 2 3 4 5 6 
#
# 1 0.042253 -0.014931 -0.008596 0.000000 0.000000 0.000000
# 2 -0.014931 0.018882 -0.003323 0.000000 0.000000 0.000000
# 3 -0.008596 -0.003323 0.011446 0.000000 0.000000 0.000000
# 4 0.000000 0.000000 0.000000 0.006966 0.000000 0.000000
# 5 0.000000 0.000000 0.000000 0.000000 0.022649 0.000000
# 6 0.000000 0.000000 0.000000 0.000000 0.000000 0.035742
#
#
# Mechanical properties :
#
#
# Convention : Reuss Voigt Hill
#
# Bulk Modulus (GPa) = 52.96256 73.29778 63.13017
# Shear Modulus (GPa) = 25.26124 51.92632 38.59378
#
# Velocity S-wave (km/s) = 3.67722 5.27213 4.54518
# Velocity P-wave (km/s) = 6.81024 8.73475 7.83183
#
# Compressibility (1/GPa) = 0.01888126
#
# Stress axis : x y z
#
# Youngs Moduli (GPa) = 23.66692 52.96157 87.36423
#
# Poissons Ratio (x) = 0.79078 0.75095
# Poissons Ratio (y) = 0.35338 0.29031
# Poissons Ratio (z) = 0.20343 0.17599
#
# Static dielectric constant tensor:
#      x y z
#    x 3.216920 0.000000 0.000000 
#    y 0.000000 3.539030 0.000000 
#    z 0.000000 0.000000 3.804860 
# 
# 
# High freq. dielectric constant tensor:
#      x y z
#    x 1.701250 0.000000 0.000000 
#    y 0.000000 1.735430 0.000000 
#    z 0.000000 0.000000 1.744150 
# 
# From -- ./inp_files/34055.got.cif
#   From: 2010.03.12/outbox.cif.g09.slc.cpg/sg47_18_cif.got.tgz:34055.got - 2010.04.14 03:12:58.
