data_PCOD8198013
_publ_section_title
;
Structure prediction by ZEFSAII (Michael W. Deem and Ramdas Pophale) SiO2 
 PCOD8198013
Probable space group: P M M M
;
_chemical_formula_sum "Si O2"
_cell_formula_units_Z 52
_cell_length_a 9.564131
_cell_length_b 16.064275
_cell_length_c 19.376641
_cell_angle_alpha 90.000000
_cell_angle_beta 90.000000
_cell_angle_gamma 90.000000
_cell_volume 2977.043216
_symmetry_space_group_name_H-M "P M M M"
_symmetry_group_IT_number 47
_symmetry_cell_setting 'orthorhombic'
loop_
_space_group_symop_operation_xyz
x,y,z
-x,-y,z
x,-y,-z
-x,y,-z
-x,-y,-z
x,y,-z
-x,y,z
x,-y,z
loop_
_atom_site_type_symbol
_atom_site_label
_atom_site_fract_x
_atom_site_fract_y
_atom_site_fract_z
Si Si1 0.155547 0.405642 0.256520
Si Si2 0.157776 0.677824 0.109546
Si Si3 0.345449 0.596343 0.000000
Si Si4 0.342601 0.149266 0.578208
Si Si5 0.155108 0.000000 0.418106
Si Si6 0.657191 0.259736 0.293653
Si Si7 0.664390 0.000000 0.080060
Si Si8 0.664583 0.171794 0.153366
O O1 0.215232 0.500000 0.257742
O O2 0.149195 0.370185 0.180414
O O3 0.253000 0.343360 0.298535
O O4 0.000000 0.404519 0.288746
O O5 0.253251 0.618433 0.065149
O O6 0.237535 0.765806 0.110925
O O7 0.000000 0.691380 0.080380
O O8 0.372791 0.500000 0.000000
O O9 0.500000 0.640032 0.000000
O O10 0.304958 0.177272 0.500000
O O11 0.500000 0.112901 0.580493
O O12 0.237263 0.080543 0.607476
O O13 0.326461 0.225665 0.629416
O O14 0.150331 0.000000 0.500000
O O15 0.000000 0.000000 0.385935
O O16 0.500000 0.287983 0.277832
O O17 0.697979 0.190426 0.234948
O O18 0.710278 0.080171 0.126174
O O19 0.500000 0.000000 0.072577
O O20 0.725078 0.000000 0.000000
O O21 0.500000 0.186650 0.138056
#
# Coordination Sequence:
#
# PCOD8198013 Si02
#       8
#     8   8   4   8   4   8   4   8
#     4   9  18  33  52  72  96 128 163 199 243 298
#     4  10  20  34  52  73  99 128 158 196 247 299
#     4  11  23  35  49  72  99 126 157 195 242 295
#     4   9  17  30  48  70  99 133 166 201 248 304
#     4   9  17  28  43  67  97 127 162 201 240 286
#     4   9  18  31  49  74  99 126 162 205 249 292
#     4   9  18  31  49  71  94 128 169 204 242 288
#     4   9  18  33  51  72  97 126 165 208 245 287
#
# _framework density 17.466995000000001
#
# number of rings (size 3 to 8) (size 9 to 14) (size 15 to 20)
#    0.000    2.692    0.000    1.385    1.077    4.308 
#    0.000    2.692    0.000    0.923    0.000    3.231 
#    0.000    0.000    0.000    0.000    0.000    0.000 
#
# Total GULP energy -644242.582981 kJ/mol
# GULP energy per Si atom -12389.280442 kJ/mol
# Density = 1.742724 g / cm^3
# Si number density = 17.466995 Si / 1000 Ang^3
#
#
#
# Elastic Constant Matrix: (Units=GPa)
#
#
# Indices 1 2 3 4 5 6 
#
# 1 103.5389 57.8597 29.2181 0.0000 0.0000 0.0000
# 2 57.8597 132.2844 42.4119 0.0000 0.0000 0.0000
# 3 29.2181 42.4119 57.1254 0.0000 0.0000 0.0000
# 4 0.0000 0.0000 0.0000 22.7503 0.0000 0.0000
# 5 0.0000 0.0000 0.0000 0.0000 19.5841 0.0000
# 6 0.0000 0.0000 0.0000 0.0000 0.0000 -46.9347
#
#
#
# Elastic Compliance Matrix: (Units=1/GPa)
#
#
# Indices 1 2 3 4 5 6 
#
# 1 0.013224 -0.004745 -0.003241 0.000000 0.000000 0.000000
# 2 -0.004745 0.011624 -0.006203 0.000000 0.000000 0.000000
# 3 -0.003241 -0.006203 0.023768 0.000000 0.000000 0.000000
# 4 0.000000 0.000000 0.000000 0.043955 0.000000 0.000000
# 5 0.000000 0.000000 0.000000 0.000000 0.051062 0.000000
# 6 0.000000 0.000000 0.000000 0.000000 0.000000 -0.021306
#
#
# Mechanical properties :
#
#
# Convention : Reuss Voigt Hill
#
# Bulk Modulus (GPa) = 49.41089 61.32533 55.36811
# Shear Modulus (GPa) = 31.75586 9.97722 20.86654
#
# Velocity S-wave (km/s) = 4.26848 2.39258 3.46009
# Velocity P-wave (km/s) = 7.25554 6.54355 6.90872
#
# Compressibility (1/GPa) = 0.02023845
#
# Stress axis : x y z
#
# Youngs Moduli (GPa) = 75.61737 86.03182 42.07305
#
# Poissons Ratio (x) = 0.40823 0.13636
# Poissons Ratio (y) = 0.35881 0.26097
# Poissons Ratio (z) = 0.24508 0.53363
#
# Static dielectric constant tensor:
#      x y z
#    x 3.589780 0.000000 0.000000 
#    y 0.000000 3.220880 0.000000 
#    z 0.000000 0.000000 3.149260 
# 
# 
# High freq. dielectric constant tensor:
#      x y z
#    x 1.675980 0.000000 0.000000 
#    y 0.000000 1.667630 0.000000 
#    z 0.000000 0.000000 1.657370 
# 
# From -- ./inp_files/29656.got.cif
#   From: 2010.03.12/outbox.cif.g09.slc.cpg/sg47_15_cif.got.tgz:29656.got - 2010.04.14 03:12:58.
