data_PCOD8198059
_publ_section_title
;
Structure prediction by ZEFSAII (Michael W. Deem and Ramdas Pophale) SiO2 
 PCOD8198059
Probable space group: P M M M
;
_chemical_formula_sum "Si O2"
_cell_formula_units_Z 52
_cell_length_a 22.788572
_cell_length_b 14.854355
_cell_length_c 9.350718
_cell_angle_alpha 90.000000
_cell_angle_beta 90.000000
_cell_angle_gamma 90.000000
_cell_volume 3165.307234
_symmetry_space_group_name_H-M "P M M M"
_symmetry_group_IT_number 47
_symmetry_cell_setting 'orthorhombic'
loop_
_space_group_symop_operation_xyz
x,y,z
-x,-y,z
x,-y,-z
-x,y,-z
-x,-y,-z
x,y,-z
-x,y,z
x,-y,z
loop_
_atom_site_type_symbol
_atom_site_label
_atom_site_fract_x
_atom_site_fract_y
_atom_site_fract_z
Si Si1 0.326165 0.602462 0.832895
Si Si2 0.564284 0.392999 0.661603
Si Si3 0.229605 0.097978 0.340066
Si Si4 0.090653 0.726984 0.170039
Si Si5 0.226020 0.734662 0.834055
Si Si6 0.090435 0.099742 0.339154
Si Si7 0.000000 0.606825 0.330852
O O1 0.317337 0.500000 0.783936
O O2 0.383320 0.646606 0.758294
O O3 0.266647 0.652049 0.785572
O O4 0.337298 0.610866 0.000000
O O5 0.575289 0.360973 0.500000
O O6 0.500000 0.358211 0.713940
O O7 0.564779 0.500000 0.671644
O O8 0.252513 0.116038 0.500000
O O9 0.252934 0.176594 0.239131
O O10 0.159908 0.098158 0.337243
O O11 0.252246 0.000000 0.286578
O O12 0.159078 0.712985 0.208479
O O13 0.067806 0.823893 0.229008
O O14 0.057136 0.647848 0.253119
O O15 0.078577 0.722035 0.000000
O O16 0.230300 0.754046 0.000000
O O17 0.068242 0.122489 0.500000
O O18 0.067043 0.000000 0.293775
O O19 0.000000 0.500000 0.306232
O O20 0.000000 0.629919 0.500000
#
# Coordination Sequence:
#
# PCOD8198059 Si02
#       7
#     8   8   8   8   8   8   4
#     4   9  17  28  41  60  89 122 153 183 215 256
#     4   8  14  25  40  58  82 113 149 187 223 257
#     4   8  14  25  42  64  89 118 150 181 215 258
#     4  10  20  34  53  74  94 117 147 186 230 273
#     4   9  18  30  45  68  95 121 147 179 222 266
#     4   8  14  27  48  72  98 125 147 171 212 266
#     4  11  25  43  58  69  84 111 151 196 234 271
#
# _framework density 16.428106
#
# number of rings (size 3 to 8) (size 9 to 14) (size 15 to 20)
#    0.000    3.154    0.000    2.077    0.000    3.385 
#    0.000    6.538    0.000    4.154    0.000    0.000 
#    0.000    0.615    0.000    6.769    0.000    5.538 
#
# Total GULP energy -644374.115435 kJ/mol
# GULP energy per Si atom -12391.809912 kJ/mol
# Density = 1.639071 g / cm^3
# Si number density = 16.428106 Si / 1000 Ang^3
#
#
#
# Elastic Constant Matrix: (Units=GPa)
#
#
# Indices 1 2 3 4 5 6 
#
# 1 93.1217 50.2630 45.5905 0.0000 0.0000 0.0000
# 2 50.2630 103.7148 57.4758 0.0000 0.0000 0.0000
# 3 45.5905 57.4758 74.9656 0.0000 0.0000 0.0000
# 4 0.0000 0.0000 0.0000 26.7544 0.0000 0.0000
# 5 0.0000 0.0000 0.0000 0.0000 21.4672 0.0000
# 6 0.0000 0.0000 0.0000 0.0000 0.0000 -1.5893
#
#
#
# Elastic Compliance Matrix: (Units=1/GPa)
#
#
# Indices 1 2 3 4 5 6 
#
# 1 0.016269 -0.004175 -0.006693 0.000000 0.000000 0.000000
# 2 -0.004175 0.017837 -0.011136 0.000000 0.000000 0.000000
# 3 -0.006693 -0.011136 0.025947 0.000000 0.000000 0.000000
# 4 0.000000 0.000000 0.000000 0.037377 0.000000 0.000000
# 5 0.000000 0.000000 0.000000 0.000000 0.046583 0.000000
# 6 0.000000 0.000000 0.000000 0.000000 0.000000 -0.629199
#
#
# Mechanical properties :
#
#
# Convention : Reuss Voigt Hill
#
# Bulk Modulus (GPa) = 62.32514 64.27341 63.29928
# Shear Modulus (GPa) = -11.47237 17.22466 2.87614
#
# Velocity S-wave (km/s) = -2.64548 3.24155 1.32459
# Velocity P-wave (km/s) = 5.35622 7.29515 6.39954
#
# Compressibility (1/GPa) = 0.01604489
#
# Stress axis : x y z
#
# Youngs Moduli (GPa) = 61.46670 56.06454 38.53936
#
# Poissons Ratio (x) = 0.23410 0.25793
# Poissons Ratio (y) = 0.25665 0.42917
# Poissons Ratio (z) = 0.41138 0.62433
#
# Static dielectric constant tensor:
#      x y z
#    x 3.150060 0.000000 0.000000 
#    y 0.000000 3.236220 0.000000 
#    z 0.000000 0.000000 3.184960 
# 
# 
# High freq. dielectric constant tensor:
#      x y z
#    x 1.610320 0.000000 0.000000 
#    y 0.000000 1.613010 0.000000 
#    z 0.000000 0.000000 1.632880 
# 
# From -- ./inp_files/12525.got.cif
#   From: 2010.03.12/outbox.cif.g09.slc.cpg/sg47_7_cif.got.tgz:12525.got - 2010.04.14 03:12:58.
