data_PCOD8198975
_publ_section_title
;
Structure prediction by ZEFSAII (Michael W. Deem and Ramdas Pophale) SiO2 
 PCOD8198975
Probable space group: P M M M
;
_chemical_formula_sum "Si O2"
_cell_formula_units_Z 48
_cell_length_a 9.510620
_cell_length_b 29.057545
_cell_length_c 9.251687
_cell_angle_alpha 90.000000
_cell_angle_beta 90.000000
_cell_angle_gamma 90.000000
_cell_volume 2556.752446
_symmetry_space_group_name_H-M "P M M M"
_symmetry_group_IT_number 47
_symmetry_cell_setting 'orthorhombic'
loop_
_space_group_symop_operation_xyz
x,y,z
-x,-y,z
x,-y,-z
-x,y,-z
-x,-y,-z
x,y,-z
-x,y,z
x,-y,z
loop_
_atom_site_type_symbol
_atom_site_label
_atom_site_fract_x
_atom_site_fract_y
_atom_site_fract_z
Si Si1 0.336918 0.785153 0.329232
Si Si2 0.264645 0.394111 0.832215
Si Si3 0.000000 0.450070 0.830150
Si Si4 0.163192 0.292357 0.168333
Si Si5 0.500000 0.447122 0.670938
Si Si6 0.341153 0.946459 0.167412
Si Si7 0.838230 0.125888 0.329771
O O1 0.327840 0.778477 0.500000
O O2 0.500000 0.786806 0.278121
O O3 0.254121 0.743719 0.256607
O O4 0.257570 0.831388 0.279768
O O5 0.239624 0.340589 0.802381
O O6 0.373900 0.416662 0.726640
O O7 0.129717 0.420871 0.779853
O O8 0.304624 0.402431 0.000000
O O9 0.000000 0.500000 0.753942
O O10 0.000000 0.456498 0.000000
O O11 0.000000 0.293322 0.219995
O O12 0.168837 0.279725 0.000000
O O13 0.500000 0.500000 0.731284
O O14 0.500000 0.448586 0.500000
O O15 0.500000 0.933541 0.217140
O O16 0.224785 0.919493 0.257680
O O17 0.313567 0.000000 0.194944
O O18 0.322191 0.934132 0.000000
O O19 0.830446 0.118979 0.500000
O O20 0.000000 0.133504 0.279978
#
# Coordination Sequence:
#
# PCOD8198975 Si02
#       7
#     8   8   4   8   4   8   8
#     4  10  22  39  59  83 111 147 190 231 276 334
#     4  10  20  37  60  85 111 143 184 228 274 327
#     4   9  16  30  57  87 109 135 179 229 272 319
#     4  10  21  38  59  85 115 143 178 228 281 332
#     4  11  25  41  55  79 117 153 185 225 272 325
#     4   9  19  36  57  82 114 152 193 236 283 337
#     4  10  21  37  57  82 113 149 191 238 283 332
#
# _framework density 18.773814999999999
#
# number of rings (size 3 to 8) (size 9 to 14) (size 15 to 20)
#    0.000    2.167    0.833    2.250    1.167    6.000 
#    0.000    2.917    0.000    1.500    0.000    0.000 
#    0.000    0.000    0.000    0.000    0.000    0.000 
#
# Total GULP energy -595013.971785 kJ/mol
# GULP energy per Si atom -12396.124412 kJ/mol
# Density = 1.873108 g / cm^3
# Si number density = 18.773815 Si / 1000 Ang^3
#
#
#
# Elastic Constant Matrix: (Units=GPa)
#
#
# Indices 1 2 3 4 5 6 
#
# 1 156.4108 71.3615 47.7707 0.0000 0.0000 0.0000
# 2 71.3615 116.7603 42.5936 0.0000 0.0000 0.0000
# 3 47.7707 42.5936 39.9842 0.0000 0.0000 0.0000
# 4 0.0000 0.0000 0.0000 32.3784 0.0000 0.0000
# 5 0.0000 0.0000 0.0000 0.0000 18.4614 0.0000
# 6 0.0000 0.0000 0.0000 0.0000 0.0000 39.4485
#
#
#
# Elastic Compliance Matrix: (Units=1/GPa)
#
#
# Indices 1 2 3 4 5 6 
#
# 1 0.010699 -0.003068 -0.009514 0.000000 0.000000 0.000000
# 2 -0.003068 0.014888 -0.012194 0.000000 0.000000 0.000000
# 3 -0.009514 -0.012194 0.049366 0.000000 0.000000 0.000000
# 4 0.000000 0.000000 0.000000 0.030885 0.000000 0.000000
# 5 0.000000 0.000000 0.000000 0.000000 0.054167 0.000000
# 6 0.000000 0.000000 0.000000 0.000000 0.000000 0.025349
#
#
# Mechanical properties :
#
#
# Convention : Reuss Voigt Hill
#
# Bulk Modulus (GPa) = 39.36841 70.73411 55.05126
# Shear Modulus (GPa) = 20.54448 28.15296 24.34872
#
# Velocity S-wave (km/s) = 3.31163 3.87665 3.60523
# Velocity P-wave (km/s) = 5.96975 7.60241 6.83501
#
# Compressibility (1/GPa) = 0.02540108
#
# Stress axis : x y z
#
# Youngs Moduli (GPa) = 93.46567 67.16751 20.25674
#
# Poissons Ratio (x) = 0.20610 0.19272
# Poissons Ratio (y) = 0.28679 0.24701
# Poissons Ratio (z) = 0.88923 0.81903
#
# Static dielectric constant tensor:
#      x y z
#    x 3.613130 0.000000 0.000000 
#    y 0.000000 3.592610 0.000000 
#    z 0.000000 0.000000 3.214920 
# 
# 
# High freq. dielectric constant tensor:
#      x y z
#    x 1.745060 0.000000 0.000000 
#    y 0.000000 1.742660 0.000000 
#    z 0.000000 0.000000 1.708870 
# 
# From -- ./inp_files/2811.got.cif
#   From: 2010.03.12/outbox.cif.g09.slc.cpg/sg47_2_cif.got.tgz:2811.got - 2010.04.14 03:12:58.
