data_PCOD8198078
_publ_section_title
;
Structure prediction by ZEFSAII (Michael W. Deem and Ramdas Pophale) SiO2 
 PCOD8198078
Probable space group: P M M M
;
_chemical_formula_sum "Si O2"
_cell_formula_units_Z 52
_cell_length_a 9.030225
_cell_length_b 23.347146
_cell_length_c 14.210793
_cell_angle_alpha 90.000000
_cell_angle_beta 90.000000
_cell_angle_gamma 90.000000
_cell_volume 2996.061225
_symmetry_space_group_name_H-M "P M M M"
_symmetry_group_IT_number 47
_symmetry_cell_setting 'orthorhombic'
loop_
_space_group_symop_operation_xyz
x,y,z
-x,-y,z
x,-y,-z
-x,y,-z
-x,-y,-z
x,y,-z
-x,y,z
x,-y,z
loop_
_atom_site_type_symbol
_atom_site_label
_atom_site_fract_x
_atom_site_fract_y
_atom_site_fract_z
Si Si1 0.669637 0.436158 0.729742
Si Si2 0.175402 0.225328 0.282657
Si Si3 0.826710 0.887309 0.608086
Si Si4 0.667431 0.000000 0.388062
Si Si5 0.170599 0.617332 0.106229
Si Si6 0.326829 0.328096 0.391743
Si Si7 0.673080 0.263114 0.893557
O O1 0.500000 0.427219 0.760985
O O2 0.694206 0.500000 0.688340
O O3 0.772298 0.430466 0.821903
O O4 0.713772 0.390387 0.649963
O O5 0.227306 0.168266 0.335858
O O6 0.235966 0.280439 0.336547
O O7 0.242375 0.221019 0.177706
O O8 0.000000 0.229937 0.277492
O O9 0.781613 0.877304 0.500000
O O10 0.746329 0.943016 0.651121
O O11 0.000000 0.897828 0.618860
O O12 0.500000 0.000000 0.351929
O O13 0.679463 0.000000 0.500000
O O14 0.268335 0.673275 0.123733
O O15 0.000000 0.632640 0.126477
O O16 0.190861 0.594237 0.000000
O O17 0.277152 0.327765 0.500000
O O18 0.500000 0.314598 0.380899
O O19 0.500000 0.262685 0.870770
O O20 0.705899 0.242653 0.000000
#
# Coordination Sequence:
#
# PCOD8198078 Si02
#       7
#     8   8   8   4   8   8   8
#     4  10  21  36  53  73  98 131 170 209 254 310
#     4  11  21  33  53  80 107 136 171 211 255 304
#     4   9  18  32  49  72 106 146 179 207 247 298
#     4   9  17  29  47  73 104 139 180 221 253 284
#     4  10  20  34  53  76 100 127 160 202 255 311
#     4  10  21  36  53  73  99 133 171 212 258 304
#     4  10  20  34  53  76 103 134 166 204 254 310
#
# _framework density 17.356121000000002
#
# number of rings (size 3 to 8) (size 9 to 14) (size 15 to 20)
#    0.000    2.077    1.538    2.077    0.000    5.846 
#    0.000    4.615    0.000    0.000    0.000    2.692 
#    0.000    4.308    0.000    0.000    0.000    0.000 
#
# Total GULP energy -644886.265628 kJ/mol
# GULP energy per Si atom -12401.658954 kJ/mol
# Density = 1.731662 g / cm^3
# Si number density = 17.356121 Si / 1000 Ang^3
#
#
#
# Elastic Constant Matrix: (Units=GPa)
#
#
# Indices 1 2 3 4 5 6 
#
# 1 71.2963 51.7375 45.8216 0.0000 0.0000 0.0000
# 2 51.7375 129.9445 57.2976 0.0000 0.0000 0.0000
# 3 45.8216 57.2976 103.5787 0.0000 0.0000 0.0000
# 4 0.0000 0.0000 0.0000 22.4365 0.0000 0.0000
# 5 0.0000 0.0000 0.0000 0.0000 26.5379 0.0000
# 6 0.0000 0.0000 0.0000 0.0000 0.0000 26.0055
#
#
#
# Elastic Compliance Matrix: (Units=1/GPa)
#
#
# Indices 1 2 3 4 5 6 
#
# 1 0.022760 -0.006113 -0.006687 0.000000 0.000000 0.000000
# 2 -0.006113 0.011820 -0.003834 0.000000 0.000000 0.000000
# 3 -0.006687 -0.003834 0.014734 0.000000 0.000000 0.000000
# 4 0.000000 0.000000 0.000000 0.044570 0.000000 0.000000
# 5 0.000000 0.000000 0.000000 0.000000 0.037682 0.000000
# 6 0.000000 0.000000 0.000000 0.000000 0.000000 0.038453
#
#
# Mechanical properties :
#
#
# Convention : Reuss Voigt Hill
#
# Bulk Modulus (GPa) = 62.32510 68.28140 65.30325
# Shear Modulus (GPa) = 23.96511 24.99351 24.47931
#
# Velocity S-wave (km/s) = 3.71993 3.79890 3.75962
# Velocity P-wave (km/s) = 7.37821 7.65957 7.52021
#
# Compressibility (1/GPa) = 0.01604490
#
# Stress axis : x y z
#
# Youngs Moduli (GPa) = 43.93708 84.60002 67.87168
#
# Poissons Ratio (x) = 0.51719 0.45384
# Poissons Ratio (y) = 0.26860 0.26024
# Poissons Ratio (z) = 0.29380 0.32438
#
# Static dielectric constant tensor:
#      x y z
#    x 3.265780 0.000000 0.000000 
#    y 0.000000 3.189240 0.000000 
#    z 0.000000 0.000000 3.323330 
# 
# 
# High freq. dielectric constant tensor:
#      x y z
#    x 1.677460 0.000000 0.000000 
#    y 0.000000 1.656500 0.000000 
#    z 0.000000 0.000000 1.659980 
# 
# From -- ./inp_files/6932.got.cif
#   From: 2010.03.12/outbox.cif.g09.slc.cpg/sg47_4_cif.got.tgz:6932.got - 2010.04.14 03:12:58.
