data_PCOD8198024
_publ_section_title
;
Structure prediction by ZEFSAII (Michael W. Deem and Ramdas Pophale) SiO2 
 PCOD8198024
Probable space group: P M M M
;
_chemical_formula_sum "Si O2"
_cell_formula_units_Z 64
_cell_length_a 27.812391
_cell_length_b 14.341692
_cell_length_c 8.919058
_cell_angle_alpha 90.000000
_cell_angle_beta 90.000000
_cell_angle_gamma 90.000000
_cell_volume 3557.604828
_symmetry_space_group_name_H-M "P M M M"
_symmetry_group_IT_number 47
_symmetry_cell_setting 'orthorhombic'
loop_
_space_group_symop_operation_xyz
x,y,z
-x,-y,z
x,-y,-z
-x,y,-z
-x,-y,-z
x,y,-z
-x,y,z
x,-y,z
loop_
_atom_site_type_symbol
_atom_site_label
_atom_site_fract_x
_atom_site_fract_y
_atom_site_fract_z
Si Si1 0.777972 0.608820 0.172663
Si Si2 0.055746 0.393075 0.827857
Si Si3 0.633348 0.229086 0.177213
Si Si4 0.678277 0.606648 0.675902
Si Si5 0.719380 0.897297 0.822875
Si Si6 0.555833 0.106304 0.327196
Si Si7 0.863897 0.280909 0.323824
Si Si8 0.827725 0.107271 0.175436
O O1 0.788821 0.500000 0.191687
O O2 0.728918 0.637537 0.253713
O O3 0.821906 0.663042 0.243446
O O4 0.772727 0.638181 0.000000
O O5 0.066402 0.500000 0.783801
O O6 0.085161 0.325065 0.720172
O O7 0.000000 0.369772 0.804588
O O8 0.070954 0.376033 0.000000
O O9 0.635823 0.330835 0.253361
O O10 0.679310 0.172219 0.241361
O O11 0.584836 0.176930 0.223018
O O12 0.634434 0.240837 0.000000
O O13 0.681077 0.622587 0.500000
O O14 0.666313 0.500000 0.716744
O O15 0.773057 0.863619 0.781712
O O16 0.710242 0.000000 0.753648
O O17 0.714305 0.903959 0.000000
O O18 0.569231 0.123663 0.500000
O O19 0.500000 0.126335 0.299187
O O20 0.568250 0.000000 0.281918
O O21 0.856765 0.286629 0.500000
O O22 0.863091 0.173336 0.269964
O O23 0.837545 0.000000 0.219661
O O24 0.837163 0.122359 0.000000
#
# Coordination Sequence:
#
# PCOD8198024 Si02
#       8
#     8   8   8   8   8   8   8   8
#     4  10  20  34  52  74 103 139 178 217 253 294
#     4   9  19  37  59  80 102 130 166 209 256 306
#     4  11  20  30  51  79 105 135 170 209 255 308
#     4  10  21  36  52  72 102 138 175 215 257 302
#     4   8  15  28  46  71 101 130 162 201 245 292
#     4   9  19  36  55  75 103 138 172 208 254 307
#     4  12  23  32  49  77 108 140 171 207 255 310
#     4   9  18  34  54  72  96 136 181 218 250 291
#
# _framework density 17.989633000000001
#
# number of rings (size 3 to 8) (size 9 to 14) (size 15 to 20)
#    0.000    2.250    0.000    5.250    0.000    5.750 
#    0.000    1.875    0.000    2.250    0.000    5.250 
#    0.000    0.000    0.000    0.000    0.000    0.000 
#
# Total GULP energy -793702.318167 kJ/mol
# GULP energy per Si atom -12401.598721 kJ/mol
# Density = 1.794869 g / cm^3
# Si number density = 17.989633 Si / 1000 Ang^3
#
#
#
# Elastic Constant Matrix: (Units=GPa)
#
#
# Indices 1 2 3 4 5 6 
#
# 1 72.3889 55.9085 34.8523 0.0000 0.0000 0.0000
# 2 55.9085 92.3874 47.1101 0.0000 0.0000 0.0000
# 3 34.8523 47.1101 72.1893 0.0000 0.0000 0.0000
# 4 0.0000 0.0000 0.0000 24.7081 0.0000 0.0000
# 5 0.0000 0.0000 0.0000 0.0000 28.6511 0.0000
# 6 0.0000 0.0000 0.0000 0.0000 0.0000 29.6957
#
#
#
# Elastic Compliance Matrix: (Units=1/GPa)
#
#
# Indices 1 2 3 4 5 6 
#
# 1 0.026511 -0.014263 -0.003491 0.000000 0.000000 0.000000
# 2 -0.014263 0.023896 -0.008708 0.000000 0.000000 0.000000
# 3 -0.003491 -0.008708 0.021221 0.000000 0.000000 0.000000
# 4 0.000000 0.000000 0.000000 0.040473 0.000000 0.000000
# 5 0.000000 0.000000 0.000000 0.000000 0.034903 0.000000
# 6 0.000000 0.000000 0.000000 0.000000 0.000000 0.033675
#
#
# Mechanical properties :
#
#
# Convention : Reuss Voigt Hill
#
# Bulk Modulus (GPa) = 53.46806 56.96749 55.21777
# Shear Modulus (GPa) = 20.84751 23.21728 22.03240
#
# Velocity S-wave (km/s) = 3.40790 3.59638 3.50341
# Velocity P-wave (km/s) = 6.72839 6.99863 6.86484
#
# Compressibility (1/GPa) = 0.01870275
#
# Stress axis : x y z
#
# Youngs Moduli (GPa) = 37.72026 41.84863 47.12332
#
# Poissons Ratio (x) = 0.59688 0.16453
# Poissons Ratio (y) = 0.53800 0.41036
# Poissons Ratio (z) = 0.13170 0.36442
#
# Static dielectric constant tensor:
#      x y z
#    x 3.178910 0.000000 0.000000 
#    y 0.000000 3.509190 0.000000 
#    z 0.000000 0.000000 3.178180 
# 
# 
# High freq. dielectric constant tensor:
#      x y z
#    x 1.676710 0.000000 0.000000 
#    y 0.000000 1.702180 0.000000 
#    z 0.000000 0.000000 1.687670 
# 
# From -- ./inp_files/12713.got.cif
#   From: 2010.03.12/outbox.cif.g09.slc.cpg/sg47_7_cif.got.tgz:12713.got - 2010.04.14 03:12:58.
