data_PCOD8198050
_publ_section_title
;
Structure prediction by ZEFSAII (Michael W. Deem and Ramdas Pophale) SiO2 
 PCOD8198050
Probable space group: P M M M
;
_chemical_formula_sum "Si O2"
_cell_formula_units_Z 48
_cell_length_a 14.884326
_cell_length_b 9.440665
_cell_length_c 17.444898
_cell_angle_alpha 90.000000
_cell_angle_beta 90.000000
_cell_angle_gamma 90.000000
_cell_volume 2451.321052
_symmetry_space_group_name_H-M "P M M M"
_symmetry_group_IT_number 47
_symmetry_cell_setting 'orthorhombic'
loop_
_space_group_symop_operation_xyz
x,y,z
-x,-y,z
x,-y,-z
-x,y,-z
-x,-y,-z
x,y,-z
-x,y,z
x,-y,z
loop_
_atom_site_type_symbol
_atom_site_label
_atom_site_fract_x
_atom_site_fract_y
_atom_site_fract_z
Si Si1 0.899538 0.847195 0.500000
Si Si2 0.853198 0.339674 0.356201
Si Si3 0.603957 0.169213 0.000000
Si Si4 0.657838 0.657351 0.587064
Si Si5 0.400682 0.841310 0.285213
Si Si6 0.100842 0.163505 0.792170
Si Si7 0.712353 0.166368 0.145555
O O1 0.884771 0.752535 0.573566
O O2 0.000000 0.896401 0.500000
O O3 0.845267 0.000000 0.500000
O O4 0.892086 0.500000 0.360042
O O5 0.746533 0.344135 0.361400
O O6 0.887768 0.266235 0.279467
O O7 0.659994 0.231091 0.072553
O O8 0.500000 0.223566 0.000000
O O9 0.604452 0.000000 0.000000
O O10 0.674850 0.713365 0.500000
O O11 0.616407 0.500000 0.582856
O O12 0.592184 0.758770 0.634051
O O13 0.500000 0.841022 0.248234
O O14 0.332651 0.771994 0.223314
O O15 0.368641 0.000000 0.304821
O O16 0.179886 0.199970 0.854058
O O17 0.000000 0.186161 0.827245
O O18 0.112214 0.000000 0.765494
O O19 0.694883 0.000000 0.143980
#
# Coordination Sequence:
#
# PCOD8198050 Si02
#       7
#     4   8   4   8   8   8   8
#     4  11  23  35  49  73 104 139 180 229 289 342
#     4  11  21  35  53  74 101 137 184 233 276 322
#     4   9  16  28  51  83 116 147 179 219 272 326
#     4  10  21  37  53  72 101 137 178 223 274 327
#     4  10  20  34  54  79 104 135 178 223 269 323
#     4  10  20  34  52  76 107 143 180 218 269 329
#     4   9  17  31  51  78 112 145 176 219 269 320
#
# _framework density 19.58128
#
# number of rings (size 3 to 8) (size 9 to 14) (size 15 to 20)
#    0.000    2.000    2.500    1.750    0.000    6.667 
#    0.000    2.083    0.000    2.500    0.000    2.333 
#    0.000    5.333    0.000    0.000    0.000    0.000 
#
# Total GULP energy -594681.372701 kJ/mol
# GULP energy per Si atom -12389.195265 kJ/mol
# Density = 1.953671 g / cm^3
# Si number density = 19.581280 Si / 1000 Ang^3
#
#
#
# Elastic Constant Matrix: (Units=GPa)
#
#
# Indices 1 2 3 4 5 6 
#
# 1 129.2909 29.5146 57.4366 0.0000 0.0000 0.0000
# 2 29.5146 79.5074 39.4348 0.0000 0.0000 0.0000
# 3 57.4366 39.4348 116.7701 0.0000 0.0000 0.0000
# 4 0.0000 0.0000 0.0000 104.5579 0.0000 0.0000
# 5 0.0000 0.0000 0.0000 0.0000 49.3601 0.0000
# 6 0.0000 0.0000 0.0000 0.0000 0.0000 13.7024
#
#
#
# Elastic Compliance Matrix: (Units=1/GPa)
#
#
# Indices 1 2 3 4 5 6 
#
# 1 0.010051 -0.001536 -0.004425 0.000000 0.000000 0.000000
# 2 -0.001536 0.015343 -0.004426 0.000000 0.000000 0.000000
# 3 -0.004425 -0.004426 0.012235 0.000000 0.000000 0.000000
# 4 0.000000 0.000000 0.000000 0.009564 0.000000 0.000000
# 5 0.000000 0.000000 0.000000 0.000000 0.020259 0.000000
# 6 0.000000 0.000000 0.000000 0.000000 0.000000 0.072980
#
#
# Mechanical properties :
#
#
# Convention : Reuss Voigt Hill
#
# Bulk Modulus (GPa) = 59.33089 64.26003 61.79546
# Shear Modulus (GPa) = 29.97161 46.80291 38.38726
#
# Velocity S-wave (km/s) = 3.91657 4.89426 4.43245
# Velocity P-wave (km/s) = 7.12869 8.05150 7.60411
#
# Compressibility (1/GPa) = 0.01685463
#
# Stress axis : x y z
#
# Youngs Moduli (GPa) = 99.49263 65.17664 81.73237
#
# Poissons Ratio (x) = 0.10013 0.36167
# Poissons Ratio (y) = 0.15286 0.36173
# Poissons Ratio (z) = 0.44026 0.28846
#
# Static dielectric constant tensor:
#      x y z
#    x 3.772450 0.000000 0.000000 
#    y 0.000000 3.412090 0.000000 
#    z 0.000000 0.000000 3.515120 
# 
# 
# High freq. dielectric constant tensor:
#      x y z
#    x 1.773190 0.000000 0.000000 
#    y 0.000000 1.732870 0.000000 
#    z 0.000000 0.000000 1.740210 
# 
# From -- ./inp_files/6549.got.cif
#   From: 2010.03.12/outbox.cif.g09.slc.cpg/sg47_4_cif.got.tgz:6549.got - 2010.04.14 03:12:58.
