data_PCOD8198217
_publ_section_title
;
Structure prediction by ZEFSAII (Michael W. Deem and Ramdas Pophale) SiO2 
 PCOD8198217
Probable space group: P M M M
;
_chemical_formula_sum "Si O2"
_cell_formula_units_Z 36
_cell_length_a 9.582480
_cell_length_b 23.405511
_cell_length_c 8.929394
_cell_angle_alpha 90.000000
_cell_angle_beta 90.000000
_cell_angle_gamma 90.000000
_cell_volume 2002.709855
_symmetry_space_group_name_H-M "P M M M"
_symmetry_group_IT_number 47
_symmetry_cell_setting 'orthorhombic'
loop_
_space_group_symop_operation_xyz
x,y,z
-x,-y,z
x,-y,-z
-x,y,-z
-x,-y,-z
x,y,-z
-x,y,z
x,-y,z
loop_
_atom_site_type_symbol
_atom_site_label
_atom_site_fract_x
_atom_site_fract_y
_atom_site_fract_z
Si Si1 0.338097 0.901586 0.175106
Si Si2 0.655235 0.336320 0.321406
Si Si3 0.843714 0.437018 0.678070
Si Si4 0.665305 0.211928 0.334022
Si Si5 0.838669 0.000000 0.322790
O O1 0.500000 0.912450 0.219709
O O2 0.290156 0.837698 0.219553
O O3 0.238820 0.944450 0.261983
O O4 0.316120 0.910457 0.000000
O O5 0.650868 0.339825 0.500000
O O6 0.500000 0.344096 0.255406
O O7 0.748281 0.387138 0.251834
O O8 0.719107 0.274021 0.276381
O O9 0.843257 0.432561 0.500000
O O10 0.788296 0.500000 0.726322
O O11 0.000000 0.428236 0.739131
O O12 0.725348 0.197828 0.500000
O O13 0.500000 0.216762 0.344846
O O14 0.828031 0.000000 0.500000
O O15 0.000000 0.000000 0.269865
#
# Coordination Sequence:
#
# PCOD8198217 Si02
#       5
#     8   8   8   8   4
#     4  10  20  34  54  78 100 125 159 194 231 279
#     4   8  13  21  34  52  74 104 142 179 216 261
#     4   8  13  20  29  44  71 106 139 173 218 268
#     4   8  14  26  44  65  90 119 150 187 229 270
#     4  11  24  39  54  74 100 129 160 193 232 276
#
# _framework density 17.975643999999999
#
# number of rings (size 3 to 8) (size 9 to 14) (size 15 to 20)
#    0.000    3.222    0.000    3.333    0.000    4.000 
#    0.000    3.333    0.000    4.000    0.000    0.000 
#    0.000    0.889    0.000   11.111    0.000   12.889 
#
# Total GULP energy -446101.430009 kJ/mol
# GULP energy per Si atom -12391.706389 kJ/mol
# Density = 1.793473 g / cm^3
# Si number density = 17.975644 Si / 1000 Ang^3
#
#
#
# Elastic Constant Matrix: (Units=GPa)
#
#
# Indices 1 2 3 4 5 6 
#
# 1 81.6984 76.1147 27.5000 0.0000 0.0000 0.0000
# 2 76.1147 176.9132 32.9134 0.0000 0.0000 0.0000
# 3 27.5000 32.9134 37.8184 0.0000 0.0000 0.0000
# 4 0.0000 0.0000 0.0000 -0.6965 0.0000 0.0000
# 5 0.0000 0.0000 0.0000 0.0000 12.1929 0.0000
# 6 0.0000 0.0000 0.0000 0.0000 0.0000 5.8572
#
#
#
# Elastic Compliance Matrix: (Units=1/GPa)
#
#
# Indices 1 2 3 4 5 6 
#
# 1 0.023075 -0.008121 -0.009712 0.000000 0.000000 0.000000
# 2 -0.008121 0.009603 -0.002452 0.000000 0.000000 0.000000
# 3 -0.009712 -0.002452 0.035638 0.000000 0.000000 0.000000
# 4 0.000000 0.000000 0.000000 -1.435713 0.000000 0.000000
# 5 0.000000 0.000000 0.000000 0.000000 0.082015 0.000000
# 6 0.000000 0.000000 0.000000 0.000000 0.000000 0.170729
#
#
# Mechanical properties :
#
#
# Convention : Reuss Voigt Hill
#
# Bulk Modulus (GPa) = 36.04030 63.27625 49.65827
# Shear Modulus (GPa) = -4.69556 14.13084 4.71764
#
# Velocity S-wave (km/s) = -1.61798 2.80681 1.62178
# Velocity P-wave (km/s) = 4.07463 6.76622 5.58499
#
# Compressibility (1/GPa) = 0.02774671
#
# Stress axis : x y z
#
# Youngs Moduli (GPa) = 43.33689 104.13835 28.06000
#
# Poissons Ratio (x) = 0.84571 0.27250
# Poissons Ratio (y) = 0.35194 0.06880
# Poissons Ratio (z) = 0.42087 0.25534
#
# Static dielectric constant tensor:
#      x y z
#    x 3.279800 0.000000 0.000000 
#    y 0.000000 3.859260 0.000000 
#    z 0.000000 0.000000 2.861930 
# 
# 
# High freq. dielectric constant tensor:
#      x y z
#    x 1.665390 0.000000 0.000000 
#    y 0.000000 1.718660 0.000000 
#    z 0.000000 0.000000 1.645070 
# 
# From -- ./inp_files/1363.got.cif
#   From: 2010.03.12/outbox.cif.g09.slc.cpg/sg47_1_cif.got.tgz:1363.got - 2010.04.14 03:12:58.
