data_PCOD8198770
_publ_section_title
;
Structure prediction by ZEFSAII (Michael W. Deem and Ramdas Pophale) SiO2 
 PCOD8198770
Probable space group: P M M M
;
_chemical_formula_sum "Si O2"
_cell_formula_units_Z 48
_cell_length_a 30.635326
_cell_length_b 8.728485
_cell_length_c 9.104043
_cell_angle_alpha 90.000000
_cell_angle_beta 90.000000
_cell_angle_gamma 90.000000
_cell_volume 2434.420948
_symmetry_space_group_name_H-M "P M M M"
_symmetry_group_IT_number 47
_symmetry_cell_setting 'orthorhombic'
loop_
_space_group_symop_operation_xyz
x,y,z
-x,-y,z
x,-y,-z
-x,y,-z
-x,-y,-z
x,y,-z
-x,y,z
x,-y,z
loop_
_atom_site_type_symbol
_atom_site_label
_atom_site_fract_x
_atom_site_fract_y
_atom_site_fract_z
Si Si1 0.750743 0.677200 0.831876
Si Si2 0.089044 0.675877 0.826072
Si Si3 0.339981 0.177499 0.170547
Si Si4 0.500000 0.819324 0.835155
Si Si5 0.169841 0.176782 0.670996
Si Si6 0.580715 0.679015 0.668815
Si Si7 0.000000 0.827384 0.825548
O O1 0.739001 0.500000 0.809542
O O2 0.708983 0.776717 0.785265
O O3 0.790666 0.720805 0.728785
O O4 0.764048 0.711478 0.000000
O O5 0.094344 0.500000 0.777586
O O6 0.125724 0.778428 0.752261
O O7 0.042504 0.737316 0.768957
O O8 0.093313 0.693516 0.000000
O O9 0.372513 0.278367 0.266133
O O10 0.347349 0.000000 0.206593
O O11 0.348616 0.213525 0.000000
O O12 0.543139 0.766694 0.753524
O O13 0.500000 0.000000 0.840119
O O14 0.500000 0.751628 0.000000
O O15 0.163725 0.209634 0.500000
O O16 0.180300 0.000000 0.703556
O O17 0.579284 0.729728 0.500000
O O18 0.572525 0.500000 0.686825
O O19 0.000000 0.000000 0.761929
O O20 0.000000 0.831458 0.000000
#
# Coordination Sequence:
#
# PCOD8198770 Si02
#       7
#     8   8   8   4   8   8   4
#     4  10  21  38  61  87 113 145 187 233 281 333
#     4  10  20  35  57  84 112 143 182 228 277 330
#     4  10  21  38  61  88 116 148 188 232 279 333
#     4  11  24  41  62  88 116 149 192 239 286 336
#     4  11  24  39  55  79 112 149 188 230 278 332
#     4  11  24  40  59  86 119 154 192 233 280 335
#     4   9  17  31  54  83 112 143 180 224 274 327
#
# _framework density 19.717216000000001
#
# number of rings (size 3 to 8) (size 9 to 14) (size 15 to 20)
#    0.000    1.667    0.000    4.250    0.000   13.000 
#    0.000    0.417    0.000    2.500    0.000    0.000 
#    0.000    0.000    0.000    0.000    0.000    0.000 
#
# Total GULP energy -595484.445116 kJ/mol
# GULP energy per Si atom -12405.925940 kJ/mol
# Density = 1.967234 g / cm^3
# Si number density = 19.717216 Si / 1000 Ang^3
#
#
#
# Elastic Constant Matrix: (Units=GPa)
#
#
# Indices 1 2 3 4 5 6 
#
# 1 116.8195 21.3754 49.4356 0.0000 0.0000 0.0000
# 2 21.3754 62.1999 35.3788 0.0000 0.0000 0.0000
# 3 49.4356 35.3788 78.0781 0.0000 0.0000 0.0000
# 4 0.0000 0.0000 0.0000 29.0154 0.0000 0.0000
# 5 0.0000 0.0000 0.0000 0.0000 -385.5169 0.0000
# 6 0.0000 0.0000 0.0000 0.0000 0.0000 44.6078
#
#
#
# Elastic Compliance Matrix: (Units=1/GPa)
#
#
# Indices 1 2 3 4 5 6 
#
# 1 0.011696 0.000260 -0.007523 0.000000 0.000000 0.000000
# 2 0.000260 0.021665 -0.009981 0.000000 0.000000 0.000000
# 3 -0.007523 -0.009981 0.022094 0.000000 0.000000 0.000000
# 4 0.000000 0.000000 0.000000 0.034464 0.000000 0.000000
# 5 0.000000 0.000000 0.000000 0.000000 -0.002594 0.000000
# 6 0.000000 0.000000 0.000000 0.000000 0.000000 0.022418
#
#
# Mechanical properties :
#
#
# Convention : Reuss Voigt Hill
#
# Bulk Modulus (GPa) = 47.69741 52.16413 49.93077
# Shear Modulus (GPa) = 33.06388 -52.31823 -9.62718
#
# Velocity S-wave (km/s) = 4.09944 -5.15673 -2.21206
# Velocity P-wave (km/s) = 6.83012 2.99037 4.34213
#
# Compressibility (1/GPa) = 0.02096550
#
# Stress axis : x y z
#
# Youngs Moduli (GPa) = 85.49627 46.15672 45.26134
#
# Poissons Ratio (x) = -0.01198 0.34052
# Poissons Ratio (y) = -0.02220 0.45177
# Poissons Ratio (z) = 0.64322 0.46071
#
# Static dielectric constant tensor:
#      x y z
#    x 3.792270 0.000000 0.000000 
#    y 0.000000 3.739600 0.000000 
#    z 0.000000 0.000000 3.557740 
# 
# 
# High freq. dielectric constant tensor:
#      x y z
#    x 1.783840 0.000000 0.000000 
#    y 0.000000 1.783850 0.000000 
#    z 0.000000 0.000000 1.756570 
# 
# From -- ./inp_files/13807.got.cif
#   From: 2010.03.12/outbox.cif.g09.slc.cpg/sg47_7_cif.got.tgz:13807.got - 2010.04.14 03:12:58.
