data_PCOD8198755
_publ_section_title
;
Structure prediction by ZEFSAII (Michael W. Deem and Ramdas Pophale) SiO2 
 PCOD8198755
Probable space group: P M M M
;
_chemical_formula_sum "Si O2"
_cell_formula_units_Z 40
_cell_length_a 9.062901
_cell_length_b 25.894655
_cell_length_c 8.879221
_cell_angle_alpha 90.000000
_cell_angle_beta 90.000000
_cell_angle_gamma 90.000000
_cell_volume 2083.781753
_symmetry_space_group_name_H-M "P M M M"
_symmetry_group_IT_number 47
_symmetry_cell_setting 'orthorhombic'
loop_
_space_group_symop_operation_xyz
x,y,z
-x,-y,z
x,-y,-z
-x,y,-z
-x,-y,-z
x,y,-z
-x,y,z
x,-y,z
loop_
_atom_site_type_symbol
_atom_site_label
_atom_site_fract_x
_atom_site_fract_y
_atom_site_fract_z
Si Si1 0.673390 0.808744 0.825192
Si Si2 0.833423 0.500000 0.179246
Si Si3 0.331418 0.000000 0.821774
Si Si4 0.324813 0.295380 0.669061
Si Si5 0.327713 0.398436 0.175318
Si Si6 0.171633 0.903836 0.323676
O O1 0.500000 0.816659 0.795951
O O2 0.727446 0.752563 0.770624
O O3 0.762027 0.849808 0.728168
O O4 0.712402 0.815142 0.000000
O O5 0.753280 0.551145 0.241224
O O6 0.000000 0.500000 0.238642
O O7 0.824486 0.500000 0.000000
O O8 0.252205 0.949404 0.762379
O O9 0.500000 0.000000 0.765638
O O10 0.322794 0.000000 0.000000
O O11 0.263068 0.288777 0.500000
O O12 0.500000 0.297764 0.669071
O O13 0.263252 0.348413 0.739387
O O14 0.500000 0.406122 0.205636
O O15 0.294311 0.390407 0.000000
O O16 0.198455 0.910920 0.500000
O O17 0.000000 0.905541 0.282468
#
# Coordination Sequence:
#
# PCOD8198755 Si02
#       6
#     8   4   4   8   8   8
#     4  10  20  35  57  84 111 141 180 223 266 316
#     4   9  17  29  46  69  96 126 162 205 254 308
#     4  11  24  41  62  88 114 143 184 229 270 316
#     4   9  17  30  50  76 104 134 170 214 262 309
#     4   9  16  28  48  72  96 125 165 211 255 302
#     4  11  24  40  58  83 115 149 184 222 267 319
#
# _framework density 19.195868000000001
#
# number of rings (size 3 to 8) (size 9 to 14) (size 15 to 20)
#    0.000    2.200    0.000    3.300    0.000   10.800 
#    0.000    1.500    0.000    7.200    0.000    0.000 
#    0.000    0.000    0.000    0.000    0.000    0.000 
#
# Total GULP energy -496090.145453 kJ/mol
# GULP energy per Si atom -12402.253636 kJ/mol
# Density = 1.915218 g / cm^3
# Si number density = 19.195868 Si / 1000 Ang^3
#
#
#
# Elastic Constant Matrix: (Units=GPa)
#
#
# Indices 1 2 3 4 5 6 
#
# 1 75.4193 53.5297 35.5492 0.0000 0.0000 0.0000
# 2 53.5297 153.6853 29.9451 0.0000 0.0000 0.0000
# 3 35.5492 29.9451 55.8820 0.0000 0.0000 0.0000
# 4 0.0000 0.0000 0.0000 72.9254 0.0000 0.0000
# 5 0.0000 0.0000 0.0000 0.0000 20.5143 0.0000
# 6 0.0000 0.0000 0.0000 0.0000 0.0000 -148.5683
#
#
#
# Elastic Compliance Matrix: (Units=1/GPa)
#
#
# Indices 1 2 3 4 5 6 
#
# 1 0.022641 -0.005672 -0.011364 0.000000 0.000000 0.000000
# 2 -0.005672 0.008686 -0.001046 0.000000 0.000000 0.000000
# 3 -0.011364 -0.001046 0.025685 0.000000 0.000000 0.000000
# 4 0.000000 0.000000 0.000000 0.013713 0.000000 0.000000
# 5 0.000000 0.000000 0.000000 0.000000 0.048746 0.000000
# 6 0.000000 0.000000 0.000000 0.000000 0.000000 -0.006731
#
#
# Mechanical properties :
#
#
# Convention : Reuss Voigt Hill
#
# Bulk Modulus (GPa) = 47.96668 58.11497 53.04083
# Shear Modulus (GPa) = 32.08125 0.03845 16.05985
#
# Velocity S-wave (km/s) = 4.09254 0.14169 2.89559
# Velocity P-wave (km/s) = 6.88288 5.51065 6.23463
#
# Compressibility (1/GPa) = 0.02084780
#
# Stress axis : x y z
#
# Youngs Moduli (GPa) = 44.16700 115.12406 38.93369
#
# Poissons Ratio (x) = 0.65298 0.44244
# Poissons Ratio (y) = 0.25051 0.04074
# Poissons Ratio (z) = 0.50191 0.12047
#
# Static dielectric constant tensor:
#      x y z
#    x 3.375310 0.000000 0.000000 
#    y 0.000000 3.870560 0.000000 
#    z 0.000000 0.000000 3.513670 
# 
# 
# High freq. dielectric constant tensor:
#      x y z
#    x 1.722380 0.000000 0.000000 
#    y 0.000000 1.767780 0.000000 
#    z 0.000000 0.000000 1.743290 
# 
# From -- ./inp_files/1685.got.cif
#   From: 2010.03.12/outbox.cif.g09.slc.cpg/sg47_1_cif.got.tgz:1685.got - 2010.04.14 03:12:58.
