data_PCOD8198034
_publ_section_title
;
Structure prediction by ZEFSAII (Michael W. Deem and Ramdas Pophale) SiO2 
 PCOD8198034
Probable space group: P M M M
;
_chemical_formula_sum "Si O2"
_cell_formula_units_Z 40
_cell_length_a 9.096833
_cell_length_b 27.771730
_cell_length_c 7.709760
_cell_angle_alpha 90.000000
_cell_angle_beta 90.000000
_cell_angle_gamma 90.000000
_cell_volume 1947.753598
_symmetry_space_group_name_H-M "P M M M"
_symmetry_group_IT_number 47
_symmetry_cell_setting 'orthorhombic'
loop_
_space_group_symop_operation_xyz
x,y,z
-x,-y,z
x,-y,-z
-x,y,-z
-x,-y,-z
x,y,-z
-x,y,z
x,-y,z
loop_
_atom_site_type_symbol
_atom_site_label
_atom_site_fract_x
_atom_site_fract_y
_atom_site_fract_z
Si Si1 0.666049 0.000000 0.293143
Si Si2 0.663099 0.811171 0.202531
Si Si3 0.674175 0.553577 0.500000
Si Si4 0.835302 0.280111 0.205848
Si Si5 0.834838 0.906652 0.705104
Si Si6 0.672807 0.623363 0.801663
O O1 0.749141 0.047042 0.220339
O O2 0.500000 0.000000 0.220991
O O3 0.665721 0.000000 0.500000
O O4 0.500000 0.814964 0.286081
O O5 0.749242 0.765787 0.285246
O O6 0.751989 0.859287 0.236230
O O7 0.647460 0.802353 0.000000
O O8 0.743396 0.500000 0.500000
O O9 0.500000 0.550161 0.500000
O O10 0.726286 0.580713 0.674825
O O11 0.753068 0.328538 0.262597
O O12 0.000000 0.280495 0.282730
O O13 0.840398 0.276344 0.000000
O O14 0.839796 0.909373 0.500000
O O15 0.000000 0.906150 0.781373
O O16 0.500000 0.632857 0.784679
O O17 0.714828 0.609705 0.000000
#
# Coordination Sequence:
#
# PCOD8198034 Si02
#       6
#     4   8   4   8   8   8
#     4   9  17  31  52  73  96 131 172 214 262 313
#     4  10  20  34  53  77 105 136 170 211 261 316
#     4   9  18  32  51  79 111 139 175 224 271 314
#     4   9  17  31  52  75 100 133 171 209 253 308
#     4  10  20  34  52  75 102 132 170 214 260 313
#     4   9  17  31  52  76 103 138 179 220 265 319
#
# _framework density 20.536477000000001
#
# number of rings (size 3 to 8) (size 9 to 14) (size 15 to 20)
#    0.000    2.600    0.000    2.100    0.000    6.400 
#    1.800    3.000    0.000    4.200    0.000    2.800 
#    0.000    0.000    0.000    0.000    0.000    0.000 
#
# Total GULP energy -495949.133832 kJ/mol
# GULP energy per Si atom -12398.728346 kJ/mol
# Density = 2.048973 g / cm^3
# Si number density = 20.536477 Si / 1000 Ang^3
#
#
#
# Elastic Constant Matrix: (Units=GPa)
#
#
# Indices 1 2 3 4 5 6 
#
# 1 152.8091 88.5927 24.9271 0.0000 0.0000 0.0000
# 2 88.5927 211.3346 43.7175 0.0000 0.0000 0.0000
# 3 24.9271 43.7175 49.4659 0.0000 0.0000 0.0000
# 4 0.0000 0.0000 0.0000 30.1914 0.0000 0.0000
# 5 0.0000 0.0000 0.0000 0.0000 13.5187 0.0000
# 6 0.0000 0.0000 0.0000 0.0000 0.0000 11.4373
#
#
#
# Elastic Compliance Matrix: (Units=1/GPa)
#
#
# Indices 1 2 3 4 5 6 
#
# 1 0.008727 -0.003363 -0.001425 0.000000 0.000000 0.000000
# 2 -0.003363 0.007087 -0.004568 0.000000 0.000000 0.000000
# 3 -0.001425 -0.004568 0.024971 0.000000 0.000000 0.000000
# 4 0.000000 0.000000 0.000000 0.033122 0.000000 0.000000
# 5 0.000000 0.000000 0.000000 0.000000 0.073971 0.000000
# 6 0.000000 0.000000 0.000000 0.000000 0.000000 0.087433
#
#
# Mechanical properties :
#
#
# Convention : Reuss Voigt Hill
#
# Bulk Modulus (GPa) = 45.30752 80.89823 63.10287
# Shear Modulus (GPa) = 19.12908 28.12097 23.62502
#
# Velocity S-wave (km/s) = 3.05531 3.70444 3.39542
# Velocity P-wave (km/s) = 5.87847 7.60100 6.79454
#
# Compressibility (1/GPa) = 0.02207139
#
# Stress axis : x y z
#
# Youngs Moduli (GPa) = 114.59278 141.10663 40.04566
#
# Poissons Ratio (x) = 0.47461 0.05706
# Poissons Ratio (y) = 0.38543 0.18294
# Poissons Ratio (z) = 0.16329 0.64463
#
# Static dielectric constant tensor:
#      x y z
#    x 3.925600 0.000000 0.000000 
#    y 0.000000 3.987600 0.000000 
#    z 0.000000 0.000000 3.493690 
# 
# 
# High freq. dielectric constant tensor:
#      x y z
#    x 1.801670 0.000000 0.000000 
#    y 0.000000 1.807490 0.000000 
#    z 0.000000 0.000000 1.778180 
# 
# From -- ./inp_files/1771.got.cif
#   From: 2010.03.12/outbox.cif.g09.slc.cpg/sg47_1_cif.got.tgz:1771.got - 2010.04.14 03:12:58.
