data_PCOD8198573
_publ_section_title
;
Structure prediction by ZEFSAII (Michael W. Deem and Ramdas Pophale) SiO2 
 PCOD8198573
Probable space group: P M M M
;
_chemical_formula_sum "Si O2"
_cell_formula_units_Z 64
_cell_length_a 20.253784
_cell_length_b 19.855791
_cell_length_c 9.109707
_cell_angle_alpha 90.000000
_cell_angle_beta 90.000000
_cell_angle_gamma 90.000000
_cell_volume 3663.513326
_symmetry_space_group_name_H-M "P M M M"
_symmetry_group_IT_number 47
_symmetry_cell_setting 'orthorhombic'
loop_
_space_group_symop_operation_xyz
x,y,z
-x,-y,z
x,-y,-z
-x,y,-z
-x,-y,-z
x,y,-z
-x,y,z
x,-y,z
loop_
_atom_site_type_symbol
_atom_site_label
_atom_site_fract_x
_atom_site_fract_y
_atom_site_fract_z
Si Si1 0.311654 0.152402 0.671378
Si Si2 0.870450 0.571554 0.670709
Si Si3 0.267962 0.573330 0.829192
Si Si4 0.274619 0.299009 0.669942
Si Si5 0.575867 0.921965 0.167734
Si Si6 0.925254 0.145226 0.326757
Si Si7 0.807167 0.078011 0.829421
Si Si8 0.875642 0.714759 0.671647
O O1 0.300430 0.138135 0.500000
O O2 0.316677 0.232194 0.703278
O O3 0.380485 0.121440 0.722520
O O4 0.250438 0.121262 0.757194
O O5 0.849901 0.576725 0.500000
O O6 0.909671 0.500000 0.697774
O O7 0.805048 0.569605 0.765389
O O8 0.909141 0.641315 0.711988
O O9 0.302549 0.500000 0.800737
O O10 0.306050 0.636242 0.753840
O O11 0.263580 0.588652 0.000000
O O12 0.275020 0.317437 0.500000
O O13 0.200015 0.285434 0.726081
O O14 0.500000 0.902527 0.194895
O O15 0.587823 0.000000 0.202637
O O16 0.596151 0.906589 0.000000
O O17 0.910976 0.141372 0.500000
O O18 0.877155 0.093723 0.245347
O O19 0.913935 0.221158 0.261598
O O20 0.000000 0.123802 0.291113
O O21 0.790267 0.000000 0.805504
O O22 0.811392 0.096495 0.000000
O O23 0.878175 0.726518 0.500000
#
# Coordination Sequence:
#
# PCOD8198573 Si02
#       8
#     8   8   8   8   8   8   8   8
#     4  11  21  34  54  80 107 133 168 212 250 290
#     4   8  13  22  38  58  83 118 154 188 232 286
#     4   9  16  24  36  60  93 124 158 200 240 282
#     4   9  17  29  45  65  94 129 161 198 245 294
#     4   9  19  36  55  76 107 145 178 206 242 292
#     4  10  20  35  54  72  92 122 162 210 259 304
#     4  11  24  39  54  73  98 127 159 201 256 313
#     4   8  13  26  44  63  88 117 153 195 240 290
#
# _framework density 17.469569
#
# number of rings (size 3 to 8) (size 9 to 14) (size 15 to 20)
#    0.000    2.625    1.250    2.625    0.000    5.250 
#    0.000    1.875    0.000    0.375    0.000    2.625 
#    0.000    0.500    0.000   22.375    0.000   20.125 
#
# Total GULP energy -792876.919839 kJ/mol
# GULP energy per Si atom -12388.701872 kJ/mol
# Density = 1.742981 g / cm^3
# Si number density = 17.469569 Si / 1000 Ang^3
#
#
#
# Elastic Constant Matrix: (Units=GPa)
#
#
# Indices 1 2 3 4 5 6 
#
# 1 55.9216 34.0575 33.8886 0.0000 0.0000 0.0000
# 2 34.0575 107.2287 57.4748 0.0000 0.0000 0.0000
# 3 33.8886 57.4748 77.4971 0.0000 0.0000 0.0000
# 4 0.0000 0.0000 0.0000 24.9637 0.0000 0.0000
# 5 0.0000 0.0000 0.0000 0.0000 19.5521 0.0000
# 6 0.0000 0.0000 0.0000 0.0000 0.0000 14.4592
#
#
#
# Elastic Compliance Matrix: (Units=1/GPa)
#
#
# Indices 1 2 3 4 5 6 
#
# 1 0.025082 -0.003465 -0.008398 0.000000 0.000000 0.000000
# 2 -0.003465 0.015958 -0.010320 0.000000 0.000000 0.000000
# 3 -0.008398 -0.010320 0.024230 0.000000 0.000000 0.000000
# 4 0.000000 0.000000 0.000000 0.040058 0.000000 0.000000
# 5 0.000000 0.000000 0.000000 0.000000 0.051145 0.000000
# 6 0.000000 0.000000 0.000000 0.000000 0.000000 0.069160
#
#
# Mechanical properties :
#
#
# Convention : Reuss Voigt Hill
#
# Bulk Modulus (GPa) = 47.83906 54.60990 51.22448
# Shear Modulus (GPa) = 18.05274 19.47677 18.76475
#
# Velocity S-wave (km/s) = 3.21811 3.34263 3.28096
# Velocity P-wave (km/s) = 6.42277 6.79893 6.61353
#
# Compressibility (1/GPa) = 0.02090342
#
# Stress axis : x y z
#
# Youngs Moduli (GPa) = 39.86973 62.66551 41.27168
#
# Poissons Ratio (x) = 0.21713 0.34661
# Poissons Ratio (y) = 0.13814 0.42591
# Poissons Ratio (z) = 0.33484 0.64669
#
# Static dielectric constant tensor:
#      x y z
#    x 2.835910 0.000000 0.000000 
#    y 0.000000 3.926530 0.000000 
#    z 0.000000 0.000000 3.185080 
# 
# 
# High freq. dielectric constant tensor:
#      x y z
#    x 1.617930 0.000000 0.000000 
#    y 0.000000 1.699630 0.000000 
#    z 0.000000 0.000000 1.664450 
# 
# From -- ./inp_files/11610.got.cif
#   From: 2010.03.12/outbox.cif.g09.slc.cpg/sg47_6_cif.got.tgz:11610.got - 2010.04.14 03:12:58.
