data_PCOD8198890
_publ_section_title
;
Structure prediction by ZEFSAII (Michael W. Deem and Ramdas Pophale) SiO2 
 PCOD8198890
Probable space group: P M M M
;
_chemical_formula_sum "Si O2"
_cell_formula_units_Z 48
_cell_length_a 8.735572
_cell_length_b 16.988867
_cell_length_c 15.970566
_cell_angle_alpha 90.000000
_cell_angle_beta 90.000000
_cell_angle_gamma 90.000000
_cell_volume 2370.151309
_symmetry_space_group_name_H-M "P M M M"
_symmetry_group_IT_number 47
_symmetry_cell_setting 'orthorhombic'
loop_
_space_group_symop_operation_xyz
x,y,z
-x,-y,z
x,-y,-z
-x,y,-z
-x,-y,-z
x,y,-z
-x,y,z
x,-y,z
loop_
_atom_site_type_symbol
_atom_site_label
_atom_site_fract_x
_atom_site_fract_y
_atom_site_fract_z
Si Si1 0.822059 0.342919 0.666918
Si Si2 0.821505 0.179835 0.408805
Si Si3 0.326576 0.500000 0.598834
Si Si4 0.177481 0.192519 0.906642
Si Si5 0.679198 0.342259 0.159779
Si Si6 0.182630 0.088865 0.247814
Si Si7 0.180955 0.500000 0.094054
O O1 0.794998 0.273240 0.600690
O O2 0.761309 0.423873 0.630343
O O3 0.728033 0.315992 0.747878
O O4 0.000000 0.351993 0.690130
O O5 0.751568 0.155331 0.500000
O O6 0.748912 0.130980 0.331271
O O7 0.000000 0.160495 0.409320
O O8 0.500000 0.500000 0.634059
O O9 0.326282 0.500000 0.500000
O O10 0.267985 0.274674 0.903908
O O11 0.241393 0.132375 0.836478
O O12 0.000000 0.210953 0.889382
O O13 0.200677 0.156440 0.000000
O O14 0.500000 0.354845 0.152201
O O15 0.760954 0.424028 0.141855
O O16 0.000000 0.090553 0.249090
O O17 0.245218 0.000000 0.245745
O O18 0.000000 0.500000 0.094808
O O19 0.246207 0.500000 0.000000
#
# Coordination Sequence:
#
# PCOD8198890 Si02
#       7
#     8   8   4   8   8   8   4
#     4  11  21  37  59  81 112 153 201 246 288 344
#     4   9  17  30  52  83 116 149 187 234 288 344
#     4  11  24  39  54  81 121 157 196 246 297 348
#     4  10  20  36  58  84 116 155 197 238 287 347
#     4  12  24  38  58  84 116 152 194 241 295 348
#     4   9  17  31  53  84 120 151 185 236 294 349
#     4  11  24  41  60  83 113 151 194 238 287 342
#
# _framework density 20.251871000000001
#
# number of rings (size 3 to 8) (size 9 to 14) (size 15 to 20)
#    0.000    1.667    1.667    4.000    0.000    5.000 
#    0.000    3.333    0.000    0.500    0.000    1.167 
#    0.000    1.333    0.000    0.000    0.000    0.000 
#
# Total GULP energy -595187.945133 kJ/mol
# GULP energy per Si atom -12399.748857 kJ/mol
# Density = 2.020578 g / cm^3
# Si number density = 20.251871 Si / 1000 Ang^3
#
#
#
# Elastic Constant Matrix: (Units=GPa)
#
#
# Indices 1 2 3 4 5 6 
#
# 1 53.1109 23.8231 19.2411 0.0000 0.0000 0.0000
# 2 23.8231 141.8076 61.1374 0.0000 0.0000 0.0000
# 3 19.2411 61.1374 153.3274 0.0000 0.0000 0.0000
# 4 0.0000 0.0000 0.0000 22.8326 0.0000 0.0000
# 5 0.0000 0.0000 0.0000 0.0000 17.0281 0.0000
# 6 0.0000 0.0000 0.0000 0.0000 0.0000 -6.1157
#
#
#
# Elastic Compliance Matrix: (Units=1/GPa)
#
#
# Indices 1 2 3 4 5 6 
#
# 1 0.020629 -0.002837 -0.001457 0.000000 0.000000 0.000000
# 2 -0.002837 0.008906 -0.003195 0.000000 0.000000 0.000000
# 3 -0.001457 -0.003195 0.007979 0.000000 0.000000 0.000000
# 4 0.000000 0.000000 0.000000 0.043797 0.000000 0.000000
# 5 0.000000 0.000000 0.000000 0.000000 0.058726 0.000000
# 6 0.000000 0.000000 0.000000 0.000000 0.000000 -0.163515
#
#
# Mechanical properties :
#
#
# Convention : Reuss Voigt Hill
#
# Bulk Modulus (GPa) = 44.37650 61.84988 53.11319
# Shear Modulus (GPa) = -5068.81328 23.01864 -2522.89732
#
# Velocity S-wave (km/s) = -50.08313 3.37503 -35.33362
# Velocity P-wave (km/s) = 57.64084 6.76716 40.47637
#
# Compressibility (1/GPa) = 0.02253445
#
# Stress axis : x y z
#
# Youngs Moduli (GPa) = 48.47494 112.28440 125.33071
#
# Poissons Ratio (x) = 0.31858 0.18266
# Poissons Ratio (y) = 0.13754 0.40044
# Poissons Ratio (z) = 0.07065 0.35876
#
# Static dielectric constant tensor:
#      x y z
#    x 3.366680 0.000000 0.000000 
#    y 0.000000 3.614800 0.000000 
#    z 0.000000 0.000000 4.041890 
# 
# 
# High freq. dielectric constant tensor:
#      x y z
#    x 1.750570 0.000000 0.000000 
#    y 0.000000 1.791260 0.000000 
#    z 0.000000 0.000000 1.809740 
# 
# From -- ./inp_files/21157.got.cif
#   From: 2010.03.12/outbox.cif.g09.slc.cpg/sg47_11_cif.got.tgz:21157.got - 2010.04.14 03:12:58.
