data_PCOD8198337
_publ_section_title
;
Structure prediction by ZEFSAII (Michael W. Deem and Ramdas Pophale) SiO2 
 PCOD8198337
Probable space group: P M M M
;
_chemical_formula_sum "Si O2"
_cell_formula_units_Z 48
_cell_length_a 8.994705
_cell_length_b 30.790484
_cell_length_c 9.013982
_cell_angle_alpha 90.000000
_cell_angle_beta 90.000000
_cell_angle_gamma 90.000000
_cell_volume 2496.434217
_symmetry_space_group_name_H-M "P M M M"
_symmetry_group_IT_number 47
_symmetry_cell_setting 'orthorhombic'
loop_
_space_group_symop_operation_xyz
x,y,z
-x,-y,z
x,-y,-z
-x,y,-z
-x,-y,-z
x,y,-z
-x,y,z
x,-y,z
loop_
_atom_site_type_symbol
_atom_site_label
_atom_site_fract_x
_atom_site_fract_y
_atom_site_fract_z
Si Si1 0.323484 0.585559 0.168031
Si Si2 0.669244 0.000000 0.175337
Si Si3 0.826630 0.920457 0.672284
Si Si4 0.326425 0.168586 0.329726
Si Si5 0.172481 0.335087 0.327030
Si Si6 0.829326 0.246371 0.173455
Si Si7 0.322891 0.500000 0.332413
O O1 0.500000 0.585870 0.170652
O O2 0.267400 0.627285 0.254115
O O3 0.261642 0.542472 0.248473
O O4 0.263191 0.586006 0.000000
O O5 0.750255 0.957469 0.233061
O O6 0.500000 0.000000 0.232587
O O7 0.677300 0.000000 0.000000
O O8 0.795716 0.929845 0.500000
O O9 0.758754 0.874562 0.721011
O O10 0.000000 0.919885 0.708892
O O11 0.288391 0.180046 0.500000
O O12 0.500000 0.160509 0.306386
O O13 0.274175 0.207453 0.226028
O O14 0.208591 0.333411 0.500000
O O15 0.223185 0.289701 0.256500
O O16 0.000000 0.344012 0.294809
O O17 0.000000 0.235350 0.212954
O O18 0.806846 0.253940 0.000000
O O19 0.500000 0.500000 0.332376
O O20 0.260840 0.500000 0.500000
#
# Coordination Sequence:
#
# PCOD8198337 Si02
#       7
#     8   4   8   8   8   8   4
#     4  10  20  34  54  80 109 141 178 221 270 324
#     4  11  24  39  56  82 116 151 186 227 276 326
#     4  10  21  38  61  86 111 144 187 230 273 325
#     4  10  21  37  58  84 112 143 180 223 271 321
#     4  10  21  37  57  80 107 141 181 225 272 322
#     4  10  21  37  57  80 107 142 181 220 267 323
#     4   9  17  31  52  77 106 141 180 222 268 319
#
# _framework density 19.227423999999999
#
# number of rings (size 3 to 8) (size 9 to 14) (size 15 to 20)
#    0.000    2.000    0.000    3.250    0.000    9.000 
#    0.000    0.417    0.000    2.500    0.000    0.000 
#    0.000    0.000    0.000    0.000    0.000    0.000 
#
# Total GULP energy -595446.049492 kJ/mol
# GULP energy per Si atom -12405.126031 kJ/mol
# Density = 1.918366 g / cm^3
# Si number density = 19.227424 Si / 1000 Ang^3
#
#
#
# Elastic Constant Matrix: (Units=GPa)
#
#
# Indices 1 2 3 4 5 6 
#
# 1 68.3376 52.0233 38.4612 0.0000 0.0000 0.0000
# 2 52.0233 153.7203 70.4952 0.0000 0.0000 0.0000
# 3 38.4612 70.4952 107.8047 0.0000 0.0000 0.0000
# 4 0.0000 0.0000 0.0000 239.3650 0.0000 0.0000
# 5 0.0000 0.0000 0.0000 0.0000 28.9461 0.0000
# 6 0.0000 0.0000 0.0000 0.0000 0.0000 35.9195
#
#
#
# Elastic Compliance Matrix: (Units=1/GPa)
#
#
# Indices 1 2 3 4 5 6 
#
# 1 0.020874 -0.005212 -0.004039 0.000000 0.000000 0.000000
# 2 -0.005212 0.010593 -0.005068 0.000000 0.000000 0.000000
# 3 -0.004039 -0.005068 0.014031 0.000000 0.000000 0.000000
# 4 0.000000 0.000000 0.000000 0.004178 0.000000 0.000000
# 5 0.000000 0.000000 0.000000 0.000000 0.034547 0.000000
# 6 0.000000 0.000000 0.000000 0.000000 0.000000 0.027840
#
#
# Mechanical properties :
#
#
# Convention : Reuss Voigt Hill
#
# Bulk Modulus (GPa) = 59.30878 72.42465 65.86671
# Shear Modulus (GPa) = 34.17156 72.10499 53.13828
#
# Velocity S-wave (km/s) = 4.22029 6.13046 5.26277
# Velocity P-wave (km/s) = 7.39329 9.37332 8.44156
#
# Compressibility (1/GPa) = 0.01686091
#
# Stress axis : x y z
#
# Youngs Moduli (GPa) = 47.90589 94.39999 71.27224
#
# Poissons Ratio (x) = 0.49203 0.28786
# Poissons Ratio (y) = 0.24970 0.36117
# Poissons Ratio (z) = 0.19349 0.47837
#
# Static dielectric constant tensor:
#      x y z
#    x 3.432130 0.000000 0.000000 
#    y 0.000000 3.475930 0.000000 
#    z 0.000000 0.000000 3.621210 
# 
# 
# High freq. dielectric constant tensor:
#      x y z
#    x 1.738410 0.000000 0.000000 
#    y 0.000000 1.763130 0.000000 
#    z 0.000000 0.000000 1.756320 
# 
# From -- ./inp_files/2596.got.cif
#   From: 2010.03.12/outbox.cif.g09.slc.cpg/sg47_2_cif.got.tgz:2596.got - 2010.04.14 03:12:58.
