data_PCOD8198072
_publ_section_title
;
Structure prediction by ZEFSAII (Michael W. Deem and Ramdas Pophale) SiO2 
 PCOD8198072
Probable space group: P M M M
;
_chemical_formula_sum "Si O2"
_cell_formula_units_Z 64
_cell_length_a 14.192549
_cell_length_b 31.741335
_cell_length_c 9.076025
_cell_angle_alpha 90.000000
_cell_angle_beta 90.000000
_cell_angle_gamma 90.000000
_cell_volume 4088.662607
_symmetry_space_group_name_H-M "P M M M"
_symmetry_group_IT_number 47
_symmetry_cell_setting 'orthorhombic'
loop_
_space_group_symop_operation_xyz
x,y,z
-x,-y,z
x,-y,-z
-x,y,-z
-x,-y,-z
x,y,-z
-x,y,z
x,-y,z
loop_
_atom_site_type_symbol
_atom_site_label
_atom_site_fract_x
_atom_site_fract_y
_atom_site_fract_z
Si Si1 0.605817 0.544625 0.675275
Si Si2 0.391293 0.873345 0.671964
Si Si3 0.106666 0.826399 0.671966
Si Si4 0.282097 0.201795 0.175053
Si Si5 0.387319 0.634490 0.334064
Si Si6 0.270062 0.046935 0.331490
Si Si7 0.393099 0.716290 0.173416
Si Si8 0.893628 0.085884 0.830237
O O1 0.602608 0.547285 0.500000
O O2 0.500000 0.542461 0.737445
O O3 0.656807 0.500000 0.723495
O O4 0.652562 0.589094 0.728507
O O5 0.378996 0.862858 0.500000
O O6 0.500000 0.873114 0.719326
O O7 0.336597 0.838817 0.765987
O O8 0.350087 0.919339 0.711195
O O9 0.131162 0.826680 0.500000
O O10 0.177215 0.795380 0.757498
O O11 0.123067 0.872984 0.732631
O O12 0.000000 0.811036 0.701383
O O13 0.334675 0.243744 0.229772
O O14 0.276873 0.199119 0.000000
O O15 0.352167 0.642230 0.500000
O O16 0.500000 0.632332 0.327426
O O17 0.348669 0.673261 0.237785
O O18 0.237841 0.053476 0.500000
O O19 0.178421 0.050924 0.227785
O O20 0.311881 0.000000 0.307799
O O21 0.500000 0.722440 0.229453
O O22 0.389057 0.712484 0.000000
O O23 0.000000 0.068767 0.811345
O O24 0.872673 0.097056 0.000000
#
# Coordination Sequence:
#
# PCOD8198072 Si02
#       8
#     8   8   8   8   8   8   8   8
#     4   7   9  14  26  45  68  94 129 177 227 265
#     4  10  21  36  53  72  93 119 151 185 220 256
#     4  10  20  34  53  75  97 118 140 171 213 260
#     4  11  21  33  51  72  93 118 148 181 218 261
#     4   8  13  21  34  52  73 101 141 185 223 259
#     4  10  21  36  53  73  97 124 151 179 215 258
#     4   9  18  30  41  57  85 119 149 179 220 261
#     4  10  20  34  53  76  99 122 146 173 209 253
#
# _framework density 15.653039
#
# number of rings (size 3 to 8) (size 9 to 14) (size 15 to 20)
#    0.000    2.625    1.250    2.625    0.000    4.000 
#    0.000    3.750    0.000    0.375    0.000    4.375 
#    0.000    0.000    0.000    0.000    0.000    0.625 
#
# Total GULP energy -793100.187118 kJ/mol
# GULP energy per Si atom -12392.190424 kJ/mol
# Density = 1.561741 g / cm^3
# Si number density = 15.653039 Si / 1000 Ang^3
#
#
#
# Elastic Constant Matrix: (Units=GPa)
#
#
# Indices 1 2 3 4 5 6 
#
# 1 71.9077 44.9296 30.8342 0.0000 0.0000 0.0000
# 2 44.9296 139.6514 39.2869 0.0000 0.0000 0.0000
# 3 30.8342 39.2869 49.6786 0.0000 0.0000 0.0000
# 4 0.0000 0.0000 0.0000 7.8295 0.0000 0.0000
# 5 0.0000 0.0000 0.0000 0.0000 19.5926 0.0000
# 6 0.0000 0.0000 0.0000 0.0000 0.0000 6.4979
#
#
#
# Elastic Compliance Matrix: (Units=1/GPa)
#
#
# Indices 1 2 3 4 5 6 
#
# 1 0.020457 -0.003871 -0.009636 0.000000 0.000000 0.000000
# 2 -0.003871 0.009942 -0.005460 0.000000 0.000000 0.000000
# 3 -0.009636 -0.005460 0.030428 0.000000 0.000000 0.000000
# 4 0.000000 0.000000 0.000000 0.127723 0.000000 0.000000
# 5 0.000000 0.000000 0.000000 0.000000 0.051040 0.000000
# 6 0.000000 0.000000 0.000000 0.000000 0.000000 0.153895
#
#
# Mechanical properties :
#
#
# Convention : Reuss Voigt Hill
#
# Bulk Modulus (GPa) = 43.68011 54.59323 49.13667
# Shear Modulus (GPa) = 11.38823 16.52980 13.95902
#
# Velocity S-wave (km/s) = 2.70022 3.25316 2.98950
# Velocity P-wave (km/s) = 6.13901 7.00454 6.58600
#
# Compressibility (1/GPa) = 0.02289372
#
# Stress axis : x y z
#
# Youngs Moduli (GPa) = 48.88235 100.58340 32.86440
#
# Poissons Ratio (x) = 0.38934 0.31669
# Poissons Ratio (y) = 0.18921 0.17943
# Poissons Ratio (z) = 0.47104 0.54917
#
# Static dielectric constant tensor:
#      x y z
#    x 2.852990 0.000000 0.000000 
#    y 0.000000 3.278460 0.000000 
#    z 0.000000 0.000000 2.916040 
# 
# 
# High freq. dielectric constant tensor:
#      x y z
#    x 1.559440 0.000000 0.000000 
#    y 0.000000 1.601490 0.000000 
#    z 0.000000 0.000000 1.594660 
# 
# From -- ./inp_files/8214.got.cif
#   From: 2010.03.12/outbox.cif.g09.slc.cpg/sg47_5_cif.got.tgz:8214.got - 2010.04.14 03:12:58.
