data_PCOD8198538
_publ_section_title
;
Structure prediction by ZEFSAII (Michael W. Deem and Ramdas Pophale) SiO2 
 PCOD8198538
Probable space group: P M M M
;
_chemical_formula_sum "Si O2"
_cell_formula_units_Z 64
_cell_length_a 14.339712
_cell_length_b 9.034393
_cell_length_c 25.496408
_cell_angle_alpha 90.000000
_cell_angle_beta 90.000000
_cell_angle_gamma 90.000000
_cell_volume 3303.074794
_symmetry_space_group_name_H-M "P M M M"
_symmetry_group_IT_number 47
_symmetry_cell_setting 'orthorhombic'
loop_
_space_group_symop_operation_xyz
x,y,z
-x,-y,z
x,-y,-z
-x,y,-z
-x,-y,-z
x,y,-z
-x,y,z
x,-y,z
loop_
_atom_site_type_symbol
_atom_site_label
_atom_site_fract_x
_atom_site_fract_y
_atom_site_fract_z
Si Si1 0.098276 0.665118 0.437785
Si Si2 0.105109 0.671863 0.210613
Si Si3 0.606281 0.830330 0.349473
Si Si4 0.721966 0.329770 0.940812
Si Si5 0.276292 0.825356 0.749802
Si Si6 0.894708 0.826990 0.899908
Si Si7 0.607459 0.173609 0.147952
Si Si8 0.298379 0.676488 0.559241
O O1 0.101993 0.654609 0.500000
O O2 0.094823 0.500000 0.414214
O O3 0.196494 0.740259 0.420979
O O4 0.000000 0.746420 0.420519
O O5 0.126122 0.500000 0.200687
O O6 0.177722 0.739623 0.252096
O O7 0.120370 0.759658 0.157151
O O8 0.000000 0.694970 0.232047
O O9 0.500000 0.808827 0.332107
O O10 0.668528 0.772302 0.301533
O O11 0.623637 0.737705 0.402094
O O12 0.628849 0.000000 0.362128
O O13 0.735521 0.500000 0.924830
O O14 0.822466 0.249833 0.938927
O O15 0.646894 0.256882 0.902580
O O16 0.683867 0.314358 0.000000
O O17 0.335476 0.777350 0.800693
O O18 0.258665 0.000000 0.749401
O O19 0.000000 0.798534 0.920251
O O20 0.872150 0.000000 0.896416
O O21 0.500000 0.218354 0.156206
O O22 0.618149 0.000000 0.137910
O O23 0.321025 0.729933 0.500000
O O24 0.296817 0.500000 0.561125
#
# Coordination Sequence:
#
# PCOD8198538 Si02
#       8
#     8   8   8   8   8   8   8   8
#     4   7  10  20  42  71 100 131 169 212 258 309
#     4  10  20  34  56  87 120 150 180 219 271 332
#     4  10  22  39  57  79 109 145 185 230 281 334
#     4  11  24  39  55  80 116 153 188 232 286 341
#     4  10  20  37  61  85 110 143 184 231 279 330
#     4  10  20  35  57  84 113 148 190 232 275 329
#     4  10  21  38  61  85 106 137 186 239 289 341
#     4   9  18  33  54  81 112 146 186 231 276 324
#
# _framework density 19.375886999999999
#
# number of rings (size 3 to 8) (size 9 to 14) (size 15 to 20)
#    0.000    2.375    1.250    2.625    0.000    6.000 
#    0.000    4.375    0.000    4.875    0.000    1.750 
#    0.000    0.000    0.000    0.000    0.000    0.000 
#
# Total GULP energy -793285.974628 kJ/mol
# GULP energy per Si atom -12395.093354 kJ/mol
# Density = 1.933179 g / cm^3
# Si number density = 19.375887 Si / 1000 Ang^3
#
#
#
# Elastic Constant Matrix: (Units=GPa)
#
#
# Indices 1 2 3 4 5 6 
#
# 1 115.3787 43.4696 50.6247 0.0000 0.0000 0.0000
# 2 43.4696 64.4563 38.3124 0.0000 0.0000 0.0000
# 3 50.6247 38.3124 97.8747 0.0000 0.0000 0.0000
# 4 0.0000 0.0000 0.0000 21.4022 0.0000 0.0000
# 5 0.0000 0.0000 0.0000 0.0000 28.7458 0.0000
# 6 0.0000 0.0000 0.0000 0.0000 0.0000 27.3925
#
#
#
# Elastic Compliance Matrix: (Units=1/GPa)
#
#
# Indices 1 2 3 4 5 6 
#
# 1 0.012840 -0.006140 -0.004238 0.000000 0.000000 0.000000
# 2 -0.006140 0.023155 -0.005888 0.000000 0.000000 0.000000
# 3 -0.004238 -0.005888 0.014714 0.000000 0.000000 0.000000
# 4 0.000000 0.000000 0.000000 0.046724 0.000000 0.000000
# 5 0.000000 0.000000 0.000000 0.000000 0.034788 0.000000
# 6 0.000000 0.000000 0.000000 0.000000 0.000000 0.036506
#
#
# Mechanical properties :
#
#
# Convention : Reuss Voigt Hill
#
# Bulk Modulus (GPa) = 55.01470 60.28035 57.64752
# Shear Modulus (GPa) = 24.11752 25.19498 24.65625
#
# Velocity S-wave (km/s) = 3.53188 3.60992 3.57111
# Velocity P-wave (km/s) = 6.71471 6.96806 6.84256
#
# Compressibility (1/GPa) = 0.01817696
#
# Stress axis : x y z
#
# Youngs Moduli (GPa) = 77.88200 43.18669 67.96330
#
# Poissons Ratio (x) = 0.26519 0.28801
# Poissons Ratio (y) = 0.47823 0.40016
# Poissons Ratio (z) = 0.33004 0.25428
#
# Static dielectric constant tensor:
#      x y z
#    x 3.915500 0.000000 0.000000 
#    y 0.000000 3.344660 0.000000 
#    z 0.000000 0.000000 3.290840 
# 
# 
# High freq. dielectric constant tensor:
#      x y z
#    x 1.771450 0.000000 0.000000 
#    y 0.000000 1.734100 0.000000 
#    z 0.000000 0.000000 1.733340 
# 
# From -- ./inp_files/12741.got.cif
#   From: 2010.03.12/outbox.cif.g09.slc.cpg/sg47_7_cif.got.tgz:12741.got - 2010.04.14 03:12:58.
