data_PCOD8198263
_publ_section_title
;
Structure prediction by ZEFSAII (Michael W. Deem and Ramdas Pophale) SiO2 
 PCOD8198263
Probable space group: P M M M
;
_chemical_formula_sum "Si O2"
_cell_formula_units_Z 48
_cell_length_a 9.153375
_cell_length_b 9.040539
_cell_length_c 31.110123
_cell_angle_alpha 90.000000
_cell_angle_beta 90.000000
_cell_angle_gamma 90.000000
_cell_volume 2574.407591
_symmetry_space_group_name_H-M "P M M M"
_symmetry_group_IT_number 47
_symmetry_cell_setting 'orthorhombic'
loop_
_space_group_symop_operation_xyz
x,y,z
-x,-y,z
x,-y,-z
-x,y,-z
-x,-y,-z
x,y,-z
-x,y,z
x,-y,z
loop_
_atom_site_type_symbol
_atom_site_label
_atom_site_fract_x
_atom_site_fract_y
_atom_site_fract_z
Si Si1 0.665299 0.676452 0.916443
Si Si2 0.670224 0.828242 0.337848
Si Si3 0.330444 0.329003 0.749221
Si Si4 0.826961 0.669319 0.415225
Si Si5 0.173892 0.833055 0.500000
Si Si6 0.835144 0.323879 0.166574
Si Si7 0.165341 0.676319 0.000000
O O1 0.500000 0.737129 0.917424
O O2 0.665125 0.500000 0.916239
O O3 0.745572 0.738642 0.874057
O O4 0.751161 0.736615 0.958024
O O5 0.500000 0.798479 0.345874
O O6 0.718467 0.765432 0.291793
O O7 0.760332 0.744851 0.373781
O O8 0.709597 0.000000 0.339514
O O9 0.500000 0.306605 0.760140
O O10 0.295045 0.500000 0.739560
O O11 0.239687 0.267951 0.789656
O O12 0.776193 0.500000 0.417344
O O13 0.766591 0.750170 0.457806
O O14 0.000000 0.683154 0.412248
O O15 0.000000 0.831391 0.500000
O O16 0.234699 0.000000 0.500000
O O17 0.833345 0.500000 0.165388
O O18 0.000000 0.262868 0.164456
O O19 0.164329 0.500000 0.000000
O O20 0.000000 0.737395 0.000000
#
# Coordination Sequence:
#
# PCOD8198263 Si02
#       7
#     8   8   8   8   4   8   4
#     4   9  15  22  32  47  70 103 143 184 228 281
#     4  10  21  36  53  74 101 132 165 203 249 299
#     4   9  17  30  47  65  87 118 154 191 234 286
#     4  10  20  34  54  79 105 134 170 210 250 295
#     4   9  17  31  52  77 106 139 172 208 252 299
#     4   9  16  25  38  57  80 106 141 187 234 279
#     4   9  15  21  29  43  67 101 142 187 232 277
#
# _framework density 18.645066
#
# number of rings (size 3 to 8) (size 9 to 14) (size 15 to 20)
#    0.000    2.667    0.000    2.500    0.000    8.667 
#    0.000    2.083    0.000    2.500    0.000    0.000 
#    0.000    0.000    0.000    0.750    0.000   16.333 
#
# Total GULP energy -595243.070241 kJ/mol
# GULP energy per Si atom -12400.897297 kJ/mol
# Density = 1.860263 g / cm^3
# Si number density = 18.645066 Si / 1000 Ang^3
#
#
#
# Elastic Constant Matrix: (Units=GPa)
#
#
# Indices 1 2 3 4 5 6 
#
# 1 98.6296 29.3837 74.7414 0.0000 0.0000 0.0000
# 2 29.3837 72.7127 57.7877 0.0000 0.0000 0.0000
# 3 74.7414 57.7877 182.3692 0.0000 0.0000 0.0000
# 4 0.0000 0.0000 0.0000 -1.7583 0.0000 0.0000
# 5 0.0000 0.0000 0.0000 0.0000 35.0861 0.0000
# 6 0.0000 0.0000 0.0000 0.0000 0.0000 14.2259
#
#
#
# Elastic Compliance Matrix: (Units=1/GPa)
#
#
# Indices 1 2 3 4 5 6 
#
# 1 0.014837 -0.001555 -0.005588 0.000000 0.000000 0.000000
# 2 -0.001555 0.018545 -0.005239 0.000000 0.000000 0.000000
# 3 -0.005588 -0.005239 0.009434 0.000000 0.000000 0.000000
# 4 0.000000 0.000000 0.000000 -0.568737 0.000000 0.000000
# 5 0.000000 0.000000 0.000000 0.000000 0.028501 0.000000
# 6 0.000000 0.000000 0.000000 0.000000 0.000000 0.070294
#
#
# Mechanical properties :
#
#
# Convention : Reuss Voigt Hill
#
# Bulk Modulus (GPa) = 55.39681 75.28189 65.33935
# Shear Modulus (GPa) = -12.61526 22.29733 4.84103
#
# Velocity S-wave (km/s) = -2.60398 3.46191 1.61309
# Velocity P-wave (km/s) = 4.55355 7.51290 6.21203
#
# Compressibility (1/GPa) = 0.01805158
#
# Stress axis : x y z
#
# Youngs Moduli (GPa) = 67.40065 53.92355 106.00310
#
# Poissons Ratio (x) = 0.08383 0.59234
# Poissons Ratio (y) = 0.10478 0.55537
# Poissons Ratio (z) = 0.37663 0.28252
#
# Static dielectric constant tensor:
#      x y z
#    x 3.410830 0.000000 0.000000 
#    y 0.000000 3.040360 0.000000 
#    z 0.000000 0.000000 3.633500 
# 
# 
# High freq. dielectric constant tensor:
#      x y z
#    x 1.717350 0.000000 0.000000 
#    y 0.000000 1.676670 0.000000 
#    z 0.000000 0.000000 1.742820 
# 
# From -- ./inp_files/34091.got.cif
#   From: 2010.03.12/outbox.cif.g09.slc.cpg/sg47_18_cif.got.tgz:34091.got - 2010.04.14 03:12:58.
