data_PCOD8198317
_publ_section_title
;
Structure prediction by ZEFSAII (Michael W. Deem and Ramdas Pophale) SiO2 
 PCOD8198317
Probable space group: P M M M
;
_chemical_formula_sum "Si O2"
_cell_formula_units_Z 36
_cell_length_a 8.965903
_cell_length_b 22.812816
_cell_length_c 9.553539
_cell_angle_alpha 90.000000
_cell_angle_beta 90.000000
_cell_angle_gamma 90.000000
_cell_volume 1954.056939
_symmetry_space_group_name_H-M "P M M M"
_symmetry_group_IT_number 47
_symmetry_cell_setting 'orthorhombic'
loop_
_space_group_symop_operation_xyz
x,y,z
-x,-y,z
x,-y,-z
-x,y,-z
-x,-y,-z
x,y,-z
-x,y,z
x,-y,z
loop_
_atom_site_type_symbol
_atom_site_label
_atom_site_fract_x
_atom_site_fract_y
_atom_site_fract_z
Si Si1 0.669960 0.567424 0.162144
Si Si2 0.171844 0.337310 0.661331
Si Si3 0.175014 0.882801 0.837818
Si Si4 0.331965 0.000000 0.166303
Si Si5 0.673353 0.781943 0.336738
O O1 0.500000 0.580266 0.207731
O O2 0.710155 0.500000 0.191177
O O3 0.782587 0.606287 0.250610
O O4 0.691808 0.582595 0.000000
O O5 0.200900 0.352432 0.500000
O O6 0.270397 0.282062 0.708768
O O7 0.000000 0.322050 0.690002
O O8 0.249015 0.942132 0.778206
O O9 0.235721 0.828802 0.750766
O O10 0.000000 0.888502 0.815651
O O11 0.216315 0.872915 0.000000
O O12 0.500000 0.000000 0.224889
O O13 0.328759 0.000000 0.000000
O O14 0.704980 0.792856 0.500000
O O15 0.500000 0.787209 0.299902
#
# Coordination Sequence:
#
# PCOD8198317 Si02
#       5
#     8   8   8   4   8
#     4   9  19  36  56  78 105 137 173 213 257 305
#     4  10  21  36  54  77 105 137 173 213 258 309
#     4  10  20  34  54  80 108 138 173 213 259 311
#     4   9  17  31  52  77 106 139 174 214 258 303
#     4  10  21  37  56  77 103 137 176 217 261 308
#
# _framework density 18.423207999999999
#
# number of rings (size 3 to 8) (size 9 to 14) (size 15 to 20)
#    0.000    2.333    0.000    3.000    0.000    7.556 
#    0.000    3.889    0.000    3.333    0.000    0.000 
#    0.000    0.000    0.000    0.000    0.000    0.000 
#
# Total GULP energy -446526.106465 kJ/mol
# GULP energy per Si atom -12403.502957 kJ/mol
# Density = 1.838128 g / cm^3
# Si number density = 18.423208 Si / 1000 Ang^3
#
#
#
# Elastic Constant Matrix: (Units=GPa)
#
#
# Indices 1 2 3 4 5 6 
#
# 1 85.7285 45.4555 36.3169 0.0000 0.0000 0.0000
# 2 45.4555 111.9732 50.8009 0.0000 0.0000 0.0000
# 3 36.3169 50.8009 50.6814 0.0000 0.0000 0.0000
# 4 0.0000 0.0000 0.0000 58.3982 0.0000 0.0000
# 5 0.0000 0.0000 0.0000 0.0000 30.8942 0.0000
# 6 0.0000 0.0000 0.0000 0.0000 0.0000 36.7011
#
#
#
# Elastic Compliance Matrix: (Units=1/GPa)
#
#
# Indices 1 2 3 4 5 6 
#
# 1 0.017134 -0.002541 -0.009731 0.000000 0.000000 0.000000
# 2 -0.002541 0.016756 -0.014975 0.000000 0.000000 0.000000
# 3 -0.009731 -0.014975 0.041714 0.000000 0.000000 0.000000
# 4 0.000000 0.000000 0.000000 0.017124 0.000000 0.000000
# 5 0.000000 0.000000 0.000000 0.000000 0.032369 0.000000
# 6 0.000000 0.000000 0.000000 0.000000 0.000000 0.027247
#
#
# Mechanical properties :
#
#
# Convention : Reuss Voigt Hill
#
# Bulk Modulus (GPa) = 47.36867 57.05886 52.21377
# Shear Modulus (GPa) = 23.37812 32.91936 28.14874
#
# Velocity S-wave (km/s) = 3.56610 4.23169 3.91307
# Velocity P-wave (km/s) = 6.53631 7.41045 6.98706
#
# Compressibility (1/GPa) = 0.02111100
#
# Stress axis : x y z
#
# Youngs Moduli (GPa) = 58.36240 59.67991 23.97250
#
# Poissons Ratio (x) = 0.15163 0.23328
# Poissons Ratio (y) = 0.14828 0.35899
# Poissons Ratio (z) = 0.56794 0.89370
#
# Static dielectric constant tensor:
#      x y z
#    x 3.488310 0.000000 0.000000 
#    y 0.000000 3.450880 0.000000 
#    z 0.000000 0.000000 3.202890 
# 
# 
# High freq. dielectric constant tensor:
#      x y z
#    x 1.727520 0.000000 0.000000 
#    y 0.000000 1.724820 0.000000 
#    z 0.000000 0.000000 1.695520 
# 
# From -- ./inp_files/1374.got.cif
#   From: 2010.03.12/outbox.cif.g09.slc.cpg/sg47_1_cif.got.tgz:1374.got - 2010.04.14 03:12:58.
