data_PCOD8198378
_publ_section_title
;
Structure prediction by ZEFSAII (Michael W. Deem and Ramdas Pophale) SiO2 
 PCOD8198378
Probable space group: P M M M
;
_chemical_formula_sum "Si O2"
_cell_formula_units_Z 48
_cell_length_a 8.929785
_cell_length_b 30.872531
_cell_length_c 9.021843
_cell_angle_alpha 90.000000
_cell_angle_beta 90.000000
_cell_angle_gamma 90.000000
_cell_volume 2487.187367
_symmetry_space_group_name_H-M "P M M M"
_symmetry_group_IT_number 47
_symmetry_cell_setting 'orthorhombic'
loop_
_space_group_symop_operation_xyz
x,y,z
-x,-y,z
x,-y,-z
-x,y,-z
-x,-y,-z
x,y,-z
-x,y,z
x,-y,z
loop_
_atom_site_type_symbol
_atom_site_label
_atom_site_fract_x
_atom_site_fract_y
_atom_site_fract_z
Si Si1 0.323773 0.746082 0.170150
Si Si2 0.672341 0.085994 0.326075
Si Si3 0.831015 0.500000 0.176366
Si Si4 0.173945 0.666902 0.672807
Si Si5 0.174765 0.164356 0.169913
Si Si6 0.329057 0.586470 0.175993
Si Si7 0.322028 0.000000 0.167046
O O1 0.500000 0.746461 0.193711
O O2 0.253604 0.710453 0.275927
O O3 0.259953 0.792359 0.218969
O O4 0.280964 0.735759 0.000000
O O5 0.689291 0.079664 0.500000
O O6 0.500000 0.094233 0.280483
O O7 0.771184 0.126044 0.274545
O O8 0.737366 0.042822 0.249197
O O9 0.745546 0.457655 0.235933
O O10 0.000000 0.500000 0.238809
O O11 0.831503 0.500000 0.000000
O O12 0.203313 0.660250 0.500000
O O13 0.240410 0.626500 0.758970
O O14 0.000000 0.670557 0.711249
O O15 0.000000 0.172253 0.193740
O O16 0.212619 0.152497 0.000000
O O17 0.500000 0.587796 0.230689
O O18 0.319661 0.589123 0.000000
O O19 0.500000 0.000000 0.171360
O O20 0.259827 0.000000 0.000000
#
# Coordination Sequence:
#
# PCOD8198378 Si02
#       7
#     8   8   4   8   8   8   4
#     4  10  21  38  61  86 109 138 180 227 273 323
#     4  10  20  34  54  81 112 145 181 222 270 324
#     4   9  17  31  54  83 112 143 180 224 274 325
#     4  11  24  39  55  79 112 148 184 223 270 324
#     4  10  21  37  57  81 109 142 180 222 269 321
#     4  10  20  35  57  84 112 143 182 227 273 323
#     4   9  17  31  54  81 108 141 182 228 274 319
#
# _framework density 19.298908999999998
#
# number of rings (size 3 to 8) (size 9 to 14) (size 15 to 20)
#    0.000    2.000    0.000    3.500    0.000   10.000 
#    0.000    0.833    0.000    5.000    0.000    0.000 
#    0.000    0.000    0.000    0.000    0.000    0.000 
#
# Total GULP energy -595418.758862 kJ/mol
# GULP energy per Si atom -12404.557476 kJ/mol
# Density = 1.925498 g / cm^3
# Si number density = 19.298909 Si / 1000 Ang^3
#
#
#
# Elastic Constant Matrix: (Units=GPa)
#
#
# Indices 1 2 3 4 5 6 
#
# 1 72.3138 46.1246 23.1576 0.0000 0.0000 0.0000
# 2 46.1246 135.5396 32.3001 0.0000 0.0000 0.0000
# 3 23.1576 32.3001 45.5968 0.0000 0.0000 0.0000
# 4 0.0000 0.0000 0.0000 10.0203 0.0000 0.0000
# 5 0.0000 0.0000 0.0000 0.0000 26.1567 0.0000
# 6 0.0000 0.0000 0.0000 0.0000 0.0000 53.0514
#
#
#
# Elastic Compliance Matrix: (Units=1/GPa)
#
#
# Indices 1 2 3 4 5 6 
#
# 1 0.018971 -0.005005 -0.006090 0.000000 0.000000 0.000000
# 2 -0.005005 0.010197 -0.004681 0.000000 0.000000 0.000000
# 3 -0.006090 -0.004681 0.028340 0.000000 0.000000 0.000000
# 4 0.000000 0.000000 0.000000 0.099797 0.000000 0.000000
# 5 0.000000 0.000000 0.000000 0.000000 0.038231 0.000000
# 6 0.000000 0.000000 0.000000 0.000000 0.000000 0.018850
#
#
# Mechanical properties :
#
#
# Convention : Reuss Voigt Hill
#
# Bulk Modulus (GPa) = 38.52598 50.73496 44.63047
# Shear Modulus (GPa) = 19.63946 27.97020 23.80483
#
# Velocity S-wave (km/s) = 3.19352 3.81112 3.51590
# Velocity P-wave (km/s) = 5.79691 6.76108 6.29748
#
# Compressibility (1/GPa) = 0.02595651
#
# Stress axis : x y z
#
# Youngs Moduli (GPa) = 52.71219 98.07167 35.28525
#
# Poissons Ratio (x) = 0.49081 0.21488
# Poissons Ratio (y) = 0.26381 0.16518
# Poissons Ratio (z) = 0.32100 0.45911
#
# Static dielectric constant tensor:
#      x y z
#    x 3.586960 0.000000 0.000000 
#    y 0.000000 3.351970 0.000000 
#    z 0.000000 0.000000 3.409510 
# 
# 
# High freq. dielectric constant tensor:
#      x y z
#    x 1.753350 0.000000 0.000000 
#    y 0.000000 1.768100 0.000000 
#    z 0.000000 0.000000 1.738190 
# 
# From -- ./inp_files/2570.got.cif
#   From: 2010.03.12/outbox.cif.g09.slc.cpg/sg47_2_cif.got.tgz:2570.got - 2010.04.14 03:12:58.
