data_PCOD8198600
_publ_section_title
;
Structure prediction by ZEFSAII (Michael W. Deem and Ramdas Pophale) SiO2 
 PCOD8198600
Probable space group: P M M M
;
_chemical_formula_sum "Si O2"
_cell_formula_units_Z 56
_cell_length_a 9.426180
_cell_length_b 14.181281
_cell_length_c 23.042282
_cell_angle_alpha 90.000000
_cell_angle_beta 90.000000
_cell_angle_gamma 90.000000
_cell_volume 3080.184128
_symmetry_space_group_name_H-M "P M M M"
_symmetry_group_IT_number 47
_symmetry_cell_setting 'orthorhombic'
loop_
_space_group_symop_operation_xyz
x,y,z
-x,-y,z
x,-y,-z
-x,y,-z
-x,-y,-z
x,y,-z
-x,y,z
x,-y,z
loop_
_atom_site_type_symbol
_atom_site_label
_atom_site_fract_x
_atom_site_fract_y
_atom_site_fract_z
Si Si1 0.838184 0.389778 0.729056
Si Si2 0.338231 0.108146 0.220463
Si Si3 0.833587 0.292349 0.385911
Si Si4 0.169479 0.607897 0.500000
Si Si5 0.834645 0.895011 0.667900
Si Si6 0.336591 0.792066 0.898528
Si Si7 0.831921 0.889742 0.000000
Si Si8 0.663745 0.605836 0.158517
O O1 0.827176 0.500000 0.717389
O O2 0.771534 0.339769 0.672356
O O3 0.750369 0.360167 0.785521
O O4 0.000000 0.357688 0.739535
O O5 0.500000 0.124853 0.239205
O O6 0.241436 0.140513 0.273857
O O7 0.298369 0.167919 0.164358
O O8 0.308852 0.000000 0.204495
O O9 0.766577 0.338526 0.443630
O O10 0.801259 0.179650 0.383538
O O11 0.000000 0.313004 0.387294
O O12 0.222219 0.500000 0.500000
O O13 0.000000 0.612596 0.500000
O O14 0.000000 0.895558 0.682370
O O15 0.782845 0.000000 0.649085
O O16 0.500000 0.814136 0.915691
O O17 0.232245 0.839253 0.944025
O O18 0.309750 0.678853 0.894602
O O19 0.000000 0.875694 0.000000
O O20 0.790778 0.000000 0.000000
O O21 0.500000 0.608822 0.177024
O O22 0.708438 0.500000 0.138552
#
# Coordination Sequence:
#
# PCOD8198600 Si02
#       8
#     8   8   8   4   8   8   4   8
#     4   9  16  26  43  68  95 122 153 192 240 288
#     4   9  17  29  47  72  97 121 155 196 233 275
#     4   9  16  26  40  60  88 120 154 193 234 276
#     4   9  16  26  41  61  86 117 153 193 234 274
#     4   9  17  28  42  63  92 122 149 182 231 286
#     4  10  20  35  55  75  98 132 167 197 234 280
#     4  11  25  41  56  77 102 126 157 199 242 283
#     4   9  18  32  50  75 104 130 160 198 237 280
#
# _framework density 18.180731000000002
#
# number of rings (size 3 to 8) (size 9 to 14) (size 15 to 20)
#    0.000    2.714    0.000    1.929    0.000    4.000 
#    0.000    2.143    0.000    4.286    0.000    2.000 
#    0.000    6.857    0.000    0.000    0.000    0.000 
#
# Total GULP energy -694197.861641 kJ/mol
# GULP energy per Si atom -12396.390386 kJ/mol
# Density = 1.813935 g / cm^3
# Si number density = 18.180731 Si / 1000 Ang^3
#
#
#
# Elastic Constant Matrix: (Units=GPa)
#
#
# Indices 1 2 3 4 5 6 
#
# 1 47.2971 38.5294 43.7559 0.0000 0.0000 0.0000
# 2 38.5294 117.2236 77.6966 0.0000 0.0000 0.0000
# 3 43.7559 77.6966 98.2563 0.0000 0.0000 0.0000
# 4 0.0000 0.0000 0.0000 29.1952 0.0000 0.0000
# 5 0.0000 0.0000 0.0000 0.0000 3.6498 0.0000
# 6 0.0000 0.0000 0.0000 0.0000 0.0000 18.5271
#
#
#
# Elastic Compliance Matrix: (Units=1/GPa)
#
#
# Indices 1 2 3 4 5 6 
#
# 1 0.036318 -0.002558 -0.014150 0.000000 0.000000 0.000000
# 2 -0.002558 0.018106 -0.013178 0.000000 0.000000 0.000000
# 3 -0.014150 -0.013178 0.026900 0.000000 0.000000 0.000000
# 4 0.000000 0.000000 0.000000 0.034252 0.000000 0.000000
# 5 0.000000 0.000000 0.000000 0.000000 0.273989 0.000000
# 6 0.000000 0.000000 0.000000 0.000000 0.000000 0.053975
#
#
# Mechanical properties :
#
#
# Convention : Reuss Voigt Hill
#
# Bulk Modulus (GPa) = 46.40342 64.74899 55.57620
# Shear Modulus (GPa) = 9.79437 17.12742 13.46090
#
# Velocity S-wave (km/s) = 2.32356 3.07264 2.72397
# Velocity P-wave (km/s) = 5.72515 6.94835 6.36620
#
# Compressibility (1/GPa) = 0.02155014
#
# Stress axis : x y z
#
# Youngs Moduli (GPa) = 27.53475 55.22952 37.17490
#
# Poissons Ratio (x) = 0.14128 0.52604
# Poissons Ratio (y) = 0.07044 0.48991
# Poissons Ratio (z) = 0.38963 0.72784
#
# Static dielectric constant tensor:
#      x y z
#    x 3.139610 0.000000 0.000000 
#    y 0.000000 3.710470 0.000000 
#    z 0.000000 0.000000 3.327830 
# 
# 
# High freq. dielectric constant tensor:
#      x y z
#    x 1.672450 0.000000 0.000000 
#    y 0.000000 1.725950 0.000000 
#    z 0.000000 0.000000 1.682700 
# 
# From -- ./inp_files/29791.got.cif
#   From: 2010.03.12/outbox.cif.g09.slc.cpg/sg47_15_cif.got.tgz:29791.got - 2010.04.14 03:12:58.
