data_PCOD8198112
_publ_section_title
;
Structure prediction by ZEFSAII (Michael W. Deem and Ramdas Pophale) SiO2 
 PCOD8198112
Probable space group: P M M M
;
_chemical_formula_sum "Si O2"
_cell_formula_units_Z 44
_cell_length_a 9.540716
_cell_length_b 7.781567
_cell_length_c 32.032594
_cell_angle_alpha 90.000000
_cell_angle_beta 90.000000
_cell_angle_gamma 90.000000
_cell_volume 2378.154900
_symmetry_space_group_name_H-M "P M M M"
_symmetry_group_IT_number 47
_symmetry_cell_setting 'orthorhombic'
loop_
_space_group_symop_operation_xyz
x,y,z
-x,-y,z
x,-y,-z
-x,y,-z
-x,-y,-z
x,y,-z
-x,y,z
x,-y,z
loop_
_atom_site_type_symbol
_atom_site_label
_atom_site_fract_x
_atom_site_fract_y
_atom_site_fract_z
Si Si1 0.167640 0.000000 0.268374
Si Si2 0.151295 0.697922 0.878845
Si Si3 0.167191 0.692799 0.211509
Si Si4 0.664636 0.797511 0.500000
Si Si5 0.657281 0.797637 0.953965
Si Si6 0.834847 0.000000 0.361603
Si Si7 0.838349 0.694528 0.420848
O O1 0.224718 0.828110 0.245507
O O2 0.230351 0.000000 0.315212
O O3 0.000000 0.000000 0.268307
O O4 0.124318 0.500000 0.870929
O O5 0.215128 0.763129 0.834579
O O6 0.250868 0.718267 0.917955
O O7 0.000000 0.786733 0.888347
O O8 0.225508 0.500000 0.221352
O O9 0.000000 0.688720 0.212089
O O10 0.500000 0.752272 0.500000
O O11 0.737601 0.713772 0.460178
O O12 0.690888 0.000000 0.500000
O O13 0.500000 0.727605 0.948632
O O14 0.659573 0.000000 0.949473
O O15 0.713994 0.743737 0.000000
O O16 0.785909 0.827922 0.385643
O O17 0.000000 0.000000 0.357262
O O18 0.825308 0.500000 0.403420
O O19 0.000000 0.733878 0.433665
#
# Coordination Sequence:
#
# PCOD8198112 Si02
#       7
#     4   8   8   4   8   4   8
#     4   9  16  26  45  70  96 133 166 193 247 300
#     4   9  18  31  47  70  97 123 155 196 239 284
#     4   8  15  27  42  66  99 127 156 198 243 291
#     4  11  22  35  54  79 105 136 177 220 257 297
#     4   9  19  34  48  65  92 124 158 195 235 284
#     4   9  18  31  46  71 104 133 171 214 245 296
#     4  10  20  34  53  76 105 142 175 208 257 303
#
# _framework density 18.501738
#
# number of rings (size 3 to 8) (size 9 to 14) (size 15 to 20)
#    0.000    2.818    0.909    2.182    1.273    4.000 
#    0.000    6.364    0.000    0.000    0.000    2.545 
#    0.000    2.909    0.000    0.000    0.000    0.000 
#
# Total GULP energy -545228.779526 kJ/mol
# GULP energy per Si atom -12391.563171 kJ/mol
# Density = 1.845963 g / cm^3
# Si number density = 18.501738 Si / 1000 Ang^3
#
#
#
# Elastic Constant Matrix: (Units=GPa)
#
#
# Indices 1 2 3 4 5 6 
#
# 1 43.8269 22.1809 39.3623 0.0000 0.0000 0.0000
# 2 22.1809 104.1627 64.2873 0.0000 0.0000 0.0000
# 3 39.3623 64.2873 167.6641 0.0000 0.0000 0.0000
# 4 0.0000 0.0000 0.0000 16.2029 0.0000 0.0000
# 5 0.0000 0.0000 0.0000 0.0000 -11.5072 0.0000
# 6 0.0000 0.0000 0.0000 0.0000 0.0000 16.5422
#
#
#
# Elastic Compliance Matrix: (Units=1/GPa)
#
#
# Indices 1 2 3 4 5 6 
#
# 1 0.029452 -0.002625 -0.005908 0.000000 0.000000 0.000000
# 2 -0.002625 0.012811 -0.004296 0.000000 0.000000 0.000000
# 3 -0.005908 -0.004296 0.008998 0.000000 0.000000 0.000000
# 4 0.000000 0.000000 0.000000 0.061717 0.000000 0.000000
# 5 0.000000 0.000000 0.000000 0.000000 -0.086902 0.000000
# 6 0.000000 0.000000 0.000000 0.000000 0.000000 0.060451
#
#
# Mechanical properties :
#
#
# Convention : Reuss Voigt Hill
#
# Bulk Modulus (GPa) = 39.05777 63.03499 51.04638
# Shear Modulus (GPa) = 41.41872 16.90248 29.16060
#
# Velocity S-wave (km/s) = 4.73656 3.02580 3.97432
# Velocity P-wave (km/s) = 7.14629 6.80816 6.97927
#
# Compressibility (1/GPa) = 0.02560310
#
# Stress axis : x y z
#
# Youngs Moduli (GPa) = 33.95401 78.06038 111.13235
#
# Poissons Ratio (x) = 0.20495 0.65653
# Poissons Ratio (y) = 0.08915 0.47738
# Poissons Ratio (z) = 0.20059 0.33531
#
# Static dielectric constant tensor:
#      x y z
#    x 18.376790 0.000000 0.000000 
#    y 0.000000 3.551510 0.000000 
#    z 0.000000 0.000000 5.337130 
# 
# 
# High freq. dielectric constant tensor:
#      x y z
#    x 1.663680 0.000000 0.000000 
#    y 0.000000 1.725560 0.000000 
#    z 0.000000 0.000000 1.720960 
# 
# From -- ./inp_files/34000.got.cif
#   From: 2010.03.12/outbox.cif.g09.slc.cpg/sg47_17_cif.got.tgz:34000.got - 2010.04.14 03:12:58.
