data_PCOD8198289
_publ_section_title
;
Structure prediction by ZEFSAII (Michael W. Deem and Ramdas Pophale) SiO2 
 PCOD8198289
Probable space group: P M M M
;
_chemical_formula_sum "Si O2"
_cell_formula_units_Z 36
_cell_length_a 18.852565
_cell_length_b 10.801430
_cell_length_c 9.028082
_cell_angle_alpha 90.000000
_cell_angle_beta 90.000000
_cell_angle_gamma 90.000000
_cell_volume 1838.430419
_symmetry_space_group_name_H-M "P M M M"
_symmetry_group_IT_number 47
_symmetry_cell_setting 'orthorhombic'
loop_
_space_group_symop_operation_xyz
x,y,z
-x,-y,z
x,-y,-z
-x,y,-z
-x,-y,-z
x,y,-z
-x,y,z
x,-y,z
loop_
_atom_site_type_symbol
_atom_site_label
_atom_site_fract_x
_atom_site_fract_y
_atom_site_fract_z
Si Si1 0.577992 0.644150 0.163630
Si Si2 0.079725 0.638160 0.824284
Si Si3 0.819947 0.859215 0.826458
Si Si4 0.416575 0.000000 0.834115
Si Si5 0.327350 0.196853 0.325871
O O1 0.500000 0.689662 0.221005
O O2 0.575806 0.500000 0.143959
O O3 0.643950 0.669053 0.276344
O O4 0.592191 0.704036 0.000000
O O5 0.107508 0.500000 0.774910
O O6 0.126930 0.752790 0.763754
O O7 0.000000 0.656883 0.762993
O O8 0.078737 0.643980 0.000000
O O9 0.747153 0.841940 0.741218
O O10 0.848757 0.000000 0.797252
O O11 0.806816 0.839112 0.000000
O O12 0.390479 0.117469 0.743509
O O13 0.500000 0.000000 0.839104
O O14 0.384400 0.000000 0.000000
O O15 0.321769 0.181163 0.500000
#
# Coordination Sequence:
#
# PCOD8198289 Si02
#       5
#     8   8   8   4   8
#     4   9  19  37  59  80 104 139 184 232 282 339
#     4   8  15  30  54  85 116 143 180 235 291 338
#     4  10  20  34  54  79 111 151 192 233 280 339
#     4  11  23  39  59  79 102 139 188 237 283 336
#     4  12  24  36  53  79 112 147 183 229 284 338
#
# _framework density 19.581921999999999
#
# number of rings (size 3 to 8) (size 9 to 14) (size 15 to 20)
#    0.000    2.111    1.111    4.333    0.000    5.778 
#    0.000    5.556    0.000    0.667    0.000    3.111 
#    0.000    0.000    0.000    0.000    0.000    0.000 
#
# Total GULP energy -445993.291851 kJ/mol
# GULP energy per Si atom -12388.702551 kJ/mol
# Density = 1.953735 g / cm^3
# Si number density = 19.581922 Si / 1000 Ang^3
#
#
#
# Elastic Constant Matrix: (Units=GPa)
#
#
# Indices 1 2 3 4 5 6 
#
# 1 95.1785 66.5499 40.9044 0.0000 0.0000 0.0000
# 2 66.5499 122.9356 39.4328 0.0000 0.0000 0.0000
# 3 40.9044 39.4328 73.9077 0.0000 0.0000 0.0000
# 4 0.0000 0.0000 0.0000 767.7977 0.0000 0.0000
# 5 0.0000 0.0000 0.0000 0.0000 1.7812 0.0000
# 6 0.0000 0.0000 0.0000 0.0000 0.0000 22.2754
#
#
#
# Elastic Compliance Matrix: (Units=1/GPa)
#
#
# Indices 1 2 3 4 5 6 
#
# 1 0.018901 -0.008296 -0.006034 0.000000 0.000000 0.000000
# 2 -0.008296 0.013455 -0.002587 0.000000 0.000000 0.000000
# 3 -0.006034 -0.002587 0.018251 0.000000 0.000000 0.000000
# 4 0.000000 0.000000 0.000000 0.001302 0.000000 0.000000
# 5 0.000000 0.000000 0.000000 0.000000 0.561425 0.000000
# 6 0.000000 0.000000 0.000000 0.000000 0.000000 0.044892
#
#
# Mechanical properties :
#
#
# Convention : Reuss Voigt Hill
#
# Bulk Modulus (GPa) = 59.62734 65.08846 62.35790
# Shear Modulus (GPa) = 7.16690 168.04651 87.60670
#
# Velocity S-wave (km/s) = 1.91518 9.27381 6.69595
# Velocity P-wave (km/s) = 5.95036 12.16481 9.57573
#
# Compressibility (1/GPa) = 0.01677083
#
# Stress axis : x y z
#
# Youngs Moduli (GPa) = 52.90825 74.32009 54.79264
#
# Poissons Ratio (x) = 0.61657 0.33064
# Poissons Ratio (y) = 0.43893 0.14177
# Poissons Ratio (z) = 0.31926 0.19230
#
# Static dielectric constant tensor:
#      x y z
#    x 3.616510 0.000000 0.000000 
#    y 0.000000 21.815990 0.000000 
#    z 0.000000 0.000000 3.312570 
# 
# 
# High freq. dielectric constant tensor:
#      x y z
#    x 1.754690 0.000000 0.000000 
#    y 0.000000 1.781810 0.000000 
#    z 0.000000 0.000000 1.724450 
# 
# From -- ./inp_files/3737.got.cif
#   From: 2010.03.12/outbox.cif.g09.slc.cpg/sg47_2_cif.got.tgz:3737.got - 2010.04.14 03:12:58.
