data_PCOD8198161
_publ_section_title
;
Structure prediction by ZEFSAII (Michael W. Deem and Ramdas Pophale) SiO2 
 PCOD8198161
Probable space group: P M M M
;
_chemical_formula_sum "Si O2"
_cell_formula_units_Z 44
_cell_length_a 8.053851
_cell_length_b 28.512988
_cell_length_c 10.032431
_cell_angle_alpha 90.000000
_cell_angle_beta 90.000000
_cell_angle_gamma 90.000000
_cell_volume 2303.841003
_symmetry_space_group_name_H-M "P M M M"
_symmetry_group_IT_number 47
_symmetry_cell_setting 'orthorhombic'
loop_
_space_group_symop_operation_xyz
x,y,z
-x,-y,z
x,-y,-z
-x,y,-z
-x,-y,-z
x,y,-z
-x,y,z
x,-y,z
loop_
_atom_site_type_symbol
_atom_site_label
_atom_site_fract_x
_atom_site_fract_y
_atom_site_fract_z
Si Si1 0.682983 0.609225 0.342532
Si Si2 0.301501 0.948158 0.000000
Si Si3 0.806757 0.052899 0.500000
Si Si4 0.000000 0.553410 0.340900
Si Si5 0.696947 0.210029 0.845298
Si Si6 0.303774 0.109261 0.245477
Si Si7 0.808316 0.709445 0.349696
O O1 0.687616 0.603181 0.500000
O O2 0.500000 0.593454 0.288503
O O3 0.832885 0.577915 0.282021
O O4 0.706671 0.663683 0.305248
O O5 0.229554 0.922011 0.127764
O O6 0.500000 0.948435 0.000000
O O7 0.227509 0.000000 0.000000
O O8 0.754164 0.084888 0.621564
O O9 0.000000 0.045357 0.500000
O O10 0.724883 0.000000 0.500000
O O11 0.000000 0.500000 0.291597
O O12 0.000000 0.556942 0.500000
O O13 0.500000 0.213809 0.837964
O O14 0.761465 0.162176 0.775620
O O15 0.777304 0.251065 0.759609
O O16 0.755313 0.212325 0.000000
O O17 0.500000 0.110005 0.239872
O O18 0.755580 0.725837 0.500000
O O19 0.000000 0.695177 0.350354
#
# Coordination Sequence:
#
# PCOD8198161 Si02
#       7
#     8   4   4   4   8   8   8
#     4   9  16  28  46  69 102 143 188 236 283 334
#     4   9  16  30  57  85 103 127 169 217 265 318
#     4  11  25  41  55  77 111 143 173 215 265 320
#     4   9  16  26  42  68 107 149 189 235 282 335
#     4  10  21  37  55  79 110 138 172 223 279 331
#     4  10  20  37  59  82 106 134 172 219 267 320
#     4  10  20  34  53  77 106 144 189 230 274 330
#
# _framework density 19.098541000000001
#
# number of rings (size 3 to 8) (size 9 to 14) (size 15 to 20)
#    0.000    2.273    1.818    1.364    1.273    4.000 
#    0.000    2.273    0.000    1.636    0.000    0.000 
#    0.000    1.455    0.000    3.818    0.000    3.636 
#
# Total GULP energy -545342.316524 kJ/mol
# GULP energy per Si atom -12394.143557 kJ/mol
# Density = 1.905507 g / cm^3
# Si number density = 19.098541 Si / 1000 Ang^3
#
#
#
# Elastic Constant Matrix: (Units=GPa)
#
#
# Indices 1 2 3 4 5 6 
#
# 1 81.2162 57.8940 18.8819 0.0000 0.0000 0.0000
# 2 57.8940 140.3739 54.2539 0.0000 0.0000 0.0000
# 3 18.8819 54.2539 102.4117 0.0000 0.0000 0.0000
# 4 0.0000 0.0000 0.0000 18.2209 0.0000 0.0000
# 5 0.0000 0.0000 0.0000 0.0000 22.4576 0.0000
# 6 0.0000 0.0000 0.0000 0.0000 0.0000 26.0626
#
#
#
# Elastic Compliance Matrix: (Units=1/GPa)
#
#
# Indices 1 2 3 4 5 6 
#
# 1 0.017486 -0.007502 0.000750 0.000000 0.000000 0.000000
# 2 -0.007502 0.012176 -0.005067 0.000000 0.000000 0.000000
# 3 0.000750 -0.005067 0.012311 0.000000 0.000000 0.000000
# 4 0.000000 0.000000 0.000000 0.054882 0.000000 0.000000
# 5 0.000000 0.000000 0.000000 0.000000 0.044528 0.000000
# 6 0.000000 0.000000 0.000000 0.000000 0.000000 0.038369
#
#
# Mechanical properties :
#
#
# Convention : Reuss Voigt Hill
#
# Bulk Modulus (GPa) = 54.54023 65.11792 59.82907
# Shear Modulus (GPa) = 23.86618 26.21303 25.03960
#
# Velocity S-wave (km/s) = 3.53885 3.70877 3.62480
# Velocity P-wave (km/s) = 6.73181 7.24636 6.99382
#
# Compressibility (1/GPa) = 0.01833509
#
# Stress axis : x y z
#
# Youngs Moduli (GPa) = 57.18923 82.12741 81.22994
#
# Poissons Ratio (x) = 0.61608 -0.06093
# Poissons Ratio (y) = 0.42901 0.41163
# Poissons Ratio (z) = -0.04290 0.41617
#
# Static dielectric constant tensor:
#      x y z
#    x 3.552450 0.000000 0.000000 
#    y 0.000000 3.744380 0.000000 
#    z 0.000000 0.000000 3.130960 
# 
# 
# High freq. dielectric constant tensor:
#      x y z
#    x 1.740000 0.000000 0.000000 
#    y 0.000000 1.748180 0.000000 
#    z 0.000000 0.000000 1.708430 
# 
# From -- ./inp_files/2392.got.cif
#   From: 2010.03.12/outbox.cif.g09.slc.cpg/sg47_2_cif.got.tgz:2392.got - 2010.04.14 03:12:58.
