data_PCOD8198118
_publ_section_title
;
Structure prediction by ZEFSAII (Michael W. Deem and Ramdas Pophale) SiO2 
 PCOD8198118
Probable space group: P M M M
;
_chemical_formula_sum "Si O2"
_cell_formula_units_Z 36
_cell_length_a 9.133264
_cell_length_b 8.727622
_cell_length_c 23.473725
_cell_angle_alpha 90.000000
_cell_angle_beta 90.000000
_cell_angle_gamma 90.000000
_cell_volume 1871.129957
_symmetry_space_group_name_H-M "P M M M"
_symmetry_group_IT_number 47
_symmetry_cell_setting 'orthorhombic'
loop_
_space_group_symop_operation_xyz
x,y,z
-x,-y,z
x,-y,-z
-x,y,-z
-x,-y,-z
x,y,-z
-x,y,z
x,-y,z
loop_
_atom_site_type_symbol
_atom_site_label
_atom_site_fract_x
_atom_site_fract_y
_atom_site_fract_z
Si Si1 0.835473 0.817791 0.937276
Si Si2 0.165068 0.182311 0.719097
Si Si3 0.331397 0.181337 0.606880
Si Si4 0.167026 0.318921 0.500000
Si Si5 0.335475 0.182983 0.829070
O O1 0.731166 0.751131 0.887994
O O2 0.000000 0.757440 0.926698
O O3 0.835167 0.000000 0.934557
O O4 0.780219 0.764069 0.000000
O O5 0.257128 0.240338 0.665001
O O6 0.240938 0.246318 0.776242
O O7 0.000000 0.247050 0.715400
O O8 0.163208 0.000000 0.720517
O O9 0.500000 0.233334 0.606973
O O10 0.248342 0.258376 0.555224
O O11 0.317569 0.000000 0.600545
O O12 0.172549 0.500000 0.500000
O O13 0.000000 0.258809 0.500000
O O14 0.500000 0.245343 0.823059
O O15 0.333773 0.000000 0.829249
#
# Coordination Sequence:
#
# PCOD8198118 Si02
#       5
#     8   8   8   4   8
#     4   8  13  20  28  38  56  87 128 171 214 262
#     4   9  16  26  41  60  82 109 141 179 224 271
#     4  10  20  34  53  76  99 123 155 195 237 280
#     4  11  24  39  54  74 100 129 160 191 226 274
#     4   9  15  21  30  46  69  96 129 173 221 265
#
# _framework density 19.239711
#
# number of rings (size 3 to 8) (size 9 to 14) (size 15 to 20)
#    0.000    2.778    0.000    3.333    0.000    9.333 
#    0.000    2.222    0.000    0.000    0.000    0.000 
#    0.000    0.000    0.000    0.000    0.000    1.111 
#
# Total GULP energy -446299.749524 kJ/mol
# GULP energy per Si atom -12397.215265 kJ/mol
# Density = 1.919592 g / cm^3
# Si number density = 19.239711 Si / 1000 Ang^3
#
#
#
# Elastic Constant Matrix: (Units=GPa)
#
#
# Indices 1 2 3 4 5 6 
#
# 1 195.5492 19.2173 119.0121 0.0000 0.0000 0.0000
# 2 19.2173 8.7094 17.8094 0.0000 0.0000 0.0000
# 3 119.0121 17.8094 209.3299 0.0000 0.0000 0.0000
# 4 0.0000 0.0000 0.0000 -5.5346 0.0000 0.0000
# 5 0.0000 0.0000 0.0000 0.0000 56.4236 0.0000
# 6 0.0000 0.0000 0.0000 0.0000 0.0000 9.8841
#
#
#
# Elastic Compliance Matrix: (Units=1/GPa)
#
#
# Indices 1 2 3 4 5 6 
#
# 1 0.008591 -0.010858 -0.003961 0.000000 0.000000 0.000000
# 2 -0.010858 0.152723 -0.006820 0.000000 0.000000 0.000000
# 3 -0.003961 -0.006820 0.007609 0.000000 0.000000 0.000000
# 4 0.000000 0.000000 0.000000 -0.180683 0.000000 0.000000
# 5 0.000000 0.000000 0.000000 0.000000 0.017723 0.000000
# 6 0.000000 0.000000 0.000000 0.000000 0.000000 0.101173
#
#
# Mechanical properties :
#
#
# Convention : Reuss Voigt Hill
#
# Bulk Modulus (GPa) = 7.95890 80.62957 44.29423
# Shear Modulus (GPa) = 26.00162 29.32461 27.66312
#
# Velocity S-wave (km/s) = 3.68020 3.90830 3.79596
# Velocity P-wave (km/s) = 4.71213 7.89717 6.50267
#
# Compressibility (1/GPa) = 0.12564553
#
# Stress axis : x y z
#
# Youngs Moduli (GPa) = 116.39583 6.54782 131.41892
#
# Poissons Ratio (x) = 0.07109 0.52052
# Poissons Ratio (y) = 1.26380 0.89632
# Poissons Ratio (z) = 0.46102 0.04466
#
# Static dielectric constant tensor:
#      x y z
#    x 3.801970 0.000000 0.000000 
#    y 0.000000 2.718810 0.000000 
#    z 0.000000 0.000000 3.923810 
# 
# 
# High freq. dielectric constant tensor:
#      x y z
#    x 1.762570 0.000000 0.000000 
#    y 0.000000 1.663710 0.000000 
#    z 0.000000 0.000000 1.771410 
# 
# From -- ./inp_files/1423.got.cif
#   From: 2010.03.12/outbox.cif.g09.slc.cpg/sg47_1_cif.got.tgz:1423.got - 2010.04.14 03:12:58.
