data_PCOD8198298
_publ_section_title
;
Structure prediction by ZEFSAII (Michael W. Deem and Ramdas Pophale) SiO2 
 PCOD8198298
Probable space group: P M M M
;
_chemical_formula_sum "Si O2"
_cell_formula_units_Z 40
_cell_length_a 9.140517
_cell_length_b 9.023291
_cell_length_c 25.996774
_cell_angle_alpha 90.000000
_cell_angle_beta 90.000000
_cell_angle_gamma 90.000000
_cell_volume 2144.150092
_symmetry_space_group_name_H-M "P M M M"
_symmetry_group_IT_number 47
_symmetry_cell_setting 'orthorhombic'
loop_
_space_group_symop_operation_xyz
x,y,z
-x,-y,z
x,-y,-z
-x,y,-z
-x,-y,-z
x,y,-z
-x,y,z
x,-y,z
loop_
_atom_site_type_symbol
_atom_site_label
_atom_site_fract_x
_atom_site_fract_y
_atom_site_fract_z
Si Si1 0.165084 0.323636 0.500000
Si Si2 0.670237 0.327216 0.600436
Si Si3 0.827520 0.671941 0.000000
Si Si4 0.326156 0.333336 0.197281
Si Si5 0.674366 0.832849 0.297372
Si Si6 0.329006 0.826565 0.906057
O O1 0.172147 0.500000 0.500000
O O2 0.245501 0.263544 0.449138
O O3 0.000000 0.264138 0.500000
O O4 0.500000 0.295766 0.591381
O O5 0.700906 0.500000 0.609050
O O6 0.731183 0.242985 0.650439
O O7 0.761994 0.747824 0.050010
O O8 0.783944 0.500000 0.000000
O O9 0.000000 0.695521 0.000000
O O10 0.500000 0.336466 0.200211
O O11 0.263552 0.500000 0.193361
O O12 0.262268 0.256198 0.248476
O O13 0.275034 0.239742 0.148057
O O14 0.500000 0.829740 0.296095
O O15 0.733925 0.000000 0.294988
O O16 0.500000 0.795295 0.915391
O O17 0.294819 0.000000 0.906383
#
# Coordination Sequence:
#
# PCOD8198298 Si02
#       6
#     4   8   4   8   8   8
#     4   9  17  29  46  67  90 118 154 195 236 278
#     4   9  16  27  45  68  92 119 153 192 233 279
#     4  11  24  39  54  74 102 137 176 215 254 298
#     4   9  16  27  46  73 103 132 161 197 243 292
#     4   9  16  26  42  67  98 127 155 192 238 285
#     4  10  20  34  54  80 107 135 169 209 253 301
#
# _framework density 18.65541
#
# number of rings (size 3 to 8) (size 9 to 14) (size 15 to 20)
#    0.000    2.600    0.000    2.700    0.000    9.200 
#    0.000    0.500    0.000    4.800    0.000    2.800 
#    0.000    0.000    0.000    0.000    0.000    0.000 
#
# Total GULP energy -496023.045732 kJ/mol
# GULP energy per Si atom -12400.576143 kJ/mol
# Density = 1.861295 g / cm^3
# Si number density = 18.655410 Si / 1000 Ang^3
#
#
#
# Elastic Constant Matrix: (Units=GPa)
#
#
# Indices 1 2 3 4 5 6 
#
# 1 43.1100 41.1578 53.5569 0.0000 0.0000 0.0000
# 2 41.1578 135.0772 94.4234 0.0000 0.0000 0.0000
# 3 53.5569 94.4234 209.5068 0.0000 0.0000 0.0000
# 4 0.0000 0.0000 0.0000 6.0548 0.0000 0.0000
# 5 0.0000 0.0000 0.0000 0.0000 -3.6568 0.0000
# 6 0.0000 0.0000 0.0000 0.0000 0.0000 13.7149
#
#
#
# Elastic Compliance Matrix: (Units=1/GPa)
#
#
# Indices 1 2 3 4 5 6 
#
# 1 0.038040 -0.006998 -0.006570 0.000000 0.000000 0.000000
# 2 -0.006998 0.012096 -0.003663 0.000000 0.000000 0.000000
# 3 -0.006570 -0.003663 0.008103 0.000000 0.000000 0.000000
# 4 0.000000 0.000000 0.000000 0.165158 0.000000 0.000000
# 5 0.000000 0.000000 0.000000 0.000000 -0.273463 0.000000
# 6 0.000000 0.000000 0.000000 0.000000 0.000000 0.072913
#
#
# Mechanical properties :
#
#
# Convention : Reuss Voigt Hill
#
# Bulk Modulus (GPa) = 42.05650 85.10780 63.58215
# Shear Modulus (GPa) = 76.64581 16.45964 46.55272
#
# Velocity S-wave (km/s) = 6.41671 2.97357 5.00082
# Velocity P-wave (km/s) = 8.80294 7.58350 8.21588
#
# Compressibility (1/GPa) = 0.02377754
#
# Stress axis : x y z
#
# Youngs Moduli (GPa) = 26.28809 82.67450 123.40443
#
# Poissons Ratio (x) = 0.57854 0.81082
# Poissons Ratio (y) = 0.18396 0.45198
# Poissons Ratio (z) = 0.17272 0.30280
#
# Static dielectric constant tensor:
#      x y z
#    x 2.969690 0.000000 0.000000 
#    y 0.000000 3.488400 0.000000 
#    z 0.000000 0.000000 3.715300 
# 
# 
# High freq. dielectric constant tensor:
#      x y z
#    x 1.669720 0.000000 0.000000 
#    y 0.000000 1.724560 0.000000 
#    z 0.000000 0.000000 1.745660 
# 
# From -- ./inp_files/1681.got.cif
#   From: 2010.03.12/outbox.cif.g09.slc.cpg/sg47_1_cif.got.tgz:1681.got - 2010.04.14 03:12:58.
