data_PCOD8198029
_publ_section_title
;
Structure prediction by ZEFSAII (Michael W. Deem and Ramdas Pophale) SiO2 
 PCOD8198029
Probable space group: P M M M
;
_chemical_formula_sum "Si O2"
_cell_formula_units_Z 40
_cell_length_a 8.254441
_cell_length_b 9.420776
_cell_length_c 27.524863
_cell_angle_alpha 90.000000
_cell_angle_beta 90.000000
_cell_angle_gamma 90.000000
_cell_volume 2140.422518
_symmetry_space_group_name_H-M "P M M M"
_symmetry_group_IT_number 47
_symmetry_cell_setting 'orthorhombic'
loop_
_space_group_symop_operation_xyz
x,y,z
-x,-y,z
x,-y,-z
-x,y,-z
-x,-y,-z
x,y,-z
-x,y,z
x,-y,z
loop_
_atom_site_type_symbol
_atom_site_label
_atom_site_fract_x
_atom_site_fract_y
_atom_site_fract_z
Si Si1 0.187685 0.155554 0.500000
Si Si2 0.819289 0.668676 0.888707
Si Si3 0.312263 0.659603 0.586875
Si Si4 0.680956 0.668740 0.788382
Si Si5 0.500000 0.331173 0.944546
Si Si6 0.181444 0.331457 0.688292
O O1 0.230169 0.239593 0.451681
O O2 0.000000 0.130858 0.500000
O O3 0.273492 0.000000 0.500000
O O4 0.816500 0.500000 0.892476
O O5 0.794014 0.718231 0.832956
O O6 0.667362 0.728602 0.920399
O O7 0.000000 0.722829 0.905575
O O8 0.500000 0.657199 0.575566
O O9 0.240056 0.500000 0.581873
O O10 0.281603 0.718944 0.641165
O O11 0.500000 0.724674 0.798194
O O12 0.681602 0.500000 0.785113
O O13 0.743678 0.734310 0.737551
O O14 0.500000 0.500000 0.939611
O O15 0.500000 0.280366 0.000000
O O16 0.186348 0.500000 0.692361
O O17 0.000000 0.274273 0.682554
#
# Coordination Sequence:
#
# PCOD8198029 Si02
#       6
#     4   8   8   8   4   8
#     4  11  24  39  54  72  94 123 158 193 230 274
#     4   9  15  22  31  42  57  81 114 153 202 256
#     4  10  20  34  52  74  97 121 151 188 232 280
#     4   9  14  21  33  49  71  96 122 156 201 256
#     4   9  16  24  30  38  54  78 114 159 203 248
#     4   9  16  25  39  61  86 110 135 166 210 265
#
# _framework density 18.687899000000002
#
# number of rings (size 3 to 8) (size 9 to 14) (size 15 to 20)
#    0.000    2.600    1.000    2.400    0.000    8.400 
#    0.000    2.000    0.000    0.000    0.000    0.000 
#    0.000    0.000    0.000    0.000    0.000    0.000 
#
# Total GULP energy -495677.276158 kJ/mol
# GULP energy per Si atom -12391.931904 kJ/mol
# Density = 1.864536 g / cm^3
# Si number density = 18.687899 Si / 1000 Ang^3
#
#
#
# Elastic Constant Matrix: (Units=GPa)
#
#
# Indices 1 2 3 4 5 6 
#
# 1 127.0632 17.5897 57.8605 0.0000 0.0000 0.0000
# 2 17.5897 28.0564 27.7884 0.0000 0.0000 0.0000
# 3 57.8605 27.7884 148.9196 0.0000 0.0000 0.0000
# 4 0.0000 0.0000 0.0000 -1.9001 0.0000 0.0000
# 5 0.0000 0.0000 0.0000 0.0000 32.8451 0.0000
# 6 0.0000 0.0000 0.0000 0.0000 0.0000 5.3661
#
#
#
# Elastic Compliance Matrix: (Units=1/GPa)
#
#
# Indices 1 2 3 4 5 6 
#
# 1 0.009750 -0.002896 -0.003248 0.000000 0.000000 0.000000
# 2 -0.002896 0.044583 -0.007194 0.000000 0.000000 0.000000
# 3 -0.003248 -0.007194 0.009319 0.000000 0.000000 0.000000
# 4 0.000000 0.000000 0.000000 -0.526294 0.000000 0.000000
# 5 0.000000 0.000000 0.000000 0.000000 0.030446 0.000000
# 6 0.000000 0.000000 0.000000 0.000000 0.000000 0.186356
#
#
# Mechanical properties :
#
#
# Convention : Reuss Voigt Hill
#
# Bulk Modulus (GPa) = 27.04373 56.72405 41.88389
# Shear Modulus (GPa) = -24.17351 20.64892 -1.76229
#
# Velocity S-wave (km/s) = -3.60048 3.32766 -0.97214
# Velocity P-wave (km/s) = 1.66792 6.72188 4.60444
#
# Compressibility (1/GPa) = 0.03697714
#
# Stress axis : x y z
#
# Youngs Moduli (GPa) = 102.56479 22.42986 107.30350
#
# Poissons Ratio (x) = 0.06495 0.34850
# Poissons Ratio (y) = 0.29701 0.77196
# Poissons Ratio (z) = 0.33311 0.16136
#
# Static dielectric constant tensor:
#      x y z
#    x 3.715360 0.000000 0.000000 
#    y 0.000000 2.704230 0.000000 
#    z 0.000000 0.000000 3.534410 
# 
# 
# High freq. dielectric constant tensor:
#      x y z
#    x 1.743420 0.000000 0.000000 
#    y 0.000000 1.622950 0.000000 
#    z 0.000000 0.000000 1.739530 
# 
# From -- ./inp_files/32991.got.cif
#   From: 2010.03.12/outbox.cif.g09.slc.cpg/sg47_17_cif.got.tgz:32991.got - 2010.04.14 03:12:58.
