data_PCOD8198543
_publ_section_title
;
Structure prediction by ZEFSAII (Michael W. Deem and Ramdas Pophale) SiO2 
 PCOD8198543
Probable space group: P M M M
;
_chemical_formula_sum "Si O2"
_cell_formula_units_Z 64
_cell_length_a 8.879252
_cell_length_b 23.656490
_cell_length_c 15.307561
_cell_angle_alpha 90.000000
_cell_angle_beta 90.000000
_cell_angle_gamma 90.000000
_cell_volume 3215.382826
_symmetry_space_group_name_H-M "P M M M"
_symmetry_group_IT_number 47
_symmetry_cell_setting 'orthorhombic'
loop_
_space_group_symop_operation_xyz
x,y,z
-x,-y,z
x,-y,-z
-x,y,-z
-x,-y,-z
x,y,-z
-x,y,z
x,-y,z
loop_
_atom_site_type_symbol
_atom_site_label
_atom_site_fract_x
_atom_site_fract_y
_atom_site_fract_z
Si Si1 0.676992 0.756554 0.252976
Si Si2 0.674406 0.565292 0.100138
Si Si3 0.829248 0.937985 0.828700
Si Si4 0.823378 0.365129 0.250552
Si Si5 0.826988 0.820711 0.097659
Si Si6 0.171731 0.827596 0.597569
Si Si7 0.326883 0.434153 0.400315
Si Si8 0.674900 0.936379 0.648550
O O1 0.500000 0.749934 0.256118
O O2 0.748169 0.695341 0.255158
O O3 0.721175 0.788173 0.164383
O O4 0.727753 0.791338 0.337362
O O5 0.500000 0.576446 0.121545
O O6 0.714176 0.500000 0.117084
O O7 0.775192 0.603293 0.162464
O O8 0.709962 0.581533 0.000000
O O9 0.800175 0.888395 0.898152
O O10 0.713682 0.929068 0.750095
O O11 0.000000 0.933890 0.791945
O O12 0.803248 0.000000 0.872255
O O13 0.780486 0.399917 0.336545
O O14 0.000000 0.356653 0.248588
O O15 0.000000 0.805971 0.119642
O O16 0.785378 0.800997 0.000000
O O17 0.184717 0.802122 0.500000
O O18 0.228039 0.892253 0.593166
O O19 0.000000 0.826047 0.630838
O O20 0.291430 0.416574 0.500000
O O21 0.500000 0.420556 0.377457
O O22 0.294199 0.500000 0.386569
O O23 0.500000 0.922650 0.635277
O O24 0.712760 0.000000 0.616658
#
# Coordination Sequence:
#
# PCOD8198543 Si02
#       8
#     8   8   8   8   8   8   8   8
#     4  12  26  44  64  84 113 156 204 253 299 351
#     4   9  19  38  64  93 126 163 202 245 293 347
#     4   9  17  31  55  85 118 155 191 233 289 352
#     4  12  25  39  60  89 123 161 200 247 299 352
#     4  10  21  38  61  88 120 156 195 243 297 355
#     4  11  24  42  64  88 116 151 193 244 303 364
#     4   9  19  38  64  93 126 163 201 241 286 341
#     4  10  20  34  56  87 121 155 191 236 291 350
#
# _framework density 19.904316000000001
#
# number of rings (size 3 to 8) (size 9 to 14) (size 15 to 20)
#    0.000    1.750    1.250    4.125    0.000    6.000 
#    0.000    3.750    0.000    0.000    0.000    2.625 
#    0.000    0.000    0.000    0.000    0.000    0.000 
#
# Total GULP energy -793670.686677 kJ/mol
# GULP energy per Si atom -12401.104479 kJ/mol
# Density = 1.985901 g / cm^3
# Si number density = 19.904316 Si / 1000 Ang^3
#
#
#
# Elastic Constant Matrix: (Units=GPa)
#
#
# Indices 1 2 3 4 5 6 
#
# 1 130.9099 65.0503 59.5752 0.0000 0.0000 0.0000
# 2 65.0503 113.0503 61.3459 0.0000 0.0000 0.0000
# 3 59.5752 61.3459 115.1328 0.0000 0.0000 0.0000
# 4 0.0000 0.0000 0.0000 2.5414 0.0000 0.0000
# 5 0.0000 0.0000 0.0000 0.0000 19.8579 0.0000
# 6 0.0000 0.0000 0.0000 0.0000 0.0000 36.6929
#
#
#
# Elastic Compliance Matrix: (Units=1/GPa)
#
#
# Indices 1 2 3 4 5 6 
#
# 1 0.011590 -0.004804 -0.003438 0.000000 0.000000 0.000000
# 2 -0.004804 0.014434 -0.005205 0.000000 0.000000 0.000000
# 3 -0.003438 -0.005205 0.013238 0.000000 0.000000 0.000000
# 4 0.000000 0.000000 0.000000 0.393486 0.000000 0.000000
# 5 0.000000 0.000000 0.000000 0.000000 0.050358 0.000000
# 6 0.000000 0.000000 0.000000 0.000000 0.000000 0.027253
#
#
# Mechanical properties :
#
#
# Convention : Reuss Voigt Hill
#
# Bulk Modulus (GPa) = 80.84736 81.22617 81.03677
# Shear Modulus (GPa) = 9.23572 23.35988 16.29780
#
# Velocity S-wave (km/s) = 2.15642 3.42951 2.86459
# Velocity P-wave (km/s) = 6.84882 7.52190 7.19324
#
# Compressibility (1/GPa) = 0.01236899
#
# Stress axis : x y z
#
# Youngs Moduli (GPa) = 86.27857 69.27911 75.53951
#
# Poissons Ratio (x) = 0.33279 0.25970
# Poissons Ratio (y) = 0.41445 0.39321
# Poissons Ratio (z) = 0.29661 0.36062
#
# Static dielectric constant tensor:
#      x y z
#    x 3.599870 0.000000 0.000000 
#    y 0.000000 3.756230 0.000000 
#    z 0.000000 0.000000 3.553050 
# 
# 
# High freq. dielectric constant tensor:
#      x y z
#    x 1.773950 0.000000 0.000000 
#    y 0.000000 1.779710 0.000000 
#    z 0.000000 0.000000 1.776450 
# 
# From -- ./inp_files/21915.got.cif
#   From: 2010.03.12/outbox.cif.g09.slc.cpg/sg47_11_cif.got.tgz:21915.got - 2010.04.14 03:12:58.
