data_PCOD8198654
_publ_section_title
;
Structure prediction by ZEFSAII (Michael W. Deem and Ramdas Pophale) SiO2 
 PCOD8198654
Probable space group: P M M M
;
_chemical_formula_sum "Si O2"
_cell_formula_units_Z 40
_cell_length_a 7.821365
_cell_length_b 28.924773
_cell_length_c 9.348808
_cell_angle_alpha 90.000000
_cell_angle_beta 90.000000
_cell_angle_gamma 90.000000
_cell_volume 2114.992119
_symmetry_space_group_name_H-M "P M M M"
_symmetry_group_IT_number 47
_symmetry_cell_setting 'orthorhombic'
loop_
_space_group_symop_operation_xyz
x,y,z
-x,-y,z
x,-y,-z
-x,y,-z
-x,-y,-z
x,y,-z
-x,y,z
x,-y,z
loop_
_atom_site_type_symbol
_atom_site_label
_atom_site_fract_x
_atom_site_fract_y
_atom_site_fract_z
Si Si1 0.307325 0.135590 0.842256
Si Si2 0.198317 0.948892 0.334184
Si Si3 0.500000 0.387982 0.669703
Si Si4 0.810527 0.448002 0.329854
Si Si5 0.807295 0.766697 0.167567
Si Si6 0.500000 0.718230 0.329109
O O1 0.500000 0.154281 0.844460
O O2 0.301695 0.090919 0.743222
O O3 0.195248 0.178962 0.788861
O O4 0.246461 0.120216 0.000000
O O5 0.240876 0.945097 0.500000
O O6 0.000000 0.940959 0.303898
O O7 0.253371 0.000000 0.279032
O O8 0.500000 0.392470 0.500000
O O9 0.330909 0.412977 0.733301
O O10 0.500000 0.335095 0.717220
O O11 0.806948 0.446737 0.500000
O O12 0.768411 0.500000 0.277368
O O13 0.000000 0.433157 0.275783
O O14 0.672927 0.739532 0.264878
O O15 0.000000 0.748328 0.197372
O O16 0.758825 0.761225 0.000000
O O17 0.500000 0.725229 0.500000
#
# Coordination Sequence:
#
# PCOD8198654 Si02
#       6
#     8   8   4   8   8   4
#     4  10  20  35  56  79 102 129 169 222 269 312
#     4   9  19  35  52  73 105 141 172 204 250 313
#     4   9  17  27  40  63 100 141 173 210 265 322
#     4   8  13  22  38  60  89 132 182 220 252 303
#     4  10  21  40  63  80 102 142 188 232 277 326
#     4  11  23  36  53  82 117 147 178 224 281 337
#
# _framework density 18.912600999999999
#
# number of rings (size 3 to 8) (size 9 to 14) (size 15 to 20)
#    0.000    2.600    1.000    2.400    0.000    5.600 
#    0.000    5.000    0.000    0.000    0.000    0.000 
#    0.000    6.400    0.000   17.600    0.000   14.400 
#
# Total GULP energy -495793.876231 kJ/mol
# GULP energy per Si atom -12394.846906 kJ/mol
# Density = 1.886956 g / cm^3
# Si number density = 18.912601 Si / 1000 Ang^3
#
#
#
# Elastic Constant Matrix: (Units=GPa)
#
#
# Indices 1 2 3 4 5 6 
#
# 1 122.0451 77.3211 45.5316 0.0000 0.0000 0.0000
# 2 77.3211 129.4114 37.0339 0.0000 0.0000 0.0000
# 3 45.5316 37.0339 37.5547 0.0000 0.0000 0.0000
# 4 0.0000 0.0000 0.0000 -8.0099 0.0000 0.0000
# 5 0.0000 0.0000 0.0000 0.0000 18.7857 0.0000
# 6 0.0000 0.0000 0.0000 0.0000 0.0000 23.2317
#
#
#
# Elastic Compliance Matrix: (Units=1/GPa)
#
#
# Indices 1 2 3 4 5 6 
#
# 1 0.018009 -0.006286 -0.015636 0.000000 0.000000 0.000000
# 2 -0.006286 0.012959 -0.005159 0.000000 0.000000 0.000000
# 3 -0.015636 -0.005159 0.050673 0.000000 0.000000 0.000000
# 4 0.000000 0.000000 0.000000 -0.124846 0.000000 0.000000
# 5 0.000000 0.000000 0.000000 0.000000 0.053232 0.000000
# 6 0.000000 0.000000 0.000000 0.000000 0.000000 0.043045
#
#
# Mechanical properties :
#
#
# Convention : Reuss Voigt Hill
#
# Bulk Modulus (GPa) = 36.39022 67.64271 52.01646
# Shear Modulus (GPa) = 42.95790 15.40980 29.18385
#
# Velocity S-wave (km/s) = 4.77108 2.85755 3.93248
# Velocity P-wave (km/s) = 7.04514 6.83601 6.94136
#
# Compressibility (1/GPa) = 0.02747991
#
# Stress axis : x y z
#
# Youngs Moduli (GPa) = 55.52669 77.16573 19.73456
#
# Poissons Ratio (x) = 0.48503 0.30857
# Poissons Ratio (y) = 0.34902 0.10180
# Poissons Ratio (z) = 0.86823 0.39807
#
# Static dielectric constant tensor:
#      x y z
#    x 3.674230 0.000000 0.000000 
#    y 0.000000 3.483240 0.000000 
#    z 0.000000 0.000000 3.064190 
# 
# 
# High freq. dielectric constant tensor:
#      x y z
#    x 1.748020 0.000000 0.000000 
#    y 0.000000 1.733760 0.000000 
#    z 0.000000 0.000000 1.689320 
# 
# From -- ./inp_files/1724.got.cif
#   From: 2010.03.12/outbox.cif.g09.slc.cpg/sg47_1_cif.got.tgz:1724.got - 2010.04.14 03:12:58.
