data_PCOD8198941
_publ_section_title
;
Structure prediction by ZEFSAII (Michael W. Deem and Ramdas Pophale) SiO2 
 PCOD8198941
Probable space group: P M M M
;
_chemical_formula_sum "Si O2"
_cell_formula_units_Z 52
_cell_length_a 19.510480
_cell_length_b 15.608102
_cell_length_c 8.396277
_cell_angle_alpha 90.000000
_cell_angle_beta 90.000000
_cell_angle_gamma 90.000000
_cell_volume 2556.847386
_symmetry_space_group_name_H-M "P M M M"
_symmetry_group_IT_number 47
_symmetry_cell_setting 'orthorhombic'
loop_
_space_group_symop_operation_xyz
x,y,z
-x,-y,z
x,-y,-z
-x,y,-z
-x,-y,-z
x,y,-z
-x,y,z
x,-y,z
loop_
_atom_site_type_symbol
_atom_site_label
_atom_site_fract_x
_atom_site_fract_y
_atom_site_fract_z
Si Si1 0.578724 0.000000 0.188795
Si Si2 0.829414 0.093088 0.683786
Si Si3 0.159559 0.402089 0.814153
Si Si4 0.923637 0.247019 0.312239
Si Si5 0.426551 0.404399 0.310725
Si Si6 0.293091 0.682275 0.314955
Si Si7 0.308996 0.865272 0.184991
O O1 0.622631 0.916479 0.243349
O O2 0.500000 0.000000 0.258418
O O3 0.575037 0.000000 0.000000
O O4 0.811492 0.113768 0.500000
O O5 0.876593 0.169542 0.756060
O O6 0.759943 0.081101 0.785835
O O7 0.867123 0.000000 0.696367
O O8 0.153175 0.500000 0.749696
O O9 0.104973 0.340857 0.728864
O O10 0.234862 0.365494 0.783201
O O11 0.144280 0.400002 0.000000
O O12 0.926507 0.237548 0.500000
O O13 0.000000 0.238325 0.239798
O O14 0.422705 0.405487 0.500000
O O15 0.500000 0.365433 0.255805
O O16 0.419421 0.500000 0.243582
O O17 0.364993 0.349082 0.241364
O O18 0.282464 0.659576 0.500000
O O19 0.295139 0.783145 0.293524
O O20 0.316520 0.841187 0.000000
#
# Coordination Sequence:
#
# PCOD8198941 Si02
#       7
#     4   8   8   8   8   8   8
#     4   9  20  38  57  81 116 159 204 246 292 350
#     4  10  20  36  61  90 120 153 189 234 288 348
#     4  11  24  40  59  85 118 158 202 247 297 352
#     4  10  22  40  62  90 122 157 195 237 289 352
#     4   8  15  29  49  74 105 140 177 221 277 337
#     4  11  21  34  56  85 114 146 190 242 295 348
#     4  11  21  35  57  82 110 152 197 238 285 341
#
# _framework density 20.337544999999999
#
# number of rings (size 3 to 8) (size 9 to 14) (size 15 to 20)
#    0.000    1.923    2.308    2.308    0.000    3.385 
#    0.000    3.077    0.000    4.615    0.000    7.538 
#    0.000    0.000    0.000    0.000    0.000    0.000 
#
# Total GULP energy -644455.195457 kJ/mol
# GULP energy per Si atom -12393.369143 kJ/mol
# Density = 2.029126 g / cm^3
# Si number density = 20.337545 Si / 1000 Ang^3
#
#
#
# Elastic Constant Matrix: (Units=GPa)
#
#
# Indices 1 2 3 4 5 6 
#
# 1 157.8689 64.7407 10.1082 0.0000 0.0000 0.0000
# 2 64.7407 136.2463 3.8464 0.0000 0.0000 0.0000
# 3 10.1082 3.8464 20.0452 0.0000 0.0000 0.0000
# 4 0.0000 0.0000 0.0000 15.6944 0.0000 0.0000
# 5 0.0000 0.0000 0.0000 0.0000 18.4483 0.0000
# 6 0.0000 0.0000 0.0000 0.0000 0.0000 -61.0935
#
#
#
# Elastic Compliance Matrix: (Units=1/GPa)
#
#
# Indices 1 2 3 4 5 6 
#
# 1 0.008086 -0.003748 -0.003359 0.000000 0.000000 0.000000
# 2 -0.003748 0.009116 0.000140 0.000000 0.000000 0.000000
# 3 -0.003359 0.000140 0.051554 0.000000 0.000000 0.000000
# 4 0.000000 0.000000 0.000000 0.063717 0.000000 0.000000
# 5 0.000000 0.000000 0.000000 0.000000 0.054205 0.000000
# 6 0.000000 0.000000 0.000000 0.000000 0.000000 -0.016368
#
#
# Mechanical properties :
#
#
# Convention : Reuss Voigt Hill
#
# Bulk Modulus (GPa) = 18.23978 52.39454 35.31716
# Shear Modulus (GPa) = 24.68931 10.30753 17.49842
#
# Velocity S-wave (km/s) = 3.48800 2.25371 2.93644
# Velocity P-wave (km/s) = 5.02091 5.70883 5.37588
#
# Compressibility (1/GPa) = 0.05482522
#
# Stress axis : x y z
#
# Youngs Moduli (GPa) = 123.66660 109.69208 19.39721
#
# Poissons Ratio (x) = 0.41108 0.06515
# Poissons Ratio (y) = 0.46345 -0.00272
# Poissons Ratio (z) = 0.41534 -0.01541
#
# Static dielectric constant tensor:
#      x y z
#    x 4.085640 0.000000 0.000000 
#    y 0.000000 3.861110 0.000000 
#    z 0.000000 0.000000 3.280060 
# 
# 
# High freq. dielectric constant tensor:
#      x y z
#    x 1.798320 0.000000 0.000000 
#    y 0.000000 1.803400 0.000000 
#    z 0.000000 0.000000 1.762530 
# 
# From -- ./inp_files/11021.got.cif
#   From: 2010.03.12/outbox.cif.g09.slc.cpg/sg47_6_cif.got.tgz:11021.got - 2010.04.14 03:12:58.
