data_PCOD8198990
_publ_section_title
;
Structure prediction by ZEFSAII (Michael W. Deem and Ramdas Pophale) SiO2 
 PCOD8198990
Probable space group: P M M M
;
_chemical_formula_sum "Si O2"
_cell_formula_units_Z 44
_cell_length_a 32.050911
_cell_length_b 8.627448
_cell_length_c 7.851352
_cell_angle_alpha 90.000000
_cell_angle_beta 90.000000
_cell_angle_gamma 90.000000
_cell_volume 2171.036761
_symmetry_space_group_name_H-M "P M M M"
_symmetry_group_IT_number 47
_symmetry_cell_setting 'orthorhombic'
loop_
_space_group_symop_operation_xyz
x,y,z
-x,-y,z
x,-y,-z
-x,y,-z
-x,-y,-z
x,y,-z
-x,y,z
x,-y,z
loop_
_atom_site_type_symbol
_atom_site_label
_atom_site_fract_x
_atom_site_fract_y
_atom_site_fract_z
Si Si1 0.631141 0.823370 0.805387
Si Si2 0.000000 0.316802 0.189967
Si Si3 0.089281 0.317994 0.306892
Si Si4 0.544622 0.823422 0.700568
Si Si5 0.859103 0.818586 0.000000
Si Si6 0.231465 0.681309 0.000000
Si Si7 0.717923 0.817430 0.690061
O O1 0.586285 0.738442 0.773924
O O2 0.670473 0.750245 0.704973
O O3 0.625315 0.000000 0.743307
O O4 0.644073 0.811591 0.000000
O O5 0.958736 0.262605 0.289958
O O6 0.000000 0.500000 0.176923
O O7 0.000000 0.244584 0.000000
O O8 0.104209 0.281723 0.500000
O O9 0.093686 0.500000 0.265855
O O10 0.116267 0.223516 0.171629
O O11 0.547930 0.816724 0.500000
O O12 0.500000 0.746237 0.758425
O O13 0.543775 0.000000 0.766466
O O14 0.816591 0.724653 0.000000
O O15 0.849435 0.000000 0.000000
O O16 0.251826 0.743381 0.827399
O O17 0.236928 0.500000 0.000000
O O18 0.734593 0.779791 0.500000
O O19 0.716782 0.000000 0.726037
#
# Coordination Sequence:
#
# PCOD8198990 Si02
#       7
#     8   4   8   8   4   4   8
#     4   9  15  24  42  68 100 137 179 224 271 331
#     4   9  15  29  59  93 127 164 207 254 295 338
#     4  10  20  37  63  94 127 165 210 254 295 341
#     4   8  13  20  30  51  90 138 181 217 259 317
#     4  12  26  43  63  86 121 161 199 244 298 360
#     4  12  26  44  65  87 115 147 189 243 296 355
#     4  10  20  37  62  88 115 147 185 232 290 354
#
# _framework density 20.266815999999999
#
# number of rings (size 3 to 8) (size 9 to 14) (size 15 to 20)
#    0.000    2.273    1.818    3.000    0.000    5.091 
#    0.000    2.727    0.000    1.091    0.000    0.000 
#    0.000    1.455    0.000    3.818    0.000    3.636 
#
# Total GULP energy -545194.357885 kJ/mol
# GULP energy per Si atom -12390.780861 kJ/mol
# Density = 2.022069 g / cm^3
# Si number density = 20.266816 Si / 1000 Ang^3
#
#
#
# Elastic Constant Matrix: (Units=GPa)
#
#
# Indices 1 2 3 4 5 6 
#
# 1 130.6299 8.3574 52.3953 0.0000 0.0000 0.0000
# 2 8.3574 27.4591 22.7439 0.0000 0.0000 0.0000
# 3 52.3953 22.7439 119.2278 0.0000 0.0000 0.0000
# 4 0.0000 0.0000 0.0000 16.8141 0.0000 0.0000
# 5 0.0000 0.0000 0.0000 0.0000 -73.0286 0.0000
# 6 0.0000 0.0000 0.0000 0.0000 0.0000-7655.4362
#
#
#
# Elastic Compliance Matrix: (Units=1/GPa)
#
#
# Indices 1 2 3 4 5 6 
#
# 1 0.009303 0.000659 -0.004214 0.000000 0.000000 0.000000
# 2 0.000659 0.043298 -0.008549 0.000000 0.000000 0.000000
# 3 -0.004214 -0.008549 0.011870 0.000000 0.000000 0.000000
# 4 0.000000 0.000000 0.000000 0.059474 0.000000 0.000000
# 5 0.000000 0.000000 0.000000 0.000000 -0.013693 0.000000
# 6 0.000000 0.000000 0.000000 0.000000 0.000000 -0.000131
#
#
# Mechanical properties :
#
#
# Convention : Reuss Voigt Hill
#
# Bulk Modulus (GPa) = 24.83662 49.36778 37.10220
# Shear Modulus (GPa) = 33.84061 -1529.40879 -747.78409
#
# Velocity S-wave (km/s) = 4.09070 -27.50046 -19.22942
# Velocity P-wave (km/s) = 5.88159 31.36806 21.78717
#
# Compressibility (1/GPa) = 0.04026313
#
# Stress axis : x y z
#
# Youngs Moduli (GPa) = 107.48851 23.09550 84.24560
#
# Poissons Ratio (x) = -0.01522 0.35502
# Poissons Ratio (y) = -0.07083 0.72023
# Poissons Ratio (z) = 0.45297 0.19745
#
# Static dielectric constant tensor:
#      x y z
#    x 4.055360 0.000000 0.000000 
#    y 0.000000 3.074860 0.000000 
#    z 0.000000 0.000000 3.700240 
# 
# 
# High freq. dielectric constant tensor:
#      x y z
#    x 1.810110 0.000000 0.000000 
#    y 0.000000 1.717090 0.000000 
#    z 0.000000 0.000000 1.800550 
# 
# From -- ./inp_files/13698.got.cif
#   From: 2010.03.12/outbox.cif.g09.slc.cpg/sg47_7_cif.got.tgz:13698.got - 2010.04.14 03:12:58.
