data_PCOD8198697
_publ_section_title
;
Structure prediction by ZEFSAII (Michael W. Deem and Ramdas Pophale) SiO2 
 PCOD8198697
Probable space group: P M M M
;
_chemical_formula_sum "Si O2"
_cell_formula_units_Z 44
_cell_length_a 26.737467
_cell_length_b 10.097610
_cell_length_c 8.697970
_cell_angle_alpha 90.000000
_cell_angle_beta 90.000000
_cell_angle_gamma 90.000000
_cell_volume 2348.317205
_symmetry_space_group_name_H-M "P M M M"
_symmetry_group_IT_number 47
_symmetry_cell_setting 'orthorhombic'
loop_
_space_group_symop_operation_xyz
x,y,z
-x,-y,z
x,-y,-z
-x,y,-z
-x,-y,-z
x,y,-z
-x,y,z
x,-y,z
loop_
_atom_site_type_symbol
_atom_site_label
_atom_site_fract_x
_atom_site_fract_y
_atom_site_fract_z
Si Si1 0.000000 0.843741 0.328067
Si Si2 0.710661 0.348072 0.819636
Si Si3 0.443349 0.000000 0.818549
Si Si4 0.444237 0.500000 0.317432
Si Si5 0.815945 0.651504 0.319842
Si Si6 0.896721 0.845587 0.180511
Si Si7 0.385968 0.244501 0.681581
O O1 0.048670 0.797594 0.234679
O O2 0.000000 0.781499 0.500000
O O3 0.000000 0.000000 0.341078
O O4 0.700529 0.500000 0.771378
O O5 0.765823 0.305839 0.768152
O O6 0.671586 0.253333 0.733236
O O7 0.705274 0.326466 0.000000
O O8 0.413406 0.875179 0.760464
O O9 0.500000 0.000000 0.752272
O O10 0.444646 0.000000 0.000000
O O11 0.500000 0.500000 0.247572
O O12 0.446426 0.500000 0.500000
O O13 0.414832 0.626928 0.256814
O O14 0.806278 0.664910 0.500000
O O15 0.831092 0.500000 0.277069
O O16 0.858130 0.753699 0.269627
O O17 0.887264 0.000000 0.222075
O O18 0.891726 0.821574 0.000000
O O19 0.388649 0.227682 0.500000
#
# Coordination Sequence:
#
# PCOD8198697 Si02
#       7
#     4   8   4   4   8   8   8
#     4   9  17  31  54  81 112 151 192 234 282 333
#     4  10  20  36  59  85 115 149 186 230 284 340
#     4  11  25  43  59  81 117 155 187 226 281 340
#     4   9  18  32  55  87 115 139 177 230 277 322
#     4  10  21  37  58  83 113 149 191 236 284 337
#     4  10  20  35  56  84 116 150 190 235 285 338
#     4  11  21  37  61  86 114 147 188 232 278 333
#
# _framework density 18.736822
#
# number of rings (size 3 to 8) (size 9 to 14) (size 15 to 20)
#    0.000    1.909    0.909    3.273    0.000    5.455 
#    1.636    0.455    0.000    4.909    0.000    0.000 
#    0.000    0.000    0.000    0.000    0.000    0.000 
#
# Total GULP energy -545701.021579 kJ/mol
# GULP energy per Si atom -12402.295945 kJ/mol
# Density = 1.869418 g / cm^3
# Si number density = 18.736822 Si / 1000 Ang^3
#
#
#
# Elastic Constant Matrix: (Units=GPa)
#
#
# Indices 1 2 3 4 5 6 
#
# 1 124.5092 54.3650 16.2547 0.0000 0.0000 0.0000
# 2 54.3650 97.7616 22.1087 0.0000 0.0000 0.0000
# 3 16.2547 22.1087 54.3526 0.0000 0.0000 0.0000
# 4 0.0000 0.0000 0.0000 31.9765 0.0000 0.0000
# 5 0.0000 0.0000 0.0000 0.0000 34.4222 0.0000
# 6 0.0000 0.0000 0.0000 0.0000 0.0000 28.0615
#
#
#
# Elastic Compliance Matrix: (Units=1/GPa)
#
#
# Indices 1 2 3 4 5 6 
#
# 1 0.010643 -0.005725 -0.000854 0.000000 0.000000 0.000000
# 2 -0.005725 0.014345 -0.004123 0.000000 0.000000 0.000000
# 3 -0.000854 -0.004123 0.020331 0.000000 0.000000 0.000000
# 4 0.000000 0.000000 0.000000 0.031273 0.000000 0.000000
# 5 0.000000 0.000000 0.000000 0.000000 0.029051 0.000000
# 6 0.000000 0.000000 0.000000 0.000000 0.000000 0.035636
#
#
# Mechanical properties :
#
#
# Convention : Reuss Voigt Hill
#
# Bulk Modulus (GPa) = 41.81575 51.34225 46.57900
# Shear Modulus (GPa) = 29.29891 31.15173 30.22532
#
# Velocity S-wave (km/s) = 3.95866 4.08192 4.02076
# Velocity P-wave (km/s) = 6.57728 7.04821 6.81681
#
# Compressibility (1/GPa) = 0.02391443
#
# Stress axis : x y z
#
# Youngs Moduli (GPa) = 93.95913 69.70963 49.18642
#
# Poissons Ratio (x) = 0.39911 0.04201
# Poissons Ratio (y) = 0.53795 0.20279
# Poissons Ratio (z) = 0.08024 0.28740
#
# Static dielectric constant tensor:
#      x y z
#    x 3.624140 0.000000 0.000000 
#    y 0.000000 3.300890 0.000000 
#    z 0.000000 0.000000 3.460250 
# 
# 
# High freq. dielectric constant tensor:
#      x y z
#    x 1.740890 0.000000 0.000000 
#    y 0.000000 1.711580 0.000000 
#    z 0.000000 0.000000 1.735230 
# 
# From -- ./inp_files/13707.got.cif
#   From: 2010.03.12/outbox.cif.g09.slc.cpg/sg47_7_cif.got.tgz:13707.got - 2010.04.14 03:12:58.
