data_PCOD8198251
_publ_section_title
;
Structure prediction by ZEFSAII (Michael W. Deem and Ramdas Pophale) SiO2 
 PCOD8198251
Probable space group: P M M M
;
_chemical_formula_sum "Si O2"
_cell_formula_units_Z 48
_cell_length_a 31.014614
_cell_length_b 9.071227
_cell_length_c 9.287152
_cell_angle_alpha 90.000000
_cell_angle_beta 90.000000
_cell_angle_gamma 90.000000
_cell_volume 2612.852952
_symmetry_space_group_name_H-M "P M M M"
_symmetry_group_IT_number 47
_symmetry_cell_setting 'orthorhombic'
loop_
_space_group_symop_operation_xyz
x,y,z
-x,-y,z
x,-y,-z
-x,y,-z
-x,-y,-z
x,y,-z
-x,y,z
x,-y,z
loop_
_atom_site_type_symbol
_atom_site_label
_atom_site_fract_x
_atom_site_fract_y
_atom_site_fract_z
Si Si1 0.500000 0.824677 0.662503
Si Si2 0.831525 0.333763 0.671222
Si Si3 0.083146 0.172561 0.667123
Si Si4 0.746625 0.830262 0.329707
Si Si5 0.670316 0.328348 0.832558
Si Si6 0.582865 0.170590 0.166959
Si Si7 0.000000 0.824643 0.162644
O O1 0.500000 0.764133 0.500000
O O2 0.542607 0.766575 0.742904
O O3 0.500000 0.000000 0.667249
O O4 0.831474 0.331197 0.500000
O O5 0.829783 0.500000 0.731053
O O6 0.874842 0.255712 0.727535
O O7 0.790077 0.245993 0.729490
O O8 0.074645 0.207379 0.500000
O O9 0.042365 0.233674 0.755634
O O10 0.090666 0.000000 0.692059
O O11 0.742606 0.811840 0.500000
O O12 0.706106 0.753078 0.258971
O O13 0.747961 0.000000 0.283342
O O14 0.671340 0.500000 0.795329
O O15 0.624169 0.264517 0.786403
O O16 0.679133 0.297757 0.000000
O O17 0.592367 0.000000 0.202454
O O18 0.571599 0.192201 0.000000
O O19 0.000000 0.000000 0.165830
O O20 0.000000 0.763799 0.000000
#
# Coordination Sequence:
#
# PCOD8198251 Si02
#       7
#     4   8   8   8   8   8   4
#     4   9  17  29  48  75 102 126 160 209 256 295
#     4   9  17  30  49  73 100 129 162 202 247 294
#     4   9  16  28  48  71  93 121 161 204 241 283
#     4  10  20  34  54  79 104 132 168 209 253 301
#     4  10  21  36  53  75 104 137 172 210 253 301
#     4   9  17  31  51  72  96 130 170 208 248 296
#     4   9  17  29  46  69  96 124 156 197 244 290
#
# _framework density 18.370723999999999
#
# number of rings (size 3 to 8) (size 9 to 14) (size 15 to 20)
#    0.000    2.667    0.000    2.000    0.000    6.667 
#    0.000    3.333    0.000    8.500    0.000    0.000 
#    0.000    0.000    0.000    0.000    0.000    0.000 
#
# Total GULP energy -595270.359496 kJ/mol
# GULP energy per Si atom -12401.465823 kJ/mol
# Density = 1.832891 g / cm^3
# Si number density = 18.370724 Si / 1000 Ang^3
#
#
#
# Elastic Constant Matrix: (Units=GPa)
#
#
# Indices 1 2 3 4 5 6 
#
# 1 190.2547 80.3933 66.4465 0.0000 0.0000 0.0000
# 2 80.3933 101.3239 38.1553 0.0000 0.0000 0.0000
# 3 66.4465 38.1553 60.1808 0.0000 0.0000 0.0000
# 4 0.0000 0.0000 0.0000 17.6285 0.0000 0.0000
# 5 0.0000 0.0000 0.0000 0.0000 8.2548 0.0000
# 6 0.0000 0.0000 0.0000 0.0000 0.0000 2.4472
#
#
#
# Elastic Compliance Matrix: (Units=1/GPa)
#
#
# Indices 1 2 3 4 5 6 
#
# 1 0.010214 -0.005067 -0.008065 0.000000 0.000000 0.000000
# 2 -0.005067 0.015478 -0.004219 0.000000 0.000000 0.000000
# 3 -0.008065 -0.004219 0.028196 0.000000 0.000000 0.000000
# 4 0.000000 0.000000 0.000000 0.056726 0.000000 0.000000
# 5 0.000000 0.000000 0.000000 0.000000 0.121142 0.000000
# 6 0.000000 0.000000 0.000000 0.000000 0.000000 0.408631
#
#
# Mechanical properties :
#
#
# Convention : Reuss Voigt Hill
#
# Bulk Modulus (GPa) = 52.11926 80.19441 66.15683
# Shear Modulus (GPa) = 7.33693 16.78371 12.06032
#
# Velocity S-wave (km/s) = 2.00062 3.02588 2.56500
# Velocity P-wave (km/s) = 5.81112 7.48038 6.69795
#
# Compressibility (1/GPa) = 0.01918677
#
# Stress axis : x y z
#
# Youngs Moduli (GPa) = 97.90672 64.60635 35.46635
#
# Poissons Ratio (x) = 0.32736 0.28602
# Poissons Ratio (y) = 0.49610 0.14963
# Poissons Ratio (z) = 0.78958 0.27257
#
# Static dielectric constant tensor:
#      x y z
#    x 3.595430 0.000000 0.000000 
#    y 0.000000 3.312490 0.000000 
#    z 0.000000 0.000000 3.214060 
# 
# 
# High freq. dielectric constant tensor:
#      x y z
#    x 1.729490 0.000000 0.000000 
#    y 0.000000 1.698520 0.000000 
#    z 0.000000 0.000000 1.687460 
# 
# From -- ./inp_files/2767.got.cif
#   From: 2010.03.12/outbox.cif.g09.slc.cpg/sg47_2_cif.got.tgz:2767.got - 2010.04.14 03:12:58.
