data_PCOD8198056
_publ_section_title
;
Structure prediction by ZEFSAII (Michael W. Deem and Ramdas Pophale) SiO2 
 PCOD8198056
Probable space group: P M M M
;
_chemical_formula_sum "Si O2"
_cell_formula_units_Z 52
_cell_length_a 12.734588
_cell_length_b 23.342656
_cell_length_c 9.366122
_cell_angle_alpha 90.000000
_cell_angle_beta 90.000000
_cell_angle_gamma 90.000000
_cell_volume 2784.165062
_symmetry_space_group_name_H-M "P M M M"
_symmetry_group_IT_number 47
_symmetry_cell_setting 'orthorhombic'
loop_
_space_group_symop_operation_xyz
x,y,z
-x,-y,z
x,-y,-z
-x,y,-z
-x,-y,-z
x,y,-z
-x,y,z
x,-y,z
loop_
_atom_site_type_symbol
_atom_site_label
_atom_site_fract_x
_atom_site_fract_y
_atom_site_fract_z
Si Si1 0.000000 0.759919 0.169083
Si Si2 0.500000 0.062399 0.668399
Si Si3 0.382047 0.637777 0.664607
Si Si4 0.817739 0.566514 0.334855
Si Si5 0.196466 0.167471 0.167526
Si Si6 0.727875 0.066887 0.666979
Si Si7 0.381193 0.249921 0.834218
Si Si8 0.000000 0.370634 0.170918
O O1 0.102296 0.793128 0.225736
O O2 0.000000 0.694948 0.225241
O O3 0.000000 0.758506 0.000000
O O4 0.500000 0.054470 0.500000
O O5 0.610993 0.090891 0.712152
O O6 0.500000 0.000000 0.740344
O O7 0.378688 0.655570 0.500000
O O8 0.500000 0.617820 0.708274
O O9 0.301155 0.586676 0.697257
O O10 0.346587 0.693264 0.751934
O O11 0.848047 0.577774 0.500000
O O12 0.824669 0.500000 0.297254
O O13 0.896560 0.599741 0.232361
O O14 0.190694 0.105848 0.245429
O O15 0.304905 0.198472 0.209191
O O16 0.186030 0.156229 0.000000
O O17 0.748558 0.075613 0.500000
O O18 0.741868 0.000000 0.707624
O O19 0.500000 0.231527 0.794348
O O20 0.369572 0.264610 0.000000
O O21 0.000000 0.375763 0.000000
#
# Coordination Sequence:
#
# PCOD8198056 Si02
#       8
#     4   4   8   8   8   8   8   4
#     4   9  20  38  55  74 100 135 172 211 258 307
#     4   7  12  26  47  69  97 133 163 187 230 293
#     4   9  18  33  53  77 105 140 182 218 250 305
#     4  10  21  36  54  79 112 144 172 212 268 317
#     4  10  20  34  53  74 100 132 172 213 254 307
#     4   9  18  33  52  75 104 136 168 204 251 304
#     4   9  18  32  50  74 104 136 169 213 270 315
#     4  11  22  38  61  81 101 134 180 225 266 313
#
# _framework density 18.677053999999998
#
# number of rings (size 3 to 8) (size 9 to 14) (size 15 to 20)
#    0.000    2.692    0.000    2.308    1.077    4.308 
#    0.000    3.846    0.000    3.692    0.000    3.231 
#    0.000    0.000    0.000    0.000    0.000    0.000 
#
# Total GULP energy -644550.449704 kJ/mol
# GULP energy per Si atom -12395.200956 kJ/mol
# Density = 1.863454 g / cm^3
# Si number density = 18.677054 Si / 1000 Ang^3
#
#
#
# Elastic Constant Matrix: (Units=GPa)
#
#
# Indices 1 2 3 4 5 6 
#
# 1 103.2320 74.1979 44.2574 0.0000 0.0000 0.0000
# 2 74.1979 141.2482 55.4700 0.0000 0.0000 0.0000
# 3 44.2574 55.4700 50.1734 0.0000 0.0000 0.0000
# 4 0.0000 0.0000 0.0000 32.5476 0.0000 0.0000
# 5 0.0000 0.0000 0.0000 0.0000 20.7413 0.0000
# 6 0.0000 0.0000 0.0000 0.0000 0.0000 30.4850
#
#
#
# Elastic Compliance Matrix: (Units=1/GPa)
#
#
# Indices 1 2 3 4 5 6 
#
# 1 0.017792 -0.005625 -0.009475 0.000000 0.000000 0.000000
# 2 -0.005625 0.014291 -0.010837 0.000000 0.000000 0.000000
# 3 -0.009475 -0.010837 0.040270 0.000000 0.000000 0.000000
# 4 0.000000 0.000000 0.000000 0.030724 0.000000 0.000000
# 5 0.000000 0.000000 0.000000 0.000000 0.048213 0.000000
# 6 0.000000 0.000000 0.000000 0.000000 0.000000 0.032803
#
#
# Mechanical properties :
#
#
# Convention : Reuss Voigt Hill
#
# Bulk Modulus (GPa) = 48.83400 71.38936 60.11168
# Shear Modulus (GPa) = 20.59351 24.80332 22.69842
#
# Velocity S-wave (km/s) = 3.32416 3.64814 3.48991
# Velocity P-wave (km/s) = 6.39818 7.48674 6.96376
#
# Compressibility (1/GPa) = 0.02047754
#
# Stress axis : x y z
#
# Youngs Moduli (GPa) = 56.20420 69.97601 24.83223
#
# Poissons Ratio (x) = 0.39363 0.23529
# Poissons Ratio (y) = 0.31616 0.26911
# Poissons Ratio (z) = 0.53255 0.75835
#
# Static dielectric constant tensor:
#      x y z
#    x 3.627330 0.000000 0.000000 
#    y 0.000000 3.366140 0.000000 
#    z 0.000000 0.000000 3.193780 
# 
# 
# High freq. dielectric constant tensor:
#      x y z
#    x 1.729200 0.000000 0.000000 
#    y 0.000000 1.721770 0.000000 
#    z 0.000000 0.000000 1.703940 
# 
# From -- ./inp_files/7158.got.cif
#   From: 2010.03.12/outbox.cif.g09.slc.cpg/sg47_4_cif.got.tgz:7158.got - 2010.04.14 03:12:58.
