data_PCOD8198001
_publ_section_title
;
Structure prediction by ZEFSAII (Michael W. Deem and Ramdas Pophale) SiO2 
 PCOD8198001
Probable space group: P M M M
;
_chemical_formula_sum "Si O2"
_cell_formula_units_Z 44
_cell_length_a 19.230505
_cell_length_b 14.246287
_cell_length_c 8.807894
_cell_angle_alpha 90.000000
_cell_angle_beta 90.000000
_cell_angle_gamma 90.000000
_cell_volume 2413.039648
_symmetry_space_group_name_H-M "P M M M"
_symmetry_group_IT_number 47
_symmetry_cell_setting 'orthorhombic'
loop_
_space_group_symop_operation_xyz
x,y,z
-x,-y,z
x,-y,-z
-x,y,-z
-x,-y,-z
x,y,-z
-x,y,z
x,-y,z
loop_
_atom_site_type_symbol
_atom_site_label
_atom_site_fract_x
_atom_site_fract_y
_atom_site_fract_z
Si Si1 0.420516 0.308218 0.820782
Si Si2 0.076645 0.261507 0.178711
Si Si3 0.817404 0.892933 0.179107
Si Si4 0.801662 0.607453 0.820869
Si Si5 0.581991 0.500000 0.669206
Si Si6 0.291572 0.763675 0.679302
O O1 0.500000 0.287392 0.771559
O O2 0.393974 0.409077 0.761776
O O3 0.370212 0.231204 0.744554
O O4 0.412497 0.306004 0.000000
O O5 0.116205 0.167480 0.234821
O O6 0.121919 0.352906 0.223059
O O7 0.000000 0.267481 0.255293
O O8 0.067475 0.256183 0.000000
O O9 0.748458 0.855108 0.260670
O O10 0.830429 0.000000 0.226841
O O11 0.806120 0.881422 0.000000
O O12 0.797002 0.500000 0.766958
O O13 0.743775 0.667512 0.735415
O O14 0.788775 0.617976 0.000000
O O15 0.500000 0.500000 0.655570
O O16 0.615159 0.500000 0.500000
O O17 0.293790 0.765535 0.500000
#
# Coordination Sequence:
#
# PCOD8198001 Si02
#       6
#     8   8   8   8   4   8
#     4  10  20  34  52  73 100 135 172 210 255 305
#     4   8  14  26  47  78 109 131 161 209 260 306
#     4   9  18  34  55  77 102 132 167 208 257 314
#     4   9  18  32  49  70 100 139 179 215 252 299
#     4   9  17  29  45  69 101 133 166 203 244 291
#     4  11  22  34  51  74 102 134 171 216 259 305
#
# _framework density 18.234264
#
# number of rings (size 3 to 8) (size 9 to 14) (size 15 to 20)
#    0.000    2.636    0.000    3.545    1.273    3.636 
#    0.000    3.636    0.000    9.273    0.000   14.000 
#    0.000    0.000    0.000    0.000    0.000    0.000 
#
# Total GULP energy -545489.681590 kJ/mol
# GULP energy per Si atom -12397.492763 kJ/mol
# Density = 1.819276 g / cm^3
# Si number density = 18.234264 Si / 1000 Ang^3
#
#
#
# Elastic Constant Matrix: (Units=GPa)
#
#
# Indices 1 2 3 4 5 6 
#
# 1 102.5995 21.3087 30.9800 0.0000 0.0000 0.0000
# 2 21.3087 80.9541 21.3918 0.0000 0.0000 0.0000
# 3 30.9800 21.3918 66.9241 0.0000 0.0000 0.0000
# 4 0.0000 0.0000 0.0000 13.8649 0.0000 0.0000
# 5 0.0000 0.0000 0.0000 0.0000 10.2336 0.0000
# 6 0.0000 0.0000 0.0000 0.0000 0.0000 16.5657
#
#
#
# Elastic Compliance Matrix: (Units=1/GPa)
#
#
# Indices 1 2 3 4 5 6 
#
# 1 0.011560 -0.001779 -0.004783 0.000000 0.000000 0.000000
# 2 -0.001779 0.013766 -0.003577 0.000000 0.000000 0.000000
# 3 -0.004783 -0.003577 0.018300 0.000000 0.000000 0.000000
# 4 0.000000 0.000000 0.000000 0.072125 0.000000 0.000000
# 5 0.000000 0.000000 0.000000 0.000000 0.097717 0.000000
# 6 0.000000 0.000000 0.000000 0.000000 0.000000 0.060366
#
#
# Mechanical properties :
#
#
# Convention : Reuss Voigt Hill
#
# Bulk Modulus (GPa) = 42.82848 44.20430 43.51639
# Shear Modulus (GPa) = 16.56212 19.91931 18.24072
#
# Velocity S-wave (km/s) = 3.01707 3.30875 3.16627
# Velocity P-wave (km/s) = 5.97292 6.23636 6.10606
#
# Compressibility (1/GPa) = 0.02334895
#
# Stress axis : x y z
#
# Youngs Moduli (GPa) = 86.50316 72.64229 54.64617
#
# Poissons Ratio (x) = 0.12924 0.26136
# Poissons Ratio (y) = 0.15390 0.19545
# Poissons Ratio (z) = 0.41372 0.25982
#
# Static dielectric constant tensor:
#      x y z
#    x 3.648300 0.000000 0.000000 
#    y 0.000000 3.308900 0.000000 
#    z 0.000000 0.000000 3.157070 
# 
# 
# High freq. dielectric constant tensor:
#      x y z
#    x 1.713090 0.000000 0.000000 
#    y 0.000000 1.685430 0.000000 
#    z 0.000000 0.000000 1.687060 
# 
# From -- ./inp_files/6832.got.cif
#   From: 2010.03.12/outbox.cif.g09.slc.cpg/sg47_4_cif.got.tgz:6832.got - 2010.04.14 03:12:58.
