data_PCOD8198265
_publ_section_title
;
Structure prediction by ZEFSAII (Michael W. Deem and Ramdas Pophale) SiO2 
 PCOD8198265
Probable space group: P M M M
;
_chemical_formula_sum "Si O2"
_cell_formula_units_Z 40
_cell_length_a 9.040581
_cell_length_b 9.203223
_cell_length_c 25.852756
_cell_angle_alpha 90.000000
_cell_angle_beta 90.000000
_cell_angle_gamma 90.000000
_cell_volume 2151.013491
_symmetry_space_group_name_H-M "P M M M"
_symmetry_group_IT_number 47
_symmetry_cell_setting 'orthorhombic'
loop_
_space_group_symop_operation_xyz
x,y,z
-x,-y,z
x,-y,-z
-x,y,-z
-x,-y,-z
x,y,-z
-x,y,z
x,-y,z
loop_
_atom_site_type_symbol
_atom_site_label
_atom_site_fract_x
_atom_site_fract_y
_atom_site_fract_z
Si Si1 0.333069 0.827095 0.000000
Si Si2 0.171073 0.668451 0.299678
Si Si3 0.823449 0.335525 0.500000
Si Si4 0.671568 0.330623 0.805242
Si Si5 0.830073 0.828196 0.897855
Si Si6 0.823922 0.164032 0.599463
O O1 0.250261 0.768130 0.949192
O O2 0.500000 0.766642 0.000000
O O3 0.331086 0.000000 0.000000
O O4 0.193676 0.500000 0.313336
O O5 0.265957 0.716158 0.250336
O O6 0.231559 0.760419 0.348011
O O7 0.000000 0.702789 0.287797
O O8 0.762946 0.500000 0.500000
O O9 0.761630 0.252981 0.550511
O O10 0.000000 0.335315 0.500000
O O11 0.500000 0.290193 0.807495
O O12 0.699988 0.500000 0.815144
O O13 0.756666 0.241317 0.848160
O O14 0.000000 0.780682 0.900962
O O15 0.812757 0.000000 0.893408
O O16 0.000000 0.165104 0.597943
O O17 0.762574 0.000000 0.597205
#
# Coordination Sequence:
#
# PCOD8198265 Si02
#       6
#     4   8   4   8   8   8
#     4   9  17  31  52  77 106 139 172 208 252 301
#     4   9  17  30  47  66  91 125 162 199 243 297
#     4   9  15  23  37  59  90 127 162 195 238 294
#     4  10  21  36  53  74 101 133 169 210 256 305
#     4  10  20  34  54  79 105 134 170 211 254 302
#     4   9  16  25  39  62  92 123 157 200 246 290
#
# _framework density 18.595887000000001
#
# number of rings (size 3 to 8) (size 9 to 14) (size 15 to 20)
#    0.000    2.600    0.000    2.400    0.000    8.000 
#    0.000    2.500    0.000    3.000    0.000    0.700 
#    0.000    5.600    0.000    0.000    0.000    0.000 
#
# Total GULP energy -496061.646893 kJ/mol
# GULP energy per Si atom -12401.541172 kJ/mol
# Density = 1.855356 g / cm^3
# Si number density = 18.595887 Si / 1000 Ang^3
#
#
#
# Elastic Constant Matrix: (Units=GPa)
#
#
# Indices 1 2 3 4 5 6 
#
# 1 95.9441 37.2922 72.0359 0.0000 0.0000 0.0000
# 2 37.2922 80.5169 71.6929 0.0000 0.0000 0.0000
# 3 72.0359 71.6929 178.7825 0.0000 0.0000 0.0000
# 4 0.0000 0.0000 0.0000 29.3481 0.0000 0.0000
# 5 0.0000 0.0000 0.0000 0.0000 -2.3198 0.0000
# 6 0.0000 0.0000 0.0000 0.0000 0.0000 17.3598
#
#
#
# Elastic Compliance Matrix: (Units=1/GPa)
#
#
# Indices 1 2 3 4 5 6 
#
# 1 0.015255 -0.002477 -0.005153 0.000000 0.000000 0.000000
# 2 -0.002477 0.019719 -0.006910 0.000000 0.000000 0.000000
# 3 -0.005153 -0.006910 0.010441 0.000000 0.000000 0.000000
# 4 0.000000 0.000000 0.000000 0.034074 0.000000 0.000000
# 5 0.000000 0.000000 0.000000 0.000000 -0.431078 0.000000
# 6 0.000000 0.000000 0.000000 0.000000 0.000000 0.057604
#
#
# Mechanical properties :
#
#
# Convention : Reuss Voigt Hill
#
# Bulk Modulus (GPa) = 61.21788 79.69840 70.45814
# Shear Modulus (GPa) = -19.27070 20.49246 0.61088
#
# Velocity S-wave (km/s) = -3.22264 3.32322 0.57377
# Velocity P-wave (km/s) = 4.37543 7.59448 6.19760
#
# Compressibility (1/GPa) = 0.01633510
#
# Stress axis : x y z
#
# Youngs Moduli (GPa) = 65.55430 50.71182 95.78066
#
# Poissons Ratio (x) = 0.12561 0.49358
# Poissons Ratio (y) = 0.16237 0.66180
# Poissons Ratio (z) = 0.33781 0.35040
#
# Static dielectric constant tensor:
#      x y z
#    x 3.194690 0.000000 0.000000 
#    y 0.000000 3.349690 0.000000 
#    z 0.000000 0.000000 3.607000 
# 
# 
# High freq. dielectric constant tensor:
#      x y z
#    x 1.691770 0.000000 0.000000 
#    y 0.000000 1.709730 0.000000 
#    z 0.000000 0.000000 1.739480 
# 
# From -- ./inp_files/1788.got.cif
#   From: 2010.03.12/outbox.cif.g09.slc.cpg/sg47_1_cif.got.tgz:1788.got - 2010.04.14 03:12:58.
