data_PCOD8198921
_publ_section_title
;
Structure prediction by ZEFSAII (Michael W. Deem and Ramdas Pophale) SiO2 
 PCOD8198921
Probable space group: P M M M
;
_chemical_formula_sum "Si O2"
_cell_formula_units_Z 56
_cell_length_a 15.122403
_cell_length_b 23.285548
_cell_length_c 7.625005
_cell_angle_alpha 90.000000
_cell_angle_beta 90.000000
_cell_angle_gamma 90.000000
_cell_volume 2685.019248
_symmetry_space_group_name_H-M "P M M M"
_symmetry_group_IT_number 47
_symmetry_cell_setting 'orthorhombic'
loop_
_space_group_symop_operation_xyz
x,y,z
-x,-y,z
x,-y,-z
-x,y,-z
-x,-y,-z
x,y,-z
-x,y,z
x,-y,z
loop_
_atom_site_type_symbol
_atom_site_label
_atom_site_fract_x
_atom_site_fract_y
_atom_site_fract_z
Si Si1 0.853710 0.734056 0.299725
Si Si2 0.899547 0.857041 0.704360
Si Si3 0.351480 0.271716 0.704074
Si Si4 0.598028 0.356523 0.000000
Si Si5 0.901080 0.388594 0.706017
Si Si6 0.404734 0.148203 0.299703
Si Si7 0.772991 0.566147 0.000000
Si Si8 0.744989 0.936550 0.198691
O O1 0.880206 0.742826 0.500000
O O2 0.881961 0.794126 0.208332
O O3 0.752064 0.720147 0.271182
O O4 0.904807 0.677999 0.229816
O O5 0.874954 0.855963 0.500000
O O6 0.838582 0.904685 0.792593
O O7 0.000000 0.875546 0.738819
O O8 0.379119 0.280306 0.500000
O O9 0.373907 0.208631 0.782581
O O10 0.399293 0.318406 0.823820
O O11 0.679475 0.400838 0.000000
O O12 0.500000 0.386342 0.000000
O O13 0.872695 0.393098 0.500000
O O14 0.830491 0.421778 0.825162
O O15 0.000000 0.414180 0.732440
O O16 0.418388 0.162717 0.500000
O O17 0.500000 0.129152 0.217882
O O18 0.332590 0.098692 0.289193
O O19 0.747010 0.500000 0.000000
O O20 0.752745 0.000000 0.285474
O O21 0.716211 0.943087 0.000000
#
# Coordination Sequence:
#
# PCOD8198921 Si02
#       8
#     8   8   8   4   8   8   4   8
#     4   9  16  32  61  92 123 155 185 236 307 370
#     4  10  20  36  60  87 114 147 191 245 300 355
#     4  10  20  38  64  95 129 159 195 251 314 376
#     4  12  26  42  67  96 123 169 215 254 313 371
#     4  10  21  40  67  97 131 170 207 250 313 380
#     4  10  21  38  62  90 117 145 182 241 311 369
#     4  12  27  45  64  91 131 171 217 270 302 346
#     4  11  25  41  55  74 109 157 203 247 293 350
#
# _framework density 20.856459999999998
#
# number of rings (size 3 to 8) (size 9 to 14) (size 15 to 20)
#    0.000    1.714    2.857    1.500    1.000    5.857 
#    1.286    3.571    0.000    0.000    0.000    2.000 
#    0.000    0.000    0.000    0.000    0.000    0.000 
#
# Total GULP energy -694014.187703 kJ/mol
# GULP energy per Si atom -12393.110495 kJ/mol
# Density = 2.080899 g / cm^3
# Si number density = 20.856460 Si / 1000 Ang^3
#
#
#
# Elastic Constant Matrix: (Units=GPa)
#
#
# Indices 1 2 3 4 5 6 
#
# 1 124.0009 60.4141 35.6736 0.0000 0.0000 0.0000
# 2 60.4141 131.6996 29.0812 0.0000 0.0000 0.0000
# 3 35.6736 29.0812 71.6330 0.0000 0.0000 0.0000
# 4 0.0000 0.0000 0.0000 19.8227 0.0000 0.0000
# 5 0.0000 0.0000 0.0000 0.0000 9.8246 0.0000
# 6 0.0000 0.0000 0.0000 0.0000 0.0000 2.9908
#
#
#
# Elastic Compliance Matrix: (Units=1/GPa)
#
#
# Indices 1 2 3 4 5 6 
#
# 1 0.011282 -0.004322 -0.003864 0.000000 0.000000 0.000000
# 2 -0.004322 0.009997 -0.001906 0.000000 0.000000 0.000000
# 3 -0.003864 -0.001906 0.016658 0.000000 0.000000 0.000000
# 4 0.000000 0.000000 0.000000 0.050447 0.000000 0.000000
# 5 0.000000 0.000000 0.000000 0.000000 0.101786 0.000000
# 6 0.000000 0.000000 0.000000 0.000000 0.000000 0.334360
#
#
# Mechanical properties :
#
#
# Convention : Reuss Voigt Hill
#
# Bulk Modulus (GPa) = 56.32911 64.18570 60.25740
# Shear Modulus (GPa) = 9.08051 20.00526 14.54288
#
# Velocity S-wave (km/s) = 2.08884 3.10044 2.64348
# Velocity P-wave (km/s) = 5.73448 6.60747 6.18640
#
# Compressibility (1/GPa) = 0.01775281
#
# Stress axis : x y z
#
# Youngs Moduli (GPa) = 88.63882 100.03451 60.03137
#
# Poissons Ratio (x) = 0.43236 0.23194
# Poissons Ratio (y) = 0.38310 0.11442
# Poissons Ratio (z) = 0.34247 0.19066
#
# Static dielectric constant tensor:
#      x y z
#    x 3.884910 0.000000 0.000000 
#    y 0.000000 3.803620 0.000000 
#    z 0.000000 0.000000 3.658130 
# 
# 
# High freq. dielectric constant tensor:
#      x y z
#    x 1.825460 0.000000 0.000000 
#    y 0.000000 1.799500 0.000000 
#    z 0.000000 0.000000 1.803700 
# 
# From -- ./inp_files/7386.got.cif
#   From: 2010.03.12/outbox.cif.g09.slc.cpg/sg47_4_cif.got.tgz:7386.got - 2010.04.14 03:12:58.
