data_PCOD8198253
_publ_section_title
;
Structure prediction by ZEFSAII (Michael W. Deem and Ramdas Pophale) SiO2 
 PCOD8198253
Probable space group: P M M M
;
_chemical_formula_sum "Si O2"
_cell_formula_units_Z 48
_cell_length_a 32.092975
_cell_length_b 8.344173
_cell_length_c 9.772068
_cell_angle_alpha 90.000000
_cell_angle_beta 90.000000
_cell_angle_gamma 90.000000
_cell_volume 2616.855596
_symmetry_space_group_name_H-M "P M M M"
_symmetry_group_IT_number 47
_symmetry_cell_setting 'orthorhombic'
loop_
_space_group_symop_operation_xyz
x,y,z
-x,-y,z
x,-y,-z
-x,y,-z
-x,-y,-z
x,y,-z
-x,y,z
x,-y,z
loop_
_atom_site_type_symbol
_atom_site_label
_atom_site_fract_x
_atom_site_fract_y
_atom_site_fract_z
Si Si1 0.500000 0.682017 0.661400
Si Si2 0.811549 0.315908 0.655429
Si Si3 0.093524 0.320678 0.662375
Si Si4 0.742672 0.815833 0.153951
Si Si5 0.655628 0.314761 0.844335
Si Si6 0.585600 0.185947 0.348504
Si Si7 0.047608 0.000000 0.662671
O O1 0.500000 0.500000 0.705388
O O2 0.500000 0.712249 0.500000
O O3 0.542453 0.756674 0.722055
O O4 0.807258 0.254012 0.500000
O O5 0.797906 0.500000 0.665893
O O6 0.858804 0.293936 0.707079
O O7 0.782132 0.210811 0.750097
O O8 0.089950 0.323604 0.500000
O O9 0.078491 0.500000 0.714972
O O10 0.067829 0.166737 0.720649
O O11 0.702867 0.715364 0.206059
O O12 0.729597 0.000000 0.159288
O O13 0.754907 0.763033 0.000000
O O14 0.644901 0.500000 0.833966
O O15 0.624250 0.222318 0.747602
O O16 0.650808 0.251595 0.000000
O O17 0.591847 0.265718 0.500000
O O18 0.582203 0.000000 0.368578
O O19 0.051951 0.000000 0.500000
O O20 0.000000 0.000000 0.710958
#
# Coordination Sequence:
#
# PCOD8198253 Si02
#       7
#     4   8   8   8   8   8   4
#     4   9  17  31  52  77 104 133 164 200 244 289
#     4   9  18  32  50  72  97 129 168 207 250 299
#     4   8  15  27  41  61  92 126 162 206 252 298
#     4  10  21  35  51  73 100 130 165 205 250 301
#     4  10  21  37  55  73  97 132 168 203 248 297
#     4  10  20  34  54  79 105 132 164 203 246 293
#     4   9  16  24  38  62  91 129 171 203 245 304
#
# _framework density 18.342624000000001
#
# number of rings (size 3 to 8) (size 9 to 14) (size 15 to 20)
#    0.000    2.667    0.000    2.750    1.167    5.333 
#    0.000    2.083    0.000    2.500    0.000    0.000 
#    0.000    1.333    0.000    3.667    0.000    3.667 
#
# Total GULP energy -594948.433058 kJ/mol
# GULP energy per Si atom -12394.759022 kJ/mol
# Density = 1.830088 g / cm^3
# Si number density = 18.342624 Si / 1000 Ang^3
#
#
#
# Elastic Constant Matrix: (Units=GPa)
#
#
# Indices 1 2 3 4 5 6 
#
# 1 119.9250 52.0805 42.0616 0.0000 0.0000 0.0000
# 2 52.0805 95.5408 24.0692 0.0000 0.0000 0.0000
# 3 42.0616 24.0692 43.0362 0.0000 0.0000 0.0000
# 4 0.0000 0.0000 0.0000 19.3120 0.0000 0.0000
# 5 0.0000 0.0000 0.0000 0.0000 -6.0484 0.0000
# 6 0.0000 0.0000 0.0000 0.0000 0.0000 37.4704
#
#
#
# Elastic Compliance Matrix: (Units=1/GPa)
#
#
# Indices 1 2 3 4 5 6 
#
# 1 0.014518 -0.005051 -0.011364 0.000000 0.000000 0.000000
# 2 -0.005051 0.013941 -0.002860 0.000000 0.000000 0.000000
# 3 -0.011364 -0.002860 0.035943 0.000000 0.000000 0.000000
# 4 0.000000 0.000000 0.000000 0.051781 0.000000 0.000000
# 5 0.000000 0.000000 0.000000 0.000000 -0.165332 0.000000
# 6 0.000000 0.000000 0.000000 0.000000 0.000000 0.026688
#
#
# Mechanical properties :
#
#
# Convention : Reuss Voigt Hill
#
# Bulk Modulus (GPa) = 38.68377 54.99162 46.83769
# Shear Modulus (GPa) = 202.38188 19.49950 110.94069
#
# Velocity S-wave (km/s) = 10.51540 3.26401 7.78548
# Velocity P-wave (km/s) = 12.98333 6.65209 10.31546
#
# Compressibility (1/GPa) = 0.02585063
#
# Stress axis : x y z
#
# Youngs Moduli (GPa) = 68.88078 71.73299 27.82209
#
# Poissons Ratio (x) = 0.36232 0.31618
# Poissons Ratio (y) = 0.34791 0.07957
# Poissons Ratio (z) = 0.78277 0.20516
#
# Static dielectric constant tensor:
#      x y z
#    x 3.114680 0.000000 0.000000 
#    y 0.000000 3.579640 0.000000 
#    z 0.000000 0.000000 3.033660 
# 
# 
# High freq. dielectric constant tensor:
#      x y z
#    x 1.713870 0.000000 0.000000 
#    y 0.000000 1.724250 0.000000 
#    z 0.000000 0.000000 1.661460 
# 
# From -- ./inp_files/13960.got.cif
#   From: 2010.03.12/outbox.cif.g09.slc.cpg/sg47_7_cif.got.tgz:13960.got - 2010.04.14 03:12:58.
