data_PCOD8198762
_publ_section_title
;
Structure prediction by ZEFSAII (Michael W. Deem and Ramdas Pophale) SiO2 
 PCOD8198762
Probable space group: P M M M
;
_chemical_formula_sum "Si O2"
_cell_formula_units_Z 40
_cell_length_a 28.798476
_cell_length_b 9.122174
_cell_length_c 7.750144
_cell_angle_alpha 90.000000
_cell_angle_beta 90.000000
_cell_angle_gamma 90.000000
_cell_volume 2035.999324
_symmetry_space_group_name_H-M "P M M M"
_symmetry_group_IT_number 47
_symmetry_cell_setting 'orthorhombic'
loop_
_space_group_symop_operation_xyz
x,y,z
-x,-y,z
x,-y,-z
-x,y,-z
-x,-y,-z
x,y,-z
-x,y,z
x,-y,z
loop_
_atom_site_type_symbol
_atom_site_label
_atom_site_fract_x
_atom_site_fract_y
_atom_site_fract_z
Si Si1 0.551747 0.328766 0.801192
Si Si2 0.947308 0.166978 0.202157
Si Si3 0.139731 0.330697 0.304993
Si Si4 0.806974 0.175068 0.000000
Si Si5 0.360356 0.831426 0.309425
Si Si6 0.701714 0.174292 0.000000
O O1 0.500000 0.282433 0.740604
O O2 0.558751 0.500000 0.772369
O O3 0.589804 0.245678 0.689789
O O4 0.558780 0.286364 0.000000
O O5 0.913406 0.275782 0.303020
O O6 0.000000 0.213480 0.244490
O O7 0.938556 0.000000 0.262340
O O8 0.937001 0.180537 0.000000
O O9 0.158998 0.311354 0.500000
O O10 0.141394 0.500000 0.248011
O O11 0.169853 0.234779 0.173825
O O12 0.754106 0.232608 0.000000
O O13 0.811199 0.000000 0.000000
O O14 0.338377 0.811759 0.500000
O O15 0.369251 0.000000 0.264647
O O16 0.324751 0.764094 0.169522
O O17 0.702767 0.000000 0.000000
#
# Coordination Sequence:
#
# PCOD8198762 Si02
#       6
#     8   8   8   4   8   4
#     4   9  18  33  53  78 110 149 189 225 266 320
#     4   9  18  34  58  88 120 155 196 239 283 334
#     4  11  24  40  59  87 123 158 192 234 289 350
#     4  11  23  41  66  89 110 145 196 247 294 345
#     4  10  20  35  57  84 112 142 180 225 276 335
#     4   9  20  39  60  83 110 140 178 232 292 335
#
# _framework density 19.646373000000001
#
# number of rings (size 3 to 8) (size 9 to 14) (size 15 to 20)
#    0.000    2.200    2.000    2.100    0.000    4.400 
#    0.000   10.000    0.000    0.000    0.000    0.000 
#    0.000    0.000    0.000    0.000    0.000    0.000 
#
# Total GULP energy -495979.282780 kJ/mol
# GULP energy per Si atom -12399.482069 kJ/mol
# Density = 1.960166 g / cm^3
# Si number density = 19.646373 Si / 1000 Ang^3
#
#
#
# Elastic Constant Matrix: (Units=GPa)
#
#
# Indices 1 2 3 4 5 6 
#
# 1 132.6925 45.6347 60.5191 0.0000 0.0000 0.0000
# 2 45.6347 72.2868 42.7878 0.0000 0.0000 0.0000
# 3 60.5191 42.7878 113.6614 0.0000 0.0000 0.0000
# 4 0.0000 0.0000 0.0000 23.7402 0.0000 0.0000
# 5 0.0000 0.0000 0.0000 0.0000 12.8403 0.0000
# 6 0.0000 0.0000 0.0000 0.0000 0.0000 2.8614
#
#
#
# Elastic Compliance Matrix: (Units=1/GPa)
#
#
# Indices 1 2 3 4 5 6 
#
# 1 0.010968 -0.004462 -0.004160 0.000000 0.000000 0.000000
# 2 -0.004462 0.019615 -0.005008 0.000000 0.000000 0.000000
# 3 -0.004160 -0.005008 0.012899 0.000000 0.000000 0.000000
# 4 0.000000 0.000000 0.000000 0.042123 0.000000 0.000000
# 5 0.000000 0.000000 0.000000 0.000000 0.077880 0.000000
# 6 0.000000 0.000000 0.000000 0.000000 0.000000 0.349478
#
#
# Mechanical properties :
#
#
# Convention : Reuss Voigt Hill
#
# Bulk Modulus (GPa) = 61.64895 68.50264 65.07579
# Shear Modulus (GPa) = 9.16372 19.20166 14.18269
#
# Velocity S-wave (km/s) = 2.16205 3.12967 2.68973
# Velocity P-wave (km/s) = 6.13841 6.92844 6.54536
#
# Compressibility (1/GPa) = 0.01622088
#
# Stress axis : x y z
#
# Youngs Moduli (GPa) = 91.17338 50.98146 77.52705
#
# Poissons Ratio (x) = 0.22746 0.32255
# Poissons Ratio (y) = 0.40677 0.38829
# Poissons Ratio (z) = 0.37932 0.25534
#
# Static dielectric constant tensor:
#      x y z
#    x 3.660910 0.000000 0.000000 
#    y 0.000000 3.382760 0.000000 
#    z 0.000000 0.000000 3.582500 
# 
# 
# High freq. dielectric constant tensor:
#      x y z
#    x 1.762040 0.000000 0.000000 
#    y 0.000000 1.747610 0.000000 
#    z 0.000000 0.000000 1.770590 
# 
# From -- ./inp_files/13035.got.cif
#   From: 2010.03.12/outbox.cif.g09.slc.cpg/sg47_7_cif.got.tgz:13035.got - 2010.04.14 03:12:58.
