data_PCOD8198581
_publ_section_title
;
Structure prediction by ZEFSAII (Michael W. Deem and Ramdas Pophale) SiO2 
 PCOD8198581
Probable space group: P M M M
;
_chemical_formula_sum "Si O2"
_cell_formula_units_Z 52
_cell_length_a 9.172732
_cell_length_b 28.173142
_cell_length_c 11.749770
_cell_angle_alpha 90.000000
_cell_angle_beta 90.000000
_cell_angle_gamma 90.000000
_cell_volume 3036.430566
_symmetry_space_group_name_H-M "P M M M"
_symmetry_group_IT_number 47
_symmetry_cell_setting 'orthorhombic'
loop_
_space_group_symop_operation_xyz
x,y,z
-x,-y,z
x,-y,-z
-x,y,-z
-x,-y,-z
x,y,-z
-x,y,z
x,-y,z
loop_
_atom_site_type_symbol
_atom_site_label
_atom_site_fract_x
_atom_site_fract_y
_atom_site_fract_z
Si Si1 0.835119 0.000000 0.864199
Si Si2 0.168763 0.183885 0.131171
Si Si3 0.664628 0.091550 0.135554
Si Si4 0.169830 0.632999 0.869452
Si Si5 0.327403 0.405300 0.500000
Si Si6 0.828836 0.275920 0.725654
Si Si7 0.672078 0.445806 0.263369
Si Si8 0.326816 0.296795 0.500000
O O1 0.752959 0.046438 0.816515
O O2 0.000000 0.000000 0.817750
O O3 0.834125 0.000000 0.000000
O O4 0.260834 0.139778 0.179806
O O5 0.212638 0.230509 0.199799
O O6 0.000000 0.170846 0.146332
O O7 0.206081 0.194097 0.000000
O O8 0.500000 0.089171 0.181981
O O9 0.667639 0.090592 0.000000
O O10 0.221810 0.677460 0.794144
O O11 0.255733 0.586029 0.833535
O O12 0.000000 0.623152 0.851930
O O13 0.206100 0.644789 0.000000
O O14 0.500000 0.408506 0.500000
O O15 0.266207 0.431237 0.612342
O O16 0.273753 0.351224 0.500000
O O17 0.738170 0.271274 0.610256
O O18 0.000000 0.277751 0.698309
O O19 0.500000 0.437844 0.258393
O O20 0.714761 0.500000 0.238952
O O21 0.500000 0.292054 0.500000
#
# Coordination Sequence:
#
# PCOD8198581 Si02
#       8
#     4   8   8   8   4   8   8   4
#     4   9  15  23  37  57  85 126 173 212 245 287
#     4   9  17  30  48  69  95 129 167 203 240 288
#     4   9  16  25  38  60  92 128 165 206 250 291
#     4  10  21  36  53  73  99 130 161 195 238 287
#     4   9  17  33  54  75  97 121 152 194 242 287
#     4  10  20  35  54  74  97 126 162 200 241 290
#     4  10  20  35  55  76  98 126 160 197 238 287
#     4  11  21  34  55  77  98 123 155 197 246 293
#
# _framework density 17.12537
#
# number of rings (size 3 to 8) (size 9 to 14) (size 15 to 20)
#    0.000    2.385    1.538    1.615    0.000    7.077 
#    0.000    1.923    0.000    3.692    0.000    0.000 
#    0.000    0.615    0.000    6.462    0.000    4.923 
#
# Total GULP energy -644898.543177 kJ/mol
# GULP energy per Si atom -12401.895061 kJ/mol
# Density = 1.708639 g / cm^3
# Si number density = 17.125370 Si / 1000 Ang^3
#
#
#
# Elastic Constant Matrix: (Units=GPa)
#
#
# Indices 1 2 3 4 5 6 
#
# 1 77.5908 65.8581 37.7783 0.0000 0.0000 0.0000
# 2 65.8581 144.4535 48.1812 0.0000 0.0000 0.0000
# 3 37.7783 48.1812 80.1985 0.0000 0.0000 0.0000
# 4 0.0000 0.0000 0.0000 9.1024 0.0000 0.0000
# 5 0.0000 0.0000 0.0000 0.0000 21.6377 0.0000
# 6 0.0000 0.0000 0.0000 0.0000 0.0000 29.9449
#
#
#
# Elastic Compliance Matrix: (Units=1/GPa)
#
#
# Indices 1 2 3 4 5 6 
#
# 1 0.022901 -0.008557 -0.005647 0.000000 0.000000 0.000000
# 2 -0.008557 0.011855 -0.003091 0.000000 0.000000 0.000000
# 3 -0.005647 -0.003091 0.016986 0.000000 0.000000 0.000000
# 4 0.000000 0.000000 0.000000 0.109862 0.000000 0.000000
# 5 0.000000 0.000000 0.000000 0.000000 0.046216 0.000000
# 6 0.000000 0.000000 0.000000 0.000000 0.000000 0.033395
#
#
# Mechanical properties :
#
#
# Convention : Reuss Voigt Hill
#
# Bulk Modulus (GPa) = 58.30359 67.31979 62.81169
# Shear Modulus (GPa) = 17.76064 22.16535 19.96299
#
# Velocity S-wave (km/s) = 3.22389 3.60154 3.41793
# Velocity P-wave (km/s) = 6.92654 7.52928 7.23419
#
# Compressibility (1/GPa) = 0.01715160
#
# Stress axis : x y z
#
# Youngs Moduli (GPa) = 43.66659 84.35194 58.87178
#
# Poissons Ratio (x) = 0.72183 0.33243
# Poissons Ratio (y) = 0.37367 0.18198
# Poissons Ratio (z) = 0.24657 0.26075
#
# Static dielectric constant tensor:
#      x y z
#    x 3.143900 0.000000 0.000000 
#    y 0.000000 3.298250 0.000000 
#    z 0.000000 0.000000 2.954910 
# 
# 
# High freq. dielectric constant tensor:
#      x y z
#    x 1.655780 0.000000 0.000000 
#    y 0.000000 1.668480 0.000000 
#    z 0.000000 0.000000 1.626200 
# 
# From -- ./inp_files/15551.got.cif
#   From: 2010.03.12/outbox.cif.g09.slc.cpg/sg47_8_cif.got.tgz:15551.got - 2010.04.14 03:12:58.
