data_PCOD8198048
_publ_section_title
;
Structure prediction by ZEFSAII (Michael W. Deem and Ramdas Pophale) SiO2 
 PCOD8198048
Probable space group: P M M M
;
_chemical_formula_sum "Si O2"
_cell_formula_units_Z 40
_cell_length_a 8.862799
_cell_length_b 14.995407
_cell_length_c 15.288368
_cell_angle_alpha 90.000000
_cell_angle_beta 90.000000
_cell_angle_gamma 90.000000
_cell_volume 2031.843648
_symmetry_space_group_name_H-M "P M M M"
_symmetry_group_IT_number 47
_symmetry_cell_setting 'orthorhombic'
loop_
_space_group_symop_operation_xyz
x,y,z
-x,-y,z
x,-y,-z
-x,y,-z
-x,-y,-z
x,y,-z
-x,y,z
x,-y,z
loop_
_atom_site_type_symbol
_atom_site_label
_atom_site_fract_x
_atom_site_fract_y
_atom_site_fract_z
Si Si1 0.322797 0.599279 0.716827
Si Si2 0.179321 0.102878 0.500000
Si Si3 0.671466 0.167904 0.830118
Si Si4 0.822580 0.772125 0.657353
Si Si5 0.835162 0.000000 0.899564
Si Si6 0.328434 0.354722 0.094567
O O1 0.500000 0.621906 0.721466
O O2 0.292422 0.500000 0.679408
O O3 0.248590 0.672189 0.652276
O O4 0.255036 0.603947 0.816726
O O5 0.237798 0.159908 0.583128
O O6 0.000000 0.097077 0.500000
O O7 0.242946 0.000000 0.500000
O O8 0.500000 0.153579 0.797738
O O9 0.778837 0.184429 0.748267
O O10 0.733107 0.083186 0.878230
O O11 0.680867 0.248227 0.898714
O O12 0.000000 0.760047 0.648519
O O13 0.000000 0.000000 0.851096
O O14 0.871191 0.000000 0.000000
O O15 0.500000 0.388013 0.090890
O O16 0.252291 0.382137 0.000000
#
# Coordination Sequence:
#
# PCOD8198048 Si02
#       6
#     8   4   8   8   4   8
#     4   9  18  33  53  78 111 148 184 227 277 327
#     4   9  20  38  60  85 110 138 174 222 281 344
#     4  10  20  34  52  75 107 144 182 223 275 335
#     4  10  20  36  59  83 108 140 178 225 280 339
#     4  11  23  35  49  74 107 144 189 235 276 321
#     4   8  14  26  46  72 101 135 178 224 264 305
#
# _framework density 19.686554000000001
#
# number of rings (size 3 to 8) (size 9 to 14) (size 15 to 20)
#    0.000    2.600    0.000    3.300    1.400    2.400 
#    0.000    4.500    0.000   10.800    0.000    5.600 
#    0.000    0.000    0.000    0.000    0.000    0.000 
#
# Total GULP energy -495538.396046 kJ/mol
# GULP energy per Si atom -12388.459901 kJ/mol
# Density = 1.964175 g / cm^3
# Si number density = 19.686554 Si / 1000 Ang^3
#
#
#
# Elastic Constant Matrix: (Units=GPa)
#
#
# Indices 1 2 3 4 5 6 
#
# 1 46.1847 39.1123 13.5424 0.0000 0.0000 0.0000
# 2 39.1123 148.6694 43.1825 0.0000 0.0000 0.0000
# 3 13.5424 43.1825 84.5084 0.0000 0.0000 0.0000
# 4 0.0000 0.0000 0.0000 42.8643 0.0000 0.0000
# 5 0.0000 0.0000 0.0000 0.0000 18.8458 0.0000
# 6 0.0000 0.0000 0.0000 0.0000 0.0000 28.0905
#
#
#
# Elastic Compliance Matrix: (Units=1/GPa)
#
#
# Indices 1 2 3 4 5 6 
#
# 1 0.027911 -0.007097 -0.000846 0.000000 0.000000 0.000000
# 2 -0.007097 0.009703 -0.003821 0.000000 0.000000 0.000000
# 3 -0.000846 -0.003821 0.013921 0.000000 0.000000 0.000000
# 4 0.000000 0.000000 0.000000 0.023329 0.000000 0.000000
# 5 0.000000 0.000000 0.000000 0.000000 0.053062 0.000000
# 6 0.000000 0.000000 0.000000 0.000000 0.000000 0.035599
#
#
# Mechanical properties :
#
#
# Convention : Reuss Voigt Hill
#
# Bulk Modulus (GPa) = 35.70564 52.33742 44.02153
# Shear Modulus (GPa) = 25.45960 30.19515 27.82737
#
# Velocity S-wave (km/s) = 3.60008 3.92062 3.76376
# Velocity P-wave (km/s) = 5.95459 6.86572 6.42632
#
# Compressibility (1/GPa) = 0.02800678
#
# Stress axis : x y z
#
# Youngs Moduli (GPa) = 35.82876 103.05825 71.83301
#
# Poissons Ratio (x) = 0.73140 0.06078
# Poissons Ratio (y) = 0.25428 0.27447
# Poissons Ratio (z) = 0.03032 0.39378
#
# Static dielectric constant tensor:
#      x y z
#    x 3.322010 0.000000 0.000000 
#    y 0.000000 3.781920 0.000000 
#    z 0.000000 0.000000 3.584800 
# 
# 
# High freq. dielectric constant tensor:
#      x y z
#    x 1.732520 0.000000 0.000000 
#    y 0.000000 1.778910 0.000000 
#    z 0.000000 0.000000 1.753770 
# 
# From -- ./inp_files/5786.got.cif
#   From: 2010.03.12/outbox.cif.g09.slc.cpg/sg47_3_cif.got.tgz:5786.got - 2010.04.14 03:12:58.
