data_PCOD8198780
_publ_section_title
;
Structure prediction by ZEFSAII (Michael W. Deem and Ramdas Pophale) SiO2 
 PCOD8198780
Probable space group: P M M M
;
_chemical_formula_sum "Si O2"
_cell_formula_units_Z 32
_cell_length_a 12.216059
_cell_length_b 15.442177
_cell_length_c 8.516429
_cell_angle_alpha 90.000000
_cell_angle_beta 90.000000
_cell_angle_gamma 90.000000
_cell_volume 1606.560844
_symmetry_space_group_name_H-M "P M M M"
_symmetry_group_IT_number 47
_symmetry_cell_setting 'orthorhombic'
loop_
_space_group_symop_operation_xyz
x,y,z
-x,-y,z
x,-y,-z
-x,y,-z
-x,-y,-z
x,y,-z
-x,y,z
x,-y,z
loop_
_atom_site_type_symbol
_atom_site_label
_atom_site_fract_x
_atom_site_fract_y
_atom_site_fract_z
Si Si1 0.500000 0.902660 0.812948
Si Si2 0.000000 0.600250 0.173792
Si Si3 0.624570 0.500000 0.313190
Si Si4 0.124037 0.000000 0.812665
Si Si5 0.270143 0.158234 0.814821
Si Si6 0.776213 0.344041 0.315927
O O1 0.608281 0.856538 0.745250
O O2 0.500000 0.000000 0.750620
O O3 0.500000 0.900354 0.000000
O O4 0.896415 0.623630 0.277940
O O5 0.000000 0.500000 0.142600
O O6 0.000000 0.645868 0.000000
O O7 0.500000 0.500000 0.248139
O O8 0.625771 0.500000 0.500000
O O9 0.687236 0.413888 0.252305
O O10 0.186033 0.085876 0.748281
O O11 0.000000 0.000000 0.746771
O O12 0.122752 0.000000 0.000000
O O13 0.235283 0.253728 0.770800
O O14 0.272721 0.147877 0.000000
O O15 0.761762 0.330347 0.500000
#
# Coordination Sequence:
#
# PCOD8198780 Si02
#       6
#     4   4   4   4   8   8
#     4   9  16  32  57  82 111 152 202 250 292 344
#     4  11  23  41  65  88 115 148 193 247 294 346
#     4   9  20  39  59  80 114 161 200 229 276 347
#     4   9  18  33  54  80 111 149 193 237 288 348
#     4  10  20  35  57  84 114 151 197 245 292 344
#     4  11  23  39  61  87 119 156 195 239 292 351
#
# _framework density 19.918323999999998
#
# number of rings (size 3 to 8) (size 9 to 14) (size 15 to 20)
#    0.000    2.000    2.500    1.125    3.500    0.500 
#    0.000    0.625    0.000    4.500    0.000    0.000 
#    0.000    0.000    0.000    0.000    0.000    0.000 
#
# Total GULP energy -396723.930017 kJ/mol
# GULP energy per Si atom -12397.622813 kJ/mol
# Density = 1.987299 g / cm^3
# Si number density = 19.918324 Si / 1000 Ang^3
#
#
#
# Elastic Constant Matrix: (Units=GPa)
#
#
# Indices 1 2 3 4 5 6 
#
# 1 190.5551 73.6841 5.6693 0.0000 0.0000 0.0000
# 2 73.6841 144.2536 -5.6678 0.0000 0.0000 0.0000
# 3 5.6693 -5.6678 4.4444 0.0000 0.0000 0.0000
# 4 0.0000 0.0000 0.0000 10.5472 0.0000 0.0000
# 5 0.0000 0.0000 0.0000 0.0000 16.4936 0.0000
# 6 0.0000 0.0000 0.0000 0.0000 0.0000 14.1261
#
#
#
# Elastic Compliance Matrix: (Units=1/GPa)
#
#
# Indices 1 2 3 4 5 6 
#
# 1 0.007378 -0.004357 -0.014967 0.000000 0.000000 0.000000
# 2 -0.004357 0.009870 0.018145 0.000000 0.000000 0.000000
# 3 -0.014967 0.018145 0.267232 0.000000 0.000000 0.000000
# 4 0.000000 0.000000 0.000000 0.094812 0.000000 0.000000
# 5 0.000000 0.000000 0.000000 0.000000 0.060629 0.000000
# 6 0.000000 0.000000 0.000000 0.000000 0.000000 0.070791
#
#
# Mechanical properties :
#
#
# Convention : Reuss Voigt Hill
#
# Bulk Modulus (GPa) = 3.54456 54.06935 28.80695
# Shear Modulus (GPa) = 8.23573 25.93789 17.08681
#
# Velocity S-wave (km/s) = 2.03562 3.61253 2.93207
# Velocity P-wave (km/s) = 2.70340 6.67870 5.09477
#
# Compressibility (1/GPa) = 0.28212263
#
# Stress axis : x y z
#
# Youngs Moduli (GPa) = 135.54360 101.31241 3.74207
#
# Poissons Ratio (x) = 0.44137 0.05601
# Poissons Ratio (y) = 0.59050 -0.06790
# Poissons Ratio (z) = 2.02864 -1.83828
#
# Static dielectric constant tensor:
#      x y z
#    x 4.016910 0.000000 0.000000 
#    y 0.000000 3.744510 0.000000 
#    z 0.000000 0.000000 3.184880 
# 
# 
# High freq. dielectric constant tensor:
#      x y z
#    x 1.795830 0.000000 0.000000 
#    y 0.000000 1.786460 0.000000 
#    z 0.000000 0.000000 1.733790 
# 
# From -- ./inp_files/3467.got.cif
#   From: 2010.03.12/outbox.cif.g09.slc.cpg/sg47_2_cif.got.tgz:3467.got - 2010.04.14 03:12:58.
