data_PCOD8198905
_publ_section_title
;
Structure prediction by ZEFSAII (Michael W. Deem and Ramdas Pophale) SiO2 
 PCOD8198905
Probable space group: P M M M
;
_chemical_formula_sum "Si O2"
_cell_formula_units_Z 48
_cell_length_a 15.799971
_cell_length_b 16.773828
_cell_length_c 9.124276
_cell_angle_alpha 90.000000
_cell_angle_beta 90.000000
_cell_angle_gamma 90.000000
_cell_volume 2418.170334
_symmetry_space_group_name_H-M "P M M M"
_symmetry_group_IT_number 47
_symmetry_cell_setting 'orthorhombic'
loop_
_space_group_symop_operation_xyz
x,y,z
-x,-y,z
x,-y,-z
-x,y,-z
-x,-y,-z
x,y,-z
-x,y,z
x,-y,z
loop_
_atom_site_type_symbol
_atom_site_label
_atom_site_fract_x
_atom_site_fract_y
_atom_site_fract_z
Si Si1 0.000000 0.589901 0.325898
Si Si2 0.164769 0.685207 0.673685
Si Si3 0.342300 0.000000 0.672406
Si Si4 0.167914 0.000000 0.831868
Si Si5 0.596302 0.848959 0.835465
Si Si6 0.500000 0.409499 0.174147
Si Si7 0.096983 0.830303 0.832207
Si Si8 0.333729 0.319511 0.827839
O O1 0.915320 0.633875 0.269098
O O2 0.000000 0.500000 0.264031
O O3 0.000000 0.590140 0.500000
O O4 0.172746 0.683196 0.500000
O O5 0.154031 0.776154 0.727074
O O6 0.250458 0.649414 0.743405
O O7 0.390260 0.078492 0.726135
O O8 0.344327 0.000000 0.500000
O O9 0.247150 0.000000 0.726421
O O10 0.111901 0.922841 0.796739
O O11 0.198900 0.000000 0.000000
O O12 0.500000 0.818894 0.826557
O O13 0.655059 0.774340 0.793779
O O14 0.617984 0.878261 0.000000
O O15 0.500000 0.500000 0.230513
O O16 0.584833 0.366957 0.233859
O O17 0.500000 0.403872 0.000000
O O18 0.000000 0.810465 0.800067
O O19 0.121351 0.811085 0.000000
O O20 0.321908 0.335164 0.000000
#
# Coordination Sequence:
#
# PCOD8198905 Si02
#       8
#     4   8   4   4   8   4   8   8
#     4   9  20  40  61  80 111 156 198 233 277 343
#     4  11  22  37  59  87 117 154 196 238 288 344
#     4  12  25  36  49  78 115 148 187 241 293 331
#     4  10  21  37  55  78 109 151 195 231 275 341
#     4  10  20  37  59  79 105 149 198 234 273 338
#     4   9  18  36  63  92 121 150 184 235 297 351
#     4  10  20  36  59  84 112 147 191 241 287 334
#     4  10  20  37  61  89 118 152 193 236 285 346
#
# _framework density 19.849719
#
# number of rings (size 3 to 8) (size 9 to 14) (size 15 to 20)
#    0.000    1.833    1.667    2.750    0.000    8.333 
#    0.000    0.417    0.000    5.500    0.000    0.000 
#    0.000    0.000    0.000    0.000    0.000    0.000 
#
# Total GULP energy -595329.287848 kJ/mol
# GULP energy per Si atom -12402.693497 kJ/mol
# Density = 1.980454 g / cm^3
# Si number density = 19.849719 Si / 1000 Ang^3
#
#
#
# Elastic Constant Matrix: (Units=GPa)
#
#
# Indices 1 2 3 4 5 6 
#
# 1 151.3776 57.5823 48.0615 0.0000 0.0000 0.0000
# 2 57.5823 113.4672 42.4664 0.0000 0.0000 0.0000
# 3 48.0615 42.4664 74.7388 0.0000 0.0000 0.0000
# 4 0.0000 0.0000 0.0000 11.3732 0.0000 0.0000
# 5 0.0000 0.0000 0.0000 0.0000 24.0415 0.0000
# 6 0.0000 0.0000 0.0000 0.0000 0.0000 23.4548
#
#
#
# Elastic Compliance Matrix: (Units=1/GPa)
#
#
# Indices 1 2 3 4 5 6 
#
# 1 0.009073 -0.003075 -0.004088 0.000000 0.000000 0.000000
# 2 -0.003075 0.012235 -0.004975 0.000000 0.000000 0.000000
# 3 -0.004088 -0.004975 0.018835 0.000000 0.000000 0.000000
# 4 0.000000 0.000000 0.000000 0.087926 0.000000 0.000000
# 5 0.000000 0.000000 0.000000 0.000000 0.041595 0.000000
# 6 0.000000 0.000000 0.000000 0.000000 0.000000 0.042635
#
#
# Mechanical properties :
#
#
# Convention : Reuss Voigt Hill
#
# Bulk Modulus (GPa) = 63.01406 70.64488 66.82947
# Shear Modulus (GPa) = 20.67274 24.53879 22.60577
#
# Velocity S-wave (km/s) = 3.23067 3.51982 3.37834
# Velocity P-wave (km/s) = 6.76246 7.22399 6.99703
#
# Compressibility (1/GPa) = 0.01586947
#
# Stress axis : x y z
#
# Youngs Moduli (GPa) = 110.21230 81.73020 53.09181
#
# Poissons Ratio (x) = 0.25130 0.21702
# Poissons Ratio (y) = 0.33887 0.26413
# Poissons Ratio (z) = 0.45052 0.40660
#
# Static dielectric constant tensor:
#      x y z
#    x 3.781120 0.000000 0.000000 
#    y 0.000000 3.670290 0.000000 
#    z 0.000000 0.000000 3.297970 
# 
# 
# High freq. dielectric constant tensor:
#      x y z
#    x 1.790930 0.000000 0.000000 
#    y 0.000000 1.772770 0.000000 
#    z 0.000000 0.000000 1.742180 
# 
# From -- ./inp_files/6589.got.cif
#   From: 2010.03.12/outbox.cif.g09.slc.cpg/sg47_4_cif.got.tgz:6589.got - 2010.04.14 03:12:58.
