data_PCOD8198480
_publ_section_title
;
Structure prediction by ZEFSAII (Michael W. Deem and Ramdas Pophale) SiO2 
 PCOD8198480
Probable space group: P M M M
;
_chemical_formula_sum "Si O2"
_cell_formula_units_Z 48
_cell_length_a 8.932194
_cell_length_b 30.854773
_cell_length_c 8.966750
_cell_angle_alpha 90.000000
_cell_angle_beta 90.000000
_cell_angle_gamma 90.000000
_cell_volume 2471.243637
_symmetry_space_group_name_H-M "P M M M"
_symmetry_group_IT_number 47
_symmetry_cell_setting 'orthorhombic'
loop_
_space_group_symop_operation_xyz
x,y,z
-x,-y,z
x,-y,-z
-x,y,-z
-x,-y,-z
x,y,-z
-x,y,z
x,-y,z
loop_
_atom_site_type_symbol
_atom_site_label
_atom_site_fract_x
_atom_site_fract_y
_atom_site_fract_z
Si Si1 0.167381 0.000000 0.675525
Si Si2 0.677078 0.921656 0.831434
Si Si3 0.174768 0.418825 0.825805
Si Si4 0.827357 0.259128 0.824632
Si Si5 0.665614 0.826258 0.823294
Si Si6 0.322961 0.500000 0.329286
Si Si7 0.674035 0.661736 0.325120
O O1 0.249419 0.956869 0.726967
O O2 0.167448 0.000000 0.500000
O O3 0.000000 0.000000 0.740512
O O4 0.500000 0.927266 0.826307
O O5 0.721329 0.873697 0.769738
O O6 0.735506 0.928372 0.000000
O O7 0.262460 0.457521 0.749462
O O8 0.227907 0.373644 0.759158
O O9 0.000000 0.424765 0.794294
O O10 0.210870 0.419311 0.000000
O O11 0.781786 0.210742 0.773086
O O12 0.723996 0.291559 0.732609
O O13 0.000000 0.266877 0.784056
O O14 0.798195 0.266067 0.000000
O O15 0.500000 0.815781 0.758063
O O16 0.653594 0.828217 0.000000
O O17 0.500000 0.500000 0.317045
O O18 0.269456 0.500000 0.500000
O O19 0.705294 0.658041 0.500000
O O20 0.500000 0.654490 0.288384
#
# Coordination Sequence:
#
# PCOD8198480 Si02
#       7
#     4   8   8   8   8   4   8
#     4  11  24  37  48  70 106 143 178 217 264 320
#     4   9  18  34  57  82 104 131 174 223 268 320
#     4  11  24  41  62  89 118 149 189 234 280 332
#     4  10  20  34  55  84 114 144 180 221 268 325
#     4   8  15  30  53  80 108 137 172 218 269 319
#     4  11  24  41  62  90 122 155 192 231 274 328
#     4  11  24  40  58  82 112 148 191 234 276 326
#
# _framework density 19.423418000000002
#
# number of rings (size 3 to 8) (size 9 to 14) (size 15 to 20)
#    0.000    2.000    0.000    4.500    0.000   12.000 
#    0.000    2.500    0.000    1.000    0.000    0.000 
#    0.000    0.000    0.000    0.000    0.000    0.000 
#
# Total GULP energy -595265.905825 kJ/mol
# GULP energy per Si atom -12401.373038 kJ/mol
# Density = 1.937921 g / cm^3
# Si number density = 19.423418 Si / 1000 Ang^3
#
#
#
# Elastic Constant Matrix: (Units=GPa)
#
#
# Indices 1 2 3 4 5 6 
#
# 1 55.4399 35.4249 44.5197 0.0000 0.0000 0.0000
# 2 35.4249 134.2965 44.2837 0.0000 0.0000 0.0000
# 3 44.5197 44.2837 76.5569 0.0000 0.0000 0.0000
# 4 0.0000 0.0000 0.0000 35.2068 0.0000 0.0000
# 5 0.0000 0.0000 0.0000 0.0000 27.2241 0.0000
# 6 0.0000 0.0000 0.0000 0.0000 0.0000 -164.6659
#
#
#
# Elastic Compliance Matrix: (Units=1/GPa)
#
#
# Indices 1 2 3 4 5 6 
#
# 1 0.034856 -0.003102 -0.018475 0.000000 0.000000 0.000000
# 2 -0.003102 0.009477 -0.003678 0.000000 0.000000 0.000000
# 3 -0.018475 -0.003678 0.025933 0.000000 0.000000 0.000000
# 4 0.000000 0.000000 0.000000 0.028404 0.000000 0.000000
# 5 0.000000 0.000000 0.000000 0.000000 0.036732 0.000000
# 6 0.000000 0.000000 0.000000 0.000000 0.000000 -0.006073
#
#
# Mechanical properties :
#
#
# Convention : Reuss Voigt Hill
#
# Bulk Modulus (GPa) = 50.61788 57.19443 53.90615
# Shear Modulus (GPa) = 26.82043 -10.97599 7.92222
#
# Velocity S-wave (km/s) = 3.71998 -2.37974 2.02177
# Velocity P-wave (km/s) = 6.67591 4.68606 5.76745
#
# Compressibility (1/GPa) = 0.01975586
#
# Stress axis : x y z
#
# Youngs Moduli (GPa) = 28.68973 105.51479 38.56035
#
# Poissons Ratio (x) = 0.32733 0.71240
# Poissons Ratio (y) = 0.08900 0.14183
# Poissons Ratio (z) = 0.53004 0.38809
#
# Static dielectric constant tensor:
#      x y z
#    x 3.624000 0.000000 0.000000 
#    y 0.000000 3.988720 0.000000 
#    z 0.000000 0.000000 3.419130 
# 
# 
# High freq. dielectric constant tensor:
#      x y z
#    x 1.761050 0.000000 0.000000 
#    y 0.000000 1.776440 0.000000 
#    z 0.000000 0.000000 1.738570 
# 
# From -- ./inp_files/2631.got.cif
#   From: 2010.03.12/outbox.cif.g09.slc.cpg/sg47_2_cif.got.tgz:2631.got - 2010.04.14 03:12:58.
