data_PCOD8198334
_publ_section_title
;
Structure prediction by ZEFSAII (Michael W. Deem and Ramdas Pophale) SiO2 
 PCOD8198334
Probable space group: P M M M
;
_chemical_formula_sum "Si O2"
_cell_formula_units_Z 52
_cell_length_a 19.343276
_cell_length_b 9.079546
_cell_length_c 15.738049
_cell_angle_alpha 90.000000
_cell_angle_beta 90.000000
_cell_angle_gamma 90.000000
_cell_volume 2764.044654
_symmetry_space_group_name_H-M "P M M M"
_symmetry_group_IT_number 47
_symmetry_cell_setting 'orthorhombic'
loop_
_space_group_symop_operation_xyz
x,y,z
-x,-y,z
x,-y,-z
-x,y,-z
-x,-y,-z
x,y,-z
-x,y,z
x,-y,z
loop_
_atom_site_type_symbol
_atom_site_label
_atom_site_fract_x
_atom_site_fract_y
_atom_site_fract_z
Si Si1 0.421760 0.329180 0.668185
Si Si2 0.923023 0.830029 0.166402
Si Si3 0.299418 0.829830 0.405850
Si Si4 0.784936 0.829604 0.756148
Si Si5 0.705225 0.329545 0.905731
Si Si6 0.917944 0.336298 0.000000
Si Si7 0.578261 0.172507 0.845397
O O1 0.500000 0.306235 0.635031
O O2 0.407009 0.500000 0.686910
O O3 0.368890 0.267557 0.598431
O O4 0.407607 0.236260 0.752374
O O5 0.868195 0.803526 0.242616
O O6 0.000000 0.774826 0.193893
O O7 0.926564 0.000000 0.140541
O O8 0.893048 0.745323 0.084675
O O9 0.267320 0.806245 0.500000
O O10 0.243779 0.776825 0.335231
O O11 0.319164 0.000000 0.391559
O O12 0.752067 0.740520 0.833252
O O13 0.767142 0.000000 0.771464
O O14 0.694998 0.500000 0.884013
O O15 0.630136 0.252319 0.909450
O O16 0.738661 0.308944 0.000000
O O17 0.885808 0.500000 0.000000
O O18 0.000000 0.340600 0.000000
O O19 0.500000 0.204518 0.875270
O O20 0.594073 0.000000 0.843162
#
# Coordination Sequence:
#
# PCOD8198334 Si02
#       7
#     8   8   8   8   8   4   8
#     4  10  20  34  54  80 109 140 176 222 275 327
#     4   9  18  33  53  77 106 141 182 223 264 316
#     4  10  21  37  57  81 108 140 181 227 274 326
#     4  10  21  37  57  79 106 144 183 222 271 325
#     4  11  24  38  53  78 111 146 184 228 274 319
#     4   9  17  29  47  75 109 141 174 213 260 313
#     4  10  20  35  56  79 105 141 185 229 272 320
#
# _framework density 18.813009999999998
#
# number of rings (size 3 to 8) (size 9 to 14) (size 15 to 20)
#    0.000    2.077    1.538    1.615    1.077    5.538 
#    0.000    3.077    0.000    0.462    0.000    3.231 
#    0.000    0.000    0.000    6.615    0.000    7.077 
#
# Total GULP energy -644675.142780 kJ/mol
# GULP energy per Si atom -12397.598900 kJ/mol
# Density = 1.877019 g / cm^3
# Si number density = 18.813010 Si / 1000 Ang^3
#
#
#
# Elastic Constant Matrix: (Units=GPa)
#
#
# Indices 1 2 3 4 5 6 
#
# 1 104.0840 39.8681 62.4864 0.0000 0.0000 0.0000
# 2 39.8681 82.7910 43.3574 0.0000 0.0000 0.0000
# 3 62.4864 43.3574 118.2196 0.0000 0.0000 0.0000
# 4 0.0000 0.0000 0.0000 16.2672 0.0000 0.0000
# 5 0.0000 0.0000 0.0000 0.0000 20.2701 0.0000
# 6 0.0000 0.0000 0.0000 0.0000 0.0000 17.8429
#
#
#
# Elastic Compliance Matrix: (Units=1/GPa)
#
#
# Indices 1 2 3 4 5 6 
#
# 1 0.014979 -0.003796 -0.006525 0.000000 0.000000 0.000000
# 2 -0.003796 0.015912 -0.003829 0.000000 0.000000 0.000000
# 3 -0.006525 -0.003829 0.013312 0.000000 0.000000 0.000000
# 4 0.000000 0.000000 0.000000 0.061474 0.000000 0.000000
# 5 0.000000 0.000000 0.000000 0.000000 0.049334 0.000000
# 6 0.000000 0.000000 0.000000 0.000000 0.000000 0.056045
#
#
# Mechanical properties :
#
#
# Convention : Reuss Voigt Hill
#
# Bulk Modulus (GPa) = 62.88422 66.27981 64.58202
# Shear Modulus (GPa) = 20.43680 21.50156 20.96918
#
# Velocity S-wave (km/s) = 3.29950 3.38436 3.34220
# Velocity P-wave (km/s) = 6.92922 7.11190 7.02116
#
# Compressibility (1/GPa) = 0.01590224
#
# Stress axis : x y z
#
# Youngs Moduli (GPa) = 66.76036 62.84581 75.11904
#
# Poissons Ratio (x) = 0.23856 0.49016
# Poissons Ratio (y) = 0.25342 0.28766
# Poissons Ratio (z) = 0.43562 0.24066
#
# Static dielectric constant tensor:
#      x y z
#    x 3.640960 0.000000 0.000000 
#    y 0.000000 3.515480 0.000000 
#    z 0.000000 0.000000 3.306940 
# 
# 
# High freq. dielectric constant tensor:
#      x y z
#    x 1.729520 0.000000 0.000000 
#    y 0.000000 1.734510 0.000000 
#    z 0.000000 0.000000 1.706770 
# 
# From -- ./inp_files/24985.got.cif
#   From: 2010.03.12/outbox.cif.g09.slc.cpg/sg47_13_cif.got.tgz:24985.got - 2010.04.14 03:12:58.
