data_PCOD8198707
_publ_section_title
;
Structure prediction by ZEFSAII (Michael W. Deem and Ramdas Pophale) SiO2 
 PCOD8198707
Probable space group: P M M M
;
_chemical_formula_sum "Si O2"
_cell_formula_units_Z 44
_cell_length_a 8.935318
_cell_length_b 29.072389
_cell_length_c 9.381711
_cell_angle_alpha 90.000000
_cell_angle_beta 90.000000
_cell_angle_gamma 90.000000
_cell_volume 2437.096830
_symmetry_space_group_name_H-M "P M M M"
_symmetry_group_IT_number 47
_symmetry_cell_setting 'orthorhombic'
loop_
_space_group_symop_operation_xyz
x,y,z
-x,-y,z
x,-y,-z
-x,y,-z
-x,-y,-z
x,y,-z
-x,y,z
x,-y,z
loop_
_atom_site_type_symbol
_atom_site_label
_atom_site_fract_x
_atom_site_fract_y
_atom_site_fract_z
Si Si1 0.176362 0.500000 0.833992
Si Si2 0.831888 0.675141 0.330807
Si Si3 0.320936 0.147006 0.839519
Si Si4 0.667858 0.951296 0.169465
Si Si5 0.675957 0.582314 0.665760
Si Si6 0.325696 0.766353 0.666116
O O1 0.243829 0.455290 0.760873
O O2 0.000000 0.500000 0.810455
O O3 0.219493 0.500000 0.000000
O O4 0.831748 0.677502 0.500000
O O5 0.734207 0.631747 0.280781
O O6 0.758699 0.721854 0.270648
O O7 0.000000 0.670197 0.270811
O O8 0.500000 0.144817 0.835054
O O9 0.257569 0.097288 0.780524
O O10 0.260183 0.188202 0.741765
O O11 0.264706 0.156287 0.000000
O O12 0.500000 0.953503 0.230436
O O13 0.749027 0.000000 0.216074
O O14 0.661965 0.948658 0.000000
O O15 0.715965 0.573837 0.500000
O O16 0.500000 0.579647 0.691144
O O17 0.294561 0.772473 0.500000
O O18 0.500000 0.759539 0.699061
#
# Coordination Sequence:
#
# PCOD8198707 Si02
#       6
#     4   8   8   8   8   8
#     4  11  24  39  54  76 108 141 168 195 232 278
#     4   9  17  30  49  71  93 119 153 191 228 268
#     4   8  13  21  34  53  77 106 140 175 212 259
#     4   7   9  14  26  45  69  98 133 171 208 249
#     4  10  20  35  57  82 103 126 162 204 241 279
#     4   9  16  26  41  61  85 112 142 178 220 264
#
# _framework density 18.054268
#
# number of rings (size 3 to 8) (size 9 to 14) (size 15 to 20)
#    0.000    3.182    0.000    3.273    0.000    5.091 
#    0.000    0.909    0.000    4.364    0.000    3.818 
#    0.000    0.727    0.000    9.091    0.000    8.364 
#
# Total GULP energy -545084.373810 kJ/mol
# GULP energy per Si atom -12388.281223 kJ/mol
# Density = 1.801318 g / cm^3
# Si number density = 18.054268 Si / 1000 Ang^3
#
#
#
# Elastic Constant Matrix: (Units=GPa)
#
#
# Indices 1 2 3 4 5 6 
#
# 1 58.8151 55.2983 32.3706 0.0000 0.0000 0.0000
# 2 55.2983 217.2543 62.3508 0.0000 0.0000 0.0000
# 3 32.3706 62.3508 49.2363 0.0000 0.0000 0.0000
# 4 0.0000 0.0000 0.0000 48.5434 0.0000 0.0000
# 5 0.0000 0.0000 0.0000 0.0000 12.6538 0.0000
# 6 0.0000 0.0000 0.0000 0.0000 0.0000 -1.4465
#
#
#
# Elastic Compliance Matrix: (Units=1/GPa)
#
#
# Indices 1 2 3 4 5 6 
#
# 1 0.027737 -0.002869 -0.014602 0.000000 0.000000 0.000000
# 2 -0.002869 0.007528 -0.007646 0.000000 0.000000 0.000000
# 3 -0.014602 -0.007646 0.039594 0.000000 0.000000 0.000000
# 4 0.000000 0.000000 0.000000 0.020600 0.000000 0.000000
# 5 0.000000 0.000000 0.000000 0.000000 0.079027 0.000000
# 6 0.000000 0.000000 0.000000 0.000000 0.000000 -0.691304
#
#
# Mechanical properties :
#
#
# Convention : Reuss Voigt Hill
#
# Bulk Modulus (GPa) = 40.61340 69.48280 55.04810
# Shear Modulus (GPa) = -10.90809 23.63586 6.36388
#
# Velocity S-wave (km/s) = -2.46068 3.62215 1.87950
# Velocity P-wave (km/s) = 3.80404 7.48748 5.93857
#
# Compressibility (1/GPa) = 0.02462242
#
# Stress axis : x y z
#
# Youngs Moduli (GPa) = 36.05318 132.84325 25.25655
#
# Poissons Ratio (x) = 0.38114 0.36880
# Poissons Ratio (y) = 0.10344 0.19312
# Poissons Ratio (z) = 0.52646 1.01577
#
# Static dielectric constant tensor:
#      x y z
#    x 3.034330 0.000000 0.000000 
#    y 0.000000 3.333340 0.000000 
#    z 0.000000 0.000000 2.983030 
# 
# 
# High freq. dielectric constant tensor:
#      x y z
#    x 1.658510 0.000000 0.000000 
#    y 0.000000 1.732310 0.000000 
#    z 0.000000 0.000000 1.649340 
# 
# From -- ./inp_files/2212.got.cif
#   From: 2010.03.12/outbox.cif.g09.slc.cpg/sg47_2_cif.got.tgz:2212.got - 2010.04.14 03:12:58.
