data_PCOD8198019
_publ_section_title
;
Structure prediction by ZEFSAII (Michael W. Deem and Ramdas Pophale) SiO2 
 PCOD8198019
Probable space group: P M M M
;
_chemical_formula_sum "Si O2"
_cell_formula_units_Z 64
_cell_length_a 8.731471
_cell_length_b 19.616598
_cell_length_c 19.322508
_cell_angle_alpha 90.000000
_cell_angle_beta 90.000000
_cell_angle_gamma 90.000000
_cell_volume 3309.593111
_symmetry_space_group_name_H-M "P M M M"
_symmetry_group_IT_number 47
_symmetry_cell_setting 'orthorhombic'
loop_
_space_group_symop_operation_xyz
x,y,z
-x,-y,z
x,-y,-z
-x,y,-z
-x,-y,-z
x,y,-z
-x,y,z
x,-y,z
loop_
_atom_site_type_symbol
_atom_site_label
_atom_site_fract_x
_atom_site_fract_y
_atom_site_fract_z
Si Si1 0.175351 0.606787 0.076766
Si Si2 0.677549 0.248495 0.923142
Si Si3 0.829896 0.919403 0.575207
Si Si4 0.675838 0.079274 0.711723
Si Si5 0.176270 0.674501 0.698262
Si Si6 0.819852 0.198682 0.213687
Si Si7 0.670104 0.425736 0.207206
Si Si8 0.817735 0.577436 0.578418
O O1 0.216785 0.685801 0.080527
O O2 0.287066 0.565242 0.126877
O O3 0.000000 0.597359 0.099833
O O4 0.200899 0.577734 0.000000
O O5 0.500000 0.267786 0.911872
O O6 0.733403 0.201676 0.859939
O O7 0.698417 0.214177 0.000000
O O8 0.779306 0.890042 0.500000
O O9 0.708435 0.896923 0.632859
O O10 0.000000 0.891543 0.594173
O O11 0.836673 0.000000 0.570678
O O12 0.500000 0.094300 0.728908
O O13 0.785123 0.122524 0.761086
O O14 0.717031 0.000000 0.722466
O O15 0.242392 0.746885 0.727472
O O16 0.201165 0.621988 0.760409
O O17 0.250703 0.636981 0.629910
O O18 0.000000 0.685752 0.682191
O O19 0.000000 0.209578 0.202198
O O20 0.500000 0.393907 0.215579
O O21 0.674396 0.500000 0.242409
O O22 0.765858 0.595212 0.500000
O O23 0.760798 0.500000 0.597425
O O24 0.000000 0.578025 0.584227
#
# Coordination Sequence:
#
# PCOD8198019 Si02
#       8
#     8   8   8   8   8   8   8   8
#     4  10  20  34  52  74 101 135 176 220 264 312
#     4  10  20  35  57  82 108 141 179 220 268 321
#     4   8  14  27  49  76 106 140 177 218 263 312
#     4  10  21  36  55  80 110 146 186 228 278 335
#     4  10  20  34  53  78 105 136 177 224 273 326
#     4  11  22  35  55  83 112 144 180 221 274 329
#     4  11  23  35  49  72 103 140 178 219 270 321
#     4   8  14  27  50  78 105 136 178 228 277 321
#
# _framework density 19.337726
#
# number of rings (size 3 to 8) (size 9 to 14) (size 15 to 20)
#    0.000    2.250    1.250    3.000    0.000    4.750 
#    0.000    3.125    0.000    3.000    0.000    4.375 
#    0.000    0.000    0.000    0.000    0.000    0.000 
#
# Total GULP energy -792842.693480 kJ/mol
# GULP energy per Si atom -12388.167086 kJ/mol
# Density = 1.929371 g / cm^3
# Si number density = 19.337726 Si / 1000 Ang^3
#
#
#
# Elastic Constant Matrix: (Units=GPa)
#
#
# Indices 1 2 3 4 5 6 
#
# 1 34.0291 18.2150 21.5531 0.0000 0.0000 0.0000
# 2 18.2150 73.4454 46.7726 0.0000 0.0000 0.0000
# 3 21.5531 46.7726 116.5677 0.0000 0.0000 0.0000
# 4 0.0000 0.0000 0.0000 21.2529 0.0000 0.0000
# 5 0.0000 0.0000 0.0000 0.0000 25.2235 0.0000
# 6 0.0000 0.0000 0.0000 0.0000 0.0000 18.0800
#
#
#
# Elastic Compliance Matrix: (Units=1/GPa)
#
#
# Indices 1 2 3 4 5 6 
#
# 1 0.035248 -0.006167 -0.004043 0.000000 0.000000 0.000000
# 2 -0.006167 0.019368 -0.006631 0.000000 0.000000 0.000000
# 3 -0.004043 -0.006631 0.011987 0.000000 0.000000 0.000000
# 4 0.000000 0.000000 0.000000 0.047052 0.000000 0.000000
# 5 0.000000 0.000000 0.000000 0.000000 0.039646 0.000000
# 6 0.000000 0.000000 0.000000 0.000000 0.000000 0.055310
#
#
# Mechanical properties :
#
#
# Convention : Reuss Voigt Hill
#
# Bulk Modulus (GPa) = 30.37567 44.12486 37.25027
# Shear Modulus (GPa) = 19.74202 22.07804 20.91003
#
# Velocity S-wave (km/s) = 3.19863 3.38258 3.29189
# Velocity P-wave (km/s) = 5.42068 6.17441 5.80978
#
# Compressibility (1/GPa) = 0.03292108
#
# Stress axis : x y z
#
# Youngs Moduli (GPa) = 28.37010 51.63159 83.42440
#
# Poissons Ratio (x) = 0.31843 0.33726
# Poissons Ratio (y) = 0.17497 0.55319
# Poissons Ratio (z) = 0.11469 0.34237
#
# Static dielectric constant tensor:
#      x y z
#    x 3.329640 0.000000 0.000000 
#    y 0.000000 3.289950 0.000000 
#    z 0.000000 0.000000 3.944340 
# 
# 
# High freq. dielectric constant tensor:
#      x y z
#    x 1.735760 0.000000 0.000000 
#    y 0.000000 1.718750 0.000000 
#    z 0.000000 0.000000 1.760160 
# 
# From -- ./inp_files/27039.got.cif
#   From: 2010.03.12/outbox.cif.g09.slc.cpg/sg47_14_cif.got.tgz:27039.got - 2010.04.14 03:12:58.
