data_PCOD8198642
_publ_section_title
;
Structure prediction by ZEFSAII (Michael W. Deem and Ramdas Pophale) SiO2 
 PCOD8198642
Probable space group: P M M M
;
_chemical_formula_sum "Si O2"
_cell_formula_units_Z 44
_cell_length_a 18.086006
_cell_length_b 14.433253
_cell_length_c 9.144387
_cell_angle_alpha 90.000000
_cell_angle_beta 90.000000
_cell_angle_gamma 90.000000
_cell_volume 2387.049871
_symmetry_space_group_name_H-M "P M M M"
_symmetry_group_IT_number 47
_symmetry_cell_setting 'orthorhombic'
loop_
_space_group_symop_operation_xyz
x,y,z
-x,-y,z
x,-y,-z
-x,y,-z
-x,-y,-z
x,y,-z
-x,y,z
x,-y,z
loop_
_atom_site_type_symbol
_atom_site_label
_atom_site_fract_x
_atom_site_fract_y
_atom_site_fract_z
Si Si1 0.583731 0.276808 0.167735
Si Si2 0.854798 0.706290 0.674198
Si Si3 0.635628 0.895107 0.330456
Si Si4 0.000000 0.605081 0.325357
Si Si5 0.195331 0.100187 0.326565
Si Si6 0.293709 0.607290 0.328023
O O1 0.500000 0.313386 0.182694
O O2 0.586818 0.173915 0.234944
O O3 0.636007 0.347815 0.251603
O O4 0.608672 0.272021 0.000000
O O5 0.856735 0.702827 0.500000
O O6 0.927672 0.656843 0.737725
O O7 0.853421 0.813305 0.730824
O O8 0.781841 0.653593 0.730515
O O9 0.627246 0.868159 0.500000
O O10 0.720273 0.883644 0.279151
O O11 0.608192 0.000000 0.303486
O O12 0.000000 0.500000 0.267441
O O13 0.000000 0.606551 0.500000
O O14 0.192085 0.096505 0.500000
O O15 0.166909 0.000000 0.264889
O O16 0.302206 0.623555 0.500000
O O17 0.290636 0.500000 0.286713
#
# Coordination Sequence:
#
# PCOD8198642 Si02
#       6
#     8   8   8   4   8   8
#     4  11  24  38  51  72 105 139 169 210 265 318
#     4   9  15  26  45  70 101 132 163 205 254 305
#     4   9  17  32  55  79 102 132 171 214 257 302
#     4   9  16  24  37  65 104 138 164 199 256 313
#     4   8  13  23  43  69  95 125 161 201 246 294
#     4  10  20  35  56  77  96 128 177 224 261 304
#
# _framework density 18.432796
#
# number of rings (size 3 to 8) (size 9 to 14) (size 15 to 20)
#    0.000    2.636    1.818    2.182    0.000    5.091 
#    0.000    4.091    0.000    2.727    0.000    0.636 
#    0.000    2.182    0.000    4.000    0.000    4.000 
#
# Total GULP energy -545409.987477 kJ/mol
# GULP energy per Si atom -12395.681534 kJ/mol
# Density = 1.839084 g / cm^3
# Si number density = 18.432796 Si / 1000 Ang^3
#
#
#
# Elastic Constant Matrix: (Units=GPa)
#
#
# Indices 1 2 3 4 5 6 
#
# 1 115.5755 77.5500 25.3655 0.0000 0.0000 0.0000
# 2 77.5500 162.8061 34.7749 0.0000 0.0000 0.0000
# 3 25.3655 34.7749 29.5466 0.0000 0.0000 0.0000
# 4 0.0000 0.0000 0.0000 8.7228 0.0000 0.0000
# 5 0.0000 0.0000 0.0000 0.0000 -1.1057 0.0000
# 6 0.0000 0.0000 0.0000 0.0000 0.0000 26.6638
#
#
#
# Elastic Compliance Matrix: (Units=1/GPa)
#
#
# Indices 1 2 3 4 5 6 
#
# 1 0.013310 -0.005209 -0.005296 0.000000 0.000000 0.000000
# 2 -0.005209 0.010243 -0.007584 0.000000 0.000000 0.000000
# 3 -0.005296 -0.007584 0.047318 0.000000 0.000000 0.000000
# 4 0.000000 0.000000 0.000000 0.114642 0.000000 0.000000
# 5 0.000000 0.000000 0.000000 0.000000 -0.904431 0.000000
# 6 0.000000 0.000000 0.000000 0.000000 0.000000 0.037504
#
#
# Mechanical properties :
#
#
# Convention : Reuss Voigt Hill
#
# Bulk Modulus (GPa) = 28.82432 64.81211 46.81821
# Shear Modulus (GPa) = -7.89051 18.20538 5.15744
#
# Velocity S-wave (km/s) = -2.07123 3.14612 1.67453
# Velocity P-wave (km/s) = 3.15460 6.95953 5.40308
#
# Compressibility (1/GPa) = 0.03469293
#
# Stress axis : x y z
#
# Youngs Moduli (GPa) = 75.13392 97.62483 21.13377
#
# Poissons Ratio (x) = 0.50849 0.11192
# Poissons Ratio (y) = 0.39134 0.16028
# Poissons Ratio (z) = 0.39790 0.74042
#
# Static dielectric constant tensor:
#      x y z
#    x 3.375040 0.000000 0.000000 
#    y 0.000000 3.810790 0.000000 
#    z 0.000000 0.000000 2.844950 
# 
# 
# High freq. dielectric constant tensor:
#      x y z
#    x 1.705020 0.000000 0.000000 
#    y 0.000000 1.734990 0.000000 
#    z 0.000000 0.000000 1.653930 
# 
# From -- ./inp_files/6084.got.cif
#   From: 2010.03.12/outbox.cif.g09.slc.cpg/sg47_4_cif.got.tgz:6084.got - 2010.04.14 03:12:58.
