data_PCOD8198409
_publ_section_title
;
Structure prediction by ZEFSAII (Michael W. Deem and Ramdas Pophale) SiO2 
 PCOD8198409
Probable space group: P M M M
;
_chemical_formula_sum "Si O2"
_cell_formula_units_Z 56
_cell_length_a 14.974020
_cell_length_b 22.837278
_cell_length_c 8.716460
_cell_angle_alpha 90.000000
_cell_angle_beta 90.000000
_cell_angle_gamma 90.000000
_cell_volume 2980.731718
_symmetry_space_group_name_H-M "P M M M"
_symmetry_group_IT_number 47
_symmetry_cell_setting 'orthorhombic'
loop_
_space_group_symop_operation_xyz
x,y,z
-x,-y,z
x,-y,-z
-x,y,-z
-x,-y,-z
x,y,-z
-x,y,z
x,-y,z
loop_
_atom_site_type_symbol
_atom_site_label
_atom_site_fract_x
_atom_site_fract_y
_atom_site_fract_z
Si Si1 0.606030 0.500000 0.172456
Si Si2 0.840729 0.882949 0.677965
Si Si3 0.100919 0.234729 0.175891
Si Si4 0.289413 0.277751 0.822667
Si Si5 0.000000 0.064659 0.165121
Si Si6 0.400628 0.823384 0.323471
Si Si7 0.398993 0.618803 0.319604
Si Si8 0.334550 0.932851 0.819407
O O1 0.500000 0.500000 0.181536
O O2 0.641936 0.441469 0.253922
O O3 0.642211 0.500000 0.000000
O O4 0.815420 0.888296 0.500000
O O5 0.878961 0.818867 0.712791
O O6 0.757929 0.901331 0.781261
O O7 0.916573 0.927300 0.725173
O O8 0.181641 0.281104 0.204158
O O9 0.000000 0.259614 0.210922
O O10 0.106110 0.213506 0.000000
O O11 0.328693 0.215190 0.768834
O O12 0.334682 0.328731 0.726399
O O13 0.313640 0.286391 0.000000
O O14 0.000000 0.000000 0.106031
O O15 0.000000 0.101112 0.000000
O O16 0.369856 0.824058 0.500000
O O17 0.500000 0.796053 0.307349
O O18 0.406573 0.890199 0.260630
O O19 0.400590 0.613381 0.500000
O O20 0.500000 0.629973 0.257572
O O21 0.340382 0.000000 0.756840
O O22 0.350471 0.933276 0.000000
#
# Coordination Sequence:
#
# PCOD8198409 Si02
#       8
#     4   8   8   8   4   8   8   8
#     4   9  17  31  53  83 120 159 200 241 275 318
#     4  12  23  35  55  80 104 131 169 220 277 338
#     4  10  21  38  59  80 108 144 181 225 281 340
#     4  11  22  36  58  85 113 149 191 233 277 331
#     4  11  23  37  53  73 101 135 169 210 267 338
#     4  11  24  40  58  81 110 142 178 228 286 337
#     4  10  20  34  54  83 122 164 199 233 277 325
#     4  11  24  41  59  77 100 135 178 223 276 339
#
# _framework density 18.787334000000001
#
# number of rings (size 3 to 8) (size 9 to 14) (size 15 to 20)
#    0.000    1.286    2.143    4.286    0.000    8.857 
#    0.000    1.429    0.000    0.000    0.000    0.500 
#    0.000    4.000    0.000    0.000    0.000    0.000 
#
# Total GULP energy -694068.584065 kJ/mol
# GULP energy per Si atom -12394.081858 kJ/mol
# Density = 1.874457 g / cm^3
# Si number density = 18.787334 Si / 1000 Ang^3
#
#
#
# Elastic Constant Matrix: (Units=GPa)
#
#
# Indices 1 2 3 4 5 6 
#
# 1 99.7481 31.7479 18.4931 0.0000 0.0000 0.0000
# 2 31.7479 104.0017 24.3072 0.0000 0.0000 0.0000
# 3 18.4931 24.3072 69.3847 0.0000 0.0000 0.0000
# 4 0.0000 0.0000 0.0000 -321.7296 0.0000 0.0000
# 5 0.0000 0.0000 0.0000 0.0000 20.1592 0.0000
# 6 0.0000 0.0000 0.0000 0.0000 0.0000 16.1395
#
#
#
# Elastic Compliance Matrix: (Units=1/GPa)
#
#
# Indices 1 2 3 4 5 6 
#
# 1 0.011347 -0.003003 -0.001972 0.000000 0.000000 0.000000
# 2 -0.003003 0.011267 -0.003147 0.000000 0.000000 0.000000
# 3 -0.001972 -0.003147 0.016041 0.000000 0.000000 0.000000
# 4 0.000000 0.000000 0.000000 -0.003108 0.000000 0.000000
# 5 0.000000 0.000000 0.000000 0.000000 0.049605 0.000000
# 6 0.000000 0.000000 0.000000 0.000000 0.000000 0.061960
#
#
# Mechanical properties :
#
#
# Convention : Reuss Voigt Hill
#
# Bulk Modulus (GPa) = 44.62170 46.91453 45.76811
# Shear Modulus (GPa) = 29.26969 -43.84709 -7.28870
#
# Velocity S-wave (km/s) = 3.95137 -4.83625 -1.97180
# Velocity P-wave (km/s) = 6.67984 2.48197 4.38521
#
# Compressibility (1/GPa) = 0.02241062
#
# Stress axis : x y z
#
# Youngs Moduli (GPa) = 88.13188 88.75209 62.34212
#
# Poissons Ratio (x) = 0.26650 0.12296
# Poissons Ratio (y) = 0.26464 0.19618
# Poissons Ratio (z) = 0.17382 0.27929
#
# Static dielectric constant tensor:
#      x y z
#    x 3.636930 0.000000 0.000000 
#    y 0.000000 3.369670 0.000000 
#    z 0.000000 0.000000 3.491380 
# 
# 
# High freq. dielectric constant tensor:
#      x y z
#    x 1.724150 0.000000 0.000000 
#    y 0.000000 1.705070 0.000000 
#    z 0.000000 0.000000 1.741560 
# 
# From -- ./inp_files/7408.got.cif
#   From: 2010.03.12/outbox.cif.g09.slc.cpg/sg47_4_cif.got.tgz:7408.got - 2010.04.14 03:12:58.
