data_PCOD8198275
_publ_section_title
;
Structure prediction by ZEFSAII (Michael W. Deem and Ramdas Pophale) SiO2 
 PCOD8198275
Probable space group: P M M M
;
_chemical_formula_sum "Si O2"
_cell_formula_units_Z 64
_cell_length_a 24.834643
_cell_length_b 8.936589
_cell_length_c 14.666086
_cell_angle_alpha 90.000000
_cell_angle_beta 90.000000
_cell_angle_gamma 90.000000
_cell_volume 3254.947091
_symmetry_space_group_name_H-M "P M M M"
_symmetry_group_IT_number 47
_symmetry_cell_setting 'orthorhombic'
loop_
_space_group_symop_operation_xyz
x,y,z
-x,-y,z
x,-y,-z
-x,y,-z
-x,-y,-z
x,y,-z
-x,y,z
x,-y,z
loop_
_atom_site_type_symbol
_atom_site_label
_atom_site_fract_x
_atom_site_fract_y
_atom_site_fract_z
Si Si1 0.938953 0.825151 0.605272
Si Si2 0.286472 0.328877 0.602450
Si Si3 0.602655 0.170543 0.399747
Si Si4 0.760685 0.823660 0.229789
Si Si5 0.936712 0.166328 0.101105
Si Si6 0.871476 0.673760 0.756549
Si Si7 0.558393 0.824221 0.790835
Si Si8 0.662567 0.821661 0.103945
O O1 0.930092 0.784579 0.500000
O O2 0.893790 0.736863 0.661278
O O3 0.000000 0.780013 0.634740
O O4 0.930571 0.000000 0.622775
O O5 0.264255 0.308165 0.500000
O O6 0.280538 0.500000 0.634758
O O7 0.348485 0.284425 0.607335
O O8 0.252347 0.221682 0.666928
O O9 0.574696 0.187610 0.500000
O O10 0.562621 0.210587 0.317429
O O11 0.624069 0.000000 0.387395
O O12 0.817541 0.751108 0.205975
O O13 0.714436 0.763985 0.160498
O O14 0.765872 0.000000 0.222113
O O15 0.915334 0.295752 0.166121
O O16 0.000000 0.182185 0.097586
O O17 0.920871 0.000000 0.137515
O O18 0.912639 0.188904 0.000000
O O19 0.860542 0.500000 0.743685
O O20 0.500000 0.759159 0.822788
O O21 0.608146 0.755525 0.848674
O O22 0.558715 0.000000 0.807762
O O23 0.661174 0.000000 0.106258
O O24 0.665924 0.762592 0.000000
#
# Coordination Sequence:
#
# PCOD8198275 Si02
#       8
#     8   8   8   8   8   8   8   8
#     4   9  19  38  63  88 116 155 201 241 277 326
#     4  10  20  34  54  79 106 137 174 220 273 325
#     4   9  16  28  48  75 107 143 180 214 257 319
#     4  11  22  38  58  78 105 145 190 232 275 331
#     4   9  19  38  63  87 112 147 191 235 279 331
#     4  12  25  37  54  85 121 152 186 233 289 345
#     4   9  16  27  47  79 114 142 174 222 277 330
#     4   9  18  33  53  78 106 137 178 229 283 335
#
# _framework density 19.662376999999999
#
# number of rings (size 3 to 8) (size 9 to 14) (size 15 to 20)
#    0.000    2.250    1.250    3.000    0.000    4.750 
#    0.000    5.000    0.000    1.500    0.000    1.750 
#    0.000    1.000    0.000    0.000    0.000    0.000 
#
# Total GULP energy -793334.171942 kJ/mol
# GULP energy per Si atom -12395.846437 kJ/mol
# Density = 1.961762 g / cm^3
# Si number density = 19.662377 Si / 1000 Ang^3
#
#
#
# Elastic Constant Matrix: (Units=GPa)
#
#
# Indices 1 2 3 4 5 6 
#
# 1 103.1913 35.6149 55.2746 0.0000 0.0000 0.0000
# 2 35.6149 61.0163 33.4345 0.0000 0.0000 0.0000
# 3 55.2746 33.4345 118.7881 0.0000 0.0000 0.0000
# 4 0.0000 0.0000 0.0000 8.2816 0.0000 0.0000
# 5 0.0000 0.0000 0.0000 0.0000 13.5815 0.0000
# 6 0.0000 0.0000 0.0000 0.0000 0.0000 9.2282
#
#
#
# Elastic Compliance Matrix: (Units=1/GPa)
#
#
# Indices 1 2 3 4 5 6 
#
# 1 0.014352 -0.005578 -0.005108 0.000000 0.000000 0.000000
# 2 -0.005578 0.021546 -0.003469 0.000000 0.000000 0.000000
# 3 -0.005108 -0.003469 0.011772 0.000000 0.000000 0.000000
# 4 0.000000 0.000000 0.000000 0.120749 0.000000 0.000000
# 5 0.000000 0.000000 0.000000 0.000000 0.073630 0.000000
# 6 0.000000 0.000000 0.000000 0.000000 0.000000 0.108363
#
#
# Mechanical properties :
#
#
# Convention : Reuss Voigt Hill
#
# Bulk Modulus (GPa) = 51.65492 59.07150 55.36321
# Shear Modulus (GPa) = 12.98111 16.79638 14.88874
#
# Velocity S-wave (km/s) = 2.57222 2.92591 2.75475
# Velocity P-wave (km/s) = 5.92872 6.44381 6.19163
#
# Compressibility (1/GPa) = 0.01935924
#
# Stress axis : x y z
#
# Youngs Moduli (GPa) = 69.67547 46.41293 84.94962
#
# Poissons Ratio (x) = 0.25890 0.43395
# Poissons Ratio (y) = 0.38866 0.29466
# Poissons Ratio (z) = 0.35593 0.16099
#
# Static dielectric constant tensor:
#      x y z
#    x 3.645390 0.000000 0.000000 
#    y 0.000000 3.263060 0.000000 
#    z 0.000000 0.000000 3.833010 
# 
# 
# High freq. dielectric constant tensor:
#      x y z
#    x 1.761370 0.000000 0.000000 
#    y 0.000000 1.728790 0.000000 
#    z 0.000000 0.000000 1.774350 
# 
# From -- ./inp_files/25540.got.cif
#   From: 2010.03.12/outbox.cif.g09.slc.cpg/sg47_13_cif.got.tgz:25540.got - 2010.04.14 03:12:58.
