data_PCOD8198137
_publ_section_title
;
Structure prediction by ZEFSAII (Michael W. Deem and Ramdas Pophale) SiO2 
 PCOD8198137
Probable space group: P M M M
;
_chemical_formula_sum "Si O2"
_cell_formula_units_Z 40
_cell_length_a 9.217833
_cell_length_b 9.006999
_cell_length_c 25.963447
_cell_angle_alpha 90.000000
_cell_angle_beta 90.000000
_cell_angle_gamma 90.000000
_cell_volume 2155.615515
_symmetry_space_group_name_H-M "P M M M"
_symmetry_group_IT_number 47
_symmetry_cell_setting 'orthorhombic'
loop_
_space_group_symop_operation_xyz
x,y,z
-x,-y,z
x,-y,-z
-x,y,-z
-x,-y,-z
x,y,-z
-x,y,z
x,-y,z
loop_
_atom_site_type_symbol
_atom_site_label
_atom_site_fract_x
_atom_site_fract_y
_atom_site_fract_z
Si Si1 0.331038 0.326241 0.602692
Si Si2 0.327630 0.167384 0.500000
Si Si3 0.336239 0.823360 0.000000
Si Si4 0.831292 0.826510 0.099979
Si Si5 0.172478 0.667318 0.797663
Si Si6 0.171866 0.170505 0.304456
O O1 0.500000 0.290420 0.610838
O O2 0.301806 0.500000 0.598360
O O3 0.270475 0.251093 0.550671
O O4 0.243047 0.261581 0.649957
O O5 0.500000 0.169059 0.500000
O O6 0.266527 0.000000 0.500000
O O7 0.254975 0.764060 0.050742
O O8 0.500000 0.762689 0.000000
O O9 0.331542 0.000000 0.000000
O O10 0.770007 0.741790 0.149940
O O11 0.000000 0.793393 0.090449
O O12 0.803597 0.000000 0.108900
O O13 0.232891 0.500000 0.793664
O O14 0.229487 0.761380 0.749154
O O15 0.000000 0.668772 0.798121
O O16 0.000000 0.186443 0.309022
O O17 0.221321 0.000000 0.307232
#
# Coordination Sequence:
#
# PCOD8198137 Si02
#       6
#     8   4   4   8   8   8
#     4  10  20  34  53  77 104 134 169 209 253 301
#     4   9  17  31  52  75 100 133 172 212 252 295
#     4   9  17  29  46  69  96 124 154 191 238 288
#     4   9  16  28  48  71  92 118 157 200 236 277
#     4   9  17  30  49  72  97 126 161 201 244 290
#     4  10  20  34  53  77 104 134 168 207 252 301
#
# _framework density 18.556183999999998
#
# number of rings (size 3 to 8) (size 9 to 14) (size 15 to 20)
#    0.000    2.600    0.000    2.400    0.000    7.200 
#    0.000    2.000    0.000   10.200    0.000    0.000 
#    0.000    0.000    0.000    0.000    0.000    0.000 
#
# Total GULP energy -496042.213310 kJ/mol
# GULP energy per Si atom -12401.055333 kJ/mol
# Density = 1.851395 g / cm^3
# Si number density = 18.556184 Si / 1000 Ang^3
#
#
#
# Elastic Constant Matrix: (Units=GPa)
#
#
# Indices 1 2 3 4 5 6 
#
# 1 35.7929 24.1880 38.6948 0.0000 0.0000 0.0000
# 2 24.1880 92.7489 56.6032 0.0000 0.0000 0.0000
# 3 38.6948 56.6032 175.5598 0.0000 0.0000 0.0000
# 4 0.0000 0.0000 0.0000 19.1269 0.0000 0.0000
# 5 0.0000 0.0000 0.0000 0.0000 -37.3348 0.0000
# 6 0.0000 0.0000 0.0000 0.0000 0.0000 18.7714
#
#
#
# Elastic Compliance Matrix: (Units=1/GPa)
#
#
# Indices 1 2 3 4 5 6 
#
# 1 0.039335 -0.006184 -0.006676 0.000000 0.000000 0.000000
# 2 -0.006184 0.014395 -0.003278 0.000000 0.000000 0.000000
# 3 -0.006676 -0.003278 0.008224 0.000000 0.000000 0.000000
# 4 0.000000 0.000000 0.000000 0.052283 0.000000 0.000000
# 5 0.000000 0.000000 0.000000 0.000000 -0.026785 0.000000
# 6 0.000000 0.000000 0.000000 0.000000 0.000000 0.053272
#
#
# Mechanical properties :
#
#
# Convention : Reuss Voigt Hill
#
# Bulk Modulus (GPa) = 33.69482 60.34151 47.01816
# Shear Modulus (GPa) = 27.33839 12.42041 19.87940
#
# Velocity S-wave (km/s) = 3.84249 2.58997 3.27664
# Velocity P-wave (km/s) = 6.15500 6.44459 6.30146
#
# Compressibility (1/GPa) = 0.02967815
#
# Stress axis : x y z
#
# Youngs Moduli (GPa) = 25.42297 69.46782 121.58885
#
# Poissons Ratio (x) = 0.42958 0.81171
# Poissons Ratio (y) = 0.15721 0.39860
# Poissons Ratio (z) = 0.16972 0.22773
#
# Static dielectric constant tensor:
#      x y z
#    x 3.068730 0.000000 0.000000 
#    y 0.000000 3.476530 0.000000 
#    z 0.000000 0.000000 3.672800 
# 
# 
# High freq. dielectric constant tensor:
#      x y z
#    x 1.677970 0.000000 0.000000 
#    y 0.000000 1.720220 0.000000 
#    z 0.000000 0.000000 1.739680 
# 
# From -- ./inp_files/1762.got.cif
#   From: 2010.03.12/outbox.cif.g09.slc.cpg/sg47_1_cif.got.tgz:1762.got - 2010.04.14 03:12:58.
