data_PCOD8198046
_publ_section_title
;
Structure prediction by ZEFSAII (Michael W. Deem and Ramdas Pophale) SiO2 
 PCOD8198046
Probable space group: P M M M
;
_chemical_formula_sum "Si O2"
_cell_formula_units_Z 52
_cell_length_a 11.697107
_cell_length_b 8.807210
_cell_length_c 28.129732
_cell_angle_alpha 90.000000
_cell_angle_beta 90.000000
_cell_angle_gamma 90.000000
_cell_volume 2897.893422
_symmetry_space_group_name_H-M "P M M M"
_symmetry_group_IT_number 47
_symmetry_cell_setting 'orthorhombic'
loop_
_space_group_symop_operation_xyz
x,y,z
-x,-y,z
x,-y,-z
-x,y,-z
-x,-y,-z
x,y,-z
-x,y,z
x,-y,z
loop_
_atom_site_type_symbol
_atom_site_label
_atom_site_fract_x
_atom_site_fract_y
_atom_site_fract_z
Si Si1 0.000000 0.323543 0.402009
Si Si2 0.000000 0.820616 0.700651
Si Si3 0.232901 0.678212 0.275875
Si Si4 0.364848 0.174107 0.190982
Si Si5 0.369231 0.175497 0.640153
Si Si6 0.363571 0.171278 0.000000
Si Si7 0.364040 0.670642 0.905141
Si Si8 0.212992 0.826949 0.553771
O O1 0.000000 0.227668 0.354036
O O2 0.110937 0.285302 0.432838
O O3 0.000000 0.500000 0.388642
O O4 0.110763 0.758844 0.727753
O O5 0.000000 0.000000 0.703182
O O6 0.213172 0.500000 0.276150
O O7 0.308113 0.723791 0.230986
O O8 0.296213 0.723969 0.324111
O O9 0.500000 0.193668 0.196030
O O10 0.321759 0.231489 0.139703
O O11 0.327830 0.000000 0.197313
O O12 0.500000 0.229579 0.641378
O O13 0.322368 0.201754 0.587107
O O14 0.358246 0.000000 0.655719
O O15 0.315174 0.255072 0.046705
O O16 0.500000 0.173460 0.000000
O O17 0.317340 0.000000 0.000000
O O18 0.500000 0.669594 0.907082
O O19 0.316168 0.500000 0.900680
O O20 0.252308 0.793295 0.500000
O O21 0.169094 0.000000 0.559386
#
# Coordination Sequence:
#
# PCOD8198046 Si02
#       8
#     4   4   8   8   8   4   8   8
#     4  12  23  37  58  85 110 136 169 213 265 316
#     4  12  24  41  63  82 104 134 169 214 263 316
#     4  12  24  38  57  82 108 136 172 216 266 317
#     4  10  20  34  52  75 106 145 185 221 261 314
#     4  10  21  37  57  80 108 144 181 214 253 307
#     4   9  15  23  37  59  91 134 181 224 267 319
#     4   9  16  26  41  64  96 135 179 226 272 314
#     4  10  21  37  58  82 109 143 179 215 257 308
#
# _framework density 17.94407
#
# number of rings (size 3 to 8) (size 9 to 14) (size 15 to 20)
#    0.000    1.615    1.538    4.615    0.000    7.385 
#    0.000    1.538    0.000    0.000    0.000    2.154 
#    0.000    0.615    0.000    6.154    0.000    5.538 
#
# Total GULP energy -644996.820413 kJ/mol
# GULP energy per Si atom -12403.785008 kJ/mol
# Density = 1.790323 g / cm^3
# Si number density = 17.944070 Si / 1000 Ang^3
#
#
#
# Elastic Constant Matrix: (Units=GPa)
#
#
# Indices 1 2 3 4 5 6 
#
# 1 64.0462 39.2536 21.4260 0.0000 0.0000 0.0000
# 2 39.2536 130.7221 45.0293 0.0000 0.0000 0.0000
# 3 21.4260 45.0293 117.2124 0.0000 0.0000 0.0000
# 4 0.0000 0.0000 0.0000 18.9732 0.0000 0.0000
# 5 0.0000 0.0000 0.0000 0.0000 3.8820 0.0000
# 6 0.0000 0.0000 0.0000 0.0000 0.0000 16.5361
#
#
#
# Elastic Compliance Matrix: (Units=1/GPa)
#
#
# Indices 1 2 3 4 5 6 
#
# 1 0.019363 -0.005296 -0.001505 0.000000 0.000000 0.000000
# 2 -0.005296 0.010265 -0.002975 0.000000 0.000000 0.000000
# 3 -0.001505 -0.002975 0.009950 0.000000 0.000000 0.000000
# 4 0.000000 0.000000 0.000000 0.052706 0.000000 0.000000
# 5 0.000000 0.000000 0.000000 0.000000 0.257601 0.000000
# 6 0.000000 0.000000 0.000000 0.000000 0.000000 0.060474
#
#
# Mechanical properties :
#
#
# Convention : Reuss Voigt Hill
#
# Bulk Modulus (GPa) = 49.93736 58.15538 54.04637
# Shear Modulus (GPa) = 11.45250 21.62972 16.54111
#
# Velocity S-wave (km/s) = 2.52907 3.47565 3.03943
# Velocity P-wave (km/s) = 6.03474 6.97040 6.51938
#
# Compressibility (1/GPa) = 0.02002509
#
# Stress axis : x y z
#
# Youngs Moduli (GPa) = 51.64472 97.41800 100.50579
#
# Poissons Ratio (x) = 0.51593 0.15125
# Poissons Ratio (y) = 0.27351 0.29905
# Poissons Ratio (z) = 0.07772 0.28986
#
# Static dielectric constant tensor:
#      x y z
#    x 3.111960 0.000000 0.000000 
#    y 0.000000 3.434300 0.000000 
#    z 0.000000 0.000000 3.451420 
# 
# 
# High freq. dielectric constant tensor:
#      x y z
#    x 1.655520 0.000000 0.000000 
#    y 0.000000 1.705410 0.000000 
#    z 0.000000 0.000000 1.703560 
# 
# From -- ./inp_files/15499.got.cif
#   From: 2010.03.12/outbox.cif.g09.slc.cpg/sg47_8_cif.got.tgz:15499.got - 2010.04.14 03:12:58.
