data_PCOD8198432
_publ_section_title
;
Structure prediction by ZEFSAII (Michael W. Deem and Ramdas Pophale) SiO2 
 PCOD8198432
Probable space group: P M M M
;
_chemical_formula_sum "Si O2"
_cell_formula_units_Z 36
_cell_length_a 9.314264
_cell_length_b 23.156093
_cell_length_c 9.199957
_cell_angle_alpha 90.000000
_cell_angle_beta 90.000000
_cell_angle_gamma 90.000000
_cell_volume 1984.264789
_symmetry_space_group_name_H-M "P M M M"
_symmetry_group_IT_number 47
_symmetry_cell_setting 'orthorhombic'
loop_
_space_group_symop_operation_xyz
x,y,z
-x,-y,z
x,-y,-z
-x,y,-z
-x,-y,-z
x,y,-z
-x,y,z
x,-y,z
loop_
_atom_site_type_symbol
_atom_site_label
_atom_site_fract_x
_atom_site_fract_y
_atom_site_fract_z
Si Si1 0.168629 0.101446 0.830533
Si Si2 0.668921 0.564680 0.164619
Si Si3 0.829834 0.786868 0.661205
Si Si4 0.160142 0.339675 0.671890
Si Si5 0.331124 0.000000 0.329052
O O1 0.218272 0.164567 0.775795
O O2 0.260163 0.055891 0.741365
O O3 0.000000 0.090780 0.801238
O O4 0.204754 0.095852 0.000000
O O5 0.500000 0.570490 0.180741
O O6 0.717522 0.500000 0.209277
O O7 0.739533 0.610542 0.269520
O O8 0.716827 0.577455 0.000000
O O9 0.767782 0.801383 0.500000
O O10 0.776924 0.723690 0.715475
O O11 0.000000 0.783890 0.649989
O O12 0.156185 0.344161 0.500000
O O13 0.000000 0.347954 0.735860
O O14 0.500000 0.000000 0.295905
O O15 0.299115 0.000000 0.500000
#
# Coordination Sequence:
#
# PCOD8198432 Si02
#       5
#     8   8   8   8   4
#     4  10  20  34  55  82 106 130 166 208 248 295
#     4   9  19  35  51  68  95 132 172 211 250 296
#     4   8  15  30  51  74 102 134 165 200 244 293
#     4   9  18  32  51  77 105 130 161 204 251 298
#     4  11  24  39  54  74 102 137 174 209 248 294
#
# _framework density 18.14274
#
# number of rings (size 3 to 8) (size 9 to 14) (size 15 to 20)
#    0.000    2.778    0.000    3.333    0.000    6.222 
#    0.000    6.667    0.000    1.333    0.000    0.000 
#    0.000    0.000    0.000    0.000    0.000    0.000 
#
# Total GULP energy -446265.554760 kJ/mol
# GULP energy per Si atom -12396.265410 kJ/mol
# Density = 1.810145 g / cm^3
# Si number density = 18.142740 Si / 1000 Ang^3
#
#
#
# Elastic Constant Matrix: (Units=GPa)
#
#
# Indices 1 2 3 4 5 6 
#
# 1 46.5572 52.5891 39.7126 0.0000 0.0000 0.0000
# 2 52.5891 163.4491 71.0193 0.0000 0.0000 0.0000
# 3 39.7126 71.0193 85.0471 0.0000 0.0000 0.0000
# 4 0.0000 0.0000 0.0000 199.9505 0.0000 0.0000
# 5 0.0000 0.0000 0.0000 0.0000 26.8483 0.0000
# 6 0.0000 0.0000 0.0000 0.0000 0.0000 -63.5556
#
#
#
# Elastic Compliance Matrix: (Units=1/GPa)
#
#
# Indices 1 2 3 4 5 6 
#
# 1 0.041001 -0.007648 -0.012759 0.000000 0.000000 0.000000
# 2 -0.007648 0.011029 -0.005638 0.000000 0.000000 0.000000
# 3 -0.012759 -0.005638 0.022424 0.000000 0.000000 0.000000
# 4 0.000000 0.000000 0.000000 0.005001 0.000000 0.000000
# 5 0.000000 0.000000 0.000000 0.000000 0.037246 0.000000
# 6 0.000000 0.000000 0.000000 0.000000 0.000000 -0.015734
#
#
# Mechanical properties :
#
#
# Convention : Reuss Voigt Hill
#
# Bulk Modulus (GPa) = 44.71561 69.07725 56.89643
# Shear Modulus (GPa) = 31.15024 41.43081 36.29052
#
# Velocity S-wave (km/s) = 4.14811 4.78389 4.47730
# Velocity P-wave (km/s) = 6.90235 8.28680 7.62606
#
# Compressibility (1/GPa) = 0.02236355
#
# Stress axis : x y z
#
# Youngs Moduli (GPa) = 24.38958 90.67172 44.59473
#
# Poissons Ratio (x) = 0.69348 0.56897
# Poissons Ratio (y) = 0.18654 0.25144
# Poissons Ratio (z) = 0.31118 0.51124
#
# Static dielectric constant tensor:
#      x y z
#    x 3.108420 0.000000 0.000000 
#    y 0.000000 3.709500 0.000000 
#    z 0.000000 0.000000 3.340400 
# 
# 
# High freq. dielectric constant tensor:
#      x y z
#    x 1.671180 0.000000 0.000000 
#    y 0.000000 1.720880 0.000000 
#    z 0.000000 0.000000 1.701410 
# 
# From -- ./inp_files/1446.got.cif
#   From: 2010.03.12/outbox.cif.g09.slc.cpg/sg47_1_cif.got.tgz:1446.got - 2010.04.14 03:12:58.
