data_PCOD8198701
_publ_section_title
;
Structure prediction by ZEFSAII (Michael W. Deem and Ramdas Pophale) SiO2 
 PCOD8198701
Probable space group: P M M M
;
_chemical_formula_sum "Si O2"
_cell_formula_units_Z 48
_cell_length_a 16.175754
_cell_length_b 18.459417
_cell_length_c 8.898732
_cell_angle_alpha 90.000000
_cell_angle_beta 90.000000
_cell_angle_gamma 90.000000
_cell_volume 2657.116778
_symmetry_space_group_name_H-M "P M M M"
_symmetry_group_IT_number 47
_symmetry_cell_setting 'orthorhombic'
loop_
_space_group_symop_operation_xyz
x,y,z
-x,-y,z
x,-y,-z
-x,y,-z
-x,-y,-z
x,y,-z
-x,y,z
x,-y,z
loop_
_atom_site_type_symbol
_atom_site_label
_atom_site_fract_x
_atom_site_fract_y
_atom_site_fract_z
Si Si1 0.500000 0.699953 0.824678
Si Si2 0.338655 0.083902 0.172313
Si Si3 0.178516 0.582871 0.323947
Si Si4 0.095652 0.712375 0.173322
Si Si5 0.767645 0.197430 0.327484
Si Si6 0.340864 0.337212 0.670716
Si Si7 0.500000 0.856235 0.321878
O O1 0.580847 0.653829 0.779761
O O2 0.500000 0.774600 0.735258
O O3 0.500000 0.716001 0.000000
O O4 0.259810 0.127150 0.235000
O O5 0.419989 0.101011 0.266953
O O6 0.316575 0.000000 0.188045
O O7 0.354921 0.105972 0.000000
O O8 0.164977 0.597691 0.500000
O O9 0.162218 0.500000 0.280088
O O10 0.113769 0.631762 0.234045
O O11 0.272312 0.604078 0.280348
O O12 0.146473 0.772728 0.263134
O O13 0.000000 0.730135 0.197031
O O14 0.121628 0.715442 0.000000
O O15 0.781601 0.175967 0.500000
O O16 0.696061 0.257012 0.311163
O O17 0.369610 0.350687 0.500000
O O18 0.500000 0.854185 0.500000
#
# Coordination Sequence:
#
# PCOD8198701 Si02
#       7
#     4   8   8   8   8   8   4
#     4  12  22  31  50  75 102 139 182 229 275 316
#     4  11  23  37  54  79 112 147 182 222 270 322
#     4   9  19  36  57  80 107 140 178 221 270 323
#     4  10  21  36  56  83 113 143 175 215 266 323
#     4  10  20  35  57  80 105 140 181 223 266 318
#     4   9  18  33  52  74 101 135 178 224 268 317
#     4  12  23  35  52  76 109 147 186 228 270 312
#
# _framework density 18.064692999999998
#
# number of rings (size 3 to 8) (size 9 to 14) (size 15 to 20)
#    0.000    1.833    1.667    4.250    0.000    7.000 
#    0.000    2.083    0.000    3.000    0.000    3.500 
#    0.000    0.000    0.000    0.000    0.000    0.000 
#
# Total GULP energy -595400.808531 kJ/mol
# GULP energy per Si atom -12404.183511 kJ/mol
# Density = 1.802358 g / cm^3
# Si number density = 18.064693 Si / 1000 Ang^3
#
#
#
# Elastic Constant Matrix: (Units=GPa)
#
#
# Indices 1 2 3 4 5 6 
#
# 1 89.3701 31.6713 50.0926 0.0000 0.0000 0.0000
# 2 31.6713 69.8085 37.3836 0.0000 0.0000 0.0000
# 3 50.0926 37.3836 123.5181 0.0000 0.0000 0.0000
# 4 0.0000 0.0000 0.0000 27.5033 0.0000 0.0000
# 5 0.0000 0.0000 0.0000 0.0000 32.3181 0.0000
# 6 0.0000 0.0000 0.0000 0.0000 0.0000 17.1186
#
#
#
# Elastic Compliance Matrix: (Units=1/GPa)
#
#
# Indices 1 2 3 4 5 6 
#
# 1 0.015529 -0.004383 -0.004971 0.000000 0.000000 0.000000
# 2 -0.004383 0.018333 -0.003771 0.000000 0.000000 0.000000
# 3 -0.004971 -0.003771 0.011253 0.000000 0.000000 0.000000
# 4 0.000000 0.000000 0.000000 0.036359 0.000000 0.000000
# 5 0.000000 0.000000 0.000000 0.000000 0.030942 0.000000
# 6 0.000000 0.000000 0.000000 0.000000 0.000000 0.058416
#
#
# Mechanical properties :
#
#
# Convention : Reuss Voigt Hill
#
# Bulk Modulus (GPa) = 53.00928 57.88797 55.44863
# Shear Modulus (GPa) = 24.58543 26.29126 25.43834
#
# Velocity S-wave (km/s) = 3.69313 3.81910 3.75664
# Velocity P-wave (km/s) = 6.89880 7.18065 7.04114
#
# Compressibility (1/GPa) = 0.01886462
#
# Stress axis : x y z
#
# Youngs Moduli (GPa) = 64.39482 54.54656 88.86229
#
# Poissons Ratio (x) = 0.23909 0.44175
# Poissons Ratio (y) = 0.28226 0.33510
# Poissons Ratio (z) = 0.32012 0.20569
#
# Static dielectric constant tensor:
#      x y z
#    x 3.271360 0.000000 0.000000 
#    y 0.000000 3.246160 0.000000 
#    z 0.000000 0.000000 3.455050 
# 
# 
# High freq. dielectric constant tensor:
#      x y z
#    x 1.693160 0.000000 0.000000 
#    y 0.000000 1.683280 0.000000 
#    z 0.000000 0.000000 1.710250 
# 
# From -- ./inp_files/6388.got.cif
#   From: 2010.03.12/outbox.cif.g09.slc.cpg/sg47_4_cif.got.tgz:6388.got - 2010.04.14 03:12:58.
