data_PCOD8198888
_publ_section_title
;
Structure prediction by ZEFSAII (Michael W. Deem and Ramdas Pophale) SiO2 
 PCOD8198888
Probable space group: P M M M
;
_chemical_formula_sum "Si O2"
_cell_formula_units_Z 56
_cell_length_a 16.065685
_cell_length_b 19.359200
_cell_length_c 9.072619
_cell_angle_alpha 90.000000
_cell_angle_beta 90.000000
_cell_angle_gamma 90.000000
_cell_volume 2821.755156
_symmetry_space_group_name_H-M "P M M M"
_symmetry_group_IT_number 47
_symmetry_cell_setting 'orthorhombic'
loop_
_space_group_symop_operation_xyz
x,y,z
-x,-y,z
x,-y,-z
-x,y,-z
-x,-y,-z
x,y,-z
-x,y,z
x,-y,z
loop_
_atom_site_type_symbol
_atom_site_label
_atom_site_fract_x
_atom_site_fract_y
_atom_site_fract_z
Si Si1 0.747565 0.578061 0.175758
Si Si2 0.402601 0.077887 0.168282
Si Si3 0.592698 0.331799 0.170933
Si Si4 0.097928 0.922080 0.333018
Si Si5 0.661724 0.792971 0.326186
Si Si6 0.909201 0.656205 0.828456
Si Si7 0.171765 0.203872 0.829981
O O1 0.744825 0.500000 0.235306
O O2 0.663673 0.616261 0.232108
O O3 0.831469 0.613953 0.241236
O O4 0.749025 0.580141 0.000000
O O5 0.500000 0.084813 0.196758
O O6 0.354831 0.128533 0.277607
O O7 0.373064 0.000000 0.203056
O O8 0.381010 0.097277 0.000000
O O9 0.500000 0.363969 0.193428
O O10 0.594611 0.259595 0.258584
O O11 0.609051 0.315399 0.000000
O O12 0.123329 0.902231 0.500000
O O13 0.141525 0.871171 0.219389
O O14 0.000000 0.916100 0.312902
O O15 0.127186 0.000000 0.297146
O O16 0.658982 0.788277 0.500000
O O17 0.751010 0.770014 0.265754
O O18 0.898821 0.738444 0.804866
O O19 0.000000 0.635628 0.759775
O O20 0.910903 0.638331 0.000000
O O21 0.198709 0.199674 0.000000
#
# Coordination Sequence:
#
# PCOD8198888 Si02
#       7
#     8   8   8   8   8   8   8
#     4   9  17  31  53  84 120 151 182 225 278 337
#     4   9  19  37  59  81 107 142 184 230 283 341
#     4  10  20  36  58  83 114 152 191 232 280 334
#     4   9  19  36  55  77 110 149 188 235 291 347
#     4  12  24  36  54  80 111 147 190 237 288 342
#     4   9  17  30  51  81 115 147 181 227 282 334
#     4  11  21  35  55  78 109 146 191 242 288 336
#
# _framework density 19.845804999999999
#
# number of rings (size 3 to 8) (size 9 to 14) (size 15 to 20)
#    0.000    2.143    1.429    3.429    0.000    4.857 
#    0.000    4.286    0.000    0.429    0.000    1.000 
#    0.000    1.143    0.000    0.000    0.000    0.000 
#
# Total GULP energy -694283.185357 kJ/mol
# GULP energy per Si atom -12397.914024 kJ/mol
# Density = 1.980063 g / cm^3
# Si number density = 19.845805 Si / 1000 Ang^3
#
#
#
# Elastic Constant Matrix: (Units=GPa)
#
#
# Indices 1 2 3 4 5 6 
#
# 1 133.3924 59.0832 34.0397 0.0000 0.0000 0.0000
# 2 59.0832 118.0086 36.1469 0.0000 0.0000 0.0000
# 3 34.0397 36.1469 72.7696 0.0000 0.0000 0.0000
# 4 0.0000 0.0000 0.0000 6.3635 0.0000 0.0000
# 5 0.0000 0.0000 0.0000 0.0000 18.6706 0.0000
# 6 0.0000 0.0000 0.0000 0.0000 0.0000 28.5766
#
#
#
# Elastic Compliance Matrix: (Units=1/GPa)
#
#
# Indices 1 2 3 4 5 6 
#
# 1 0.010031 -0.004228 -0.002592 0.000000 0.000000 0.000000
# 2 -0.004228 0.011777 -0.003872 0.000000 0.000000 0.000000
# 3 -0.002592 -0.003872 0.016878 0.000000 0.000000 0.000000
# 4 0.000000 0.000000 0.000000 0.157147 0.000000 0.000000
# 5 0.000000 0.000000 0.000000 0.000000 0.053560 0.000000
# 6 0.000000 0.000000 0.000000 0.000000 0.000000 0.034994
#
#
# Mechanical properties :
#
#
# Convention : Reuss Voigt Hill
#
# Bulk Modulus (GPa) = 57.79953 64.74558 61.27256
# Shear Modulus (GPa) = 16.04940 23.71552 19.88246
#
# Velocity S-wave (km/s) = 2.84686 3.46061 3.16863
# Velocity P-wave (km/s) = 6.32406 6.97588 6.65795
#
# Compressibility (1/GPa) = 0.01730118
#
# Stress axis : x y z
#
# Youngs Moduli (GPa) = 99.69202 84.91154 59.24934
#
# Poissons Ratio (x) = 0.35903 0.15357
# Poissons Ratio (y) = 0.42152 0.22942
# Poissons Ratio (z) = 0.25839 0.32879
#
# Static dielectric constant tensor:
#      x y z
#    x 3.785490 0.000000 0.000000 
#    y 0.000000 3.722510 0.000000 
#    z 0.000000 0.000000 3.212860 
# 
# 
# High freq. dielectric constant tensor:
#      x y z
#    x 1.783390 0.000000 0.000000 
#    y 0.000000 1.773630 0.000000 
#    z 0.000000 0.000000 1.729260 
# 
# From -- ./inp_files/7293.got.cif
#   From: 2010.03.12/outbox.cif.g09.slc.cpg/sg47_4_cif.got.tgz:7293.got - 2010.04.14 03:12:58.
