data_PCOD8198485
_publ_section_title
;
Structure prediction by ZEFSAII (Michael W. Deem and Ramdas Pophale) SiO2 
 PCOD8198485
Probable space group: P M M M
;
_chemical_formula_sum "Si O2"
_cell_formula_units_Z 48
_cell_length_a 28.948088
_cell_length_b 9.579745
_cell_length_c 8.752290
_cell_angle_alpha 90.000000
_cell_angle_beta 90.000000
_cell_angle_gamma 90.000000
_cell_volume 2427.143938
_symmetry_space_group_name_H-M "P M M M"
_symmetry_group_IT_number 47
_symmetry_cell_setting 'orthorhombic'
loop_
_space_group_symop_operation_xyz
x,y,z
-x,-y,z
x,-y,-z
-x,y,-z
-x,-y,-z
x,y,-z
-x,y,z
x,-y,z
loop_
_atom_site_type_symbol
_atom_site_label
_atom_site_fract_x
_atom_site_fract_y
_atom_site_fract_z
Si Si1 0.448627 0.156292 0.181617
Si Si2 0.100479 0.253807 0.822734
Si Si3 0.204350 0.338927 0.178401
Si Si4 0.948007 0.000000 0.321712
Si Si5 0.634846 0.340946 0.181735
Si Si6 0.946623 0.500000 0.331046
Si Si7 0.716786 0.161914 0.679747
O O1 0.500000 0.196749 0.240271
O O2 0.412101 0.269095 0.245063
O O3 0.435615 0.000000 0.239385
O O4 0.447982 0.157281 0.000000
O O5 0.152024 0.301136 0.781533
O O6 0.084503 0.125543 0.723964
O O7 0.065536 0.371930 0.774839
O O8 0.095595 0.217901 0.000000
O O9 0.214167 0.500000 0.224195
O O10 0.235024 0.233108 0.276120
O O11 0.215010 0.316988 0.000000
O O12 0.955573 0.000000 0.500000
O O13 0.000000 0.000000 0.246502
O O14 0.637915 0.500000 0.244340
O O15 0.677113 0.248625 0.237603
O O16 0.635519 0.342296 0.000000
O O17 0.922181 0.500000 0.500000
O O18 0.000000 0.500000 0.363144
O O19 0.709328 0.171638 0.500000
O O20 0.716294 0.000000 0.733860
#
# Coordination Sequence:
#
# PCOD8198485 Si02
#       7
#     8   8   8   4   8   4   8
#     4   8  14  26  47  77 113 152 194 239 287 341
#     4  11  23  41  64  91 120 155 199 246 294 348
#     4  10  22  42  64  88 117 147 184 233 289 346
#     4  11  25  43  61  87 125 163 199 243 294 349
#     4  10  20  34  55  84 116 152 193 238 291 346
#     4  11  23  39  61  91 125 161 199 239 290 349
#     4  11  25  41  58  84 114 148 192 238 286 344
#
# _framework density 19.776330000000002
#
# number of rings (size 3 to 8) (size 9 to 14) (size 15 to 20)
#    0.000    1.833    0.833    3.500    1.167    9.667 
#    0.000    1.667    0.000    0.500    0.000    3.500 
#    0.000    0.000    0.000    0.000    0.000    0.000 
#
# Total GULP energy -595056.713382 kJ/mol
# GULP energy per Si atom -12397.014862 kJ/mol
# Density = 1.973132 g / cm^3
# Si number density = 19.776330 Si / 1000 Ang^3
#
#
#
# Elastic Constant Matrix: (Units=GPa)
#
#
# Indices 1 2 3 4 5 6 
#
# 1 102.8549 59.8400 25.1612 0.0000 0.0000 0.0000
# 2 59.8400 166.2492 24.4654 0.0000 0.0000 0.0000
# 3 25.1612 24.4654 31.8285 0.0000 0.0000 0.0000
# 4 0.0000 0.0000 0.0000 -8.8747 0.0000 0.0000
# 5 0.0000 0.0000 0.0000 0.0000 -2.1395 0.0000
# 6 0.0000 0.0000 0.0000 0.0000 0.0000 42.5717
#
#
#
# Elastic Compliance Matrix: (Units=1/GPa)
#
#
# Indices 1 2 3 4 5 6 
#
# 1 0.013920 -0.003823 -0.008065 0.000000 0.000000 0.000000
# 2 -0.003823 0.007832 -0.002998 0.000000 0.000000 0.000000
# 3 -0.008065 -0.002998 0.040098 0.000000 0.000000 0.000000
# 4 0.000000 0.000000 0.000000 -0.112680 0.000000 0.000000
# 5 0.000000 0.000000 0.000000 0.000000 -0.467397 0.000000
# 6 0.000000 0.000000 0.000000 0.000000 0.000000 0.023490
#
#
# Mechanical properties :
#
#
# Convention : Reuss Voigt Hill
#
# Bulk Modulus (GPa) = 31.17426 57.76288 44.46857
# Shear Modulus (GPa) = -11.00663 19.07592 4.03464
#
# Velocity S-wave (km/s) = -2.36170 3.10914 1.42988
# Velocity P-wave (km/s) = 2.89150 6.49311 5.02600
#
# Compressibility (1/GPa) = 0.03207775
#
# Stress axis : x y z
#
# Youngs Moduli (GPa) = 71.84006 127.67348 24.93870
#
# Poissons Ratio (x) = 0.48816 0.20113
# Poissons Ratio (y) = 0.27468 0.07477
# Poissons Ratio (z) = 0.57939 0.38276
#
# Static dielectric constant tensor:
#      x y z
#    x 3.834900 0.000000 0.000000 
#    y 0.000000 3.921140 0.000000 
#    z 0.000000 0.000000 3.384160 
# 
# 
# High freq. dielectric constant tensor:
#      x y z
#    x 1.783380 0.000000 0.000000 
#    y 0.000000 1.785660 0.000000 
#    z 0.000000 0.000000 1.748470 
# 
# From -- ./inp_files/13999.got.cif
#   From: 2010.03.12/outbox.cif.g09.slc.cpg/sg47_7_cif.got.tgz:13999.got - 2010.04.14 03:12:58.
