data_PCOD8198037
_publ_section_title
;
Structure prediction by ZEFSAII (Michael W. Deem and Ramdas Pophale) SiO2 
 PCOD8198037
Probable space group: P M M M
;
_chemical_formula_sum "Si O2"
_cell_formula_units_Z 48
_cell_length_a 18.447582
_cell_length_b 16.356767
_cell_length_c 8.852541
_cell_angle_alpha 90.000000
_cell_angle_beta 90.000000
_cell_angle_gamma 90.000000
_cell_volume 2671.190513
_symmetry_space_group_name_H-M "P M M M"
_symmetry_group_IT_number 47
_symmetry_cell_setting 'orthorhombic'
loop_
_space_group_symop_operation_xyz
x,y,z
-x,-y,z
x,-y,-z
-x,y,-z
-x,-y,-z
x,y,-z
-x,y,z
x,-y,z
loop_
_atom_site_type_symbol
_atom_site_label
_atom_site_fract_x
_atom_site_fract_y
_atom_site_fract_z
Si Si1 0.358127 0.500000 0.178922
Si Si2 0.839371 0.339445 0.825635
Si Si3 0.698780 0.767462 0.175091
Si Si4 0.583686 0.339272 0.673168
Si Si5 0.783547 0.092938 0.677099
Si Si6 0.918435 0.800968 0.674106
Si Si7 0.799253 0.500000 0.322591
O O1 0.400934 0.420491 0.232301
O O2 0.277143 0.500000 0.239363
O O3 0.354185 0.500000 0.000000
O O4 0.761761 0.298178 0.795541
O O5 0.902873 0.278639 0.774550
O O6 0.844977 0.420938 0.726363
O O7 0.850096 0.361823 0.000000
O O8 0.628158 0.737660 0.263911
O O9 0.722325 0.855827 0.236485
O O10 0.679732 0.775526 0.000000
O O11 0.605536 0.355773 0.500000
O O12 0.500000 0.315720 0.689021
O O13 0.768339 0.099999 0.500000
O O14 0.863755 0.126089 0.717857
O O15 0.779054 0.000000 0.733797
O O16 0.907957 0.775977 0.500000
O O17 0.000000 0.831595 0.706695
O O18 0.786385 0.500000 0.500000
#
# Coordination Sequence:
#
# PCOD8198037 Si02
#       7
#     4   8   8   8   8   8   4
#     4  12  23  35  52  78 111 145 180 221 267 312
#     4  10  20  34  52  75 103 137 179 223 266 316
#     4  10  20  34  54  77 105 140 177 220 267 319
#     4  11  23  37  54  78 109 145 183 222 266 316
#     4   9  18  33  55  82 110 140 175 216 263 318
#     4   9  18  33  53  78 109 142 176 215 262 318
#     4  12  22  33  54  77 102 138 180 228 270 309
#
# _framework density 17.969515999999999
#
# number of rings (size 3 to 8) (size 9 to 14) (size 15 to 20)
#    0.000    1.833    1.667    3.250    0.000    4.667 
#    0.000    2.083    0.000    3.000    0.000    8.167 
#    0.000    0.000    0.000    0.000    0.000    0.000 
#
# Total GULP energy -595412.550567 kJ/mol
# GULP energy per Si atom -12404.428137 kJ/mol
# Density = 1.792862 g / cm^3
# Si number density = 17.969516 Si / 1000 Ang^3
#
#
#
# Elastic Constant Matrix: (Units=GPa)
#
#
# Indices 1 2 3 4 5 6 
#
# 1 83.8061 50.1923 43.1197 0.0000 0.0000 0.0000
# 2 50.1923 136.6530 60.0688 0.0000 0.0000 0.0000
# 3 43.1197 60.0688 112.9338 0.0000 0.0000 0.0000
# 4 0.0000 0.0000 0.0000 24.4355 0.0000 0.0000
# 5 0.0000 0.0000 0.0000 0.0000 21.1001 0.0000
# 6 0.0000 0.0000 0.0000 0.0000 0.0000 17.9294
#
#
#
# Elastic Compliance Matrix: (Units=1/GPa)
#
#
# Indices 1 2 3 4 5 6 
#
# 1 0.016598 -0.004321 -0.004039 0.000000 0.000000 0.000000
# 2 -0.004321 0.010676 -0.004029 0.000000 0.000000 0.000000
# 3 -0.004039 -0.004029 0.012540 0.000000 0.000000 0.000000
# 4 0.000000 0.000000 0.000000 0.040924 0.000000 0.000000
# 5 0.000000 0.000000 0.000000 0.000000 0.047393 0.000000
# 6 0.000000 0.000000 0.000000 0.000000 0.000000 0.055774
#
#
# Mechanical properties :
#
#
# Convention : Reuss Voigt Hill
#
# Bulk Modulus (GPa) = 66.50534 71.12828 68.81681
# Shear Modulus (GPa) = 23.39782 24.69380 24.04581
#
# Velocity S-wave (km/s) = 3.61235 3.71105 3.66203
# Velocity P-wave (km/s) = 7.38168 7.61782 7.50068
#
# Compressibility (1/GPa) = 0.01503639
#
# Stress axis : x y z
#
# Youngs Moduli (GPa) = 60.24650 93.67027 79.74667
#
# Poissons Ratio (x) = 0.40476 0.32211
# Poissons Ratio (y) = 0.26033 0.32126
# Poissons Ratio (z) = 0.24335 0.37735
#
# Static dielectric constant tensor:
#      x y z
#    x 3.227560 0.000000 0.000000 
#    y 0.000000 3.329580 0.000000 
#    z 0.000000 0.000000 3.442050 
# 
# 
# High freq. dielectric constant tensor:
#      x y z
#    x 1.681100 0.000000 0.000000 
#    y 0.000000 1.687590 0.000000 
#    z 0.000000 0.000000 1.705940 
# 
# From -- ./inp_files/6461.got.cif
#   From: 2010.03.12/outbox.cif.g09.slc.cpg/sg47_4_cif.got.tgz:6461.got - 2010.04.14 03:12:58.
