data_PCOD8198879
_publ_section_title
;
Structure prediction by ZEFSAII (Michael W. Deem and Ramdas Pophale) SiO2 
 PCOD8198879
Probable space group: P M M M
;
_chemical_formula_sum "Si O2"
_cell_formula_units_Z 64
_cell_length_a 23.588307
_cell_length_b 9.325918
_cell_length_c 14.958014
_cell_angle_alpha 90.000000
_cell_angle_beta 90.000000
_cell_angle_gamma 90.000000
_cell_volume 3290.503062
_symmetry_space_group_name_H-M "P M M M"
_symmetry_group_IT_number 47
_symmetry_cell_setting 'orthorhombic'
loop_
_space_group_symop_operation_xyz
x,y,z
-x,-y,z
x,-y,-z
-x,y,-z
-x,-y,-z
x,y,-z
-x,y,z
x,-y,z
loop_
_atom_site_type_symbol
_atom_site_label
_atom_site_fract_x
_atom_site_fract_y
_atom_site_fract_z
Si Si1 0.066911 0.164045 0.398441
Si Si2 0.563674 0.337975 0.603524
Si Si3 0.560973 0.838607 0.105143
Si Si4 0.662696 0.842326 0.348919
Si Si5 0.318648 0.840537 0.149170
Si Si6 0.145536 0.328228 0.733578
Si Si7 0.240079 0.339587 0.403119
Si Si8 0.196281 0.830687 0.898371
O O1 0.084583 0.211221 0.500000
O O2 0.092042 0.265216 0.320400
O O3 0.000000 0.176288 0.388638
O O4 0.086734 0.000000 0.382448
O O5 0.568421 0.295949 0.500000
O O6 0.500000 0.319031 0.638062
O O7 0.584391 0.500000 0.618418
O O8 0.601654 0.231481 0.661334
O O9 0.500000 0.768773 0.138485
O O10 0.620640 0.758649 0.131559
O O11 0.563625 0.000000 0.145029
O O12 0.558504 0.842886 0.000000
O O13 0.692970 0.847039 0.253821
O O14 0.703409 0.753656 0.413294
O O15 0.654436 0.000000 0.389404
O O16 0.261513 0.770596 0.107696
O O17 0.324454 0.000000 0.107393
O O18 0.138751 0.500000 0.743765
O O19 0.198839 0.282338 0.673194
O O20 0.154681 0.256028 0.831121
O O21 0.209238 0.333727 0.500000
O O22 0.259281 0.500000 0.379267
O O23 0.194617 0.000000 0.873935
O O24 0.174809 0.804760 0.000000
#
# Coordination Sequence:
#
# PCOD8198879 Si02
#       8
#     8   8   8   8   8   8   8   8
#     4   9  19  37  62  93 129 167 202 235 275 328
#     4   9  19  36  53  65  84 123 172 216 263 329
#     4   8  13  22  38  60  86 119 159 203 259 330
#     4  11  21  31  47  73 102 128 163 220 280 329
#     4   9  17  29  44  67 100 133 170 219 278 340
#     4  11  22  36  57  86 120 155 195 243 286 332
#     4  10  21  36  52  72 104 147 186 219 265 328
#     4  10  20  36  58  80 108 151 200 247 295 349
#
# _framework density 19.449912999999999
#
# number of rings (size 3 to 8) (size 9 to 14) (size 15 to 20)
#    0.000    2.375    1.250    3.000    0.000    6.000 
#    0.000    2.500    0.000    0.375    0.000    2.625 
#    0.000    0.000    0.000    8.250    0.000    8.000 
#
# Total GULP energy -792852.162984 kJ/mol
# GULP energy per Si atom -12388.315047 kJ/mol
# Density = 1.940564 g / cm^3
# Si number density = 19.449913 Si / 1000 Ang^3
#
#
#
# Elastic Constant Matrix: (Units=GPa)
#
#
# Indices 1 2 3 4 5 6 
#
# 1 79.5938 39.4285 35.4066 0.0000 0.0000 0.0000
# 2 39.4285 78.9530 37.5813 0.0000 0.0000 0.0000
# 3 35.4066 37.5813 95.9849 0.0000 0.0000 0.0000
# 4 0.0000 0.0000 0.0000 20.2425 0.0000 0.0000
# 5 0.0000 0.0000 0.0000 0.0000 31.2429 0.0000
# 6 0.0000 0.0000 0.0000 0.0000 0.0000 24.0677
#
#
#
# Elastic Compliance Matrix: (Units=1/GPa)
#
#
# Indices 1 2 3 4 5 6 
#
# 1 0.017744 -0.007062 -0.003780 0.000000 0.000000 0.000000
# 2 -0.007062 0.018377 -0.004590 0.000000 0.000000 0.000000
# 3 -0.003780 -0.004590 0.013610 0.000000 0.000000 0.000000
# 4 0.000000 0.000000 0.000000 0.049401 0.000000 0.000000
# 5 0.000000 0.000000 0.000000 0.000000 0.032007 0.000000
# 6 0.000000 0.000000 0.000000 0.000000 0.000000 0.041549
#
#
# Mechanical properties :
#
#
# Convention : Reuss Voigt Hill
#
# Bulk Modulus (GPa) = 53.00490 53.26274 53.13382
# Shear Modulus (GPa) = 23.82744 24.58499 24.20621
#
# Velocity S-wave (km/s) = 3.50389 3.55916 3.53163
# Velocity P-wave (km/s) = 6.60915 6.65839 6.63381
#
# Compressibility (1/GPa) = 0.01886618
#
# Stress axis : x y z
#
# Youngs Moduli (GPa) = 56.35858 54.41503 73.47479
#
# Poissons Ratio (x) = 0.38425 0.27776
# Poissons Ratio (y) = 0.39798 0.33728
# Poissons Ratio (z) = 0.21306 0.24979
#
# Static dielectric constant tensor:
#      x y z
#    x 3.532910 0.000000 0.000000 
#    y 0.000000 3.295300 0.000000 
#    z 0.000000 0.000000 3.448280 
# 
# 
# High freq. dielectric constant tensor:
#      x y z
#    x 1.748570 0.000000 0.000000 
#    y 0.000000 1.720910 0.000000 
#    z 0.000000 0.000000 1.752990 
# 
# From -- ./inp_files/25529.got.cif
#   From: 2010.03.12/outbox.cif.g09.slc.cpg/sg47_13_cif.got.tgz:25529.got - 2010.04.14 03:12:58.
