data_PCOD8198866
_publ_section_title
;
Structure prediction by ZEFSAII (Michael W. Deem and Ramdas Pophale) SiO2 
 PCOD8198866
Probable space group: P M M M
;
_chemical_formula_sum "Si O2"
_cell_formula_units_Z 64
_cell_length_a 14.769882
_cell_length_b 9.012800
_cell_length_c 24.661636
_cell_angle_alpha 90.000000
_cell_angle_beta 90.000000
_cell_angle_gamma 90.000000
_cell_volume 3282.907476
_symmetry_space_group_name_H-M "P M M M"
_symmetry_group_IT_number 47
_symmetry_cell_setting 'orthorhombic'
loop_
_space_group_symop_operation_xyz
x,y,z
-x,-y,z
x,-y,-z
-x,y,-z
-x,-y,-z
x,y,-z
-x,y,z
x,-y,z
loop_
_atom_site_type_symbol
_atom_site_label
_atom_site_fract_x
_atom_site_fract_y
_atom_site_fract_z
Si Si1 0.101326 0.176361 0.560777
Si Si2 0.399011 0.335645 0.436395
Si Si3 0.280145 0.170405 0.060352
Si Si4 0.604442 0.675692 0.846315
Si Si5 0.903089 0.324203 0.209534
Si Si6 0.719555 0.323901 0.743170
Si Si7 0.898674 0.326213 0.085745
Si Si8 0.735159 0.172465 0.367778
O O1 0.126759 0.235014 0.500000
O O2 0.170168 0.235459 0.607115
O O3 0.000000 0.230422 0.575999
O O4 0.105948 0.000000 0.559564
O O5 0.400102 0.315018 0.500000
O O6 0.500000 0.320094 0.412947
O O7 0.360987 0.500000 0.421044
O O8 0.339797 0.202830 0.412853
O O9 0.342847 0.256092 0.102885
O O10 0.178559 0.235054 0.055302
O O11 0.274879 0.000000 0.078643
O O12 0.323023 0.185005 0.000000
O O13 0.500000 0.727798 0.847008
O O14 0.612933 0.500000 0.851857
O O15 0.648900 0.728660 0.789426
O O16 0.901134 0.500000 0.212132
O O17 0.819356 0.259351 0.242978
O O18 0.892790 0.274977 0.147773
O O19 0.000000 0.265525 0.232650
O O20 0.717888 0.500000 0.738983
O O21 0.698099 0.256328 0.685079
O O22 0.877933 0.500000 0.078967
O O23 0.000000 0.291035 0.063073
O O24 0.742633 0.000000 0.354519
#
# Coordination Sequence:
#
# PCOD8198866 Si02
#       8
#     8   8   8   8   8   8   8   8
#     4   8  15  30  51  74 106 151 195 230 268 316
#     4   9  19  37  59  80 104 138 179 223 276 336
#     4  11  24  39  57  85 122 156 183 222 282 350
#     4  10  22  42  66  86 104 137 191 246 290 338
#     4   8  14  28  53  80 104 135 178 226 271 315
#     4  10  20  36  56  79 110 147 185 227 279 335
#     4   9  17  33  59  87 114 148 191 233 270 315
#     4  11  22  33  51  83 117 146 183 229 275 328
#
# _framework density 19.494914000000001
#
# number of rings (size 3 to 8) (size 9 to 14) (size 15 to 20)
#    0.000    2.500    1.250    2.625    0.000    4.500 
#    0.000    4.375    0.000    1.125    0.000    4.375 
#    0.000    0.000    0.000    0.000    0.000    0.000 
#
# Total GULP energy -793162.537359 kJ/mol
# GULP energy per Si atom -12393.164646 kJ/mol
# Density = 1.945054 g / cm^3
# Si number density = 19.494914 Si / 1000 Ang^3
#
#
#
# Elastic Constant Matrix: (Units=GPa)
#
#
# Indices 1 2 3 4 5 6 
#
# 1 132.3552 33.8689 57.0439 0.0000 0.0000 0.0000
# 2 33.8689 35.4886 28.9066 0.0000 0.0000 0.0000
# 3 57.0439 28.9066 92.8626 0.0000 0.0000 0.0000
# 4 0.0000 0.0000 0.0000 23.7771 0.0000 0.0000
# 5 0.0000 0.0000 0.0000 0.0000 10.2501 0.0000
# 6 0.0000 0.0000 0.0000 0.0000 0.0000 19.7501
#
#
#
# Elastic Compliance Matrix: (Units=1/GPa)
#
#
# Indices 1 2 3 4 5 6 
#
# 1 0.011427 -0.006950 -0.004856 0.000000 0.000000 0.000000
# 2 -0.006950 0.041977 -0.008797 0.000000 0.000000 0.000000
# 3 -0.004856 -0.008797 0.016490 0.000000 0.000000 0.000000
# 4 0.000000 0.000000 0.000000 0.042057 0.000000 0.000000
# 5 0.000000 0.000000 0.000000 0.000000 0.097560 0.000000
# 6 0.000000 0.000000 0.000000 0.000000 0.000000 0.050633
#
#
# Mechanical properties :
#
#
# Convention : Reuss Voigt Hill
#
# Bulk Modulus (GPa) = 34.85915 55.59391 45.22653
# Shear Modulus (GPa) = 16.08173 20.14791 18.11482
#
# Velocity S-wave (km/s) = 2.87526 3.21829 3.05160
# Velocity P-wave (km/s) = 5.37985 6.51068 5.97209
#
# Compressibility (1/GPa) = 0.02868687
#
# Stress axis : x y z
#
# Youngs Moduli (GPa) = 87.51434 23.82284 60.64315
#
# Poissons Ratio (x) = 0.16557 0.29447
# Poissons Ratio (y) = 0.60822 0.53350
# Poissons Ratio (z) = 0.42495 0.20958
#
# Static dielectric constant tensor:
#      x y z
#    x 3.953200 0.000000 0.000000 
#    y 0.000000 3.197120 0.000000 
#    z 0.000000 0.000000 3.522150 
# 
# 
# High freq. dielectric constant tensor:
#      x y z
#    x 1.767230 0.000000 0.000000 
#    y 0.000000 1.723200 0.000000 
#    z 0.000000 0.000000 1.757950 
# 
# From -- ./inp_files/32793.got.cif
#   From: 2010.03.12/outbox.cif.g09.slc.cpg/sg47_17_cif.got.tgz:32793.got - 2010.04.14 03:12:58.
