data_PCOD8198526
_publ_section_title
;
Structure prediction by ZEFSAII (Michael W. Deem and Ramdas Pophale) SiO2 
 PCOD8198526
Probable space group: P M M M
;
_chemical_formula_sum "Si O2"
_cell_formula_units_Z 64
_cell_length_a 9.000534
_cell_length_b 15.430738
_cell_length_c 23.864954
_cell_angle_alpha 90.000000
_cell_angle_beta 90.000000
_cell_angle_gamma 90.000000
_cell_volume 3314.481321
_symmetry_space_group_name_H-M "P M M M"
_symmetry_group_IT_number 47
_symmetry_cell_setting 'orthorhombic'
loop_
_space_group_symop_operation_xyz
x,y,z
-x,-y,z
x,-y,-z
-x,y,-z
-x,-y,-z
x,y,-z
-x,y,z
x,-y,z
loop_
_atom_site_type_symbol
_atom_site_label
_atom_site_fract_x
_atom_site_fract_y
_atom_site_fract_z
Si Si1 0.173229 0.848683 0.436754
Si Si2 0.175491 0.752462 0.262252
Si Si3 0.670641 0.596803 0.322842
Si Si4 0.823816 0.745119 0.865341
Si Si5 0.329735 0.903106 0.669755
Si Si6 0.823356 0.095769 0.937060
Si Si7 0.673223 0.599571 0.063834
Si Si8 0.331823 0.328429 0.561572
O O1 0.210186 0.879712 0.500000
O O2 0.264039 0.906213 0.392983
O O3 0.217456 0.749032 0.428216
O O4 0.000000 0.858422 0.423680
O O5 0.225028 0.664363 0.291788
O O6 0.231184 0.749286 0.198411
O O7 0.242640 0.836936 0.291115
O O8 0.000000 0.760164 0.266406
O O9 0.500000 0.617236 0.307406
O O10 0.714283 0.500000 0.303591
O O11 0.694602 0.601151 0.390042
O O12 0.758352 0.830353 0.896355
O O13 0.764399 0.658389 0.893761
O O14 0.000000 0.742802 0.869216
O O15 0.500000 0.872909 0.666855
O O16 0.315260 0.000000 0.694883
O O17 0.000000 0.098134 0.936067
O O18 0.768764 0.000000 0.917510
O O19 0.766094 0.114427 0.000000
O O20 0.500000 0.617492 0.072420
O O21 0.711118 0.500000 0.077690
O O22 0.719758 0.621057 0.000000
O O23 0.304625 0.370619 0.500000
O O24 0.500000 0.291424 0.565267
#
# Coordination Sequence:
#
# PCOD8198526 Si02
#       8
#     8   8   8   8   8   8   8   8
#     4  10  20  34  56  86 117 146 177 221 282 346
#     4  11  24  40  57  80 112 150 192 239 287 333
#     4  10  21  37  58  82 109 146 189 231 281 340
#     4  10  21  35  55  83 111 144 188 233 276 325
#     4  11  24  41  61  83 109 146 192 238 284 339
#     4   8  14  27  50  80 111 139 168 209 264 323
#     4   9  19  36  57  83 116 152 188 227 276 333
#     4   9  17  31  54  82 111 142 177 222 276 336
#
# _framework density 19.309206
#
# number of rings (size 3 to 8) (size 9 to 14) (size 15 to 20)
#    0.000    2.250    1.250    2.250    0.000    5.500 
#    0.000    6.875    0.000    0.375    0.000    4.375 
#    0.000    0.000    0.000    0.000    0.000    0.000 
#
# Total GULP energy -793502.098752 kJ/mol
# GULP energy per Si atom -12398.470293 kJ/mol
# Density = 1.926526 g / cm^3
# Si number density = 19.309206 Si / 1000 Ang^3
#
#
#
# Elastic Constant Matrix: (Units=GPa)
#
#
# Indices 1 2 3 4 5 6 
#
# 1 58.7324 36.8829 42.6249 0.0000 0.0000 0.0000
# 2 36.8829 117.9674 70.8463 0.0000 0.0000 0.0000
# 3 42.6249 70.8463 136.4516 0.0000 0.0000 0.0000
# 4 0.0000 0.0000 0.0000 9.6682 0.0000 0.0000
# 5 0.0000 0.0000 0.0000 0.0000 25.2880 0.0000
# 6 0.0000 0.0000 0.0000 0.0000 0.0000 16.5105
#
#
#
# Elastic Compliance Matrix: (Units=1/GPa)
#
#
# Indices 1 2 3 4 5 6 
#
# 1 0.023399 -0.004252 -0.005102 0.000000 0.000000 0.000000
# 2 -0.004252 0.013090 -0.005468 0.000000 0.000000 0.000000
# 3 -0.005102 -0.005468 0.011762 0.000000 0.000000 0.000000
# 4 0.000000 0.000000 0.000000 0.103432 0.000000 0.000000
# 5 0.000000 0.000000 0.000000 0.000000 0.039544 0.000000
# 6 0.000000 0.000000 0.000000 0.000000 0.000000 0.060568
#
#
# Mechanical properties :
#
#
# Convention : Reuss Voigt Hill
#
# Bulk Modulus (GPa) = 53.74368 68.20663 60.97515
# Shear Modulus (GPa) = 17.38276 21.14650 19.26463
#
# Velocity S-wave (km/s) = 3.00364 3.31290 3.16205
# Velocity P-wave (km/s) = 6.31845 7.07346 6.70658
#
# Compressibility (1/GPa) = 0.01860684
#
# Stress axis : x y z
#
# Youngs Moduli (GPa) = 42.73665 76.39214 85.02287
#
# Poissons Ratio (x) = 0.32481 0.43377
# Poissons Ratio (y) = 0.18171 0.46494
# Poissons Ratio (z) = 0.21804 0.41774
#
# Static dielectric constant tensor:
#      x y z
#    x 3.350680 0.000000 0.000000 
#    y 0.000000 3.504340 0.000000 
#    z 0.000000 0.000000 3.711680 
# 
# 
# High freq. dielectric constant tensor:
#      x y z
#    x 1.734890 0.000000 0.000000 
#    y 0.000000 1.751420 0.000000 
#    z 0.000000 0.000000 1.753530 
# 
# From -- ./inp_files/12778.got.cif
#   From: 2010.03.12/outbox.cif.g09.slc.cpg/sg47_7_cif.got.tgz:12778.got - 2010.04.14 03:12:58.
