data_PCOD8198841
_publ_section_title
;
Structure prediction by ZEFSAII (Michael W. Deem and Ramdas Pophale) SiO2 
 PCOD8198841
Probable space group: P M M M
;
_chemical_formula_sum "Si O2"
_cell_formula_units_Z 48
_cell_length_a 18.975809
_cell_length_b 15.090666
_cell_length_c 8.546498
_cell_angle_alpha 90.000000
_cell_angle_beta 90.000000
_cell_angle_gamma 90.000000
_cell_volume 2447.354619
_symmetry_space_group_name_H-M "P M M M"
_symmetry_group_IT_number 47
_symmetry_cell_setting 'orthorhombic'
loop_
_space_group_symop_operation_xyz
x,y,z
-x,-y,z
x,-y,-z
-x,y,-z
-x,-y,-z
x,y,-z
-x,y,z
x,-y,z
loop_
_atom_site_type_symbol
_atom_site_label
_atom_site_fract_x
_atom_site_fract_y
_atom_site_fract_z
Si Si1 0.315722 0.101804 0.180015
Si Si2 0.177724 0.344134 0.183195
Si Si3 0.324993 0.401708 0.684396
Si Si4 0.418928 0.758281 0.315241
Si Si5 0.921657 0.500000 0.814281
Si Si6 0.083383 0.000000 0.820034
Si Si7 0.830390 0.157792 0.682594
O O1 0.382389 0.159789 0.229468
O O2 0.248555 0.125516 0.284257
O O3 0.336691 0.000000 0.207208
O O4 0.296250 0.120606 0.000000
O O5 0.250366 0.361636 0.270099
O O6 0.119394 0.413063 0.244795
O O7 0.150830 0.246380 0.222813
O O8 0.190705 0.355424 0.000000
O O9 0.328414 0.409486 0.500000
O O10 0.336228 0.500000 0.758456
O O11 0.385343 0.334537 0.743556
O O12 0.408893 0.770038 0.500000
O O13 0.500000 0.757554 0.265361
O O14 0.000000 0.500000 0.740901
O O15 0.926588 0.500000 0.000000
O O16 0.112994 0.914018 0.734894
O O17 0.000000 0.000000 0.804823
O O18 0.108430 0.000000 0.000000
O O19 0.838058 0.176639 0.500000
#
# Coordination Sequence:
#
# PCOD8198841 Si02
#       7
#     8   8   8   8   4   4   8
#     4  11  23  39  62  89 119 157 204 252 302 362
#     4  11  21  36  61  90 119 158 207 254 301 362
#     4  10  20  35  58  87 120 158 201 250 304 364
#     4  10  22  39  59  87 123 162 203 249 305 365
#     4   9  20  38  59  87 122 159 200 248 302 354
#     4  11  25  45  67  93 126 163 204 251 303 361
#     4  12  24  39  63  93 125 161 203 252 305 363
#
# _framework density 19.613015000000001
#
# number of rings (size 3 to 8) (size 9 to 14) (size 15 to 20)
#    0.000    1.333    3.333    2.750    0.000    3.333 
#    0.000    5.000    0.000    3.500    0.000    2.333 
#    0.000    0.000    0.000    0.000    0.000    0.000 
#
# Total GULP energy -595401.935799 kJ/mol
# GULP energy per Si atom -12404.206996 kJ/mol
# Density = 1.956837 g / cm^3
# Si number density = 19.613015 Si / 1000 Ang^3
#
#
#
# Elastic Constant Matrix: (Units=GPa)
#
#
# Indices 1 2 3 4 5 6 
#
# 1 122.2817 55.2226 12.8093 0.0000 0.0000 0.0000
# 2 55.2226 158.3845 13.4207 0.0000 0.0000 0.0000
# 3 12.8093 13.4207 15.9754 0.0000 0.0000 0.0000
# 4 0.0000 0.0000 0.0000 27.9285 0.0000 0.0000
# 5 0.0000 0.0000 0.0000 0.0000 26.1957 0.0000
# 6 0.0000 0.0000 0.0000 0.0000 0.0000 32.6629
#
#
#
# Elastic Compliance Matrix: (Units=1/GPa)
#
#
# Indices 1 2 3 4 5 6 
#
# 1 0.010145 -0.003066 -0.005558 0.000000 0.000000 0.000000
# 2 -0.003066 0.007724 -0.004031 0.000000 0.000000 0.000000
# 3 -0.005558 -0.004031 0.070439 0.000000 0.000000 0.000000
# 4 0.000000 0.000000 0.000000 0.035806 0.000000 0.000000
# 5 0.000000 0.000000 0.000000 0.000000 0.038174 0.000000
# 6 0.000000 0.000000 0.000000 0.000000 0.000000 0.030616
#
#
# Mechanical properties :
#
#
# Convention : Reuss Voigt Hill
#
# Bulk Modulus (GPa) = 15.87353 51.06074 33.46714
# Shear Modulus (GPa) = 20.90181 31.70334 26.30258
#
# Velocity S-wave (km/s) = 3.26807 4.02486 3.66605
# Velocity P-wave (km/s) = 4.72771 6.90580 5.91782
#
# Compressibility (1/GPa) = 0.06299796
#
# Stress axis : x y z
#
# Youngs Moduli (GPa) = 98.57319 129.46129 14.19664
#
# Poissons Ratio (x) = 0.39694 0.07891
# Poissons Ratio (y) = 0.30223 0.05722
# Poissons Ratio (z) = 0.54791 0.52181
#
# Static dielectric constant tensor:
#      x y z
#    x 3.559960 0.000000 0.000000 
#    y 0.000000 4.102750 0.000000 
#    z 0.000000 0.000000 3.520550 
# 
# 
# High freq. dielectric constant tensor:
#      x y z
#    x 1.759510 0.000000 0.000000 
#    y 0.000000 1.785280 0.000000 
#    z 0.000000 0.000000 1.756850 
# 
# From -- ./inp_files/9200.got.cif
#   From: 2010.03.12/outbox.cif.g09.slc.cpg/sg47_5_cif.got.tgz:9200.got - 2010.04.14 03:12:58.
