data_PCOD8198408
_publ_section_title
;
Structure prediction by ZEFSAII (Michael W. Deem and Ramdas Pophale) SiO2 
 PCOD8198408
Probable space group: P M M M
;
_chemical_formula_sum "Si O2"
_cell_formula_units_Z 56
_cell_length_a 14.244498
_cell_length_b 8.814382
_cell_length_c 21.148353
_cell_angle_alpha 90.000000
_cell_angle_beta 90.000000
_cell_angle_gamma 90.000000
_cell_volume 2655.312058
_symmetry_space_group_name_H-M "P M M M"
_symmetry_group_IT_number 47
_symmetry_cell_setting 'orthorhombic'
loop_
_space_group_symop_operation_xyz
x,y,z
-x,-y,z
x,-y,-z
-x,y,-z
-x,-y,-z
x,y,-z
-x,y,z
x,-y,z
loop_
_atom_site_type_symbol
_atom_site_label
_atom_site_fract_x
_atom_site_fract_y
_atom_site_fract_z
Si Si1 0.273202 0.675552 0.570290
Si Si2 0.286725 0.324742 0.929007
Si Si3 0.605698 0.320393 0.311725
Si Si4 0.106022 0.825293 0.628542
Si Si5 0.287520 0.176878 0.805347
Si Si6 0.898529 0.834302 0.926905
Si Si7 0.892499 0.676734 0.239016
O O1 0.315499 0.701112 0.500000
O O2 0.248632 0.500000 0.581474
O O3 0.347699 0.733346 0.622358
O O4 0.177324 0.772090 0.574453
O O5 0.312227 0.500000 0.921408
O O6 0.335763 0.230244 0.872032
O O7 0.175840 0.300379 0.917569
O O8 0.316583 0.268481 0.000000
O O9 0.500000 0.256005 0.310263
O O10 0.605744 0.500000 0.306843
O O11 0.662570 0.257525 0.252667
O O12 0.127780 0.722228 0.689074
O O13 0.000000 0.800573 0.603901
O O14 0.123309 0.000000 0.646882
O O15 0.176635 0.225017 0.805897
O O16 0.300712 0.000000 0.797097
O O17 0.000000 0.789596 0.896232
O O18 0.862907 0.000000 0.899925
O O19 0.914982 0.857846 0.000000
O O20 0.868896 0.500000 0.230971
O O21 0.000000 0.714269 0.221189
#
# Coordination Sequence:
#
# PCOD8198408 Si02
#       7
#     8   8   8   8   8   8   8
#     4  10  21  37  60  91 126 165 206 248 296 350
#     4  10  21  36  55  80 111 149 193 241 294 353
#     4  10  22  42  67  92 120 155 197 247 301 360
#     4  10  20  34  54  83 121 165 209 251 299 351
#     4  12  24  38  61  89 120 158 198 245 300 360
#     4   8  14  26  44  67 100 143 188 233 281 335
#     4  10  20  35  57  84 116 156 203 254 302 351
#
# _framework density 21.0898
#
# number of rings (size 3 to 8) (size 9 to 14) (size 15 to 20)
#    0.000    2.000    1.429    3.000    0.000    4.571 
#    0.000    4.286    0.000    0.429    0.000    5.000 
#    0.000    0.000    0.000    0.000    0.000    0.000 
#
# Total GULP energy -694072.579964 kJ/mol
# GULP energy per Si atom -12394.153214 kJ/mol
# Density = 2.104180 g / cm^3
# Si number density = 21.089800 Si / 1000 Ang^3
#
#
#
# Elastic Constant Matrix: (Units=GPa)
#
#
# Indices 1 2 3 4 5 6 
#
# 1 75.5485 17.6136 38.8966 0.0000 0.0000 0.0000
# 2 17.6136 43.6784 22.7792 0.0000 0.0000 0.0000
# 3 38.8966 22.7792 141.8147 0.0000 0.0000 0.0000
# 4 0.0000 0.0000 0.0000 19.3719 0.0000 0.0000
# 5 0.0000 0.0000 0.0000 0.0000 4.8208 0.0000
# 6 0.0000 0.0000 0.0000 0.0000 0.0000 14.5884
#
#
#
# Elastic Compliance Matrix: (Units=1/GPa)
#
#
# Indices 1 2 3 4 5 6 
#
# 1 0.016220 -0.004607 -0.003709 0.000000 0.000000 0.000000
# 2 -0.004607 0.026296 -0.002960 0.000000 0.000000 0.000000
# 3 -0.003709 -0.002960 0.008544 0.000000 0.000000 0.000000
# 4 0.000000 0.000000 0.000000 0.051621 0.000000 0.000000
# 5 0.000000 0.000000 0.000000 0.000000 0.207433 0.000000
# 6 0.000000 0.000000 0.000000 0.000000 0.000000 0.068548
#
#
# Mechanical properties :
#
#
# Convention : Reuss Voigt Hill
#
# Bulk Modulus (GPa) = 35.07695 46.62448 40.85072
# Shear Modulus (GPa) = 12.17383 19.87305 16.02344
#
# Velocity S-wave (km/s) = 2.40518 3.07303 2.75939
# Velocity P-wave (km/s) = 4.93776 5.89465 5.43730
#
# Compressibility (1/GPa) = 0.02850875
#
# Stress axis : x y z
#
# Youngs Moduli (GPa) = 61.65204 38.02842 117.03812
#
# Poissons Ratio (x) = 0.17518 0.43408
# Poissons Ratio (y) = 0.28401 0.34647
# Poissons Ratio (z) = 0.22866 0.11258
#
# Static dielectric constant tensor:
#      x y z
#    x 3.716150 0.000000 0.000000 
#    y 0.000000 3.658660 0.000000 
#    z 0.000000 0.000000 3.994750 
# 
# 
# High freq. dielectric constant tensor:
#      x y z
#    x 1.791430 0.000000 0.000000 
#    y 0.000000 1.819400 0.000000 
#    z 0.000000 0.000000 1.842400 
# 
# From -- ./inp_files/30962.got.cif
#   From: 2010.03.12/outbox.cif.g09.slc.cpg/sg47_16_cif.got.tgz:30962.got - 2010.04.14 03:12:58.
