data_PCOD8198931
_publ_section_title
;
Structure prediction by ZEFSAII (Michael W. Deem and Ramdas Pophale) SiO2 
 PCOD8198931
Probable space group: P M M M
;
_chemical_formula_sum "Si O2"
_cell_formula_units_Z 48
_cell_length_a 8.731637
_cell_length_b 28.964820
_cell_length_c 9.805699
_cell_angle_alpha 90.000000
_cell_angle_beta 90.000000
_cell_angle_gamma 90.000000
_cell_volume 2479.962217
_symmetry_space_group_name_H-M "P M M M"
_symmetry_group_IT_number 47
_symmetry_cell_setting 'orthorhombic'
loop_
_space_group_symop_operation_xyz
x,y,z
-x,-y,z
x,-y,-z
-x,y,-z
-x,-y,-z
x,y,-z
-x,y,z
x,-y,z
loop_
_atom_site_type_symbol
_atom_site_label
_atom_site_fract_x
_atom_site_fract_y
_atom_site_fract_z
Si Si1 0.179397 0.872554 0.659311
Si Si2 0.679383 0.794105 0.156266
Si Si3 0.820706 0.697350 0.843035
Si Si4 0.819913 0.448194 0.500000
Si Si5 0.680553 0.392449 0.742059
Si Si6 0.681226 0.448720 0.000000
Si Si7 0.323386 0.054022 0.155003
O O1 0.228550 0.874367 0.500000
O O2 0.272091 0.833303 0.738424
O O3 0.219165 0.920669 0.733231
O O4 0.000000 0.862745 0.672703
O O5 0.500000 0.784912 0.169232
O O6 0.767557 0.748048 0.201149
O O7 0.721952 0.808104 0.000000
O O8 0.732909 0.660598 0.749290
O O9 0.000000 0.692643 0.817607
O O10 0.775587 0.688519 0.000000
O O11 0.748695 0.500000 0.500000
O O12 0.764788 0.419213 0.625760
O O13 0.000000 0.451851 0.500000
O O14 0.500000 0.394219 0.720058
O O15 0.739329 0.419769 0.873027
O O16 0.754493 0.500000 0.000000
O O17 0.500000 0.452925 0.000000
O O18 0.500000 0.068118 0.177422
O O19 0.299814 0.000000 0.178515
O O20 0.274943 0.067408 0.000000
#
# Coordination Sequence:
#
# PCOD8198931 Si02
#       7
#     8   8   8   4   8   4   8
#     4  11  24  39  55  82 121 159 196 240 293 349
#     4  10  21  38  62  88 113 146 193 243 290 344
#     4  10  20  36  60  89 121 152 186 232 291 351
#     4  11  25  43  59  81 117 157 195 237 288 345
#     4  11  21  37  61  87 117 151 193 239 285 342
#     4   9  18  32  55  87 117 145 183 235 286 331
#     4   9  19  37  61  88 117 152 198 248 294 344
#
# _framework density 19.355134
#
# number of rings (size 3 to 8) (size 9 to 14) (size 15 to 20)
#    0.000    1.833    0.833    3.750    0.000    7.333 
#    1.500    2.500    0.000    2.000    0.000    0.000 
#    0.000    0.000    0.000    0.000    0.000    0.000 
#
# Total GULP energy -595251.029445 kJ/mol
# GULP energy per Si atom -12401.063113 kJ/mol
# Density = 1.931108 g / cm^3
# Si number density = 19.355134 Si / 1000 Ang^3
#
#
#
# Elastic Constant Matrix: (Units=GPa)
#
#
# Indices 1 2 3 4 5 6 
#
# 1 54.0342 19.1703 26.4594 0.0000 0.0000 0.0000
# 2 19.1703 104.1827 51.6888 0.0000 0.0000 0.0000
# 3 26.4594 51.6888 123.5673 0.0000 0.0000 0.0000
# 4 0.0000 0.0000 0.0000 37.4356 0.0000 0.0000
# 5 0.0000 0.0000 0.0000 0.0000 30.5888 0.0000
# 6 0.0000 0.0000 0.0000 0.0000 0.0000 33.3855
#
#
#
# Elastic Compliance Matrix: (Units=1/GPa)
#
#
# Indices 1 2 3 4 5 6 
#
# 1 0.021020 -0.002063 -0.003638 0.000000 0.000000 0.000000
# 2 -0.002063 0.012315 -0.004710 0.000000 0.000000 0.000000
# 3 -0.003638 -0.004710 0.010842 0.000000 0.000000 0.000000
# 4 0.000000 0.000000 0.000000 0.026713 0.000000 0.000000
# 5 0.000000 0.000000 0.000000 0.000000 0.032692 0.000000
# 6 0.000000 0.000000 0.000000 0.000000 0.000000 0.029953
#
#
# Mechanical properties :
#
#
# Convention : Reuss Voigt Hill
#
# Bulk Modulus (GPa) = 42.81633 52.93571 47.87602
# Shear Modulus (GPa) = 30.83746 32.57968 31.70857
#
# Velocity S-wave (km/s) = 3.99588 4.10720 4.05192
# Velocity P-wave (km/s) = 6.59233 7.06408 6.83228
#
# Compressibility (1/GPa) = 0.02335557
#
# Stress axis : x y z
#
# Youngs Moduli (GPa) = 47.57331 81.20383 92.23531
#
# Poissons Ratio (x) = 0.16751 0.33557
# Poissons Ratio (y) = 0.09814 0.43439
# Poissons Ratio (z) = 0.17308 0.38244
#
# Static dielectric constant tensor:
#      x y z
#    x 3.475510 0.000000 0.000000 
#    y 0.000000 3.671930 0.000000 
#    z 0.000000 0.000000 3.549680 
# 
# 
# High freq. dielectric constant tensor:
#      x y z
#    x 1.752210 0.000000 0.000000 
#    y 0.000000 1.768430 0.000000 
#    z 0.000000 0.000000 1.747130 
# 
# From -- ./inp_files/2565.got.cif
#   From: 2010.03.12/outbox.cif.g09.slc.cpg/sg47_2_cif.got.tgz:2565.got - 2010.04.14 03:12:58.
