data_PCOD8198763
_publ_section_title
;
Structure prediction by ZEFSAII (Michael W. Deem and Ramdas Pophale) SiO2 
 PCOD8198763
Probable space group: P M M M
;
_chemical_formula_sum "Si O2"
_cell_formula_units_Z 48
_cell_length_a 32.297122
_cell_length_b 8.237947
_cell_length_c 9.094148
_cell_angle_alpha 90.000000
_cell_angle_beta 90.000000
_cell_angle_gamma 90.000000
_cell_volume 2419.607017
_symmetry_space_group_name_H-M "P M M M"
_symmetry_group_IT_number 47
_symmetry_cell_setting 'orthorhombic'
loop_
_space_group_symop_operation_xyz
x,y,z
-x,-y,z
x,-y,-z
-x,y,-z
-x,-y,-z
x,y,-z
-x,y,z
x,-y,z
loop_
_atom_site_type_symbol
_atom_site_label
_atom_site_fract_x
_atom_site_fract_y
_atom_site_fract_z
Si Si1 0.915073 0.187430 0.837584
Si Si2 0.838277 0.313508 0.334599
Si Si3 0.000000 0.688977 0.167777
Si Si4 0.401982 0.685055 0.827412
Si Si5 0.684296 0.313428 0.668847
Si Si6 0.546320 0.000000 0.174181
Si Si7 0.238691 0.813749 0.832598
O O1 0.875814 0.217639 0.736599
O O2 0.957367 0.248633 0.758228
O O3 0.919810 0.000000 0.861375
O O4 0.909141 0.270086 0.000000
O O5 0.831225 0.248914 0.500000
O O6 0.850846 0.500000 0.334303
O O7 0.796085 0.292503 0.245432
O O8 0.000000 0.500000 0.181268
O O9 0.000000 0.752301 0.000000
O O10 0.418908 0.500000 0.793448
O O11 0.359798 0.715995 0.742130
O O12 0.432353 0.830389 0.773389
O O13 0.393206 0.701600 0.000000
O O14 0.681680 0.258174 0.500000
O O15 0.698030 0.500000 0.682227
O O16 0.717649 0.204417 0.751693
O O17 0.500000 0.000000 0.240026
O O18 0.545009 0.000000 0.000000
O O19 0.224685 0.000000 0.826226
O O20 0.243437 0.753699 0.000000
#
# Coordination Sequence:
#
# PCOD8198763 Si02
#       7
#     8   8   4   8   8   4   8
#     4  10  20  35  57  84 112 142 180 226 274 325
#     4  11  24  40  57  79 109 145 184 226 273 327
#     4   9  17  31  54  83 112 143 180 222 270 323
#     4   9  18  33  54  80 112 150 191 238 291 343
#     4  10  21  37  57  82 112 146 185 230 280 334
#     4   9  18  32  53  83 115 147 191 245 293 342
#     4  11  24  39  57  83 112 143 182 227 274 328
#
# _framework density 19.837931000000001
#
# number of rings (size 3 to 8) (size 9 to 14) (size 15 to 20)
#    0.000    2.000    0.000    3.250    1.167   10.000 
#    0.000    2.083    0.000    3.500    0.000    2.333 
#    0.000    0.000    0.000    0.000    0.000    0.000 
#
# Total GULP energy -595113.275447 kJ/mol
# GULP energy per Si atom -12398.193238 kJ/mol
# Density = 1.979278 g / cm^3
# Si number density = 19.837931 Si / 1000 Ang^3
#
#
#
# Elastic Constant Matrix: (Units=GPa)
#
#
# Indices 1 2 3 4 5 6 
#
# 1 137.2422 49.2005 53.8915 0.0000 0.0000 0.0000
# 2 49.2005 85.9948 30.3711 0.0000 0.0000 0.0000
# 3 53.8915 30.3711 93.9285 0.0000 0.0000 0.0000
# 4 0.0000 0.0000 0.0000 19.5692 0.0000 0.0000
# 5 0.0000 0.0000 0.0000 0.0000 -32.2940 0.0000
# 6 0.0000 0.0000 0.0000 0.0000 0.0000 39.0100
#
#
#
# Elastic Compliance Matrix: (Units=1/GPa)
#
#
# Indices 1 2 3 4 5 6 
#
# 1 0.010745 -0.004482 -0.004716 0.000000 0.000000 0.000000
# 2 -0.004482 0.014997 -0.002278 0.000000 0.000000 0.000000
# 3 -0.004716 -0.002278 0.014088 0.000000 0.000000 0.000000
# 4 0.000000 0.000000 0.000000 0.051101 0.000000 0.000000
# 5 0.000000 0.000000 0.000000 0.000000 -0.030966 0.000000
# 6 0.000000 0.000000 0.000000 0.000000 0.000000 0.025634
#
#
# Mechanical properties :
#
#
# Convention : Reuss Voigt Hill
#
# Bulk Modulus (GPa) = 59.24199 64.89906 62.07052
# Shear Modulus (GPa) = 43.79136 17.50388 30.64762
#
# Velocity S-wave (km/s) = 4.70345 2.97365 3.93479
# Velocity P-wave (km/s) = 7.70873 6.67651 7.21111
#
# Compressibility (1/GPa) = 0.01687992
#
# Stress axis : x y z
#
# Youngs Moduli (GPa) = 93.06749 66.67836 70.98000
#
# Poissons Ratio (x) = 0.29886 0.33472
# Poissons Ratio (y) = 0.41713 0.16167
# Poissons Ratio (z) = 0.43887 0.15187
#
# Static dielectric constant tensor:
#      x y z
#    x 3.655440 0.000000 0.000000 
#    y 0.000000 3.693580 0.000000 
#    z 0.000000 0.000000 3.572230 
# 
# 
# High freq. dielectric constant tensor:
#      x y z
#    x 1.777400 0.000000 0.000000 
#    y 0.000000 1.781640 0.000000 
#    z 0.000000 0.000000 1.754520 
# 
# From -- ./inp_files/13940.got.cif
#   From: 2010.03.12/outbox.cif.g09.slc.cpg/sg47_7_cif.got.tgz:13940.got - 2010.04.14 03:12:58.
