data_PCOD8198906
_publ_section_title
;
Structure prediction by ZEFSAII (Michael W. Deem and Ramdas Pophale) SiO2 
 PCOD8198906
Probable space group: P M M M
;
_chemical_formula_sum "Si O2"
_cell_formula_units_Z 56
_cell_length_a 15.765085
_cell_length_b 9.274708
_cell_length_c 19.577546
_cell_angle_alpha 90.000000
_cell_angle_beta 90.000000
_cell_angle_gamma 90.000000
_cell_volume 2862.561429
_symmetry_space_group_name_H-M "P M M M"
_symmetry_group_IT_number 47
_symmetry_cell_setting 'orthorhombic'
loop_
_space_group_symop_operation_xyz
x,y,z
-x,-y,z
x,-y,-z
-x,y,-z
-x,-y,-z
x,y,-z
-x,y,z
x,-y,z
loop_
_atom_site_type_symbol
_atom_site_label
_atom_site_fract_x
_atom_site_fract_y
_atom_site_fract_z
Si Si1 0.648389 0.336212 0.795434
Si Si2 0.593822 0.833425 0.330006
Si Si3 0.249161 0.832653 0.578735
Si Si4 0.900373 0.334285 0.926800
Si Si5 0.599739 0.835937 0.923079
Si Si6 0.903995 0.670583 0.354855
Si Si7 0.158597 0.663877 0.213069
O O1 0.615916 0.500000 0.799694
O O2 0.591488 0.250235 0.741765
O O3 0.646321 0.269416 0.870896
O O4 0.743479 0.326744 0.767579
O O5 0.500000 0.812205 0.363644
O O6 0.668094 0.775779 0.379911
O O7 0.610124 0.000000 0.313111
O O8 0.270734 0.806321 0.500000
O O9 0.163551 0.746936 0.596259
O O10 0.232416 0.000000 0.594466
O O11 0.871162 0.500000 0.929169
O O12 0.859685 0.256760 0.859791
O O13 0.000000 0.321163 0.918890
O O14 0.872121 0.263052 0.000000
O O15 0.500000 0.818923 0.913245
O O16 0.627339 0.000000 0.908355
O O17 0.626018 0.791592 0.000000
O O18 0.886312 0.500000 0.357471
O O19 0.892201 0.730437 0.277279
O O20 0.000000 0.706286 0.379041
O O21 0.127270 0.500000 0.204106
#
# Coordination Sequence:
#
# PCOD8198906 Si02
#       7
#     8   8   8   8   8   8   8
#     4  11  21  32  51  80 112 143 179 231 287 333
#     4  10  21  38  60  83 109 146 188 227 274 338
#     4  10  22  40  61  86 115 144 178 228 284 334
#     4   8  13  22  38  61  91 130 174 216 259 308
#     4   9  19  36  54  71  98 141 190 235 279 332
#     4  10  20  36  59  84 113 152 193 229 270 327
#     4   9  17  29  45  70 105 141 178 222 269 318
#
# _framework density 19.562897
#
# number of rings (size 3 to 8) (size 9 to 14) (size 15 to 20)
#    0.000    2.429    1.429    2.143    0.000    6.000 
#    0.000    5.000    0.000    0.000    0.000    2.000 
#    0.000    0.000    0.000    9.429    0.000    9.143 
#
# Total GULP energy -694055.759380 kJ/mol
# GULP energy per Si atom -12393.852846 kJ/mol
# Density = 1.951837 g / cm^3
# Si number density = 19.562897 Si / 1000 Ang^3
#
#
#
# Elastic Constant Matrix: (Units=GPa)
#
#
# Indices 1 2 3 4 5 6 
#
# 1 94.5113 35.0891 44.2419 0.0000 0.0000 0.0000
# 2 35.0891 57.8767 39.4459 0.0000 0.0000 0.0000
# 3 44.2419 39.4459 112.2184 0.0000 0.0000 0.0000
# 4 0.0000 0.0000 0.0000 24.7727 0.0000 0.0000
# 5 0.0000 0.0000 0.0000 0.0000 29.4648 0.0000
# 6 0.0000 0.0000 0.0000 0.0000 0.0000 21.1086
#
#
#
# Elastic Compliance Matrix: (Units=1/GPa)
#
#
# Indices 1 2 3 4 5 6 
#
# 1 0.014621 -0.006491 -0.003483 0.000000 0.000000 0.000000
# 2 -0.006491 0.025603 -0.006441 0.000000 0.000000 0.000000
# 3 -0.003483 -0.006441 0.012548 0.000000 0.000000 0.000000
# 4 0.000000 0.000000 0.000000 0.040367 0.000000 0.000000
# 5 0.000000 0.000000 0.000000 0.000000 0.033939 0.000000
# 6 0.000000 0.000000 0.000000 0.000000 0.000000 0.047374
#
#
# Mechanical properties :
#
#
# Convention : Reuss Voigt Hill
#
# Bulk Modulus (GPa) = 50.14085 55.79555 52.96820
# Shear Modulus (GPa) = 23.37238 24.79119 24.08179
#
# Velocity S-wave (km/s) = 3.46024 3.56372 3.51236
# Velocity P-wave (km/s) = 6.45372 6.74659 6.60178
#
# Compressibility (1/GPa) = 0.01994382
#
# Stress axis : x y z
#
# Youngs Moduli (GPa) = 68.39575 39.05816 79.69236
#
# Poissons Ratio (x) = 0.25351 0.27755
# Poissons Ratio (y) = 0.44392 0.51328
# Poissons Ratio (z) = 0.23820 0.25156
#
# Static dielectric constant tensor:
#      x y z
#    x 3.510050 0.000000 0.000000 
#    y 0.000000 3.216940 0.000000 
#    z 0.000000 0.000000 3.760340 
# 
# 
# High freq. dielectric constant tensor:
#      x y z
#    x 1.763050 0.000000 0.000000 
#    y 0.000000 1.716680 0.000000 
#    z 0.000000 0.000000 1.771720 
# 
# From -- ./inp_files/25145.got.cif
#   From: 2010.03.12/outbox.cif.g09.slc.cpg/sg47_13_cif.got.tgz:25145.got - 2010.04.14 03:12:58.
