data_PCOD8198365
_publ_section_title
;
Structure prediction by ZEFSAII (Michael W. Deem and Ramdas Pophale) SiO2 
 PCOD8198365
Probable space group: P M M M
;
_chemical_formula_sum "Si O2"
_cell_formula_units_Z 48
_cell_length_a 8.986441
_cell_length_b 9.177008
_cell_length_c 30.878109
_cell_angle_alpha 90.000000
_cell_angle_beta 90.000000
_cell_angle_gamma 90.000000
_cell_volume 2546.475684
_symmetry_space_group_name_H-M "P M M M"
_symmetry_group_IT_number 47
_symmetry_cell_setting 'orthorhombic'
loop_
_space_group_symop_operation_xyz
x,y,z
-x,-y,z
x,-y,-z
-x,y,-z
-x,-y,-z
x,y,-z
-x,y,z
x,-y,z
loop_
_atom_site_type_symbol
_atom_site_label
_atom_site_fract_x
_atom_site_fract_y
_atom_site_fract_z
Si Si1 0.324694 0.333264 0.662369
Si Si2 0.173407 0.829677 0.584999
Si Si3 0.172898 0.668596 0.248947
Si Si4 0.823191 0.335393 0.500000
Si Si5 0.827530 0.169873 0.915664
Si Si6 0.177011 0.664416 0.000000
Si Si7 0.669450 0.827745 0.171508
O O1 0.500000 0.315905 0.665631
O O2 0.278154 0.500000 0.652075
O O3 0.264012 0.227798 0.625657
O O4 0.255667 0.281194 0.707600
O O5 0.235086 0.747950 0.542463
O O6 0.000000 0.796130 0.592481
O O7 0.203030 0.000000 0.578789
O O8 0.204039 0.500000 0.239248
O O9 0.233582 0.760092 0.209280
O O10 0.000000 0.702041 0.255125
O O11 0.760251 0.500000 0.500000
O O12 0.000000 0.334798 0.500000
O O13 0.763483 0.255069 0.957165
O O14 0.735251 0.224305 0.874306
O O15 0.000000 0.206158 0.907082
O O16 0.803685 0.000000 0.924732
O O17 0.237323 0.500000 0.000000
O O18 0.000000 0.670631 0.000000
O O19 0.500000 0.773423 0.175116
O O20 0.681465 0.000000 0.175681
#
# Coordination Sequence:
#
# PCOD8198365 Si02
#       7
#     8   8   8   4   8   4   8
#     4  10  21  37  56  78 106 141 179 218 263 316
#     4  10  20  34  54  81 111 142 178 221 267 314
#     4  10  21  37  58  82 106 136 176 220 265 314
#     4   9  17  31  54  81 108 141 180 222 266 311
#     4   9  17  31  51  73  99 134 174 214 258 309
#     4   9  17  29  48  75 102 128 166 217 264 305
#     4  10  21  36  54  78 108 141 176 215 262 315
#
# _framework density 18.849581000000001
#
# number of rings (size 3 to 8) (size 9 to 14) (size 15 to 20)
#    0.000    2.333    0.000    2.500    0.000    7.333 
#    0.000    2.500    0.000    5.000    0.000    0.000 
#    0.000    0.000    0.000    0.000    0.000    0.000 
#
# Total GULP energy -595370.499438 kJ/mol
# GULP energy per Si atom -12403.552072 kJ/mol
# Density = 1.880668 g / cm^3
# Si number density = 18.849581 Si / 1000 Ang^3
#
#
#
# Elastic Constant Matrix: (Units=GPa)
#
#
# Indices 1 2 3 4 5 6 
#
# 1 62.6810 35.0362 47.4366 0.0000 0.0000 0.0000
# 2 35.0362 76.6381 67.3868 0.0000 0.0000 0.0000
# 3 47.4366 67.3868 162.9076 0.0000 0.0000 0.0000
# 4 0.0000 0.0000 0.0000 36.2208 0.0000 0.0000
# 5 0.0000 0.0000 0.0000 0.0000 -12.8168 0.0000
# 6 0.0000 0.0000 0.0000 0.0000 0.0000 23.4883
#
#
#
# Elastic Compliance Matrix: (Units=1/GPa)
#
#
# Indices 1 2 3 4 5 6 
#
# 1 0.022730 -0.007185 -0.003647 0.000000 0.000000 0.000000
# 2 -0.007185 0.022778 -0.007330 0.000000 0.000000 0.000000
# 3 -0.003647 -0.007330 0.010232 0.000000 0.000000 0.000000
# 4 0.000000 0.000000 0.000000 0.027608 0.000000 0.000000
# 5 0.000000 0.000000 0.000000 0.000000 -0.078022 0.000000
# 6 0.000000 0.000000 0.000000 0.000000 0.000000 0.042574
#
#
# Mechanical properties :
#
#
# Convention : Reuss Voigt Hill
#
# Bulk Modulus (GPa) = 51.50060 66.88289 59.19174
# Shear Modulus (GPa) = 55.12938 19.53626 37.33282
#
# Velocity S-wave (km/s) = 5.41392 3.22286 4.45518
# Velocity P-wave (km/s) = 8.15241 7.02912 7.61152
#
# Compressibility (1/GPa) = 0.01941725
#
# Stress axis : x y z
#
# Youngs Moduli (GPa) = 43.99567 43.90163 97.72893
#
# Poissons Ratio (x) = 0.31542 0.35638
# Poissons Ratio (y) = 0.31610 0.71636
# Poissons Ratio (z) = 0.16043 0.32180
#
# Static dielectric constant tensor:
#      x y z
#    x 3.334560 0.000000 0.000000 
#    y 0.000000 3.449260 0.000000 
#    z 0.000000 0.000000 3.626820 
# 
# 
# High freq. dielectric constant tensor:
#      x y z
#    x 1.716690 0.000000 0.000000 
#    y 0.000000 1.729550 0.000000 
#    z 0.000000 0.000000 1.747720 
# 
# From -- ./inp_files/2734.got.cif
#   From: 2010.03.12/outbox.cif.g09.slc.cpg/sg47_2_cif.got.tgz:2734.got - 2010.04.14 03:12:58.
