data_PCOD8198097
_publ_section_title
;
Structure prediction by ZEFSAII (Michael W. Deem and Ramdas Pophale) SiO2 
 PCOD8198097
Probable space group: P M M M
;
_chemical_formula_sum "Si O2"
_cell_formula_units_Z 44
_cell_length_a 7.871548
_cell_length_b 29.890260
_cell_length_c 9.512299
_cell_angle_alpha 90.000000
_cell_angle_beta 90.000000
_cell_angle_gamma 90.000000
_cell_volume 2238.078596
_symmetry_space_group_name_H-M "P M M M"
_symmetry_group_IT_number 47
_symmetry_cell_setting 'orthorhombic'
loop_
_space_group_symop_operation_xyz
x,y,z
-x,-y,z
x,-y,-z
-x,y,-z
-x,-y,-z
x,y,-z
-x,y,z
x,-y,z
loop_
_atom_site_type_symbol
_atom_site_label
_atom_site_fract_x
_atom_site_fract_y
_atom_site_fract_z
Si Si1 0.500000 0.049973 0.667066
Si Si2 0.189570 0.109752 0.662006
Si Si3 0.797958 0.549616 0.157655
Si Si4 0.201039 0.286537 0.159476
Si Si5 0.797241 0.630692 0.658561
Si Si6 0.695068 0.810553 0.839293
O O1 0.500000 0.047408 0.500000
O O2 0.329711 0.074997 0.720944
O O3 0.500000 0.000000 0.731166
O O4 0.228937 0.120736 0.500000
O O5 0.194650 0.156106 0.745828
O O6 0.000000 0.089111 0.679394
O O7 0.736206 0.500000 0.203826
O O8 0.724138 0.586359 0.265044
O O9 0.000000 0.551414 0.158676
O O10 0.732785 0.560296 0.000000
O O11 0.271031 0.325863 0.258960
O O12 0.279277 0.240038 0.214396
O O13 0.000000 0.283093 0.167977
O O14 0.260387 0.296542 0.000000
O O15 0.726662 0.631780 0.500000
O O16 0.000000 0.630124 0.659883
O O17 0.500000 0.824455 0.824124
O O18 0.758213 0.814210 0.000000
#
# Coordination Sequence:
#
# PCOD8198097 Si02
#       6
#     4   8   8   8   8   8
#     4   9  18  34  55  81 115 149 183 227 272 315
#     4  10  20  34  55  82 110 143 182 223 270 321
#     4   8  13  21  33  49  72 107 149 189 234 292
#     4   9  17  29  44  62  87 121 158 194 238 297
#     4   9  16  24  35  54  81 112 148 193 242 291
#     4  10  20  34  53  76 102 134 172 215 264 316
#
# _framework density 19.659721000000001
#
# number of rings (size 3 to 8) (size 9 to 14) (size 15 to 20)
#    0.000    2.818    0.909    1.636    0.000    4.727 
#    0.000    5.455    0.000    1.091    0.000    1.273 
#    0.000    0.727    0.000    8.364    0.000   10.727 
#
# Total GULP energy -545504.264801 kJ/mol
# GULP energy per Si atom -12397.824200 kJ/mol
# Density = 1.961497 g / cm^3
# Si number density = 19.659721 Si / 1000 Ang^3
#
#
#
# Elastic Constant Matrix: (Units=GPa)
#
#
# Indices 1 2 3 4 5 6 
#
# 1 61.2695 41.7877 23.6549 0.0000 0.0000 0.0000
# 2 41.7877 163.5941 78.0292 0.0000 0.0000 0.0000
# 3 23.6549 78.0292 96.1528 0.0000 0.0000 0.0000
# 4 0.0000 0.0000 0.0000 29.7067 0.0000 0.0000
# 5 0.0000 0.0000 0.0000 0.0000 10.2411 0.0000
# 6 0.0000 0.0000 0.0000 0.0000 0.0000 13.3785
#
#
#
# Elastic Compliance Matrix: (Units=1/GPa)
#
#
# Indices 1 2 3 4 5 6 
#
# 1 0.019857 -0.004474 -0.001255 0.000000 0.000000 0.000000
# 2 -0.004474 0.010981 -0.007810 0.000000 0.000000 0.000000
# 3 -0.001255 -0.007810 0.017047 0.000000 0.000000 0.000000
# 4 0.000000 0.000000 0.000000 0.033662 0.000000 0.000000
# 5 0.000000 0.000000 0.000000 0.000000 0.097646 0.000000
# 6 0.000000 0.000000 0.000000 0.000000 0.000000 0.074747
#
#
# Mechanical properties :
#
#
# Convention : Reuss Voigt Hill
#
# Bulk Modulus (GPa) = 48.06022 67.55112 57.80567
# Shear Modulus (GPa) = 17.36392 22.50155 19.93273
#
# Velocity S-wave (km/s) = 2.97513 3.38679 3.18761
# Velocity P-wave (km/s) = 6.02503 7.05185 6.55856
#
# Compressibility (1/GPa) = 0.02080723
#
# Stress axis : x y z
#
# Youngs Moduli (GPa) = 50.36016 91.06810 58.66131
#
# Poissons Ratio (x) = 0.40742 0.07359
# Poissons Ratio (y) = 0.22530 0.45817
# Poissons Ratio (z) = 0.06318 0.71128
#
# Static dielectric constant tensor:
#      x y z
#    x 3.269060 0.000000 0.000000 
#    y 0.000000 3.728370 0.000000 
#    z 0.000000 0.000000 3.538820 
# 
# 
# High freq. dielectric constant tensor:
#      x y z
#    x 1.741840 0.000000 0.000000 
#    y 0.000000 1.767300 0.000000 
#    z 0.000000 0.000000 1.745850 
# 
# From -- ./inp_files/2245.got.cif
#   From: 2010.03.12/outbox.cif.g09.slc.cpg/sg47_2_cif.got.tgz:2245.got - 2010.04.14 03:12:58.
