data_PCOD8198790
_publ_section_title
;
Structure prediction by ZEFSAII (Michael W. Deem and Ramdas Pophale) SiO2 
 PCOD8198790
Probable space group: P M M M
;
_chemical_formula_sum "Si O2"
_cell_formula_units_Z 48
_cell_length_a 17.017683
_cell_length_b 7.841741
_cell_length_c 18.568118
_cell_angle_alpha 90.000000
_cell_angle_beta 90.000000
_cell_angle_gamma 90.000000
_cell_volume 2477.883085
_symmetry_space_group_name_H-M "P M M M"
_symmetry_group_IT_number 47
_symmetry_cell_setting 'orthorhombic'
loop_
_space_group_symop_operation_xyz
x,y,z
-x,-y,z
x,-y,-z
-x,y,-z
-x,-y,-z
x,y,-z
-x,y,z
x,-y,z
loop_
_atom_site_type_symbol
_atom_site_label
_atom_site_fract_x
_atom_site_fract_y
_atom_site_fract_z
Si Si1 0.811398 0.807582 0.418812
Si Si2 0.344515 0.695208 0.915943
Si Si3 0.910677 0.310825 0.707947
Si Si4 0.500000 0.192234 0.669361
Si Si5 0.092303 0.000000 0.808900
Si Si6 0.500000 0.697245 0.171647
Si Si7 0.643615 0.306228 0.580119
Si Si8 0.230591 0.000000 0.915620
O O1 0.823792 0.737769 0.500000
O O2 0.859478 0.691550 0.364185
O O3 0.718974 0.806586 0.399365
O O4 0.842443 0.000000 0.411886
O O5 0.317906 0.500000 0.898497
O O6 0.423460 0.745015 0.874159
O O7 0.277325 0.828744 0.892109
O O8 0.363438 0.715338 0.000000
O O9 0.901817 0.500000 0.742520
O O10 0.883395 0.168505 0.764596
O O11 0.000000 0.273758 0.685271
O O12 0.500000 0.195365 0.755386
O O13 0.576795 0.283713 0.639178
O O14 0.500000 0.000000 0.641509
O O15 0.144719 0.000000 0.880221
O O16 0.000000 0.000000 0.829885
O O17 0.500000 0.500000 0.192817
O O18 0.612015 0.257930 0.500000
O O19 0.672481 0.500000 0.581719
O O20 0.215269 0.000000 0.000000
#
# Coordination Sequence:
#
# PCOD8198790 Si02
#       8
#     8   8   8   4   4   4   8   4
#     4  10  20  35  57  85 115 147 188 239 290 339
#     4   9  19  37  61  88 118 152 189 228 274 334
#     4  10  21  38  60  85 115 154 193 229 281 344
#     4  12  25  36  51  76 108 143 187 241 287 334
#     4  10  22  41  60  83 118 152 191 238 285 347
#     4  10  21  37  56  81 115 152 186 225 276 330
#     4  10  21  38  57  74  99 141 191 239 288 340
#     4  10  22  38  62  91 116 148 189 236 288 341
#
# _framework density 19.371373999999999
#
# number of rings (size 3 to 8) (size 9 to 14) (size 15 to 20)
#    0.000    2.000    0.833    2.250    1.167    6.500 
#    0.000    4.583    0.000    0.000    0.000    4.667 
#    0.000    0.000    0.000    0.000    0.000    0.000 
#
# Total GULP energy -595255.753341 kJ/mol
# GULP energy per Si atom -12401.161528 kJ/mol
# Density = 1.932728 g / cm^3
# Si number density = 19.371374 Si / 1000 Ang^3
#
#
#
# Elastic Constant Matrix: (Units=GPa)
#
#
# Indices 1 2 3 4 5 6 
#
# 1 98.9813 39.8250 60.3290 0.0000 0.0000 0.0000
# 2 39.8250 108.9739 37.3219 0.0000 0.0000 0.0000
# 3 60.3290 37.3219 83.9041 0.0000 0.0000 0.0000
# 4 0.0000 0.0000 0.0000 20.6502 0.0000 0.0000
# 5 0.0000 0.0000 0.0000 0.0000 40.1972 0.0000
# 6 0.0000 0.0000 0.0000 0.0000 0.0000 27.3851
#
#
#
# Elastic Compliance Matrix: (Units=1/GPa)
#
#
# Indices 1 2 3 4 5 6 
#
# 1 0.018595 -0.002615 -0.012207 0.000000 0.000000 0.000000
# 2 -0.002615 0.011193 -0.003099 0.000000 0.000000 0.000000
# 3 -0.012207 -0.003099 0.022074 0.000000 0.000000 0.000000
# 4 0.000000 0.000000 0.000000 0.048426 0.000000 0.000000
# 5 0.000000 0.000000 0.000000 0.000000 0.024877 0.000000
# 6 0.000000 0.000000 0.000000 0.000000 0.000000 0.036516
#
#
# Mechanical properties :
#
#
# Convention : Reuss Voigt Hill
#
# Bulk Modulus (GPa) = 62.41905 62.97904 62.69905
# Shear Modulus (GPa) = 24.64695 27.93872 26.29284
#
# Velocity S-wave (km/s) = 3.57086 3.80184 3.68816
# Velocity P-wave (km/s) = 7.02094 7.20097 7.11153
#
# Compressibility (1/GPa) = 0.01602075
#
# Stress axis : x y z
#
# Youngs Moduli (GPa) = 53.77668 89.33793 45.30179
#
# Poissons Ratio (x) = 0.23361 0.55302
# Poissons Ratio (y) = 0.14062 0.14038
# Poissons Ratio (z) = 0.65647 0.27684
#
# Static dielectric constant tensor:
#      x y z
#    x 3.374210 0.000000 0.000000 
#    y 0.000000 3.717920 0.000000 
#    z 0.000000 0.000000 3.328340 
# 
# 
# High freq. dielectric constant tensor:
#      x y z
#    x 1.746390 0.000000 0.000000 
#    y 0.000000 1.769110 0.000000 
#    z 0.000000 0.000000 1.739220 
# 
# From -- ./inp_files/28067.got.cif
#   From: 2010.03.12/outbox.cif.g09.slc.cpg/sg47_15_cif.got.tgz:28067.got - 2010.04.14 03:12:58.
