data_PCOD8198442
_publ_section_title
;
Structure prediction by ZEFSAII (Michael W. Deem and Ramdas Pophale) SiO2 
 PCOD8198442
Probable space group: P M M M
;
_chemical_formula_sum "Si O2"
_cell_formula_units_Z 48
_cell_length_a 8.977627
_cell_length_b 14.324343
_cell_length_c 20.428963
_cell_angle_alpha 90.000000
_cell_angle_beta 90.000000
_cell_angle_gamma 90.000000
_cell_volume 2627.136214
_symmetry_space_group_name_H-M "P M M M"
_symmetry_group_IT_number 47
_symmetry_cell_setting 'orthorhombic'
loop_
_space_group_symop_operation_xyz
x,y,z
-x,-y,z
x,-y,-z
-x,y,-z
-x,-y,-z
x,y,-z
-x,y,z
x,-y,z
loop_
_atom_site_type_symbol
_atom_site_label
_atom_site_fract_x
_atom_site_fract_y
_atom_site_fract_z
Si Si1 0.330849 0.396931 0.752709
Si Si2 0.173604 0.394351 0.381596
Si Si3 0.827636 0.107132 0.074997
Si Si4 0.329074 0.218545 0.573651
Si Si5 0.175570 0.892230 0.688054
Si Si6 0.671794 0.205400 0.810047
O O1 0.500000 0.390102 0.725625
O O2 0.302086 0.500000 0.783484
O O3 0.218500 0.378375 0.693540
O O4 0.303601 0.317384 0.806922
O O5 0.210280 0.500000 0.403912
O O6 0.265470 0.323694 0.426557
O O7 0.000000 0.372222 0.388835
O O8 0.728767 0.173828 0.119463
O O9 0.000000 0.129619 0.087340
O O10 0.794292 0.000000 0.093340
O O11 0.784344 0.126600 0.000000
O O12 0.313967 0.178914 0.500000
O O13 0.500000 0.220560 0.596548
O O14 0.238555 0.152750 0.622157
O O15 0.239751 0.844390 0.752345
O O16 0.000000 0.878220 0.688386
O O17 0.221660 0.000000 0.688884
O O18 0.500000 0.178095 0.802610
#
# Coordination Sequence:
#
# PCOD8198442 Si02
#       6
#     8   8   8   8   8   8
#     4   9  18  33  53  78 110 145 179 218 268 324
#     4  10  20  34  55  82 109 139 178 224 273 326
#     4   9  19  36  56  79 111 151 189 224 269 324
#     4  11  24  40  57  78 106 142 182 226 279 333
#     4  11  24  40  58  80 107 141 181 226 276 330
#     4  11  21  33  56  87 114 143 180 224 272 321
#
# _framework density 18.270847
#
# number of rings (size 3 to 8) (size 9 to 14) (size 15 to 20)
#    0.000    1.833    1.667    3.000    0.000    7.667 
#    0.000    4.167    0.000    0.500    0.000    3.500 
#    0.000    0.000    0.000    0.000    0.000    0.000 
#
# Total GULP energy -595254.918689 kJ/mol
# GULP energy per Si atom -12401.144139 kJ/mol
# Density = 1.822926 g / cm^3
# Si number density = 18.270847 Si / 1000 Ang^3
#
#
#
# Elastic Constant Matrix: (Units=GPa)
#
#
# Indices 1 2 3 4 5 6 
#
# 1 76.7115 52.2860 35.5872 0.0000 0.0000 0.0000
# 2 52.2860 118.1630 54.5940 0.0000 0.0000 0.0000
# 3 35.5872 54.5940 86.2267 0.0000 0.0000 0.0000
# 4 0.0000 0.0000 0.0000 27.1456 0.0000 0.0000
# 5 0.0000 0.0000 0.0000 0.0000 27.9455 0.0000
# 6 0.0000 0.0000 0.0000 0.0000 0.0000 30.0929
#
#
#
# Elastic Compliance Matrix: (Units=1/GPa)
#
#
# Indices 1 2 3 4 5 6 
#
# 1 0.019442 -0.006920 -0.003643 0.000000 0.000000 0.000000
# 2 -0.006920 0.014425 -0.006277 0.000000 0.000000 0.000000
# 3 -0.003643 -0.006277 0.017075 0.000000 0.000000 0.000000
# 4 0.000000 0.000000 0.000000 0.036838 0.000000 0.000000
# 5 0.000000 0.000000 0.000000 0.000000 0.035784 0.000000
# 6 0.000000 0.000000 0.000000 0.000000 0.000000 0.033230
#
#
# Mechanical properties :
#
#
# Convention : Reuss Voigt Hill
#
# Bulk Modulus (GPa) = 57.92856 62.89282 60.41069
# Shear Modulus (GPa) = 25.48034 26.27908 25.87971
#
# Velocity S-wave (km/s) = 3.73847 3.79662 3.76766
# Velocity P-wave (km/s) = 7.09994 7.32914 7.21545
#
# Compressibility (1/GPa) = 0.01726264
#
# Stress axis : x y z
#
# Youngs Moduli (GPa) = 51.43387 69.32344 58.56456
#
# Poissons Ratio (x) = 0.47972 0.21334
# Poissons Ratio (y) = 0.35592 0.36762
# Poissons Ratio (z) = 0.18737 0.43516
#
# Static dielectric constant tensor:
#      x y z
#    x 3.476310 0.000000 0.000000 
#    y 0.000000 3.614300 0.000000 
#    z 0.000000 0.000000 3.163630 
# 
# 
# High freq. dielectric constant tensor:
#      x y z
#    x 1.719740 0.000000 0.000000 
#    y 0.000000 1.714900 0.000000 
#    z 0.000000 0.000000 1.687930 
# 
# From -- ./inp_files/6335.got.cif
#   From: 2010.03.12/outbox.cif.g09.slc.cpg/sg47_4_cif.got.tgz:6335.got - 2010.04.14 03:12:58.
