data_PCOD8198062
_publ_section_title
;
Structure prediction by ZEFSAII (Michael W. Deem and Ramdas Pophale) SiO2 
 PCOD8198062
Probable space group: P M M M
;
_chemical_formula_sum "Si O2"
_cell_formula_units_Z 44
_cell_length_a 8.906323
_cell_length_b 9.167729
_cell_length_c 28.682913
_cell_angle_alpha 90.000000
_cell_angle_beta 90.000000
_cell_angle_gamma 90.000000
_cell_volume 2341.981521
_symmetry_space_group_name_H-M "P M M M"
_symmetry_group_IT_number 47
_symmetry_cell_setting 'orthorhombic'
loop_
_space_group_symop_operation_xyz
x,y,z
-x,-y,z
x,-y,-z
-x,y,-z
-x,-y,-z
x,y,-z
-x,y,z
x,-y,z
loop_
_atom_site_type_symbol
_atom_site_label
_atom_site_fract_x
_atom_site_fract_y
_atom_site_fract_z
Si Si1 0.178595 0.336116 0.551372
Si Si2 0.836787 0.328005 0.000000
Si Si3 0.824964 0.329384 0.730921
Si Si4 0.178729 0.163363 0.360806
Si Si5 0.323680 0.832341 0.184155
Si Si6 0.820554 0.665999 0.899335
O O1 0.229856 0.280359 0.500000
O O2 0.238274 0.500000 0.559681
O O3 0.245534 0.232557 0.591636
O O4 0.000000 0.336336 0.554112
O O5 0.756005 0.287359 0.950905
O O6 0.860702 0.500000 0.000000
O O7 0.000000 0.251651 0.000000
O O8 0.792572 0.500000 0.727683
O O9 0.766526 0.257096 0.683194
O O10 0.732656 0.262963 0.773041
O O11 0.000000 0.296771 0.739352
O O12 0.000000 0.162950 0.362976
O O13 0.242287 0.000000 0.355915
O O14 0.500000 0.812549 0.179204
O O15 0.247971 0.777807 0.136971
O O16 0.278128 0.000000 0.192468
O O17 0.772111 0.500000 0.886933
O O18 0.000000 0.677382 0.898891
#
# Coordination Sequence:
#
# PCOD8198062 Si02
#       6
#     8   4   8   8   8   8
#     4   8  13  21  33  51  80 119 158 194 234 281
#     4   7  12  26  50  79 106 128 156 199 242 279
#     4  10  20  34  53  74  94 121 161 206 249 294
#     4   9  16  25  39  61  89 120 154 194 240 290
#     4  11  24  38  50  69 100 134 165 200 245 294
#     4   9  17  32  56  82 104 129 164 203 242 285
#
# _framework density 18.787509
#
# number of rings (size 3 to 8) (size 9 to 14) (size 15 to 20)
#    0.000    2.818    0.000    3.818    0.000    7.636 
#    0.000    2.727    0.000    4.364    0.000    0.000 
#    0.000    0.727    0.000    7.636    0.000   10.545 
#
# Total GULP energy -545318.209551 kJ/mol
# GULP energy per Si atom -12393.595672 kJ/mol
# Density = 1.874475 g / cm^3
# Si number density = 18.787509 Si / 1000 Ang^3
#
#
#
# Elastic Constant Matrix: (Units=GPa)
#
#
# Indices 1 2 3 4 5 6 
#
# 1 24.3718 23.3775 25.1067 0.0000 0.0000 0.0000
# 2 23.3775 104.3662 68.3963 0.0000 0.0000 0.0000
# 3 25.1067 68.3963 171.8122 0.0000 0.0000 0.0000
# 4 0.0000 0.0000 0.0000 13.3199 0.0000 0.0000
# 5 0.0000 0.0000 0.0000 0.0000 -7.1260 0.0000
# 6 0.0000 0.0000 0.0000 0.0000 0.0000 17.5019
#
#
#
# Elastic Compliance Matrix: (Units=1/GPa)
#
#
# Indices 1 2 3 4 5 6 
#
# 1 0.054403 -0.009438 -0.004193 0.000000 0.000000 0.000000
# 2 -0.009438 0.014601 -0.004433 0.000000 0.000000 0.000000
# 3 -0.004193 -0.004433 0.008198 0.000000 0.000000 0.000000
# 4 0.000000 0.000000 0.000000 0.075075 0.000000 0.000000
# 5 0.000000 0.000000 0.000000 0.000000 -0.140332 0.000000
# 6 0.000000 0.000000 0.000000 0.000000 0.000000 0.057137
#
#
# Mechanical properties :
#
#
# Convention : Reuss Voigt Hill
#
# Bulk Modulus (GPa) = 24.34651 59.36793 41.85722
# Shear Modulus (GPa) = 42.05140 16.98384 29.51762
#
# Velocity S-wave (km/s) = 4.73616 3.00991 3.96805
# Velocity P-wave (km/s) = 6.54945 6.61421 6.58191
#
# Compressibility (1/GPa) = 0.04107364
#
# Stress axis : x y z
#
# Youngs Moduli (GPa) = 18.38122 68.48758 121.98379
#
# Poissons Ratio (x) = 0.64642 0.51142
# Poissons Ratio (y) = 0.17349 0.54079
# Poissons Ratio (z) = 0.07706 0.30363
#
# Static dielectric constant tensor:
#      x y z
#    x 2.875320 0.000000 0.000000 
#    y 0.000000 3.514670 0.000000 
#    z 0.000000 0.000000 3.907600 
# 
# 
# High freq. dielectric constant tensor:
#      x y z
#    x 1.666980 0.000000 0.000000 
#    y 0.000000 1.724840 0.000000 
#    z 0.000000 0.000000 1.755240 
# 
# From -- ./inp_files/33881.got.cif
#   From: 2010.03.12/outbox.cif.g09.slc.cpg/sg47_17_cif.got.tgz:33881.got - 2010.04.14 03:12:58.
