data_PCOD8198116
_publ_section_title
;
Structure prediction by ZEFSAII (Michael W. Deem and Ramdas Pophale) SiO2 
 PCOD8198116
Probable space group: P M M M
;
_chemical_formula_sum "Si O2"
_cell_formula_units_Z 52
_cell_length_a 8.959943
_cell_length_b 14.499847
_cell_length_c 23.427437
_cell_angle_alpha 90.000000
_cell_angle_beta 90.000000
_cell_angle_gamma 90.000000
_cell_volume 3043.641136
_symmetry_space_group_name_H-M "P M M M"
_symmetry_group_IT_number 47
_symmetry_cell_setting 'orthorhombic'
loop_
_space_group_symop_operation_xyz
x,y,z
-x,-y,z
x,-y,-z
-x,y,-z
-x,-y,-z
x,y,-z
-x,y,z
x,-y,z
loop_
_atom_site_type_symbol
_atom_site_label
_atom_site_fract_x
_atom_site_fract_y
_atom_site_fract_z
Si Si1 0.176848 0.900409 0.738789
Si Si2 0.822934 0.099996 0.389878
Si Si3 0.176122 0.294465 0.226750
Si Si4 0.676217 0.600486 0.000000
Si Si5 0.824819 0.291214 0.564580
Si Si6 0.674094 0.392513 0.666534
Si Si7 0.670975 0.609855 0.123323
O O1 0.236403 0.885711 0.674502
O O2 0.229057 0.812974 0.776496
O O3 0.000000 0.903566 0.737339
O O4 0.236282 0.000000 0.762667
O O5 0.765966 0.185824 0.427573
O O6 0.000000 0.098878 0.390415
O O7 0.765173 0.000000 0.413292
O O8 0.249328 0.341691 0.281058
O O9 0.222145 0.343075 0.168571
O O10 0.000000 0.302555 0.234429
O O11 0.719088 0.649370 0.060186
O O12 0.752956 0.500000 0.000000
O O13 0.500000 0.586438 0.000000
O O14 0.790612 0.322086 0.500000
O O15 0.739060 0.359709 0.606277
O O16 0.000000 0.297225 0.578516
O O17 0.500000 0.370469 0.668192
O O18 0.707307 0.500000 0.673211
O O19 0.500000 0.635666 0.137441
O O20 0.691699 0.500000 0.125227
#
# Coordination Sequence:
#
# PCOD8198116 Si02
#       7
#     8   8   8   4   8   8   8
#     4   8  14  26  46  70  95 123 153 187 232 286
#     4   8  13  25  47  73  98 121 147 183 230 286
#     4  11  20  31  51  77 101 124 155 199 245 283
#     4   7  12  26  47  67  92 133 176 202 223 267
#     4  10  20  34  53  76  97 118 151 196 243 288
#     4  11  24  39  52  66  90 127 165 198 235 283
#     4   9  17  30  48  71 101 136 170 199 231 277
#
# _framework density 17.084802
#
# number of rings (size 3 to 8) (size 9 to 14) (size 15 to 20)
#    0.000    2.692    1.538    3.231    0.000    4.308 
#    0.000    3.462    0.000    4.615    0.000    1.615 
#    0.000    4.308    0.000    0.000    0.000    0.000 
#
# Total GULP energy -644235.869500 kJ/mol
# GULP energy per Si atom -12389.151337 kJ/mol
# Density = 1.704592 g / cm^3
# Si number density = 17.084802 Si / 1000 Ang^3
#
#
#
# Elastic Constant Matrix: (Units=GPa)
#
#
# Indices 1 2 3 4 5 6 
#
# 1 47.7143 45.7775 36.0598 0.0000 0.0000 0.0000
# 2 45.7775 99.1234 57.3835 0.0000 0.0000 0.0000
# 3 36.0598 57.3835 111.5339 0.0000 0.0000 0.0000
# 4 0.0000 0.0000 0.0000 11.3657 0.0000 0.0000
# 5 0.0000 0.0000 0.0000 0.0000 22.9671 0.0000
# 6 0.0000 0.0000 0.0000 0.0000 0.0000 -5.6905
#
#
#
# Elastic Compliance Matrix: (Units=1/GPa)
#
#
# Indices 1 2 3 4 5 6 
#
# 1 0.039360 -0.015396 -0.004804 0.000000 0.000000 0.000000
# 2 -0.015396 0.020390 -0.005513 0.000000 0.000000 0.000000
# 3 -0.004804 -0.005513 0.013355 0.000000 0.000000 0.000000
# 4 0.000000 0.000000 0.000000 0.087984 0.000000 0.000000
# 5 0.000000 0.000000 0.000000 0.000000 0.043541 0.000000
# 6 0.000000 0.000000 0.000000 0.000000 0.000000 -0.175731
#
#
# Mechanical properties :
#
#
# Convention : Reuss Voigt Hill
#
# Bulk Modulus (GPa) = 46.12724 59.64589 52.88656
# Shear Modulus (GPa) = 57.10908 13.67184 35.39046
#
# Velocity S-wave (km/s) = 5.78787 2.83191 4.55627
# Velocity P-wave (km/s) = 8.46897 6.75873 7.66172
#
# Compressibility (1/GPa) = 0.02167916
#
# Stress axis : x y z
#
# Youngs Moduli (GPa) = 25.40647 49.04303 74.87553
#
# Poissons Ratio (x) = 0.75508 0.35972
# Poissons Ratio (y) = 0.39116 0.41278
# Poissons Ratio (z) = 0.12206 0.27037
#
# Static dielectric constant tensor:
#      x y z
#    x 2.877010 0.000000 0.000000 
#    y 0.000000 3.554970 0.000000 
#    z 0.000000 0.000000 3.297070 
# 
# 
# High freq. dielectric constant tensor:
#      x y z
#    x 1.624420 0.000000 0.000000 
#    y 0.000000 1.657580 0.000000 
#    z 0.000000 0.000000 1.649460 
# 
# From -- ./inp_files/29555.got.cif
#   From: 2010.03.12/outbox.cif.g09.slc.cpg/sg47_15_cif.got.tgz:29555.got - 2010.04.14 03:12:58.
