data_PCOD8198295
_publ_section_title
;
Structure prediction by ZEFSAII (Michael W. Deem and Ramdas Pophale) SiO2 
 PCOD8198295
Probable space group: P M M M
;
_chemical_formula_sum "Si O2"
_cell_formula_units_Z 44
_cell_length_a 9.021611
_cell_length_b 28.979304
_cell_length_c 9.267147
_cell_angle_alpha 90.000000
_cell_angle_beta 90.000000
_cell_angle_gamma 90.000000
_cell_volume 2422.802983
_symmetry_space_group_name_H-M "P M M M"
_symmetry_group_IT_number 47
_symmetry_cell_setting 'orthorhombic'
loop_
_space_group_symop_operation_xyz
x,y,z
-x,-y,z
x,-y,-z
-x,y,-z
-x,-y,-z
x,y,-z
-x,y,z
x,-y,z
loop_
_atom_site_type_symbol
_atom_site_label
_atom_site_fract_x
_atom_site_fract_y
_atom_site_fract_z
Si Si1 0.674869 0.671527 0.165409
Si Si2 0.833545 0.048869 0.671647
Si Si3 0.823890 0.500000 0.836616
Si Si4 0.174012 0.589846 0.332006
Si Si5 0.169655 0.764820 0.831596
Si Si6 0.177335 0.147361 0.662358
O O1 0.500000 0.671482 0.181418
O O2 0.742141 0.633730 0.270471
O O3 0.735521 0.720857 0.217467
O O4 0.723661 0.661585 0.000000
O O5 0.838562 0.051726 0.500000
O O6 0.760066 0.097598 0.723324
O O7 0.000000 0.046526 0.732612
O O8 0.753212 0.000000 0.718756
O O9 0.765988 0.545010 0.752607
O O10 0.000000 0.500000 0.837822
O O11 0.760919 0.500000 0.000000
O O12 0.211410 0.583595 0.500000
O O13 0.000000 0.596825 0.306602
O O14 0.237586 0.810400 0.757393
O O15 0.000000 0.756249 0.783966
O O16 0.182828 0.773354 0.000000
O O17 0.233167 0.156005 0.500000
O O18 0.000000 0.145198 0.668083
#
# Coordination Sequence:
#
# PCOD8198295 Si02
#       6
#     8   8   4   8   8   8
#     4  10  21  36  52  70  94 126 164 202 239 282
#     4   7   9  14  26  46  73 104 136 170 210 258
#     4   9  17  31  54  81 106 133 164 196 228 267
#     4  10  20  34  54  80 107 132 159 194 236 279
#     4   9  17  29  45  64  87 116 149 187 232 279
#     4   8  13  21  35  56  80 107 142 181 218 263
#
# _framework density 18.160782999999999
#
# number of rings (size 3 to 8) (size 9 to 14) (size 15 to 20)
#    0.000    3.182    0.000    3.000    0.000    4.000 
#    0.000    2.273    0.000    3.273    0.000    3.818 
#    0.000    0.727    0.000    9.091    0.000    8.364 
#
# Total GULP energy -545115.440603 kJ/mol
# GULP energy per Si atom -12388.987286 kJ/mol
# Density = 1.811945 g / cm^3
# Si number density = 18.160783 Si / 1000 Ang^3
#
#
#
# Elastic Constant Matrix: (Units=GPa)
#
#
# Indices 1 2 3 4 5 6 
#
# 1 28.5800 37.4136 26.7981 0.0000 0.0000 0.0000
# 2 37.4136 204.6332 79.1390 0.0000 0.0000 0.0000
# 3 26.7981 79.1390 77.0501 0.0000 0.0000 0.0000
# 4 0.0000 0.0000 0.0000 23.4861 0.0000 0.0000
# 5 0.0000 0.0000 0.0000 0.0000 13.4927 0.0000
# 6 0.0000 0.0000 0.0000 0.0000 0.0000 -2.9409
#
#
#
# Elastic Compliance Matrix: (Units=1/GPa)
#
#
# Indices 1 2 3 4 5 6 
#
# 1 0.054151 -0.004341 -0.014375 0.000000 0.000000 0.000000
# 2 -0.004341 0.008455 -0.007174 0.000000 0.000000 0.000000
# 3 -0.014375 -0.007174 0.025347 0.000000 0.000000 0.000000
# 4 0.000000 0.000000 0.000000 0.042578 0.000000 0.000000
# 5 0.000000 0.000000 0.000000 0.000000 0.074114 0.000000
# 6 0.000000 0.000000 0.000000 0.000000 0.000000 -0.340028
#
#
# Mechanical properties :
#
#
# Convention : Reuss Voigt Hill
#
# Bulk Modulus (GPa) = 27.64547 66.32942 46.98745
# Shear Modulus (GPa) = -69.88773 17.93508 -25.97633
#
# Velocity S-wave (km/s) = -6.21018 3.14597 -3.78610
# Velocity P-wave (km/s) = 6.01382 7.05684 2.61083
#
# Compressibility (1/GPa) = 0.03617229
#
# Stress axis : x y z
#
# Youngs Moduli (GPa) = 18.46679 118.27108 39.45227
#
# Poissons Ratio (x) = 0.51346 0.56712
# Poissons Ratio (y) = 0.08017 0.28305
# Poissons Ratio (z) = 0.26546 0.84853
#
# Static dielectric constant tensor:
#      x y z
#    x 2.814890 0.000000 0.000000 
#    y 0.000000 3.924290 0.000000 
#    z 0.000000 0.000000 3.219260 
# 
# 
# High freq. dielectric constant tensor:
#      x y z
#    x 1.640730 0.000000 0.000000 
#    y 0.000000 1.734310 0.000000 
#    z 0.000000 0.000000 1.680190 
# 
# From -- ./inp_files/2265.got.cif
#   From: 2010.03.12/outbox.cif.g09.slc.cpg/sg47_2_cif.got.tgz:2265.got - 2010.04.14 03:12:58.
