data_PCOD8198197
_publ_section_title
;
Structure prediction by ZEFSAII (Michael W. Deem and Ramdas Pophale) SiO2 
 PCOD8198197
Probable space group: P M M M
;
_chemical_formula_sum "Si O2"
_cell_formula_units_Z 40
_cell_length_a 7.788749
_cell_length_b 28.817474
_cell_length_c 9.442528
_cell_angle_alpha 90.000000
_cell_angle_beta 90.000000
_cell_angle_gamma 90.000000
_cell_volume 2119.394973
_symmetry_space_group_name_H-M "P M M M"
_symmetry_group_IT_number 47
_symmetry_cell_setting 'orthorhombic'
loop_
_space_group_symop_operation_xyz
x,y,z
-x,-y,z
x,-y,-z
-x,y,-z
-x,-y,-z
x,y,-z
-x,y,z
x,-y,z
loop_
_atom_site_type_symbol
_atom_site_label
_atom_site_fract_x
_atom_site_fract_y
_atom_site_fract_z
Si Si1 0.000000 0.552299 0.169060
Si Si2 0.805734 0.198597 0.343703
Si Si3 0.700558 0.717654 0.158890
Si Si4 0.309510 0.385471 0.831066
Si Si5 0.693369 0.100220 0.334071
Si Si6 0.000000 0.054862 0.163128
O O1 0.830131 0.578141 0.227447
O O2 0.000000 0.500000 0.228183
O O3 0.000000 0.552556 0.000000
O O4 0.743144 0.213458 0.500000
O O5 0.796141 0.243599 0.247197
O O6 0.696016 0.154671 0.289941
O O7 0.000000 0.180607 0.345960
O O8 0.500000 0.727938 0.162322
O O9 0.738472 0.666335 0.222120
O O10 0.772594 0.720580 0.000000
O O11 0.500000 0.399812 0.776429
O O12 0.310961 0.384724 0.000000
O O13 0.742138 0.094920 0.500000
O O14 0.500000 0.081633 0.305452
O O15 0.827456 0.072056 0.239752
O O16 0.000000 0.000000 0.170789
O O17 0.000000 0.072188 0.000000
#
# Coordination Sequence:
#
# PCOD8198197 Si02
#       6
#     4   8   8   8   8   4
#     4   9  16  24  37  58  82 116 161 203 252 307
#     4  10  20  34  53  79 111 143 176 217 262 308
#     4   9  18  31  47  70 100 136 175 209 250 310
#     4   8  15  27  40  58  88 122 158 202 247 297
#     4  10  21  40  65  88 113 149 190 230 273 324
#     4  11  25  43  62  87 120 152 183 229 284 331
#
# _framework density 18.873311000000001
#
# number of rings (size 3 to 8) (size 9 to 14) (size 15 to 20)
#    0.000    2.600    1.000    2.100    1.400    4.400 
#    0.000    4.000    0.000    0.000    0.000    0.000 
#    0.000    1.600    0.000    4.400    0.000    4.400 
#
# Total GULP energy -495824.042020 kJ/mol
# GULP energy per Si atom -12395.601051 kJ/mol
# Density = 1.883035 g / cm^3
# Si number density = 18.873311 Si / 1000 Ang^3
#
#
#
# Elastic Constant Matrix: (Units=GPa)
#
#
# Indices 1 2 3 4 5 6 
#
# 1 121.5744 61.9626 42.4197 0.0000 0.0000 0.0000
# 2 61.9626 111.2921 44.5222 0.0000 0.0000 0.0000
# 3 42.4197 44.5222 59.0058 0.0000 0.0000 0.0000
# 4 0.0000 0.0000 0.0000 -15.0713 0.0000 0.0000
# 5 0.0000 0.0000 0.0000 0.0000 18.6695 0.0000
# 6 0.0000 0.0000 0.0000 0.0000 0.0000 24.4542
#
#
#
# Elastic Compliance Matrix: (Units=1/GPa)
#
#
# Indices 1 2 3 4 5 6 
#
# 1 0.012574 -0.004848 -0.005382 0.000000 0.000000 0.000000
# 2 -0.004848 0.014739 -0.007636 0.000000 0.000000 0.000000
# 3 -0.005382 -0.007636 0.026578 0.000000 0.000000 0.000000
# 4 0.000000 0.000000 0.000000 -0.066351 0.000000 0.000000
# 5 0.000000 0.000000 0.000000 0.000000 0.053563 0.000000
# 6 0.000000 0.000000 0.000000 0.000000 0.000000 0.040893
#
#
# Mechanical properties :
#
#
# Convention : Reuss Voigt Hill
#
# Bulk Modulus (GPa) = 55.06580 65.52014 60.29297
# Shear Modulus (GPa) = 40.39384 15.14165 27.76775
#
# Velocity S-wave (km/s) = 4.63132 2.83553 3.83988
# Velocity P-wave (km/s) = 7.60517 6.74621 7.18853
#
# Compressibility (1/GPa) = 0.01816009
#
# Stress axis : x y z
#
# Youngs Moduli (GPa) = 79.52989 67.84618 37.62461
#
# Poissons Ratio (x) = 0.32889 0.20248
# Poissons Ratio (y) = 0.38553 0.28731
# Poissons Ratio (z) = 0.42801 0.51810
#
# Static dielectric constant tensor:
#      x y z
#    x 3.647720 0.000000 0.000000 
#    y 0.000000 3.461790 0.000000 
#    z 0.000000 0.000000 3.160130 
# 
# 
# High freq. dielectric constant tensor:
#      x y z
#    x 1.745600 0.000000 0.000000 
#    y 0.000000 1.732280 0.000000 
#    z 0.000000 0.000000 1.684980 
# 
# From -- ./inp_files/1768.got.cif
#   From: 2010.03.12/outbox.cif.g09.slc.cpg/sg47_1_cif.got.tgz:1768.got - 2010.04.14 03:12:58.
