data_PCOD8198549
_publ_section_title
;
Structure prediction by ZEFSAII (Michael W. Deem and Ramdas Pophale) SiO2 
 PCOD8198549
Probable space group: P M M M
;
_chemical_formula_sum "Si O2"
_cell_formula_units_Z 56
_cell_length_a 15.745920
_cell_length_b 19.404938
_cell_length_c 8.913254
_cell_angle_alpha 90.000000
_cell_angle_beta 90.000000
_cell_angle_gamma 90.000000
_cell_volume 2723.432293
_symmetry_space_group_name_H-M "P M M M"
_symmetry_group_IT_number 47
_symmetry_cell_setting 'orthorhombic'
loop_
_space_group_symop_operation_xyz
x,y,z
-x,-y,z
x,-y,-z
-x,y,-z
-x,-y,-z
x,y,-z
-x,y,z
x,-y,z
loop_
_atom_site_type_symbol
_atom_site_label
_atom_site_fract_x
_atom_site_fract_y
_atom_site_fract_z
Si Si1 0.349693 0.422123 0.671636
Si Si2 0.594039 0.297231 0.827596
Si Si3 0.173518 0.576559 0.828408
Si Si4 0.745507 0.077923 0.173540
Si Si5 0.096476 0.719997 0.175110
Si Si6 0.260543 0.786507 0.676118
Si Si7 0.090945 0.079987 0.336620
O O1 0.358837 0.397781 0.500000
O O2 0.380799 0.500000 0.691533
O O3 0.409690 0.376974 0.779190
O O4 0.251956 0.413603 0.717811
O O5 0.500000 0.264901 0.801248
O O6 0.667237 0.265776 0.725503
O O7 0.620860 0.289066 0.000000
O O8 0.132267 0.500000 0.803411
O O9 0.107968 0.638129 0.792051
O O10 0.205788 0.583043 0.000000
O O11 0.702078 0.138980 0.267490
O O12 0.845084 0.093601 0.200822
O O13 0.721105 0.000000 0.228893
O O14 0.722975 0.085691 0.000000
O O15 0.166907 0.766559 0.260758
O O16 0.000000 0.738929 0.226210
O O17 0.109004 0.735303 0.000000
O O18 0.254227 0.786673 0.500000
O O19 0.124370 0.108487 0.500000
O O20 0.000000 0.114503 0.296813
O O21 0.077154 0.000000 0.355827
#
# Coordination Sequence:
#
# PCOD8198549 Si02
#       7
#     8   8   8   8   8   8   8
#     4  10  20  34  56  88 125 162 199 244 300 356
#     4  11  24  42  65  91 120 157 201 247 298 359
#     4   9  17  31  54  82 115 158 205 254 305 353
#     4  10  21  37  59  85 112 146 188 235 290 354
#     4  10  21  37  58  85 120 163 210 257 302 354
#     4  12  25  41  63  88 120 159 196 245 302 357
#     4   8  14  26  45  71 105 142 180 225 276 331
#
# _framework density 20.562289
#
# number of rings (size 3 to 8) (size 9 to 14) (size 15 to 20)
#    0.000    2.000    1.429    3.000    0.000    4.571 
#    0.000    4.286    0.000    0.429    0.000    6.000 
#    0.000    0.000    0.000    0.000    0.000    0.000 
#
# Total GULP energy -693771.090167 kJ/mol
# GULP energy per Si atom -12388.769467 kJ/mol
# Density = 2.051549 g / cm^3
# Si number density = 20.562289 Si / 1000 Ang^3
#
#
#
# Elastic Constant Matrix: (Units=GPa)
#
#
# Indices 1 2 3 4 5 6 
#
# 1 76.5245 28.6695 29.9491 0.0000 0.0000 0.0000
# 2 28.6695 113.7142 44.2358 0.0000 0.0000 0.0000
# 3 29.9491 44.2358 88.7059 0.0000 0.0000 0.0000
# 4 0.0000 0.0000 0.0000 26.9572 0.0000 0.0000
# 5 0.0000 0.0000 0.0000 0.0000 -8.9989 0.0000
# 6 0.0000 0.0000 0.0000 0.0000 0.0000 8.4325
#
#
#
# Elastic Compliance Matrix: (Units=1/GPa)
#
#
# Indices 1 2 3 4 5 6 
#
# 1 0.015539 -0.002329 -0.004085 0.000000 0.000000 0.000000
# 2 -0.002329 0.011259 -0.004829 0.000000 0.000000 0.000000
# 3 -0.004085 -0.004829 0.015060 0.000000 0.000000 0.000000
# 4 0.000000 0.000000 0.000000 0.037096 0.000000 0.000000
# 5 0.000000 0.000000 0.000000 0.000000 -0.111125 0.000000
# 6 0.000000 0.000000 0.000000 0.000000 0.000000 0.118588
#
#
# Mechanical properties :
#
#
# Convention : Reuss Voigt Hill
#
# Bulk Modulus (GPa) = 51.61528 53.85038 52.73283
# Shear Modulus (GPa) = 43.34248 17.01753 30.18001
#
# Velocity S-wave (km/s) = 4.59613 2.87994 3.83526
# Velocity P-wave (km/s) = 7.30221 6.10774 6.73152
#
# Compressibility (1/GPa) = 0.01937411
#
# Stress axis : x y z
#
# Youngs Moduli (GPa) = 64.35493 88.81437 66.39936
#
# Poissons Ratio (x) = 0.20680 0.27125
# Poissons Ratio (y) = 0.14985 0.32062
# Poissons Ratio (z) = 0.26289 0.42886
#
# Static dielectric constant tensor:
#      x y z
#    x 3.529330 0.000000 0.000000 
#    y 0.000000 4.130580 0.000000 
#    z 0.000000 0.000000 3.649710 
# 
# 
# High freq. dielectric constant tensor:
#      x y z
#    x 1.768800 0.000000 0.000000 
#    y 0.000000 1.817450 0.000000 
#    z 0.000000 0.000000 1.800860 
# 
# From -- ./inp_files/7192.got.cif
#   From: 2010.03.12/outbox.cif.g09.slc.cpg/sg47_4_cif.got.tgz:7192.got - 2010.04.14 03:12:58.
