data_PCOD8198474
_publ_section_title
;
Structure prediction by ZEFSAII (Michael W. Deem and Ramdas Pophale) SiO2 
 PCOD8198474
Probable space group: P M M M
;
_chemical_formula_sum "Si O2"
_cell_formula_units_Z 48
_cell_length_a 8.080730
_cell_length_b 9.185928
_cell_length_c 32.325694
_cell_angle_alpha 90.000000
_cell_angle_beta 90.000000
_cell_angle_gamma 90.000000
_cell_volume 2399.504068
_symmetry_space_group_name_H-M "P M M M"
_symmetry_group_IT_number 47
_symmetry_cell_setting 'orthorhombic'
loop_
_space_group_symop_operation_xyz
x,y,z
-x,-y,z
x,-y,-z
-x,y,-z
-x,-y,-z
x,y,-z
-x,y,z
x,-y,z
loop_
_atom_site_type_symbol
_atom_site_label
_atom_site_fract_x
_atom_site_fract_y
_atom_site_fract_z
Si Si1 0.804700 0.663086 0.580078
Si Si2 0.195708 0.166430 0.659643
Si Si3 0.691537 0.336679 0.738258
Si Si4 0.305068 0.164389 0.500000
Si Si5 0.811259 0.668328 0.174032
Si Si6 0.000000 0.826678 0.046509
Si Si7 0.685102 0.170135 0.098158
O O1 0.729349 0.500000 0.577678
O O2 0.733482 0.743878 0.620560
O O3 0.757720 0.752899 0.540002
O O4 0.000000 0.654326 0.583170
O O5 0.274850 0.228322 0.700987
O O6 0.000000 0.180929 0.662745
O O7 0.251527 0.000000 0.654139
O O8 0.500000 0.338224 0.749176
O O9 0.753114 0.500000 0.726563
O O10 0.785659 0.278175 0.778904
O O11 0.500000 0.161804 0.500000
O O12 0.233574 0.000000 0.500000
O O13 0.760968 0.500000 0.170916
O O14 0.695464 0.756779 0.143020
O O15 0.000000 0.695835 0.161088
O O16 0.168689 0.768733 0.068444
O O17 0.000000 0.000000 0.045929
O O18 0.000000 0.764325 0.000000
O O19 0.500000 0.201679 0.079863
O O20 0.711840 0.000000 0.104616
#
# Coordination Sequence:
#
# PCOD8198474 Si02
#       7
#     8   8   8   4   8   4   8
#     4  10  21  38  61  85 108 139 181 226 272 326
#     4  10  21  37  57  81 108 141 180 222 271 324
#     4  10  21  36  54  78 108 143 183 225 271 326
#     4  11  24  39  56  82 114 145 178 219 270 326
#     4  10  20  35  57  82 109 146 189 233 283 337
#     4   9  18  34  55  81 115 151 189 237 289 342
#     4  10  20  34  55  83 113 147 188 235 288 343
#
# _framework density 20.004134000000001
#
# number of rings (size 3 to 8) (size 9 to 14) (size 15 to 20)
#    0.000    2.000    0.833    2.500    0.000    7.333 
#    0.000    1.667    0.000    1.000    0.000    1.167 
#    0.000    0.000    0.000    0.000    0.000    0.000 
#
# Total GULP energy -595246.894739 kJ/mol
# GULP energy per Si atom -12400.976974 kJ/mol
# Density = 1.995860 g / cm^3
# Si number density = 20.004134 Si / 1000 Ang^3
#
#
#
# Elastic Constant Matrix: (Units=GPa)
#
#
# Indices 1 2 3 4 5 6 
#
# 1 75.8603 37.4561 49.0248 0.0000 0.0000 0.0000
# 2 37.4561 99.0855 56.2376 0.0000 0.0000 0.0000
# 3 49.0248 56.2376 146.2083 0.0000 0.0000 0.0000
# 4 0.0000 0.0000 0.0000 54.8411 0.0000 0.0000
# 5 0.0000 0.0000 0.0000 0.0000 16.6877 0.0000
# 6 0.0000 0.0000 0.0000 0.0000 0.0000 23.1454
#
#
#
# Elastic Compliance Matrix: (Units=1/GPa)
#
#
# Indices 1 2 3 4 5 6 
#
# 1 0.018196 -0.004370 -0.004421 0.000000 0.000000 0.000000
# 2 -0.004370 0.013960 -0.003904 0.000000 0.000000 0.000000
# 3 -0.004421 -0.003904 0.009824 0.000000 0.000000 0.000000
# 4 0.000000 0.000000 0.000000 0.018235 0.000000 0.000000
# 5 0.000000 0.000000 0.000000 0.000000 0.059924 0.000000
# 6 0.000000 0.000000 0.000000 0.000000 0.000000 0.043205
#
#
# Mechanical properties :
#
#
# Convention : Reuss Voigt Hill
#
# Bulk Modulus (GPa) = 60.27443 67.39901 63.83672
# Shear Modulus (GPa) = 25.73814 30.83053 28.28433
#
# Velocity S-wave (km/s) = 3.59087 3.93008 3.76430
# Velocity P-wave (km/s) = 6.88396 7.37291 7.13262
#
# Compressibility (1/GPa) = 0.01659078
#
# Stress axis : x y z
#
# Youngs Moduli (GPa) = 54.95565 71.63265 101.79484
#
# Poissons Ratio (x) = 0.31300 0.45001
# Poissons Ratio (y) = 0.24013 0.39746
# Poissons Ratio (z) = 0.24294 0.27969
#
# Static dielectric constant tensor:
#      x y z
#    x 3.713020 0.000000 0.000000 
#    y 0.000000 3.688680 0.000000 
#    z 0.000000 0.000000 3.680650 
# 
# 
# High freq. dielectric constant tensor:
#      x y z
#    x 1.782270 0.000000 0.000000 
#    y 0.000000 1.770620 0.000000 
#    z 0.000000 0.000000 1.783530 
# 
# From -- ./inp_files/34065.got.cif
#   From: 2010.03.12/outbox.cif.g09.slc.cpg/sg47_18_cif.got.tgz:34065.got - 2010.04.14 03:12:58.
