data_PCOD8198557
_publ_section_title
;
Structure prediction by ZEFSAII (Michael W. Deem and Ramdas Pophale) SiO2 
 PCOD8198557
Probable space group: P M M M
;
_chemical_formula_sum "Si O2"
_cell_formula_units_Z 64
_cell_length_a 14.380800
_cell_length_b 23.851197
_cell_length_c 9.388477
_cell_angle_alpha 90.000000
_cell_angle_beta 90.000000
_cell_angle_gamma 90.000000
_cell_volume 3220.240981
_symmetry_space_group_name_H-M "P M M M"
_symmetry_group_IT_number 47
_symmetry_cell_setting 'orthorhombic'
loop_
_space_group_symop_operation_xyz
x,y,z
-x,-y,z
x,-y,-z
-x,y,-z
-x,-y,-z
x,y,-z
-x,y,z
x,-y,z
loop_
_atom_site_type_symbol
_atom_site_label
_atom_site_fract_x
_atom_site_fract_y
_atom_site_fract_z
Si Si1 0.395577 0.123422 0.158217
Si Si2 0.761801 0.934400 0.665463
Si Si3 0.605685 0.631879 0.843244
Si Si4 0.102961 0.648647 0.331126
Si Si5 0.108518 0.860384 0.831842
Si Si6 0.397431 0.245056 0.257580
Si Si7 0.197377 0.761785 0.657630
Si Si8 0.747863 0.563093 0.331079
O O1 0.500000 0.102517 0.192688
O O2 0.328765 0.097316 0.276537
O O3 0.392446 0.190843 0.156765
O O4 0.365375 0.103393 0.000000
O O5 0.774758 0.918092 0.500000
O O6 0.853145 0.916053 0.754123
O O7 0.747466 0.000000 0.686034
O O8 0.500000 0.613237 0.821159
O O9 0.615077 0.698875 0.833855
O O10 0.661513 0.598511 0.724535
O O11 0.641272 0.614364 0.000000
O O12 0.096830 0.649264 0.500000
O O13 0.157897 0.703684 0.279376
O O14 0.157291 0.593215 0.279639
O O15 0.000000 0.647863 0.263144
O O16 0.166496 0.808782 0.768757
O O17 0.000000 0.853441 0.797554
O O18 0.127160 0.864417 0.000000
O O19 0.500000 0.246148 0.335341
O O20 0.309127 0.241571 0.362809
O O21 0.156142 0.774389 0.500000
O O22 0.740210 0.563029 0.500000
O O23 0.747520 0.500000 0.270117
#
# Coordination Sequence:
#
# PCOD8198557 Si02
#       8
#     8   8   8   8   8   8   8   8
#     4  10  21  38  62  91 123 159 198 241 292 354
#     4  11  25  43  63  89 121 159 203 250 298 349
#     4  10  21  37  58  84 116 154 193 235 288 352
#     4   9  18  34  56  84 116 148 187 237 292 349
#     4  11  25  43  64  91 121 155 197 246 301 359
#     4  10  20  34  58  93 126 153 189 234 287 349
#     4  11  21  36  61  91 124 159 191 233 292 356
#     4  10  21  37  56  80 111 149 197 249 297 345
#
# _framework density 19.874288
#
# number of rings (size 3 to 8) (size 9 to 14) (size 15 to 20)
#    0.000    1.750    2.500    1.500    0.000    6.500 
#    0.000    7.500    0.000    0.375    0.000    0.875 
#    0.000    0.000    0.000    0.000    0.000    0.000 
#
# Total GULP energy -793343.332701 kJ/mol
# GULP energy per Si atom -12395.989573 kJ/mol
# Density = 1.982905 g / cm^3
# Si number density = 19.874288 Si / 1000 Ang^3
#
#
#
# Elastic Constant Matrix: (Units=GPa)
#
#
# Indices 1 2 3 4 5 6 
#
# 1 145.5223 55.9177 44.5345 0.0000 0.0000 0.0000
# 2 55.9177 123.7863 38.5031 0.0000 0.0000 0.0000
# 3 44.5345 38.5031 80.4361 0.0000 0.0000 0.0000
# 4 0.0000 0.0000 0.0000 18.2196 0.0000 0.0000
# 5 0.0000 0.0000 0.0000 0.0000 22.8399 0.0000
# 6 0.0000 0.0000 0.0000 0.0000 0.0000 17.4084
#
#
#
# Elastic Compliance Matrix: (Units=1/GPa)
#
#
# Indices 1 2 3 4 5 6 
#
# 1 0.009132 -0.002999 -0.003621 0.000000 0.000000 0.000000
# 2 -0.002999 0.010477 -0.003354 0.000000 0.000000 0.000000
# 3 -0.003621 -0.003354 0.016042 0.000000 0.000000 0.000000
# 4 0.000000 0.000000 0.000000 0.054886 0.000000 0.000000
# 5 0.000000 0.000000 0.000000 0.000000 0.043783 0.000000
# 6 0.000000 0.000000 0.000000 0.000000 0.000000 0.057444
#
#
# Mechanical properties :
#
#
# Convention : Reuss Voigt Hill
#
# Bulk Modulus (GPa) = 63.68170 69.73948 66.71059
# Shear Modulus (GPa) = 23.04717 25.74621 24.39669
#
# Velocity S-wave (km/s) = 3.40905 3.60315 3.50744
# Velocity P-wave (km/s) = 6.89981 7.24408 7.07404
#
# Compressibility (1/GPa) = 0.01570310
#
# Stress axis : x y z
#
# Youngs Moduli (GPa) = 109.50219 95.45078 62.33447
#
# Poissons Ratio (x) = 0.28627 0.22569
# Poissons Ratio (y) = 0.32841 0.20910
# Poissons Ratio (z) = 0.39646 0.32018
#
# Static dielectric constant tensor:
#      x y z
#    x 3.925930 0.000000 0.000000 
#    y 0.000000 3.677380 0.000000 
#    z 0.000000 0.000000 3.352330 
# 
# 
# High freq. dielectric constant tensor:
#      x y z
#    x 1.787030 0.000000 0.000000 
#    y 0.000000 1.774110 0.000000 
#    z 0.000000 0.000000 1.753260 
# 
# From -- ./inp_files/7913.got.cif
#   From: 2010.03.12/outbox.cif.g09.slc.cpg/sg47_4_cif.got.tgz:7913.got - 2010.04.14 03:12:58.
