data_PCOD8198702
_publ_section_title
;
Structure prediction by ZEFSAII (Michael W. Deem and Ramdas Pophale) SiO2 
 PCOD8198702
Probable space group: P M M M
;
_chemical_formula_sum "Si O2"
_cell_formula_units_Z 48
_cell_length_a 9.014326
_cell_length_b 9.371679
_cell_length_c 30.816695
_cell_angle_alpha 90.000000
_cell_angle_beta 90.000000
_cell_angle_gamma 90.000000
_cell_volume 2603.374969
_symmetry_space_group_name_H-M "P M M M"
_symmetry_group_IT_number 47
_symmetry_cell_setting 'orthorhombic'
loop_
_space_group_symop_operation_xyz
x,y,z
-x,-y,z
x,-y,-z
-x,y,-z
-x,-y,-z
x,y,-z
-x,y,z
x,-y,z
loop_
_atom_site_type_symbol
_atom_site_label
_atom_site_fract_x
_atom_site_fract_y
_atom_site_fract_z
Si Si1 0.329527 0.836256 0.550438
Si Si2 0.325378 0.835112 0.699012
Si Si3 0.172809 0.666955 0.622419
Si Si4 0.167199 0.169652 0.214323
Si Si5 0.326941 0.833934 0.871182
Si Si6 0.676354 0.339336 0.047623
O O1 0.300676 0.807588 0.500000
O O2 0.500000 0.803221 0.562511
O O3 0.221715 0.732156 0.576516
O O4 0.292870 0.000000 0.562249
O O5 0.500000 0.816119 0.702737
O O6 0.265554 0.741481 0.659953
O O7 0.254146 0.775890 0.743386
O O8 0.281963 0.000000 0.690848
O O9 0.208816 0.500000 0.622314
O O10 0.000000 0.697120 0.629880
O O11 0.244916 0.229728 0.170995
O O12 0.000000 0.228070 0.216410
O O13 0.172063 0.000000 0.213057
O O14 0.500000 0.801545 0.865187
O O15 0.259795 0.759646 0.914158
O O16 0.295020 0.000000 0.876725
O O17 0.500000 0.333420 0.048450
O O18 0.732042 0.500000 0.055767
O O19 0.731865 0.286472 0.000000
#
# Coordination Sequence:
#
# PCOD8198702 Si02
#       6
#     8   8   8   8   8   8
#     4   9  19  37  60  84 108 136 175 220 260 301
#     4  10  20  35  57  81 102 129 170 215 255 300
#     4  11  24  38  52  76 111 145 175 210 254 304
#     4   9  17  30  49  72  98 128 160 196 243 297
#     4   9  16  26  43  68  94 118 151 197 241 281
#     4   8  14  25  41  62  89 120 153 190 234 284
#
# _framework density 18.437604
#
# number of rings (size 3 to 8) (size 9 to 14) (size 15 to 20)
#    0.000    2.667    0.000    3.000    0.000    7.667 
#    0.000    5.000    0.000    4.000    0.000    3.500 
#    0.000    0.000    0.000    0.000    0.000    0.000 
#
# Total GULP energy -595162.478216 kJ/mol
# GULP energy per Si atom -12399.218296 kJ/mol
# Density = 1.839564 g / cm^3
# Si number density = 18.437604 Si / 1000 Ang^3
#
#
#
# Elastic Constant Matrix: (Units=GPa)
#
#
# Indices 1 2 3 4 5 6 
#
# 1 71.6366 39.7506 52.2964 0.0000 0.0000 0.0000
# 2 39.7506 65.9756 57.2641 0.0000 0.0000 0.0000
# 3 52.2964 57.2641 145.4451 0.0000 0.0000 0.0000
# 4 0.0000 0.0000 0.0000 4.0344 0.0000 0.0000
# 5 0.0000 0.0000 0.0000 0.0000 8.9009 0.0000
# 6 0.0000 0.0000 0.0000 0.0000 0.0000 20.3705
#
#
#
# Elastic Compliance Matrix: (Units=1/GPa)
#
#
# Indices 1 2 3 4 5 6 
#
# 1 0.022533 -0.009941 -0.004188 0.000000 0.000000 0.000000
# 2 -0.009941 0.027412 -0.007218 0.000000 0.000000 0.000000
# 3 -0.004188 -0.007218 0.011223 0.000000 0.000000 0.000000
# 4 0.000000 0.000000 0.000000 0.247866 0.000000 0.000000
# 5 0.000000 0.000000 0.000000 0.000000 0.112349 0.000000
# 6 0.000000 0.000000 0.000000 0.000000 0.000000 0.049091
#
#
# Mechanical properties :
#
#
# Convention : Reuss Voigt Hill
#
# Bulk Modulus (GPa) = 54.13175 64.63106 59.38140
# Shear Modulus (GPa) = 9.62789 15.57757 12.60273
#
# Velocity S-wave (km/s) = 2.28762 2.90984 2.61728
# Velocity P-wave (km/s) = 6.03331 6.81319 6.43507
#
# Compressibility (1/GPa) = 0.01847345
#
# Stress axis : x y z
#
# Youngs Moduli (GPa) = 44.37944 36.48089 89.10213
#
# Poissons Ratio (x) = 0.36267 0.37316
# Poissons Ratio (y) = 0.44119 0.64313
# Poissons Ratio (z) = 0.18586 0.26332
#
# Static dielectric constant tensor:
#      x y z
#    x 3.279460 0.000000 0.000000 
#    y 0.000000 3.232660 0.000000 
#    z 0.000000 0.000000 3.722480 
# 
# 
# High freq. dielectric constant tensor:
#      x y z
#    x 1.699300 0.000000 0.000000 
#    y 0.000000 1.688610 0.000000 
#    z 0.000000 0.000000 1.734160 
# 
# From -- ./inp_files/2456.got.cif
#   From: 2010.03.12/outbox.cif.g09.slc.cpg/sg47_2_cif.got.tgz:2456.got - 2010.04.14 03:12:58.
