data_PCOD8198191
_publ_section_title
;
Structure prediction by ZEFSAII (Michael W. Deem and Ramdas Pophale) SiO2 
 PCOD8198191
Probable space group: P M M M
;
_chemical_formula_sum "Si O2"
_cell_formula_units_Z 56
_cell_length_a 15.775146
_cell_length_b 9.247835
_cell_length_c 19.337843
_cell_angle_alpha 90.000000
_cell_angle_beta 90.000000
_cell_angle_gamma 90.000000
_cell_volume 2821.119545
_symmetry_space_group_name_H-M "P M M M"
_symmetry_group_IT_number 47
_symmetry_cell_setting 'orthorhombic'
loop_
_space_group_symop_operation_xyz
x,y,z
-x,-y,z
x,-y,-z
-x,y,-z
-x,-y,-z
x,y,-z
-x,y,z
x,-y,z
loop_
_atom_site_type_symbol
_atom_site_label
_atom_site_fract_x
_atom_site_fract_y
_atom_site_fract_z
Si Si1 0.095549 0.167343 0.836209
Si Si2 0.403621 0.169896 0.423012
Si Si3 0.899896 0.837002 0.422193
Si Si4 0.760527 0.331266 0.918978
Si Si5 0.592995 0.327975 0.155918
Si Si6 0.338963 0.661685 0.298153
Si Si7 0.853427 0.662869 0.292796
O O1 0.160695 0.246756 0.886568
O O2 0.095071 0.237338 0.760001
O O3 0.000000 0.182626 0.866123
O O4 0.121713 0.000000 0.829741
O O5 0.374317 0.216836 0.500000
O O6 0.500000 0.219707 0.410466
O O7 0.344153 0.242222 0.366426
O O8 0.395196 0.000000 0.414857
O O9 0.872436 0.794148 0.500000
O O10 0.857716 0.724693 0.370133
O O11 0.000000 0.828443 0.414299
O O12 0.868674 0.000000 0.405802
O O13 0.771200 0.500000 0.900333
O O14 0.669988 0.269566 0.891472
O O15 0.762242 0.303605 0.000000
O O16 0.500000 0.272665 0.130016
O O17 0.595687 0.500000 0.153535
O O18 0.604457 0.275899 0.235365
O O19 0.367890 0.500000 0.317999
O O20 0.243829 0.661812 0.268985
O O21 0.890499 0.500000 0.291961
#
# Coordination Sequence:
#
# PCOD8198191 Si02
#       7
#     8   8   8   8   8   8   8
#     4  11  24  41  62  87 117 156 199 241 289 348
#     4   9  19  35  52  73 105 144 188 239 290 340
#     4   9  19  36  55  76 107 148 193 239 289 349
#     4  10  21  39  63  92 125 156 190 235 286 341
#     4   9  17  33  58  87 120 155 191 233 282 337
#     4  10  20  34  53  78 111 148 187 235 287 339
#     4  11  22  36  56  83 115 148 190 245 295 344
#
# _framework density 19.850276000000001
#
# number of rings (size 3 to 8) (size 9 to 14) (size 15 to 20)
#    0.000    2.143    1.429    2.571    0.000    7.143 
#    0.000    7.143    0.000    0.429    0.000    1.000 
#    0.000    0.000    0.000    0.000    0.000    0.000 
#
# Total GULP energy -694329.285234 kJ/mol
# GULP energy per Si atom -12398.737236 kJ/mol
# Density = 1.980510 g / cm^3
# Si number density = 19.850276 Si / 1000 Ang^3
#
#
#
# Elastic Constant Matrix: (Units=GPa)
#
#
# Indices 1 2 3 4 5 6 
#
# 1 108.7697 42.4450 53.3093 0.0000 0.0000 0.0000
# 2 42.4450 85.3731 56.3859 0.0000 0.0000 0.0000
# 3 53.3093 56.3859 113.8594 0.0000 0.0000 0.0000
# 4 0.0000 0.0000 0.0000 27.1249 0.0000 0.0000
# 5 0.0000 0.0000 0.0000 0.0000 27.3739 0.0000
# 6 0.0000 0.0000 0.0000 0.0000 0.0000 22.9852
#
#
#
# Elastic Compliance Matrix: (Units=1/GPa)
#
#
# Indices 1 2 3 4 5 6 
#
# 1 0.012606 -0.003521 -0.004159 0.000000 0.000000 0.000000
# 2 -0.003521 0.018390 -0.007459 0.000000 0.000000 0.000000
# 3 -0.004159 -0.007459 0.014424 0.000000 0.000000 0.000000
# 4 0.000000 0.000000 0.000000 0.036867 0.000000 0.000000
# 5 0.000000 0.000000 0.000000 0.000000 0.036531 0.000000
# 6 0.000000 0.000000 0.000000 0.000000 0.000000 0.043506
#
#
# Mechanical properties :
#
#
# Convention : Reuss Voigt Hill
#
# Bulk Modulus (GPa) = 66.03566 68.03142 67.03354
# Shear Modulus (GPa) = 25.29765 25.88758 25.59262
#
# Velocity S-wave (km/s) = 3.57378 3.61521 3.59455
# Velocity P-wave (km/s) = 7.09706 7.19535 7.14637
#
# Compressibility (1/GPa) = 0.01514333
#
# Stress axis : x y z
#
# Youngs Moduli (GPa) = 79.32900 54.37771 69.33102
#
# Poissons Ratio (x) = 0.19144 0.28832
# Poissons Ratio (y) = 0.27929 0.51712
# Poissons Ratio (z) = 0.32989 0.40559
#
# Static dielectric constant tensor:
#      x y z
#    x 3.681510 0.000000 0.000000 
#    y 0.000000 3.432490 0.000000 
#    z 0.000000 0.000000 3.619060 
# 
# 
# High freq. dielectric constant tensor:
#      x y z
#    x 1.779950 0.000000 0.000000 
#    y 0.000000 1.749930 0.000000 
#    z 0.000000 0.000000 1.774380 
# 
# From -- ./inp_files/7300.got.cif
#   From: 2010.03.12/outbox.cif.g09.slc.cpg/sg47_4_cif.got.tgz:7300.got - 2010.04.14 03:12:58.
