data_PCOD8198437
_publ_section_title
;
Structure prediction by ZEFSAII (Michael W. Deem and Ramdas Pophale) SiO2 
 PCOD8198437
Probable space group: P M M M
;
_chemical_formula_sum "Si O2"
_cell_formula_units_Z 52
_cell_length_a 28.151551
_cell_length_b 9.084829
_cell_length_c 11.538224
_cell_angle_alpha 90.000000
_cell_angle_beta 90.000000
_cell_angle_gamma 90.000000
_cell_volume 2950.924175
_symmetry_space_group_name_H-M "P M M M"
_symmetry_group_IT_number 47
_symmetry_cell_setting 'orthorhombic'
loop_
_space_group_symop_operation_xyz
x,y,z
-x,-y,z
x,-y,-z
-x,y,-z
-x,-y,-z
x,y,-z
-x,y,z
x,-y,z
loop_
_atom_site_type_symbol
_atom_site_label
_atom_site_fract_x
_atom_site_fract_y
_atom_site_fract_z
Si Si1 0.413246 0.170781 0.744867
Si Si2 0.266328 0.175348 0.500000
Si Si3 0.764260 0.326412 0.271882
Si Si4 0.625332 0.825828 0.500000
Si Si5 0.314322 0.165934 0.135951
Si Si6 0.500000 0.674489 0.866646
Si Si7 0.856286 0.326837 0.868698
Si Si8 0.948192 0.166348 0.862329
O O1 0.402841 0.227364 0.614041
O O2 0.367175 0.197577 0.822055
O O3 0.454271 0.267243 0.799904
O O4 0.428590 0.000000 0.744552
O O5 0.238508 0.237347 0.609749
O O6 0.320670 0.235129 0.500000
O O7 0.264475 0.000000 0.500000
O O8 0.763501 0.500000 0.295794
O O9 0.720170 0.285363 0.190970
O O10 0.812308 0.274720 0.208758
O O11 0.629472 0.000000 0.500000
O O12 0.299244 0.000000 0.173260
O O13 0.312734 0.186327 0.000000
O O14 0.500000 0.500000 0.861800
O O15 0.500000 0.730210 0.000000
O O16 0.861079 0.500000 0.868589
O O17 0.904899 0.263335 0.813187
O O18 0.848160 0.268581 0.000000
O O19 0.000000 0.223401 0.817650
O O20 0.940385 0.000000 0.819928
O O21 0.947903 0.174986 0.000000
#
# Coordination Sequence:
#
# PCOD8198437 Si02
#       8
#     8   4   8   4   8   4   8   8
#     4  10  20  38  62  84 106 139 179 217 259 309
#     4  11  21  39  60  78 104 137 179 226 265 311
#     4  11  22  35  52  77 108 142 177 217 270 322
#     4   9  18  36  62  85 106 131 170 221 262 303
#     4  10  20  34  55  82 108 139 181 220 258 312
#     4  11  25  42  57  80 114 145 174 215 266 315
#     4   9  18  31  46  69 105 144 178 213 255 312
#     4   8  14  25  42  66  97 133 174 220 266 310
#
# _framework density 17.621599
#
# number of rings (size 3 to 8) (size 9 to 14) (size 15 to 20)
#    0.000    2.231    1.538    2.308    0.000    4.615 
#    0.000    5.000    0.000    0.000    0.000    0.538 
#    0.000    4.308    0.000    0.000    0.000    0.000 
#
# Total GULP energy -644744.205706 kJ/mol
# GULP energy per Si atom -12398.927033 kJ/mol
# Density = 1.758149 g / cm^3
# Si number density = 17.621599 Si / 1000 Ang^3
#
#
#
# Elastic Constant Matrix: (Units=GPa)
#
#
# Indices 1 2 3 4 5 6 
#
# 1 127.3408 51.2529 67.1454 0.0000 0.0000 0.0000
# 2 51.2529 53.4505 39.0197 0.0000 0.0000 0.0000
# 3 67.1454 39.0197 95.4843 0.0000 0.0000 0.0000
# 4 0.0000 0.0000 0.0000 25.6045 0.0000 0.0000
# 5 0.0000 0.0000 0.0000 0.0000 -107.3040 0.0000
# 6 0.0000 0.0000 0.0000 0.0000 0.0000 26.0445
#
#
#
# Elastic Compliance Matrix: (Units=1/GPa)
#
#
# Indices 1 2 3 4 5 6 
#
# 1 0.015384 -0.009768 -0.006826 0.000000 0.000000 0.000000
# 2 -0.009768 0.032865 -0.006561 0.000000 0.000000 0.000000
# 3 -0.006826 -0.006561 0.017955 0.000000 0.000000 0.000000
# 4 0.000000 0.000000 0.000000 0.039056 0.000000 0.000000
# 5 0.000000 0.000000 0.000000 0.000000 -0.009319 0.000000
# 6 0.000000 0.000000 0.000000 0.000000 0.000000 0.038396
#
#
# Mechanical properties :
#
#
# Convention : Reuss Voigt Hill
#
# Bulk Modulus (GPa) = 50.27120 65.67907 57.97513
# Shear Modulus (GPa) = 26.69821 -3.20716 11.74553
#
# Velocity S-wave (km/s) = 3.89663 -1.35054 2.58455
# Velocity P-wave (km/s) = 6.98821 5.90939 6.47132
#
# Compressibility (1/GPa) = 0.01989211
#
# Stress axis : x y z
#
# Youngs Moduli (GPa) = 65.00286 30.42721 55.69591
#
# Poissons Ratio (x) = 0.29721 0.38020
# Poissons Ratio (y) = 0.63495 0.36544
# Poissons Ratio (z) = 0.44374 0.19965
#
# Static dielectric constant tensor:
#      x y z
#    x 3.566030 0.000000 0.000000 
#    y 0.000000 3.188030 0.000000 
#    z 0.000000 0.000000 3.357960 
# 
# 
# High freq. dielectric constant tensor:
#      x y z
#    x 1.688600 0.000000 0.000000 
#    y 0.000000 1.671470 0.000000 
#    z 0.000000 0.000000 1.666680 
# 
# From -- ./inp_files/4611.got.cif
#   From: 2010.03.12/outbox.cif.g09.slc.cpg/sg47_3_cif.got.tgz:4611.got - 2010.04.14 03:12:58.
