data_PCOD8198584
_publ_section_title
;
Structure prediction by ZEFSAII (Michael W. Deem and Ramdas Pophale) SiO2 
 PCOD8198584
Probable space group: P M M M
;
_chemical_formula_sum "Si O2"
_cell_formula_units_Z 24
_cell_length_a 9.237239
_cell_length_b 16.977092
_cell_length_c 9.112374
_cell_angle_alpha 90.000000
_cell_angle_beta 90.000000
_cell_angle_gamma 90.000000
_cell_volume 1429.015761
_symmetry_space_group_name_H-M "P M M M"
_symmetry_group_IT_number 47
_symmetry_cell_setting 'orthorhombic'
loop_
_space_group_symop_operation_xyz
x,y,z
-x,-y,z
x,-y,-z
-x,y,-z
-x,-y,-z
x,y,-z
-x,y,z
x,-y,z
loop_
_atom_site_type_symbol
_atom_site_label
_atom_site_fract_x
_atom_site_fract_y
_atom_site_fract_z
Si Si1 0.670233 0.909569 0.500000
Si Si2 0.330721 0.500000 0.328056
Si Si3 0.160698 0.209201 0.661395
Si Si4 0.830193 0.639974 0.170387
O O1 0.500000 0.899403 0.500000
O O2 0.734791 0.867462 0.647259
O O3 0.718371 0.000000 0.500000
O O4 0.500000 0.500000 0.292445
O O5 0.299539 0.500000 0.500000
O O6 0.260835 0.423007 0.258799
O O7 0.154651 0.250332 0.500000
O O8 0.219385 0.272940 0.777555
O O9 0.000000 0.180542 0.708221
O O10 0.000000 0.627355 0.202668
O O11 0.794459 0.630828 0.000000
#
# Coordination Sequence:
#
# PCOD8198584 Si02
#       4
#     4   4   8   8
#     4   9  17  29  49  76 101 126 161 203 244 291
#     4  11  24  37  50  72 102 135 172 211 248 290
#     4   8  16  30  49  73  98 126 162 202 246 292
#     4  10  20  35  54  75 100 132 169 208 252 299
#
# _framework density 16.794777
#
# number of rings (size 3 to 8) (size 9 to 14) (size 15 to 20)
#    1.000    1.667    0.000    2.000    0.000    8.000 
#    0.000    0.000    0.000    1.000    0.000    7.000 
#    0.000    0.000    0.000    0.000    0.000    0.000 
#
# Total GULP energy -297387.157189 kJ/mol
# GULP energy per Si atom -12391.131550 kJ/mol
# Density = 1.675655 g / cm^3
# Si number density = 16.794777 Si / 1000 Ang^3
#
#
#
# Elastic Constant Matrix: (Units=GPa)
#
#
# Indices 1 2 3 4 5 6 
#
# 1 85.0256 81.7428 49.5738 0.0000 0.0000 0.0000
# 2 81.7428 150.5180 57.2048 0.0000 0.0000 0.0000
# 3 49.5738 57.2048 79.6136 0.0000 0.0000 0.0000
# 4 0.0000 0.0000 0.0000 2.6111 0.0000 0.0000
# 5 0.0000 0.0000 0.0000 0.0000 17.8199 0.0000
# 6 0.0000 0.0000 0.0000 0.0000 0.0000 2.8057
#
#
#
# Elastic Compliance Matrix: (Units=1/GPa)
#
#
# Indices 1 2 3 4 5 6 
#
# 1 0.028806 -0.012143 -0.009212 0.000000 0.000000 0.000000
# 2 -0.012143 0.014258 -0.002684 0.000000 0.000000 0.000000
# 3 -0.009212 -0.002684 0.020225 0.000000 0.000000 0.000000
# 4 0.000000 0.000000 0.000000 0.382980 0.000000 0.000000
# 5 0.000000 0.000000 0.000000 0.000000 0.056117 0.000000
# 6 0.000000 0.000000 0.000000 0.000000 0.000000 0.356413
#
#
# Mechanical properties :
#
#
# Convention : Reuss Voigt Hill
#
# Bulk Modulus (GPa) = 65.73679 76.91112 71.32395
# Shear Modulus (GPa) = 5.48276 13.08972 9.28624
#
# Velocity S-wave (km/s) = 1.80877 2.79479 2.35399
# Velocity P-wave (km/s) = 6.60215 7.50390 7.06742
#
# Compressibility (1/GPa) = 0.01521218
#
# Stress axis : x y z
#
# Youngs Moduli (GPa) = 34.71455 70.13459 49.44319
#
# Poissons Ratio (x) = 0.85164 0.45547
# Poissons Ratio (y) = 0.42154 0.13270
# Poissons Ratio (z) = 0.31979 0.18823
#
# Static dielectric constant tensor:
#      x y z
#    x 3.110520 0.000000 0.000000 
#    y 0.000000 3.081520 0.000000 
#    z 0.000000 0.000000 3.052300 
# 
# 
# High freq. dielectric constant tensor:
#      x y z
#    x 1.646820 0.000000 0.000000 
#    y 0.000000 1.639990 0.000000 
#    z 0.000000 0.000000 1.629250 
# 
# From -- ./inp_files/808.got.cif
#   From: 2010.03.12/outbox.cif.g09.slc.cpg/sg47_1_cif.got.tgz:808.got - 2010.04.14 03:12:58.
