data_PCOD8198853
_publ_section_title
;
Structure prediction by ZEFSAII (Michael W. Deem and Ramdas Pophale) SiO2 
 PCOD8198853
Probable space group: P M M M
;
_chemical_formula_sum "Si O2"
_cell_formula_units_Z 52
_cell_length_a 20.394339
_cell_length_b 14.288298
_cell_length_c 8.937544
_cell_angle_alpha 90.000000
_cell_angle_beta 90.000000
_cell_angle_gamma 90.000000
_cell_volume 2604.403835
_symmetry_space_group_name_H-M "P M M M"
_symmetry_group_IT_number 47
_symmetry_cell_setting 'orthorhombic'
loop_
_space_group_symop_operation_xyz
x,y,z
-x,-y,z
x,-y,-z
-x,y,-z
-x,-y,-z
x,y,-z
-x,y,z
x,-y,z
loop_
_atom_site_type_symbol
_atom_site_label
_atom_site_fract_x
_atom_site_fract_y
_atom_site_fract_z
Si Si1 0.826250 0.103889 0.827418
Si Si2 0.573432 0.798366 0.176442
Si Si3 0.259429 0.647907 0.336954
Si Si4 0.303621 0.141814 0.334982
Si Si5 0.382072 0.599549 0.824467
Si Si6 0.000000 0.390698 0.822508
Si Si7 0.878883 0.715069 0.678021
O O1 0.752461 0.094313 0.764207
O O2 0.870773 0.178708 0.738550
O O3 0.858192 0.000000 0.812447
O O4 0.822416 0.135474 0.000000
O O5 0.500000 0.832362 0.214935
O O6 0.625194 0.867552 0.255590
O O7 0.581040 0.691111 0.239011
O O8 0.586828 0.801341 0.000000
O O9 0.261761 0.598885 0.500000
O O10 0.286629 0.751167 0.353087
O O11 0.305583 0.593520 0.222475
O O12 0.184774 0.653234 0.279058
O O13 0.306804 0.094831 0.500000
O O14 0.414731 0.500000 0.772782
O O15 0.384267 0.606425 0.000000
O O16 0.062118 0.338036 0.755548
O O17 0.000000 0.500000 0.774927
O O18 0.000000 0.380068 0.000000
O O19 0.889041 0.721199 0.500000
#
# Coordination Sequence:
#
# PCOD8198853 Si02
#       7
#     8   8   8   8   8   4   8
#     4  10  20  35  59  90 120 148 179 221 276 336
#     4   9  17  29  45  64  90 130 176 220 272 333
#     4   8  16  30  47  68  93 125 165 209 261 314
#     4   9  17  30  49  73 101 133 171 216 263 316
#     4   9  17  27  40  62  91 123 164 216 270 323
#     4  11  25  43  62  85 116 157 201 240 278 323
#     4  10  21  38  60  85 115 151 190 234 280 327
#
# _framework density 19.966180000000001
#
# number of rings (size 3 to 8) (size 9 to 14) (size 15 to 20)
#    0.000    2.692    0.000    2.538    0.000    7.692 
#    0.000    5.000    0.000    2.769    0.000    7.538 
#    0.000    0.000    0.000    0.000    0.000    0.000 
#
# Total GULP energy -644260.419770 kJ/mol
# GULP energy per Si atom -12389.623457 kJ/mol
# Density = 1.992074 g / cm^3
# Si number density = 19.966180 Si / 1000 Ang^3
#
#
#
# Elastic Constant Matrix: (Units=GPa)
#
#
# Indices 1 2 3 4 5 6 
#
# 1 116.0410 28.9015 33.3721 0.0000 0.0000 0.0000
# 2 28.9015 81.4272 30.8538 0.0000 0.0000 0.0000
# 3 33.3721 30.8538 75.1164 0.0000 0.0000 0.0000
# 4 0.0000 0.0000 0.0000 6.0361 0.0000 0.0000
# 5 0.0000 0.0000 0.0000 0.0000 22.8609 0.0000
# 6 0.0000 0.0000 0.0000 0.0000 0.0000 11.0176
#
#
#
# Elastic Compliance Matrix: (Units=1/GPa)
#
#
# Indices 1 2 3 4 5 6 
#
# 1 0.010219 -0.002258 -0.003612 0.000000 0.000000 0.000000
# 2 -0.002258 0.015044 -0.005176 0.000000 0.000000 0.000000
# 3 -0.003612 -0.005176 0.017044 0.000000 0.000000 0.000000
# 4 0.000000 0.000000 0.000000 0.165671 0.000000 0.000000
# 5 0.000000 0.000000 0.000000 0.000000 0.043743 0.000000
# 6 0.000000 0.000000 0.000000 0.000000 0.000000 0.090764
#
#
# Mechanical properties :
#
#
# Convention : Reuss Voigt Hill
#
# Bulk Modulus (GPa) = 49.47295 50.98215 50.22755
# Shear Modulus (GPa) = 13.46567 19.94673 16.70620
#
# Velocity S-wave (km/s) = 2.59979 3.16417 2.89576
# Velocity P-wave (km/s) = 5.81756 6.24011 6.03253
#
# Compressibility (1/GPa) = 0.02021307
#
# Stress axis : x y z
#
# Youngs Moduli (GPa) = 97.85698 66.47327 58.67333
#
# Poissons Ratio (x) = 0.15012 0.21195
# Poissons Ratio (y) = 0.22099 0.30368
# Poissons Ratio (z) = 0.35350 0.34405
#
# Static dielectric constant tensor:
#      x y z
#    x 3.703730 0.000000 0.000000 
#    y 0.000000 3.797590 0.000000 
#    z 0.000000 0.000000 3.817490 
# 
# 
# High freq. dielectric constant tensor:
#      x y z
#    x 1.762920 0.000000 0.000000 
#    y 0.000000 1.771810 0.000000 
#    z 0.000000 0.000000 1.777260 
# 
# From -- ./inp_files/11056.got.cif
#   From: 2010.03.12/outbox.cif.g09.slc.cpg/sg47_6_cif.got.tgz:11056.got - 2010.04.14 03:12:58.
