data_PCOD8198483
_publ_section_title
;
Structure prediction by ZEFSAII (Michael W. Deem and Ramdas Pophale) SiO2 
 PCOD8198483
Probable space group: P M M M
;
_chemical_formula_sum "Si O2"
_cell_formula_units_Z 64
_cell_length_a 23.680036
_cell_length_b 15.395092
_cell_length_c 9.055931
_cell_angle_alpha 90.000000
_cell_angle_beta 90.000000
_cell_angle_gamma 90.000000
_cell_volume 3301.396995
_symmetry_space_group_name_H-M "P M M M"
_symmetry_group_IT_number 47
_symmetry_cell_setting 'orthorhombic'
loop_
_space_group_symop_operation_xyz
x,y,z
-x,-y,z
x,-y,-z
-x,y,-z
-x,-y,-z
x,y,-z
-x,y,z
x,-y,z
loop_
_atom_site_type_symbol
_atom_site_label
_atom_site_fract_x
_atom_site_fract_y
_atom_site_fract_z
Si Si1 0.565106 0.900817 0.328565
Si Si2 0.063631 0.653392 0.827270
Si Si3 0.063321 0.834762 0.329698
Si Si4 0.760392 0.743900 0.173973
Si Si5 0.368433 0.249989 0.825694
Si Si6 0.835888 0.095807 0.830897
Si Si7 0.434730 0.599271 0.328869
Si Si8 0.169466 0.596807 0.331395
O O1 0.575448 0.881169 0.500000
O O2 0.500000 0.884136 0.288207
O O3 0.603015 0.837010 0.233521
O O4 0.581736 0.000000 0.290920
O O5 0.072246 0.750009 0.768533
O O6 0.107809 0.592548 0.743792
O O7 0.000000 0.619987 0.795937
O O8 0.077328 0.652661 0.000000
O O9 0.075310 0.812111 0.500000
O O10 0.108087 0.904108 0.270083
O O11 0.000000 0.872165 0.310209
O O12 0.696145 0.750077 0.227656
O O13 0.791136 0.832635 0.223925
O O14 0.788739 0.661656 0.249955
O O15 0.764595 0.729975 0.000000
O O16 0.397271 0.337297 0.768203
O O17 0.373464 0.248914 0.000000
O O18 0.808392 0.000000 0.814269
O O19 0.853352 0.113683 0.000000
O O20 0.423054 0.618654 0.500000
O O21 0.500000 0.616461 0.291601
O O22 0.418589 0.500000 0.290544
O O23 0.162612 0.627027 0.500000
O O24 0.195332 0.500000 0.321686
#
# Coordination Sequence:
#
# PCOD8198483 Si02
#       8
#     8   8   8   8   8   8   8   8
#     4   9  19  37  60  86 118 156 196 236 280 336
#     4  10  20  35  58  86 115 148 185 226 278 343
#     4  10  20  34  55  84 116 146 179 227 285 340
#     4  10  23  42  59  79 112 154 195 235 281 336
#     4  11  23  36  56  87 119 151 191 240 290 340
#     4  10  21  38  60  82 106 144 193 237 280 337
#     4   9  19  37  60  85 115 153 194 233 278 338
#     4  11  24  40  60  86 114 146 187 238 291 338
#
# _framework density 19.385732999999998
#
# number of rings (size 3 to 8) (size 9 to 14) (size 15 to 20)
#    0.000    2.000    1.250    2.625    0.000    7.750 
#    0.000    7.500    0.000    0.000    0.000    0.000 
#    0.000    0.000    0.000    0.000    0.000    0.000 
#
# Total GULP energy -793678.433196 kJ/mol
# GULP energy per Si atom -12401.225519 kJ/mol
# Density = 1.934161 g / cm^3
# Si number density = 19.385733 Si / 1000 Ang^3
#
#
#
# Elastic Constant Matrix: (Units=GPa)
#
#
# Indices 1 2 3 4 5 6 
#
# 1 133.8435 73.6226 55.9479 0.0000 0.0000 0.0000
# 2 73.6226 124.3602 42.8661 0.0000 0.0000 0.0000
# 3 55.9479 42.8661 65.7849 0.0000 0.0000 0.0000
# 4 0.0000 0.0000 0.0000 29.5409 0.0000 0.0000
# 5 0.0000 0.0000 0.0000 0.0000 22.8585 0.0000
# 6 0.0000 0.0000 0.0000 0.0000 0.0000 6.0520
#
#
#
# Elastic Compliance Matrix: (Units=1/GPa)
#
#
# Indices 1 2 3 4 5 6 
#
# 1 0.013901 -0.005358 -0.008331 0.000000 0.000000 0.000000
# 2 -0.005358 0.012436 -0.003546 0.000000 0.000000 0.000000
# 3 -0.008331 -0.003546 0.024597 0.000000 0.000000 0.000000
# 4 0.000000 0.000000 0.000000 0.033851 0.000000 0.000000
# 5 0.000000 0.000000 0.000000 0.000000 0.043747 0.000000
# 6 0.000000 0.000000 0.000000 0.000000 0.000000 0.165236
#
#
# Mechanical properties :
#
#
# Convention : Reuss Voigt Hill
#
# Bulk Modulus (GPa) = 60.74224 74.31797 67.53010
# Shear Modulus (GPa) = 14.98230 21.79375 18.38802
#
# Velocity S-wave (km/s) = 2.78304 3.35657 3.08317
# Velocity P-wave (km/s) = 6.45976 7.31039 6.89820
#
# Compressibility (1/GPa) = 0.01646301
#
# Stress axis : x y z
#
# Youngs Moduli (GPa) = 71.93663 80.41491 40.65485
#
# Poissons Ratio (x) = 0.43086 0.33870
# Poissons Ratio (y) = 0.38543 0.14418
# Poissons Ratio (z) = 0.59932 0.28518
#
# Static dielectric constant tensor:
#      x y z
#    x 3.612470 0.000000 0.000000 
#    y 0.000000 3.494780 0.000000 
#    z 0.000000 0.000000 3.507360 
# 
# 
# High freq. dielectric constant tensor:
#      x y z
#    x 1.750550 0.000000 0.000000 
#    y 0.000000 1.759700 0.000000 
#    z 0.000000 0.000000 1.755970 
# 
# From -- ./inp_files/7882.got.cif
#   From: 2010.03.12/outbox.cif.g09.slc.cpg/sg47_4_cif.got.tgz:7882.got - 2010.04.14 03:12:58.
