data_PCOD8198688
_publ_section_title
;
Structure prediction by ZEFSAII (Michael W. Deem and Ramdas Pophale) SiO2 
 PCOD8198688
Probable space group: P M M M
;
_chemical_formula_sum "Si O2"
_cell_formula_units_Z 56
_cell_length_a 8.758038
_cell_length_b 23.003166
_cell_length_c 14.507952
_cell_angle_alpha 90.000000
_cell_angle_beta 90.000000
_cell_angle_gamma 90.000000
_cell_volume 2922.809759
_symmetry_space_group_name_H-M "P M M M"
_symmetry_group_IT_number 47
_symmetry_cell_setting 'orthorhombic'
loop_
_space_group_symop_operation_xyz
x,y,z
-x,-y,z
x,-y,-z
-x,y,-z
-x,-y,-z
x,y,-z
-x,y,z
x,-y,z
loop_
_atom_site_type_symbol
_atom_site_label
_atom_site_fract_x
_atom_site_fract_y
_atom_site_fract_z
Si Si1 0.818486 0.111751 0.286188
Si Si2 0.680162 0.221185 0.607624
Si Si3 0.181034 0.000000 0.602391
Si Si4 0.172600 0.260242 0.897412
Si Si5 0.675373 0.675617 0.260373
Si Si6 0.179087 0.564674 0.314548
Si Si7 0.332427 0.431531 0.500000
Si Si8 0.323155 0.862484 0.898517
O O1 0.766074 0.170895 0.336060
O O2 0.739727 0.099817 0.186705
O O3 0.000000 0.113089 0.274280
O O4 0.761214 0.057857 0.347109
O O5 0.730271 0.221570 0.500000
O O6 0.500000 0.210589 0.617675
O O7 0.726133 0.283014 0.654051
O O8 0.251507 0.000000 0.500000
O O9 0.000000 0.000000 0.598037
O O10 0.295416 0.292141 0.834877
O O11 0.216895 0.193456 0.898836
O O12 0.000000 0.266357 0.858303
O O13 0.182182 0.286703 0.000000
O O14 0.500000 0.658912 0.270603
O O15 0.767646 0.615212 0.246552
O O16 0.244873 0.500000 0.289852
O O17 0.240203 0.588680 0.411533
O O18 0.000000 0.560234 0.317997
O O19 0.349173 0.500000 0.500000
O O20 0.500000 0.401862 0.500000
O O21 0.500000 0.846144 0.881249
O O22 0.306318 0.893239 0.000000
#
# Coordination Sequence:
#
# PCOD8198688 Si02
#       8
#     8   8   4   8   8   8   4   8
#     4  11  21  36  60  85 112 148 191 237 284 333
#     4  10  22  38  54  78 115 151 185 230 281 332
#     4   9  20  38  58  83 114 150 193 237 280 331
#     4  10  20  35  57  85 114 144 182 228 279 338
#     4  11  22  35  56  83 113 148 185 229 282 338
#     4  10  21  36  53  75 107 146 189 236 281 330
#     4   9  17  31  51  73  99 137 185 230 275 328
#     4  10  20  35  56  82 114 149 183 226 283 340
#
# _framework density 19.159645000000001
#
# number of rings (size 3 to 8) (size 9 to 14) (size 15 to 20)
#    0.000    1.857    1.429    2.786    1.000    4.857 
#    0.000    1.786    0.000    5.143    0.000    3.000 
#    0.000    0.000    0.000    0.000    0.000    0.000 
#
# Total GULP energy -694118.274712 kJ/mol
# GULP energy per Si atom -12394.969191 kJ/mol
# Density = 1.911604 g / cm^3
# Si number density = 19.159645 Si / 1000 Ang^3
#
#
#
# Elastic Constant Matrix: (Units=GPa)
#
#
# Indices 1 2 3 4 5 6 
#
# 1 64.9317 30.5048 32.5435 0.0000 0.0000 0.0000
# 2 30.5048 97.6390 42.8839 0.0000 0.0000 0.0000
# 3 32.5435 42.8839 130.2130 0.0000 0.0000 0.0000
# 4 0.0000 0.0000 0.0000 21.3899 0.0000 0.0000
# 5 0.0000 0.0000 0.0000 0.0000 32.0456 0.0000
# 6 0.0000 0.0000 0.0000 0.0000 0.0000 21.2787
#
#
#
# Elastic Compliance Matrix: (Units=1/GPa)
#
#
# Indices 1 2 3 4 5 6 
#
# 1 0.019190 -0.004547 -0.003299 0.000000 0.000000 0.000000
# 2 -0.004547 0.013051 -0.003162 0.000000 0.000000 0.000000
# 3 -0.003299 -0.003162 0.009545 0.000000 0.000000 0.000000
# 4 0.000000 0.000000 0.000000 0.046751 0.000000 0.000000
# 5 0.000000 0.000000 0.000000 0.000000 0.031206 0.000000
# 6 0.000000 0.000000 0.000000 0.000000 0.000000 0.046995
#
#
# Mechanical properties :
#
#
# Convention : Reuss Voigt Hill
#
# Bulk Modulus (GPa) = 50.57615 56.07201 53.32408
# Shear Modulus (GPa) = 25.59592 27.39961 26.49776
#
# Velocity S-wave (km/s) = 3.65900 3.78573 3.72290
# Velocity P-wave (km/s) = 6.65624 6.95976 6.80969
#
# Compressibility (1/GPa) = 0.01977216
#
# Stress axis : x y z
#
# Youngs Moduli (GPa) = 52.11021 76.62248 104.76174
#
# Poissons Ratio (x) = 0.34837 0.34558
# Poissons Ratio (y) = 0.23693 0.33124
# Poissons Ratio (z) = 0.17190 0.24227
#
# Static dielectric constant tensor:
#      x y z
#    x 3.468550 0.000000 0.000000 
#    y 0.000000 3.416380 0.000000 
#    z 0.000000 0.000000 3.826340 
# 
# 
# High freq. dielectric constant tensor:
#      x y z
#    x 1.747490 0.000000 0.000000 
#    y 0.000000 1.728460 0.000000 
#    z 0.000000 0.000000 1.746240 
# 
# From -- ./inp_files/21594.got.cif
#   From: 2010.03.12/outbox.cif.g09.slc.cpg/sg47_11_cif.got.tgz:21594.got - 2010.04.14 03:12:58.
