data_PCOD8198373
_publ_section_title
;
Structure prediction by ZEFSAII (Michael W. Deem and Ramdas Pophale) SiO2 
 PCOD8198373
Probable space group: P M M M
;
_chemical_formula_sum "Si O2"
_cell_formula_units_Z 48
_cell_length_a 9.045392
_cell_length_b 9.000606
_cell_length_c 30.723100
_cell_angle_alpha 90.000000
_cell_angle_beta 90.000000
_cell_angle_gamma 90.000000
_cell_volume 2501.290756
_symmetry_space_group_name_H-M "P M M M"
_symmetry_group_IT_number 47
_symmetry_cell_setting 'orthorhombic'
loop_
_space_group_symop_operation_xyz
x,y,z
-x,-y,z
x,-y,-z
-x,y,-z
-x,-y,-z
x,y,-z
-x,y,z
x,-y,z
loop_
_atom_site_type_symbol
_atom_site_label
_atom_site_fract_x
_atom_site_fract_y
_atom_site_fract_z
Si Si1 0.173170 0.829632 0.246331
Si Si2 0.326649 0.170613 0.664823
Si Si3 0.175704 0.167442 0.500000
Si Si4 0.671643 0.826611 0.920512
Si Si5 0.830009 0.325623 0.586537
Si Si6 0.174727 0.330423 0.000000
Si Si7 0.669799 0.673262 0.168660
O O1 0.251700 0.777692 0.290468
O O2 0.227930 0.725157 0.207867
O O3 0.000000 0.807587 0.252692
O O4 0.214062 0.000000 0.235400
O O5 0.500000 0.194510 0.669760
O O6 0.267089 0.274048 0.626829
O O7 0.286124 0.000000 0.654270
O O8 0.234609 0.249341 0.456925
O O9 0.000000 0.172395 0.500000
O O10 0.236843 0.000000 0.500000
O O11 0.500000 0.795065 0.929941
O O12 0.720141 0.759753 0.874383
O O13 0.707539 0.000000 0.920239
O O14 0.766593 0.749753 0.957380
O O15 0.813966 0.500000 0.580308
O O16 0.000000 0.279190 0.594693
O O17 0.230013 0.500000 0.000000
O O18 0.000000 0.320017 0.000000
O O19 0.500000 0.710063 0.180134
O O20 0.694151 0.500000 0.160262
#
# Coordination Sequence:
#
# PCOD8198373 Si02
#       7
#     8   8   4   8   8   4   8
#     4  10  21  37  58  83 110 143 183 226 273 325
#     4  10  21  37  57  80 107 142 184 228 273 322
#     4   9  17  31  54  81 108 141 180 222 268 319
#     4  10  21  38  61  86 111 144 187 230 273 325
#     4  10  20  34  54  81 112 144 179 221 270 324
#     4  11  24  39  56  82 116 151 186 227 276 326
#     4  10  21  37  58  84 113 146 183 224 273 327
#
# _framework density 19.190093999999998
#
# number of rings (size 3 to 8) (size 9 to 14) (size 15 to 20)
#    0.000    2.000    0.000    3.250    0.000    9.000 
#    0.000    0.417    0.000    2.500    0.000    0.000 
#    0.000    0.000    0.000    0.000    0.000    0.000 
#
# Total GULP energy -595463.902592 kJ/mol
# GULP energy per Si atom -12405.497971 kJ/mol
# Density = 1.914642 g / cm^3
# Si number density = 19.190094 Si / 1000 Ang^3
#
#
#
# Elastic Constant Matrix: (Units=GPa)
#
#
# Indices 1 2 3 4 5 6 
#
# 1 70.9529 43.5952 58.3931 0.0000 0.0000 0.0000
# 2 43.5952 106.9230 71.6552 0.0000 0.0000 0.0000
# 3 58.3931 71.6552 155.8078 0.0000 0.0000 0.0000
# 4 0.0000 0.0000 0.0000 72.1414 0.0000 0.0000
# 5 0.0000 0.0000 0.0000 0.0000 25.8255 0.0000
# 6 0.0000 0.0000 0.0000 0.0000 0.0000 29.2135
#
#
#
# Elastic Compliance Matrix: (Units=1/GPa)
#
#
# Indices 1 2 3 4 5 6 
#
# 1 0.022085 -0.004998 -0.005978 0.000000 0.000000 0.000000
# 2 -0.004998 0.014650 -0.004864 0.000000 0.000000 0.000000
# 3 -0.005978 -0.004864 0.010896 0.000000 0.000000 0.000000
# 4 0.000000 0.000000 0.000000 0.013862 0.000000 0.000000
# 5 0.000000 0.000000 0.000000 0.000000 0.038721 0.000000
# 6 0.000000 0.000000 0.000000 0.000000 0.000000 0.034231
#
#
# Mechanical properties :
#
#
# Convention : Reuss Voigt Hill
#
# Bulk Modulus (GPa) = 62.69871 75.66342 69.18106
# Shear Modulus (GPa) = 29.16423 36.10543 32.63483
#
# Velocity S-wave (km/s) = 3.90263 4.34229 4.12832
# Velocity P-wave (km/s) = 7.28359 8.04081 7.67155
#
# Compressibility (1/GPa) = 0.01594929
#
# Stress axis : x y z
#
# Youngs Moduli (GPa) = 45.27986 68.25781 91.77866
#
# Poissons Ratio (x) = 0.34117 0.54867
# Poissons Ratio (y) = 0.22632 0.44645
# Poissons Ratio (z) = 0.27069 0.33203
#
# Static dielectric constant tensor:
#      x y z
#    x 3.384730 0.000000 0.000000 
#    y 0.000000 3.583660 0.000000 
#    z 0.000000 0.000000 3.420390 
# 
# 
# High freq. dielectric constant tensor:
#      x y z
#    x 1.735160 0.000000 0.000000 
#    y 0.000000 1.754220 0.000000 
#    z 0.000000 0.000000 1.760790 
# 
# From -- ./inp_files/34071.got.cif
#   From: 2010.03.12/outbox.cif.g09.slc.cpg/sg47_18_cif.got.tgz:34071.got - 2010.04.14 03:12:58.
