data_PCOD8198823
_publ_section_title
;
Structure prediction by ZEFSAII (Michael W. Deem and Ramdas Pophale) SiO2 
 PCOD8198823
Probable space group: P M M M
;
_chemical_formula_sum "Si O2"
_cell_formula_units_Z 40
_cell_length_a 7.941931
_cell_length_b 27.071926
_cell_length_c 9.335771
_cell_angle_alpha 90.000000
_cell_angle_beta 90.000000
_cell_angle_gamma 90.000000
_cell_volume 2007.222211
_symmetry_space_group_name_H-M "P M M M"
_symmetry_group_IT_number 47
_symmetry_cell_setting 'orthorhombic'
loop_
_space_group_symop_operation_xyz
x,y,z
-x,-y,z
x,-y,-z
-x,y,-z
-x,-y,-z
x,y,-z
-x,y,z
x,-y,z
loop_
_atom_site_type_symbol
_atom_site_label
_atom_site_fract_x
_atom_site_fract_y
_atom_site_fract_z
Si Si1 0.311541 0.379573 0.334317
Si Si2 0.693599 0.799956 0.662826
Si Si3 0.191895 0.710424 0.162737
Si Si4 0.000000 0.444833 0.670054
Si Si5 0.198437 0.906696 0.663431
Si Si6 0.200700 0.000000 0.161622
O O1 0.276118 0.366990 0.500000
O O2 0.500000 0.402192 0.315012
O O3 0.304708 0.328752 0.247415
O O4 0.170234 0.417610 0.276253
O O5 0.761755 0.795224 0.500000
O O6 0.500000 0.784629 0.671560
O O7 0.797743 0.763981 0.764901
O O8 0.717080 0.855989 0.716786
O O9 0.000000 0.692211 0.168037
O O10 0.257361 0.714090 0.000000
O O11 0.000000 0.500000 0.735415
O O12 0.000000 0.447538 0.500000
O O13 0.248722 0.918207 0.500000
O O14 0.000000 0.901051 0.680929
O O15 0.270154 0.951226 0.759530
O O16 0.000000 0.000000 0.167620
O O17 0.268692 0.000000 0.000000
#
# Coordination Sequence:
#
# PCOD8198823 Si02
#       6
#     8   8   8   4   8   4
#     4  10  20  35  58  86 115 151 192 233 282 338
#     4  10  21  36  54  78 107 139 177 222 274 331
#     4  11  23  37  55  80 110 146 186 228 277 333
#     4   9  18  34  57  87 121 153 189 238 287 328
#     4   9  17  31  51  73  97 129 169 213 263 320
#     4   9  17  29  48  73  98 126 166 217 266 315
#
# _framework density 19.928037
#
# number of rings (size 3 to 8) (size 9 to 14) (size 15 to 20)
#    0.000    2.200    1.000    2.100    0.000    7.600 
#    0.000    4.500    0.000    4.200    0.000    1.400 
#    0.000    0.000    0.000    0.000    0.000    0.000 
#
# Total GULP energy -496067.140008 kJ/mol
# GULP energy per Si atom -12401.678500 kJ/mol
# Density = 1.988268 g / cm^3
# Si number density = 19.928037 Si / 1000 Ang^3
#
#
#
# Elastic Constant Matrix: (Units=GPa)
#
#
# Indices 1 2 3 4 5 6 
#
# 1 81.9038 43.0384 29.9775 0.0000 0.0000 0.0000
# 2 43.0384 142.1304 66.0525 0.0000 0.0000 0.0000
# 3 29.9775 66.0525 95.3595 0.0000 0.0000 0.0000
# 4 0.0000 0.0000 0.0000 6.5400 0.0000 0.0000
# 5 0.0000 0.0000 0.0000 0.0000 15.4599 0.0000
# 6 0.0000 0.0000 0.0000 0.0000 0.0000 20.4130
#
#
#
# Elastic Compliance Matrix: (Units=1/GPa)
#
#
# Indices 1 2 3 4 5 6 
#
# 1 0.014852 -0.003432 -0.002291 0.000000 0.000000 0.000000
# 2 -0.003432 0.011169 -0.006657 0.000000 0.000000 0.000000
# 3 -0.002291 -0.006657 0.015818 0.000000 0.000000 0.000000
# 4 0.000000 0.000000 0.000000 0.152906 0.000000 0.000000
# 5 0.000000 0.000000 0.000000 0.000000 0.064683 0.000000
# 6 0.000000 0.000000 0.000000 0.000000 0.000000 0.048988
#
#
# Mechanical properties :
#
#
# Convention : Reuss Voigt Hill
#
# Bulk Modulus (GPa) = 58.55894 66.39229 62.47562
# Shear Modulus (GPa) = 14.75487 20.50426 17.62957
#
# Velocity S-wave (km/s) = 2.72400 3.21115 2.97755
# Velocity P-wave (km/s) = 6.27236 6.86564 6.57570
#
# Compressibility (1/GPa) = 0.01707681
#
# Stress axis : x y z
#
# Youngs Moduli (GPa) = 67.33224 89.53293 63.21770
#
# Poissons Ratio (x) = 0.30731 0.14485
# Poissons Ratio (y) = 0.23111 0.42087
# Poissons Ratio (z) = 0.15428 0.59606
#
# Static dielectric constant tensor:
#      x y z
#    x 3.520950 0.000000 0.000000 
#    y 0.000000 3.639730 0.000000 
#    z 0.000000 0.000000 3.507320 
# 
# 
# High freq. dielectric constant tensor:
#      x y z
#    x 1.773610 0.000000 0.000000 
#    y 0.000000 1.775550 0.000000 
#    z 0.000000 0.000000 1.755480 
# 
# From -- ./inp_files/1871.got.cif
#   From: 2010.03.12/outbox.cif.g09.slc.cpg/sg47_1_cif.got.tgz:1871.got - 2010.04.14 03:12:58.
