data_PCOD8198761
_publ_section_title
;
Structure prediction by ZEFSAII (Michael W. Deem and Ramdas Pophale) SiO2 
 PCOD8198761
Probable space group: P M M M
;
_chemical_formula_sum "Si O2"
_cell_formula_units_Z 48
_cell_length_a 30.691188
_cell_length_b 8.960289
_cell_length_c 9.099023
_cell_angle_alpha 90.000000
_cell_angle_beta 90.000000
_cell_angle_gamma 90.000000
_cell_volume 2502.248743
_symmetry_space_group_name_H-M "P M M M"
_symmetry_group_IT_number 47
_symmetry_cell_setting 'orthorhombic'
loop_
_space_group_symop_operation_xyz
x,y,z
-x,-y,z
x,-y,-z
-x,y,-z
-x,-y,-z
x,y,-z
-x,y,z
x,-y,z
loop_
_atom_site_type_symbol
_atom_site_label
_atom_site_fract_x
_atom_site_fract_y
_atom_site_fract_z
Si Si1 0.586942 0.324766 0.330319
Si Si2 0.166529 0.171298 0.669032
Si Si3 0.500000 0.168287 0.674712
Si Si4 0.744681 0.327314 0.328692
Si Si5 0.333698 0.828357 0.826850
Si Si6 0.000000 0.676302 0.666900
Si Si7 0.920881 0.826127 0.829356
O O1 0.594406 0.281001 0.500000
O O2 0.582048 0.500000 0.310540
O O3 0.543129 0.250118 0.266148
O O4 0.627540 0.268683 0.238324
O O5 0.153031 0.194400 0.500000
O O6 0.206805 0.275751 0.712447
O O7 0.126186 0.221490 0.768703
O O8 0.179685 0.000000 0.699529
O O9 0.500000 0.174238 0.500000
O O10 0.500000 0.000000 0.734815
O O11 0.735062 0.299883 0.500000
O O12 0.739149 0.500000 0.286755
O O13 0.711801 0.228791 0.235438
O O14 0.340284 0.000000 0.781302
O O15 0.333215 0.807234 0.000000
O O16 0.042823 0.733523 0.746613
O O17 0.000000 0.500000 0.673282
O O18 0.000000 0.735126 0.500000
O O19 0.929582 0.000000 0.800375
O O20 0.922877 0.786169 0.000000
#
# Coordination Sequence:
#
# PCOD8198761 Si02
#       7
#     8   8   4   8   8   4   8
#     4  10  20  35  57  84 112 142 179 224 273 325
#     4   9  18  34  56  81 110 145 183 222 265 316
#     4   9  17  31  54  83 112 143 180 222 268 319
#     4  10  21  37  58  84 112 143 181 225 272 323
#     4  11  24  39  55  78 109 145 185 228 273 323
#     4  11  24  39  56  80 110 145 186 231 276 322
#     4  10  21  37  58  84 113 145 182 224 271 325
#
# _framework density 19.182745000000001
#
# number of rings (size 3 to 8) (size 9 to 14) (size 15 to 20)
#    0.000    2.000    0.000    3.250    0.000   10.333 
#    0.000    3.750    0.000    2.500    0.000    0.000 
#    0.000    0.000    0.000    0.000    0.000    0.000 
#
# Total GULP energy -595429.302983 kJ/mol
# GULP energy per Si atom -12404.777145 kJ/mol
# Density = 1.913908 g / cm^3
# Si number density = 19.182745 Si / 1000 Ang^3
#
#
#
# Elastic Constant Matrix: (Units=GPa)
#
#
# Indices 1 2 3 4 5 6 
#
# 1 122.3640 45.6164 58.9319 0.0000 0.0000 0.0000
# 2 45.6164 76.0004 43.3187 0.0000 0.0000 0.0000
# 3 58.9319 43.3187 83.5536 0.0000 0.0000 0.0000
# 4 0.0000 0.0000 0.0000 25.5767 0.0000 0.0000
# 5 0.0000 0.0000 0.0000 0.0000 -298.4169 0.0000
# 6 0.0000 0.0000 0.0000 0.0000 0.0000 11.4164
#
#
#
# Elastic Compliance Matrix: (Units=1/GPa)
#
#
# Indices 1 2 3 4 5 6 
#
# 1 0.013062 -0.003675 -0.007307 0.000000 0.000000 0.000000
# 2 -0.003675 0.019711 -0.007627 0.000000 0.000000 0.000000
# 3 -0.007307 -0.007627 0.021077 0.000000 0.000000 0.000000
# 4 0.000000 0.000000 0.000000 0.039098 0.000000 0.000000
# 5 0.000000 0.000000 0.000000 0.000000 -0.003351 0.000000
# 6 0.000000 0.000000 0.000000 0.000000 0.000000 0.087593
#
#
# Mechanical properties :
#
#
# Convention : Reuss Voigt Hill
#
# Bulk Modulus (GPa) = 60.13084 64.18352 62.15718
# Shear Modulus (GPa) = 22.73226 -43.34802 -10.30788
#
# Velocity S-wave (km/s) = 3.44617 -4.75883 -2.32060
# Velocity P-wave (km/s) = 6.87380 1.82657 5.02919
#
# Compressibility (1/GPa) = 0.01663040
#
# Stress axis : x y z
#
# Youngs Moduli (GPa) = 76.56060 50.73353 47.44538
#
# Poissons Ratio (x) = 0.18643 0.34670
# Poissons Ratio (y) = 0.28133 0.36188
# Poissons Ratio (z) = 0.55946 0.38696
#
# Static dielectric constant tensor:
#      x y z
#    x 3.647660 0.000000 0.000000 
#    y 0.000000 3.581590 0.000000 
#    z 0.000000 0.000000 3.454750 
# 
# 
# High freq. dielectric constant tensor:
#      x y z
#    x 1.761580 0.000000 0.000000 
#    y 0.000000 1.752790 0.000000 
#    z 0.000000 0.000000 1.735160 
# 
# From -- ./inp_files/13909.got.cif
#   From: 2010.03.12/outbox.cif.g09.slc.cpg/sg47_7_cif.got.tgz:13909.got - 2010.04.14 03:12:58.
