data_PCOD8198413
_publ_section_title
;
Structure prediction by ZEFSAII (Michael W. Deem and Ramdas Pophale) SiO2 
 PCOD8198413
Probable space group: P M M M
;
_chemical_formula_sum "Si O2"
_cell_formula_units_Z 56
_cell_length_a 22.091865
_cell_length_b 16.254187
_cell_length_c 8.034409
_cell_angle_alpha 90.000000
_cell_angle_beta 90.000000
_cell_angle_gamma 90.000000
_cell_volume 2885.038205
_symmetry_space_group_name_H-M "P M M M"
_symmetry_group_IT_number 47
_symmetry_cell_setting 'orthorhombic'
loop_
_space_group_symop_operation_xyz
x,y,z
-x,-y,z
x,-y,-z
-x,y,-z
-x,-y,-z
x,y,-z
-x,y,z
x,-y,z
loop_
_atom_site_type_symbol
_atom_site_label
_atom_site_fract_x
_atom_site_fract_y
_atom_site_fract_z
Si Si1 0.607348 0.249175 0.181787
Si Si2 0.070202 0.407454 0.194766
Si Si3 0.571327 0.910744 0.684445
Si Si4 0.263022 0.310006 0.185335
Si Si5 0.700442 0.407752 0.500000
Si Si6 0.930935 0.907413 0.196392
Si Si7 0.857312 0.250567 0.688535
Si Si8 0.432461 0.656517 0.500000
O O1 0.593622 0.152835 0.178294
O O2 0.678895 0.252842 0.209405
O O3 0.569704 0.290814 0.330389
O O4 0.588977 0.286512 0.000000
O O5 0.092341 0.500000 0.247838
O O6 0.104078 0.333944 0.288012
O O7 0.000000 0.398875 0.239056
O O8 0.081508 0.395488 0.000000
O O9 0.593631 0.883648 0.500000
O O10 0.500000 0.915698 0.686007
O O11 0.598537 0.000000 0.729594
O O12 0.267465 0.375694 0.332973
O O13 0.202824 0.254940 0.199347
O O14 0.263523 0.351322 0.000000
O O15 0.719185 0.500000 0.500000
O O16 0.626629 0.401771 0.500000
O O17 0.892268 0.834056 0.275156
O O18 0.000000 0.895699 0.255915
O O19 0.908821 0.000000 0.249648
O O20 0.926715 0.898694 0.000000
O O21 0.835702 0.247508 0.500000
O O22 0.500000 0.613582 0.500000
#
# Coordination Sequence:
#
# PCOD8198413 Si02
#       8
#     8   8   8   8   4   8   8   4
#     4  10  20  34  55  78 105 146 190 229 277 333
#     4   9  19  36  56  79 110 149 190 231 283 347
#     4   9  17  29  47  74 108 143 177 217 269 325
#     4  10  22  41  60  81 112 150 191 238 283 334
#     4  10  22  41  62  87 116 145 187 232 275 344
#     4   9  19  37  60  85 115 154 200 248 300 358
#     4  12  23  35  56  85 116 151 195 246 294 348
#     4  10  20  35  57  84 114 144 175 224 281 334
#
# _framework density 19.410488000000001
#
# number of rings (size 3 to 8) (size 9 to 14) (size 15 to 20)
#    0.000    2.143    1.429    3.429    0.000    5.286 
#    0.000    2.857    0.000    0.857    0.000    4.000 
#    0.000    0.000    0.000    0.000    0.000    0.000 
#
# Total GULP energy -693801.756366 kJ/mol
# GULP energy per Si atom -12389.317078 kJ/mol
# Density = 1.936631 g / cm^3
# Si number density = 19.410488 Si / 1000 Ang^3
#
#
#
# Elastic Constant Matrix: (Units=GPa)
#
#
# Indices 1 2 3 4 5 6 
#
# 1 78.5582 31.8869 28.6787 0.0000 0.0000 0.0000
# 2 31.8869 109.6949 39.1064 0.0000 0.0000 0.0000
# 3 28.6787 39.1064 113.0314 0.0000 0.0000 0.0000
# 4 0.0000 0.0000 0.0000 20.9769 0.0000 0.0000
# 5 0.0000 0.0000 0.0000 0.0000 27.0895 0.0000
# 6 0.0000 0.0000 0.0000 0.0000 0.0000 11.4225
#
#
#
# Elastic Compliance Matrix: (Units=1/GPa)
#
#
# Indices 1 2 3 4 5 6 
#
# 1 0.015091 -0.003447 -0.002636 0.000000 0.000000 0.000000
# 2 -0.003447 0.011186 -0.002996 0.000000 0.000000 0.000000
# 3 -0.002636 -0.002996 0.010552 0.000000 0.000000 0.000000
# 4 0.000000 0.000000 0.000000 0.047672 0.000000 0.000000
# 5 0.000000 0.000000 0.000000 0.000000 0.036915 0.000000
# 6 0.000000 0.000000 0.000000 0.000000 0.000000 0.087547
#
#
# Mechanical properties :
#
#
# Convention : Reuss Voigt Hill
#
# Bulk Modulus (GPa) = 53.55680 55.62539 54.59110
# Shear Modulus (GPa) = 21.42761 25.33860 23.38310
#
# Velocity S-wave (km/s) = 3.32613 3.61696 3.47459
# Velocity P-wave (km/s) = 6.51172 6.79432 6.65452
#
# Compressibility (1/GPa) = 0.01867176
#
# Stress axis : x y z
#
# Youngs Moduli (GPa) = 66.26487 89.39675 94.76491
#
# Poissons Ratio (x) = 0.30814 0.24984
# Poissons Ratio (y) = 0.22841 0.28388
# Poissons Ratio (z) = 0.17470 0.26780
#
# Static dielectric constant tensor:
#      x y z
#    x 3.486600 0.000000 0.000000 
#    y 0.000000 3.990090 0.000000 
#    z 0.000000 0.000000 3.539990 
# 
# 
# High freq. dielectric constant tensor:
#      x y z
#    x 1.745800 0.000000 0.000000 
#    y 0.000000 1.743340 0.000000 
#    z 0.000000 0.000000 1.764070 
# 
# From -- ./inp_files/11323.got.cif
#   From: 2010.03.12/outbox.cif.g09.slc.cpg/sg47_6_cif.got.tgz:11323.got - 2010.04.14 03:12:58.
