data_PCOD8198754
_publ_section_title
;
Structure prediction by ZEFSAII (Michael W. Deem and Ramdas Pophale) SiO2 
 PCOD8198754
Probable space group: P M M M
;
_chemical_formula_sum "Si O2"
_cell_formula_units_Z 48
_cell_length_a 8.923469
_cell_length_b 31.030182
_cell_length_c 8.932303
_cell_angle_alpha 90.000000
_cell_angle_beta 90.000000
_cell_angle_gamma 90.000000
_cell_volume 2473.326717
_symmetry_space_group_name_H-M "P M M M"
_symmetry_group_IT_number 47
_symmetry_cell_setting 'orthorhombic'
loop_
_space_group_symop_operation_xyz
x,y,z
-x,-y,z
x,-y,-z
-x,y,-z
-x,-y,-z
x,y,-z
-x,y,z
x,-y,z
loop_
_atom_site_type_symbol
_atom_site_label
_atom_site_fract_x
_atom_site_fract_y
_atom_site_fract_z
Si Si1 0.174096 0.333647 0.673683
Si Si2 0.823018 0.000000 0.670963
Si Si3 0.324482 0.080926 0.174472
Si Si4 0.168529 0.500000 0.822203
Si Si5 0.323436 0.413406 0.172328
Si Si6 0.672673 0.253899 0.176258
Si Si7 0.678040 0.832773 0.331481
O O1 0.207163 0.325078 0.500000
O O2 0.265865 0.374919 0.725956
O O3 0.226233 0.292642 0.766989
O O4 0.000000 0.342033 0.705000
O O5 0.762008 0.957992 0.751251
O O6 0.767717 0.000000 0.500000
O O7 0.000000 0.000000 0.682799
O O8 0.500000 0.074936 0.205908
O O9 0.262453 0.125257 0.244861
O O10 0.288515 0.081758 0.000000
O O11 0.252441 0.542563 0.764007
O O12 0.000000 0.500000 0.758765
O O13 0.170696 0.500000 0.000000
O O14 0.500000 0.417269 0.187788
O O15 0.276366 0.405018 0.000000
O O16 0.500000 0.262462 0.221754
O O17 0.735785 0.210154 0.249607
O O18 0.689468 0.249340 0.000000
O O19 0.741365 0.833452 0.500000
O O20 0.500000 0.833007 0.329791
#
# Coordination Sequence:
#
# PCOD8198754 Si02
#       7
#     8   4   8   4   8   8   8
#     4  11  24  39  54  76 108 145 184 226 272 322
#     4  11  24  39  54  76 108 145 184 227 276 328
#     4  10  20  35  57  84 111 141 181 227 272 322
#     4   9  17  31  54  83 114 147 180 218 268 323
#     4  10  20  35  57  84 111 141 181 227 272 321
#     4  10  20  35  57  84 111 140 177 221 268 320
#     4   9  17  31  54  83 113 144 177 217 267 320
#
# _framework density 19.407059
#
# number of rings (size 3 to 8) (size 9 to 14) (size 15 to 20)
#    0.000    2.000    0.000    3.750    0.000   11.000 
#    0.000    1.250    0.000    7.500    0.000    0.000 
#    0.000    0.000    0.000    0.000    0.000    0.000 
#
# Total GULP energy -595379.223541 kJ/mol
# GULP energy per Si atom -12403.733824 kJ/mol
# Density = 1.936289 g / cm^3
# Si number density = 19.407059 Si / 1000 Ang^3
#
#
#
# Elastic Constant Matrix: (Units=GPa)
#
#
# Indices 1 2 3 4 5 6 
#
# 1 60.6976 40.7297 34.4062 0.0000 0.0000 0.0000
# 2 40.7297 167.2459 54.0493 0.0000 0.0000 0.0000
# 3 34.4062 54.0493 96.5174 0.0000 0.0000 0.0000
# 4 0.0000 0.0000 0.0000 72.7258 0.0000 0.0000
# 5 0.0000 0.0000 0.0000 0.0000 25.3628 0.0000
# 6 0.0000 0.0000 0.0000 0.0000 0.0000 -18.9496
#
#
#
# Elastic Compliance Matrix: (Units=1/GPa)
#
#
# Indices 1 2 3 4 5 6 
#
# 1 0.022188 -0.003476 -0.005963 0.000000 0.000000 0.000000
# 2 -0.003476 0.007845 -0.003154 0.000000 0.000000 0.000000
# 3 -0.005963 -0.003154 0.014253 0.000000 0.000000 0.000000
# 4 0.000000 0.000000 0.000000 0.013750 0.000000 0.000000
# 5 0.000000 0.000000 0.000000 0.000000 0.039428 0.000000
# 6 0.000000 0.000000 0.000000 0.000000 0.000000 -0.052772
#
#
# Mechanical properties :
#
#
# Convention : Reuss Voigt Hill
#
# Bulk Modulus (GPa) = 52.35766 64.75903 58.55834
# Shear Modulus (GPa) = 65.57842 28.84619 47.21230
#
# Velocity S-wave (km/s) = 5.81931 3.85954 4.93763
# Velocity P-wave (km/s) = 8.49645 7.30086 7.92125
#
# Compressibility (1/GPa) = 0.01909940
#
# Stress axis : x y z
#
# Youngs Moduli (GPa) = 45.06978 127.46775 70.16289
#
# Poissons Ratio (x) = 0.44314 0.41835
# Poissons Ratio (y) = 0.15668 0.22129
# Poissons Ratio (z) = 0.26873 0.40203
#
# Static dielectric constant tensor:
#      x y z
#    x 3.390000 0.000000 0.000000 
#    y 0.000000 3.931820 0.000000 
#    z 0.000000 0.000000 3.607300 
# 
# 
# High freq. dielectric constant tensor:
#      x y z
#    x 1.737400 0.000000 0.000000 
#    y 0.000000 1.775380 0.000000 
#    z 0.000000 0.000000 1.757150 
# 
# From -- ./inp_files/2649.got.cif
#   From: 2010.03.12/outbox.cif.g09.slc.cpg/sg47_2_cif.got.tgz:2649.got - 2010.04.14 03:12:58.
