data_PCOD8198108
_publ_section_title
;
Structure prediction by ZEFSAII (Michael W. Deem and Ramdas Pophale) SiO2 
 PCOD8198108
Probable space group: P M M M
;
_chemical_formula_sum "Si O2"
_cell_formula_units_Z 40
_cell_length_a 8.079087
_cell_length_b 27.778279
_cell_length_c 9.168932
_cell_angle_alpha 90.000000
_cell_angle_beta 90.000000
_cell_angle_gamma 90.000000
_cell_volume 2057.720443
_symmetry_space_group_name_H-M "P M M M"
_symmetry_group_IT_number 47
_symmetry_cell_setting 'orthorhombic'
loop_
_space_group_symop_operation_xyz
x,y,z
-x,-y,z
x,-y,-z
-x,y,-z
-x,-y,-z
x,y,-z
-x,y,z
x,-y,z
loop_
_atom_site_type_symbol
_atom_site_label
_atom_site_fract_x
_atom_site_fract_y
_atom_site_fract_z
Si Si1 0.806954 0.699280 0.337140
Si Si2 0.312721 0.116030 0.330073
Si Si3 0.194199 0.792099 0.829967
Si Si4 0.693001 0.599206 0.665403
Si Si5 0.000000 0.946184 0.327033
Si Si6 0.806332 0.500000 0.664119
O O1 0.726743 0.701832 0.500000
O O2 0.737063 0.742141 0.237147
O O3 0.768869 0.647399 0.261913
O O4 0.000000 0.706382 0.349879
O O5 0.283562 0.126927 0.500000
O O6 0.500000 0.095241 0.304614
O O7 0.297185 0.165433 0.243149
O O8 0.169456 0.079683 0.272793
O O9 0.000000 0.799759 0.798251
O O10 0.232950 0.791308 0.000000
O O11 0.762011 0.596831 0.500000
O O12 0.500000 0.604805 0.672218
O O13 0.745677 0.549088 0.744835
O O14 0.000000 0.948387 0.500000
O O15 0.000000 0.000000 0.261081
O O16 0.730134 0.500000 0.500000
O O17 0.000000 0.500000 0.661348
#
# Coordination Sequence:
#
# PCOD8198108 Si02
#       6
#     8   8   8   8   4   4
#     4   9  17  29  46  68  96 130 167 208 254 306
#     4  10  20  34  56  84 112 145 183 220 263 315
#     4  10  20  34  53  76 104 140 179 220 267 315
#     4   9  16  25  38  59  88 120 155 197 245 298
#     4   9  18  34  57  85 117 147 177 220 267 308
#     4   9  15  23  37  57  84 117 152 191 240 298
#
# _framework density 19.438986
#
# number of rings (size 3 to 8) (size 9 to 14) (size 15 to 20)
#    0.000    2.600    1.000    1.500    0.000    6.000 
#    0.000    4.000    0.000    1.200    0.000    2.100 
#    0.000    5.600    0.000    0.000    0.000    0.000 
#
# Total GULP energy -495720.246877 kJ/mol
# GULP energy per Si atom -12393.006172 kJ/mol
# Density = 1.939474 g / cm^3
# Si number density = 19.438986 Si / 1000 Ang^3
#
#
#
# Elastic Constant Matrix: (Units=GPa)
#
#
# Indices 1 2 3 4 5 6 
#
# 1 84.1692 58.7439 26.5018 0.0000 0.0000 0.0000
# 2 58.7439 183.8907 39.4508 0.0000 0.0000 0.0000
# 3 26.5018 39.4508 43.7450 0.0000 0.0000 0.0000
# 4 0.0000 0.0000 0.0000 1.0661 0.0000 0.0000
# 5 0.0000 0.0000 0.0000 0.0000 12.2639 0.0000
# 6 0.0000 0.0000 0.0000 0.0000 0.0000 20.7082
#
#
#
# Elastic Compliance Matrix: (Units=1/GPa)
#
#
# Indices 1 2 3 4 5 6 
#
# 1 0.016687 -0.003920 -0.006574 0.000000 0.000000 0.000000
# 2 -0.003920 0.007664 -0.004536 0.000000 0.000000 0.000000
# 3 -0.006574 -0.004536 0.030933 0.000000 0.000000 0.000000
# 4 0.000000 0.000000 0.000000 0.937974 0.000000 0.000000
# 5 0.000000 0.000000 0.000000 0.000000 0.081540 0.000000
# 6 0.000000 0.000000 0.000000 0.000000 0.000000 0.048290
#
#
# Mechanical properties :
#
#
# Convention : Reuss Voigt Hill
#
# Bulk Modulus (GPa) = 39.64652 62.35533 51.00093
# Shear Modulus (GPa) = 4.30457 19.28154 11.79305
#
# Velocity S-wave (km/s) = 1.48970 3.15286 2.46574
# Velocity P-wave (km/s) = 4.83721 6.73804 5.86514
#
# Compressibility (1/GPa) = 0.02522290
#
# Stress axis : x y z
#
# Youngs Moduli (GPa) = 59.92784 130.48830 32.32767
#
# Poissons Ratio (x) = 0.51155 0.21252
# Poissons Ratio (y) = 0.23493 0.14665
# Poissons Ratio (z) = 0.39395 0.59193
#
# Static dielectric constant tensor:
#      x y z
#    x 3.468550 0.000000 0.000000 
#    y 0.000000 16.356740 0.000000 
#    z 0.000000 0.000000 3.104420 
# 
# 
# High freq. dielectric constant tensor:
#      x y z
#    x 1.756890 0.000000 0.000000 
#    y 0.000000 1.772040 0.000000 
#    z 0.000000 0.000000 1.688300 
# 
# From -- ./inp_files/1833.got.cif
#   From: 2010.03.12/outbox.cif.g09.slc.cpg/sg47_1_cif.got.tgz:1833.got - 2010.04.14 03:12:58.
