data_PCOD8198983
_publ_section_title
;
Structure prediction by ZEFSAII (Michael W. Deem and Ramdas Pophale) SiO2 
 PCOD8198983
Probable space group: P M M M
;
_chemical_formula_sum "Si O2"
_cell_formula_units_Z 64
_cell_length_a 25.081105
_cell_length_b 9.326818
_cell_length_c 14.334316
_cell_angle_alpha 90.000000
_cell_angle_beta 90.000000
_cell_angle_gamma 90.000000
_cell_volume 3353.182128
_symmetry_space_group_name_H-M "P M M M"
_symmetry_group_IT_number 47
_symmetry_cell_setting 'orthorhombic'
loop_
_space_group_symop_operation_xyz
x,y,z
-x,-y,z
x,-y,-z
-x,y,-z
-x,-y,-z
x,y,-z
-x,y,z
x,-y,z
loop_
_atom_site_type_symbol
_atom_site_label
_atom_site_fract_x
_atom_site_fract_y
_atom_site_fract_z
Si Si1 0.355416 0.166807 0.391375
Si Si2 0.563323 0.160711 0.102908
Si Si3 0.059872 0.168186 0.291135
Si Si4 0.151764 0.665792 0.392248
Si Si5 0.111468 0.833110 0.897075
Si Si6 0.437096 0.334534 0.720783
Si Si7 0.738456 0.665682 0.704912
Si Si8 0.217768 0.336222 0.897007
O O1 0.345650 0.191535 0.500000
O O2 0.409448 0.248522 0.362828
O O3 0.305912 0.231780 0.336411
O O4 0.361337 0.000000 0.366581
O O5 0.500000 0.161820 0.102636
O O6 0.584177 0.271252 0.180723
O O7 0.583677 0.000000 0.126383
O O8 0.584070 0.207708 0.000000
O O9 0.100730 0.246863 0.358565
O O10 0.069088 0.209067 0.182342
O O11 0.000000 0.216076 0.317274
O O12 0.067693 0.000000 0.306652
O O13 0.162384 0.700393 0.500000
O O14 0.138993 0.500000 0.375243
O O15 0.204353 0.712014 0.335917
O O16 0.166529 0.756829 0.873911
O O17 0.124180 0.000000 0.894379
O O18 0.089653 0.788333 0.000000
O O19 0.500000 0.314572 0.708713
O O20 0.420119 0.500000 0.717106
O O21 0.725855 0.500000 0.679501
O O22 0.738260 0.690768 0.816906
O O23 0.198508 0.500000 0.892832
O O24 0.241435 0.299026 0.000000
#
# Coordination Sequence:
#
# PCOD8198983 Si02
#       8
#     8   8   8   8   8   8   8   8
#     4  11  25  42  60  84 112 145 188 237 287 337
#     4   8  14  27  50  80 114 152 191 230 273 321
#     4  10  21  35  51  75 108 144 183 228 275 326
#     4  10  21  37  57  80 104 136 181 229 280 336
#     4   9  17  30  50  76 106 141 179 219 266 321
#     4  10  21  37  59  87 118 154 194 234 279 334
#     4  10  20  37  61  85 111 142 177 223 277 333
#     4   9  17  31  55  85 113 141 174 214 265 325
#
# _framework density 19.086348000000001
#
# number of rings (size 3 to 8) (size 9 to 14) (size 15 to 20)
#    0.000    2.375    1.250    1.500    0.000    4.750 
#    0.000    5.625    0.000    2.250    0.000    2.625 
#    0.000    0.000    0.000    0.000    0.000    0.000 
#
# Total GULP energy -793485.717736 kJ/mol
# GULP energy per Si atom -12398.214340 kJ/mol
# Density = 1.904291 g / cm^3
# Si number density = 19.086348 Si / 1000 Ang^3
#
#
#
# Elastic Constant Matrix: (Units=GPa)
#
#
# Indices 1 2 3 4 5 6 
#
# 1 76.5134 44.5480 48.5538 0.0000 0.0000 0.0000
# 2 44.5480 81.1958 51.9611 0.0000 0.0000 0.0000
# 3 48.5538 51.9611 112.7857 0.0000 0.0000 0.0000
# 4 0.0000 0.0000 0.0000 30.8178 0.0000 0.0000
# 5 0.0000 0.0000 0.0000 0.0000 25.6985 0.0000
# 6 0.0000 0.0000 0.0000 0.0000 0.0000 28.2789
#
#
#
# Elastic Compliance Matrix: (Units=1/GPa)
#
#
# Indices 1 2 3 4 5 6 
#
# 1 0.021268 -0.008238 -0.005360 0.000000 0.000000 0.000000
# 2 -0.008238 0.020656 -0.005970 0.000000 0.000000 0.000000
# 3 -0.005360 -0.005970 0.013924 0.000000 0.000000 0.000000
# 4 0.000000 0.000000 0.000000 0.032449 0.000000 0.000000
# 5 0.000000 0.000000 0.000000 0.000000 0.038913 0.000000
# 6 0.000000 0.000000 0.000000 0.000000 0.000000 0.035362
#
#
# Mechanical properties :
#
#
# Convention : Reuss Voigt Hill
#
# Bulk Modulus (GPa) = 59.83933 62.29120 61.06527
# Shear Modulus (GPa) = 24.12207 25.32117 24.72162
#
# Velocity S-wave (km/s) = 3.55891 3.64629 3.60286
# Velocity P-wave (km/s) = 6.95038 7.10173 7.02646
#
# Compressibility (1/GPa) = 0.01671142
#
# Stress axis : x y z
#
# Youngs Moduli (GPa) = 47.01990 48.41145 71.81664
#
# Poissons Ratio (x) = 0.39882 0.38495
# Poissons Ratio (y) = 0.38736 0.42874
# Poissons Ratio (z) = 0.25204 0.28902
#
# Static dielectric constant tensor:
#      x y z
#    x 3.270620 0.000000 0.000000 
#    y 0.000000 3.511180 0.000000 
#    z 0.000000 0.000000 3.859470 
# 
# 
# High freq. dielectric constant tensor:
#      x y z
#    x 1.718150 0.000000 0.000000 
#    y 0.000000 1.739730 0.000000 
#    z 0.000000 0.000000 1.757810 
# 
# From -- ./inp_files/7936.got.cif
#   From: 2010.03.12/outbox.cif.g09.slc.cpg/sg47_4_cif.got.tgz:7936.got - 2010.04.14 03:12:58.
