data_PCOD8198545
_publ_section_title
;
Structure prediction by ZEFSAII (Michael W. Deem and Ramdas Pophale) SiO2 
 PCOD8198545
Probable space group: P M M M
;
_chemical_formula_sum "Si O2"
_cell_formula_units_Z 44
_cell_length_a 18.834448
_cell_length_b 8.847257
_cell_length_c 13.304651
_cell_angle_alpha 90.000000
_cell_angle_beta 90.000000
_cell_angle_gamma 90.000000
_cell_volume 2216.996596
_symmetry_space_group_name_H-M "P M M M"
_symmetry_group_IT_number 47
_symmetry_cell_setting 'orthorhombic'
loop_
_space_group_symop_operation_xyz
x,y,z
-x,-y,z
x,-y,-z
-x,y,-z
-x,-y,-z
x,y,-z
-x,y,z
x,-y,z
loop_
_atom_site_type_symbol
_atom_site_label
_atom_site_fract_x
_atom_site_fract_y
_atom_site_fract_z
Si Si1 0.821455 0.176660 0.887330
Si Si2 0.083793 0.173104 0.500000
Si Si3 0.580310 0.323798 0.296982
Si Si4 0.292309 0.170904 0.614756
Si Si5 0.674387 0.329680 0.111645
Si Si6 0.157492 0.677373 0.310352
O O1 0.738507 0.213461 0.873942
O O2 0.866469 0.263000 0.800349
O O3 0.833389 0.000000 0.871926
O O4 0.846552 0.226323 0.000000
O O5 0.111847 0.248930 0.601469
O O6 0.000000 0.188908 0.500000
O O7 0.109202 0.000000 0.500000
O O8 0.500000 0.263358 0.302960
O O9 0.583610 0.500000 0.323973
O O10 0.627553 0.232077 0.376778
O O11 0.610288 0.289871 0.186029
O O12 0.267527 0.176844 0.500000
O O13 0.240392 0.279193 0.677798
O O14 0.287202 0.000000 0.655979
O O15 0.703500 0.500000 0.131315
O O16 0.642341 0.315919 0.000000
O O17 0.146784 0.500000 0.316407
#
# Coordination Sequence:
#
# PCOD8198545 Si02
#       6
#     8   4   8   8   8   8
#     4  10  20  34  56  87 122 159 202 252 301 353
#     4  11  25  45  69  99 134 167 198 235 285 347
#     4  10  21  35  51  74 106 146 193 246 305 365
#     4  11  23  38  57  79 107 146 196 248 297 358
#     4   9  17  30  49  74 106 143 187 240 296 356
#     4  12  23  37  63  94 126 162 200 246 296 351
#
# _framework density 19.846668999999999
#
# number of rings (size 3 to 8) (size 9 to 14) (size 15 to 20)
#    0.000    1.545    2.727    3.000    0.000    4.000 
#    0.000    3.636    0.000    0.545    0.000    7.636 
#    0.000    0.000    0.000    0.000    0.000    0.000 
#
# Total GULP energy -545601.976427 kJ/mol
# GULP energy per Si atom -12400.044919 kJ/mol
# Density = 1.980150 g / cm^3
# Si number density = 19.846669 Si / 1000 Ang^3
#
#
#
# Elastic Constant Matrix: (Units=GPa)
#
#
# Indices 1 2 3 4 5 6 
#
# 1 53.8267 35.1851 35.1124 0.0000 0.0000 0.0000
# 2 35.1851 124.3538 67.9929 0.0000 0.0000 0.0000
# 3 35.1124 67.9929 141.0419 0.0000 0.0000 0.0000
# 4 0.0000 0.0000 0.0000 33.5263 0.0000 0.0000
# 5 0.0000 0.0000 0.0000 0.0000 18.4734 0.0000
# 6 0.0000 0.0000 0.0000 0.0000 0.0000 23.3829
#
#
#
# Elastic Compliance Matrix: (Units=1/GPa)
#
#
# Indices 1 2 3 4 5 6 
#
# 1 0.024128 -0.004811 -0.003688 0.000000 0.000000 0.000000
# 2 -0.004811 0.011879 -0.004529 0.000000 0.000000 0.000000
# 3 -0.003688 -0.004529 0.010191 0.000000 0.000000 0.000000
# 4 0.000000 0.000000 0.000000 0.029827 0.000000 0.000000
# 5 0.000000 0.000000 0.000000 0.000000 0.054132 0.000000
# 6 0.000000 0.000000 0.000000 0.000000 0.000000 0.042766
#
#
# Mechanical properties :
#
#
# Convention : Reuss Voigt Hill
#
# Bulk Modulus (GPa) = 49.64209 66.20036 57.92123
# Shear Modulus (GPa) = 24.30802 27.13865 25.72333
#
# Velocity S-wave (km/s) = 3.50350 3.70187 3.60405
# Velocity P-wave (km/s) = 6.43686 7.19028 6.82397
#
# Compressibility (1/GPa) = 0.02014420
#
# Stress axis : x y z
#
# Youngs Moduli (GPa) = 41.44517 84.18199 98.12146
#
# Poissons Ratio (x) = 0.40497 0.36184
# Poissons Ratio (y) = 0.19938 0.44439
# Poissons Ratio (z) = 0.15284 0.38126
#
# Static dielectric constant tensor:
#      x y z
#    x 3.270930 0.000000 0.000000 
#    y 0.000000 3.616720 0.000000 
#    z 0.000000 0.000000 3.973500 
# 
# 
# High freq. dielectric constant tensor:
#      x y z
#    x 1.732240 0.000000 0.000000 
#    y 0.000000 1.776070 0.000000 
#    z 0.000000 0.000000 1.797010 
# 
# From -- ./inp_files/24301.got.cif
#   From: 2010.03.12/outbox.cif.g09.slc.cpg/sg47_13_cif.got.tgz:24301.got - 2010.04.14 03:12:58.
