data_PCOD8198003
_publ_section_title
;
Structure prediction by ZEFSAII (Michael W. Deem and Ramdas Pophale) SiO2 
 PCOD8198003
Probable space group: P M M M
;
_chemical_formula_sum "Si O2"
_cell_formula_units_Z 48
_cell_length_a 8.834820
_cell_length_b 18.882792
_cell_length_c 14.773976
_cell_angle_alpha 90.000000
_cell_angle_beta 90.000000
_cell_angle_gamma 90.000000
_cell_volume 2464.684331
_symmetry_space_group_name_H-M "P M M M"
_symmetry_group_IT_number 47
_symmetry_cell_setting 'orthorhombic'
loop_
_space_group_symop_operation_xyz
x,y,z
-x,-y,z
x,-y,-z
-x,y,-z
-x,-y,-z
x,y,-z
-x,y,z
x,-y,z
loop_
_atom_site_type_symbol
_atom_site_label
_atom_site_fract_x
_atom_site_fract_y
_atom_site_fract_z
Si Si1 0.174920 0.281761 0.399165
Si Si2 0.331761 0.707786 0.901320
Si Si3 0.676092 0.578845 0.661883
Si Si4 0.825234 0.193904 0.228673
Si Si5 0.827953 0.421335 0.146428
Si Si6 0.678517 0.080604 0.101667
O O1 0.193347 0.249553 0.500000
O O2 0.268738 0.355449 0.399088
O O3 0.232147 0.221209 0.327768
O O4 0.000000 0.299372 0.377232
O O5 0.500000 0.715479 0.858951
O O6 0.204852 0.741035 0.837969
O O7 0.284543 0.626279 0.912931
O O8 0.331077 0.744196 0.000000
O O9 0.500000 0.589931 0.685642
O O10 0.698339 0.500000 0.616584
O O11 0.777513 0.582476 0.750286
O O12 0.740389 0.126621 0.185537
O O13 0.000000 0.173890 0.232502
O O14 0.813751 0.500000 0.107365
O O15 0.000000 0.394185 0.138795
O O16 0.500000 0.089418 0.102628
O O17 0.726873 0.000000 0.120920
O O18 0.737356 0.102426 0.000000
#
# Coordination Sequence:
#
# PCOD8198003 Si02
#       6
#     8   8   8   8   8   8
#     4  10  22  39  57  79 109 147 190 234 285 342
#     4  11  23  36  52  76 107 144 183 224 274 332
#     4  10  20  34  54  79 106 138 181 236 295 349
#     4  11  22  36  57  84 113 146 183 228 276 323
#     4  10  20  34  52  73 100 137 181 229 280 331
#     4   9  19  37  61  89 121 155 186 217 262 323
#
# _framework density 19.475110000000001
#
# number of rings (size 3 to 8) (size 9 to 14) (size 15 to 20)
#    0.000    1.833    1.667    3.000    0.000    7.667 
#    0.000    4.167    0.000    0.500    0.000    3.500 
#    0.000    0.000    0.000    0.000    0.000    0.000 
#
# Total GULP energy -594711.467325 kJ/mol
# GULP energy per Si atom -12389.822236 kJ/mol
# Density = 1.943078 g / cm^3
# Si number density = 19.475110 Si / 1000 Ang^3
#
#
#
# Elastic Constant Matrix: (Units=GPa)
#
#
# Indices 1 2 3 4 5 6 
#
# 1 47.5854 34.1860 23.5117 0.0000 0.0000 0.0000
# 2 34.1860 118.0470 56.5933 0.0000 0.0000 0.0000
# 3 23.5117 56.5933 114.8353 0.0000 0.0000 0.0000
# 4 0.0000 0.0000 0.0000 87.3914 0.0000 0.0000
# 5 0.0000 0.0000 0.0000 0.0000 28.6130 0.0000
# 6 0.0000 0.0000 0.0000 0.0000 0.0000 32.3442
#
#
#
# Elastic Compliance Matrix: (Units=1/GPa)
#
#
# Indices 1 2 3 4 5 6 
#
# 1 0.026949 -0.006755 -0.002189 0.000000 0.000000 0.000000
# 2 -0.006755 0.012785 -0.004918 0.000000 0.000000 0.000000
# 3 -0.002189 -0.004918 0.011580 0.000000 0.000000 0.000000
# 4 0.000000 0.000000 0.000000 0.011443 0.000000 0.000000
# 5 0.000000 0.000000 0.000000 0.000000 0.034949 0.000000
# 6 0.000000 0.000000 0.000000 0.000000 0.000000 0.030917
#
#
# Mechanical properties :
#
#
# Convention : Reuss Voigt Hill
#
# Bulk Modulus (GPa) = 42.38865 56.56108 49.47487
# Shear Modulus (GPa) = 30.44880 40.74817 35.59848
#
# Velocity S-wave (km/s) = 3.95837 4.57915 4.28003
# Velocity P-wave (km/s) = 6.53486 7.55407 7.06287
#
# Compressibility (1/GPa) = 0.02359122
#
# Stress axis : x y z
#
# Youngs Moduli (GPa) = 37.10680 78.21610 86.35759
#
# Poissons Ratio (x) = 0.52836 0.18900
# Poissons Ratio (y) = 0.25066 0.42468
# Poissons Ratio (z) = 0.08121 0.38464
#
# Static dielectric constant tensor:
#      x y z
#    x 3.485180 0.000000 0.000000 
#    y 0.000000 3.663090 0.000000 
#    z 0.000000 0.000000 3.517020 
# 
# 
# High freq. dielectric constant tensor:
#      x y z
#    x 1.758420 0.000000 0.000000 
#    y 0.000000 1.746970 0.000000 
#    z 0.000000 0.000000 1.744200 
# 
# From -- ./inp_files/6370.got.cif
#   From: 2010.03.12/outbox.cif.g09.slc.cpg/sg47_4_cif.got.tgz:6370.got - 2010.04.14 03:12:58.
