data_PCOD8198565
_publ_section_title
;
Structure prediction by ZEFSAII (Michael W. Deem and Ramdas Pophale) SiO2 
 PCOD8198565
Probable space group: P M M M
;
_chemical_formula_sum "Si O2"
_cell_formula_units_Z 52
_cell_length_a 9.419428
_cell_length_b 11.676719
_cell_length_c 28.399609
_cell_angle_alpha 90.000000
_cell_angle_beta 90.000000
_cell_angle_gamma 90.000000
_cell_volume 3123.616589
_symmetry_space_group_name_H-M "P M M M"
_symmetry_group_IT_number 47
_symmetry_cell_setting 'orthorhombic'
loop_
_space_group_symop_operation_xyz
x,y,z
-x,-y,z
x,-y,-z
-x,y,-z
-x,-y,-z
x,y,-z
-x,y,z
x,-y,z
loop_
_atom_site_type_symbol
_atom_site_label
_atom_site_fract_x
_atom_site_fract_y
_atom_site_fract_z
Si Si1 0.666556 0.739375 0.945838
Si Si2 0.340514 0.863002 0.399223
Si Si3 0.165103 0.130818 0.688448
Si Si4 0.669041 0.500000 0.200807
Si Si5 0.331094 0.125771 0.500000
Si Si6 0.332783 0.500000 0.907767
Si Si7 0.163787 0.131603 0.869999
Si Si8 0.833467 0.277265 0.220996
O O1 0.500000 0.745782 0.934705
O O2 0.728058 0.613587 0.932866
O O3 0.743971 0.835196 0.915190
O O4 0.699330 0.765686 0.000000
O O5 0.500000 0.821344 0.388631
O O6 0.242783 0.816161 0.357179
O O7 0.287281 0.812888 0.450426
O O8 0.334018 0.000000 0.402051
O O9 0.207986 0.201063 0.734375
O O10 0.000000 0.139410 0.677897
O O11 0.212156 0.000000 0.697329
O O12 0.500000 0.500000 0.207923
O O13 0.713757 0.500000 0.146289
O O14 0.737707 0.389656 0.225014
O O15 0.500000 0.113254 0.500000
O O16 0.260925 0.000000 0.500000
O O17 0.500000 0.500000 0.913786
O O18 0.209724 0.207435 0.825521
O O19 0.000000 0.151916 0.882646
O O20 0.193073 0.000000 0.857026
O O21 0.000000 0.309070 0.220653
#
# Coordination Sequence:
#
# PCOD8198565 Si02
#       8
#     8   8   8   4   4   4   8   8
#     4  10  20  35  55  76  98 125 155 188 231 282
#     4   8  13  22  37  58  86 122 162 199 234 273
#     4   9  17  29  45  66  94 127 161 196 233 275
#     4  11  21  34  55  77  96 117 149 195 240 277
#     4   7  10  18  33  53  81 120 161 196 231 273
#     4   9  17  33  54  75  97 119 146 186 234 277
#     4  10  21  36  53  72  96 127 160 192 227 271
#     4  10  20  35  53  71  94 125 159 191 232 284
#
# _framework density 16.647369999999999
#
# number of rings (size 3 to 8) (size 9 to 14) (size 15 to 20)
#    0.000    2.692    1.538    1.846    0.000    4.308 
#    0.000    2.308    0.000    6.000    0.000    0.000 
#    0.000    0.615    0.000    6.923    0.000    4.923 
#
# Total GULP energy -644580.689619 kJ/mol
# GULP energy per Si atom -12395.782493 kJ/mol
# Density = 1.660948 g / cm^3
# Si number density = 16.647370 Si / 1000 Ang^3
#
#
#
# Elastic Constant Matrix: (Units=GPa)
#
#
# Indices 1 2 3 4 5 6 
#
# 1 51.2856 37.6584 57.4948 0.0000 0.0000 0.0000
# 2 37.6584 77.4629 47.7529 0.0000 0.0000 0.0000
# 3 57.4948 47.7529 142.6407 0.0000 0.0000 0.0000
# 4 0.0000 0.0000 0.0000 8.0393 0.0000 0.0000
# 5 0.0000 0.0000 0.0000 0.0000 29.4286 0.0000
# 6 0.0000 0.0000 0.0000 0.0000 0.0000 21.6591
#
#
#
# Elastic Compliance Matrix: (Units=1/GPa)
#
#
# Indices 1 2 3 4 5 6 
#
# 1 0.044253 -0.013252 -0.013401 0.000000 0.000000 0.000000
# 2 -0.013252 0.020235 -0.001433 0.000000 0.000000 0.000000
# 3 -0.013401 -0.001433 0.012892 0.000000 0.000000 0.000000
# 4 0.000000 0.000000 0.000000 0.124388 0.000000 0.000000
# 5 0.000000 0.000000 0.000000 0.000000 0.033981 0.000000
# 6 0.000000 0.000000 0.000000 0.000000 0.000000 0.046170
#
#
# Mechanical properties :
#
#
# Convention : Reuss Voigt Hill
#
# Bulk Modulus (GPa) = 47.15099 61.91128 54.53113
# Shear Modulus (GPa) = 14.48607 20.39094 17.43851
#
# Velocity S-wave (km/s) = 2.95307 3.50362 3.24006
# Velocity P-wave (km/s) = 6.32553 7.32377 6.84288
#
# Compressibility (1/GPa) = 0.02120846
#
# Stress axis : x y z
#
# Youngs Moduli (GPa) = 22.59743 49.41886 77.56977
#
# Poissons Ratio (x) = 0.65492 1.03948
# Poissons Ratio (y) = 0.29947 0.11112
# Poissons Ratio (z) = 0.30282 0.07079
#
# Static dielectric constant tensor:
#      x y z
#    x 2.977400 0.000000 0.000000 
#    y 0.000000 2.915190 0.000000 
#    z 0.000000 0.000000 3.394810 
# 
# 
# High freq. dielectric constant tensor:
#      x y z
#    x 1.624360 0.000000 0.000000 
#    y 0.000000 1.607540 0.000000 
#    z 0.000000 0.000000 1.652580 
# 
# From -- ./inp_files/34352.got.cif
#   From: 2010.03.12/outbox.cif.g09.slc.cpg/sg47_18_cif.got.tgz:34352.got - 2010.04.14 03:12:58.
