data_PCOD8198134
_publ_section_title
;
Structure prediction by ZEFSAII (Michael W. Deem and Ramdas Pophale) SiO2 
 PCOD8198134
Probable space group: P M M M
;
_chemical_formula_sum "Si O2"
_cell_formula_units_Z 52
_cell_length_a 27.796237
_cell_length_b 9.122677
_cell_length_c 11.682858
_cell_angle_alpha 90.000000
_cell_angle_beta 90.000000
_cell_angle_gamma 90.000000
_cell_volume 2962.493475
_symmetry_space_group_name_H-M "P M M M"
_symmetry_group_IT_number 47
_symmetry_cell_setting 'orthorhombic'
loop_
_space_group_symop_operation_xyz
x,y,z
-x,-y,z
x,-y,-z
-x,y,-z
-x,-y,-z
x,y,-z
-x,y,z
x,-y,z
loop_
_atom_site_type_symbol
_atom_site_label
_atom_site_fract_x
_atom_site_fract_y
_atom_site_fract_z
Si Si1 0.859295 0.674212 0.271049
Si Si2 0.592933 0.169736 0.131763
Si Si3 0.500000 0.334017 0.136318
Si Si4 0.686763 0.172336 0.270664
Si Si5 0.944745 0.829730 0.369026
Si Si6 0.190781 0.673209 0.500000
Si Si7 0.700727 0.674168 0.500000
Si Si8 0.781177 0.829138 0.867812
O O1 0.860523 0.500000 0.259356
O O2 0.913484 0.736518 0.278039
O O3 0.834618 0.733562 0.386931
O O4 0.829148 0.739807 0.165661
O O5 0.547939 0.257302 0.185579
O O6 0.642219 0.215740 0.191457
O O7 0.581269 0.000000 0.148903
O O8 0.599996 0.210746 0.000000
O O9 0.500000 0.500000 0.178979
O O10 0.500000 0.319507 0.000000
O O11 0.676778 0.260001 0.386951
O O12 0.735755 0.224098 0.207844
O O13 0.688584 0.000000 0.296035
O O14 0.935212 0.778147 0.500000
O O15 0.000000 0.801168 0.336649
O O16 0.931789 0.000000 0.356335
O O17 0.188969 0.500000 0.500000
O O18 0.244730 0.730958 0.500000
O O19 0.695605 0.500000 0.500000
O O20 0.791257 0.000000 0.847788
O O21 0.769226 0.796687 0.000000
#
# Coordination Sequence:
#
# PCOD8198134 Si02
#       8
#     8   8   4   8   8   4   4   8
#     4  11  20  33  52  75 105 138 171 208 251 302
#     4   9  17  31  52  76 103 135 170 211 258 302
#     4   9  17  29  47  74 105 134 169 211 253 303
#     4  10  20  34  53  77 103 134 173 213 251 299
#     4   9  18  32  50  75 105 134 167 208 254 303
#     4   9  18  31  46  70 102 135 168 203 244 294
#     4  11  21  35  51  71 105 141 172 207 250 301
#     4  10  21  36  53  75 103 135 172 212 254 300
#
# _framework density 17.552782000000001
#
# number of rings (size 3 to 8) (size 9 to 14) (size 15 to 20)
#    0.000    2.231    2.308    1.846    0.000    4.000 
#    0.000    0.769    0.000    3.692    0.000    6.462 
#    0.000    0.000    0.000    0.000    0.000    0.000 
#
# Total GULP energy -644825.036930 kJ/mol
# GULP energy per Si atom -12400.481479 kJ/mol
# Density = 1.751283 g / cm^3
# Si number density = 17.552782 Si / 1000 Ang^3
#
#
#
# Elastic Constant Matrix: (Units=GPa)
#
#
# Indices 1 2 3 4 5 6 
#
# 1 124.3051 57.4869 42.6243 0.0000 0.0000 0.0000
# 2 57.4869 72.1008 41.7707 0.0000 0.0000 0.0000
# 3 42.6243 41.7707 81.0080 0.0000 0.0000 0.0000
# 4 0.0000 0.0000 0.0000 21.9012 0.0000 0.0000
# 5 0.0000 0.0000 0.0000 0.0000 22.6283 0.0000
# 6 0.0000 0.0000 0.0000 0.0000 0.0000 23.4064
#
#
#
# Elastic Compliance Matrix: (Units=1/GPa)
#
#
# Indices 1 2 3 4 5 6 
#
# 1 0.012997 -0.009127 -0.002132 0.000000 0.000000 0.000000
# 2 -0.009127 0.026187 -0.008701 0.000000 0.000000 0.000000
# 3 -0.002132 -0.008701 0.017953 0.000000 0.000000 0.000000
# 4 0.000000 0.000000 0.000000 0.045660 0.000000 0.000000
# 5 0.000000 0.000000 0.000000 0.000000 0.044192 0.000000
# 6 0.000000 0.000000 0.000000 0.000000 0.000000 0.042723
#
#
# Mechanical properties :
#
#
# Convention : Reuss Voigt Hill
#
# Bulk Modulus (GPa) = 58.08321 62.35307 60.21814
# Shear Modulus (GPa) = 21.24298 22.62265 21.93281
#
# Velocity S-wave (km/s) = 3.48262 3.59393 3.53871
# Velocity P-wave (km/s) = 7.02381 7.26788 7.14689
#
# Compressibility (1/GPa) = 0.01721668
#
# Stress axis : x y z
#
# Youngs Moduli (GPa) = 76.94109 38.18632 55.70171
#
# Poissons Ratio (x) = 0.34854 0.11877
# Poissons Ratio (y) = 0.70227 0.48464
# Poissons Ratio (z) = 0.16406 0.33224
#
# Static dielectric constant tensor:
#      x y z
#    x 3.350060 0.000000 0.000000 
#    y 0.000000 3.096700 0.000000 
#    z 0.000000 0.000000 3.071920 
# 
# 
# High freq. dielectric constant tensor:
#      x y z
#    x 1.683110 0.000000 0.000000 
#    y 0.000000 1.672330 0.000000 
#    z 0.000000 0.000000 1.651260 
# 
# From -- ./inp_files/19825.got.cif
#   From: 2010.03.12/outbox.cif.g09.slc.cpg/sg47_10_cif.got.tgz:19825.got - 2010.04.14 03:12:58.
