data_PCOD8198525
_publ_section_title
;
Structure prediction by ZEFSAII (Michael W. Deem and Ramdas Pophale) SiO2 
 PCOD8198525
Probable space group: P M M M
;
_chemical_formula_sum "Si O2"
_cell_formula_units_Z 64
_cell_length_a 23.861560
_cell_length_b 9.006261
_cell_length_c 15.425250
_cell_angle_alpha 90.000000
_cell_angle_beta 90.000000
_cell_angle_gamma 90.000000
_cell_volume 3314.939245
_symmetry_space_group_name_H-M "P M M M"
_symmetry_group_IT_number 47
_symmetry_cell_setting 'orthorhombic'
loop_
_space_group_symop_operation_xyz
x,y,z
-x,-y,z
x,-y,-z
-x,y,-z
-x,-y,-z
x,y,-z
-x,y,z
x,-y,z
loop_
_atom_site_type_symbol
_atom_site_label
_atom_site_fract_x
_atom_site_fract_y
_atom_site_fract_z
Si Si1 0.677462 0.670837 0.403069
Si Si2 0.737803 0.175585 0.753266
Si Si3 0.669254 0.669963 0.096799
Si Si4 0.936001 0.327497 0.099635
Si Si5 0.936996 0.823455 0.404039
Si Si6 0.865320 0.176043 0.244744
Si Si7 0.438354 0.668310 0.671928
Si Si8 0.563244 0.827151 0.849271
O O1 0.696264 0.715226 0.500000
O O2 0.692279 0.500000 0.383186
O O3 0.709734 0.773155 0.335713
O O4 0.610313 0.696298 0.397871
O O5 0.707425 0.240468 0.837002
O O6 0.801615 0.232093 0.753996
O O7 0.733782 0.000000 0.758507
O O8 0.667004 0.500000 0.127731
O O9 0.606401 0.734637 0.092950
O O10 0.694724 0.683238 0.000000
O O11 0.926561 0.500000 0.119177
O O12 0.894745 0.232658 0.158255
O O13 0.000000 0.282516 0.120093
O O14 0.921750 0.291547 0.000000
O O15 0.917794 0.768695 0.500000
O O16 0.895880 0.758295 0.330500
O O17 0.000000 0.766649 0.384858
O O18 0.935974 0.000000 0.401797
O O19 0.868624 0.000000 0.244546
O O20 0.500000 0.694946 0.629629
O O21 0.434452 0.500000 0.708489
O O22 0.428534 0.782299 0.749659
O O23 0.500000 0.792244 0.880724
O O24 0.577154 0.000000 0.858698
#
# Coordination Sequence:
#
# PCOD8198525 Si02
#       8
#     8   8   8   8   8   8   8   8
#     4  10  21  37  58  83 112 149 192 235 281 338
#     4  11  24  40  57  80 112 150 192 240 290 336
#     4  11  24  41  61  82 106 143 190 236 284 341
#     4   9  19  36  57  83 116 151 184 220 270 333
#     4   8  14  27  50  80 112 143 175 215 264 318
#     4  10  21  35  55  83 111 144 189 235 277 325
#     4   9  17  31  54  82 112 146 183 225 274 332
#     4  10  20  34  56  86 117 145 174 218 280 344
#
# _framework density 19.306539000000001
#
# number of rings (size 3 to 8) (size 9 to 14) (size 15 to 20)
#    0.000    2.250    1.250    2.250    0.000    5.500 
#    0.000    6.875    0.000    0.375    0.000    4.375 
#    0.000    0.000    0.000    0.000    0.000    0.000 
#
# Total GULP energy -793506.193253 kJ/mol
# GULP energy per Si atom -12398.534270 kJ/mol
# Density = 1.926260 g / cm^3
# Si number density = 19.306539 Si / 1000 Ang^3
#
#
#
# Elastic Constant Matrix: (Units=GPa)
#
#
# Indices 1 2 3 4 5 6 
#
# 1 133.9346 39.9630 69.1705 0.0000 0.0000 0.0000
# 2 39.9630 54.6099 35.1716 0.0000 0.0000 0.0000
# 3 69.1705 35.1716 117.0169 0.0000 0.0000 0.0000
# 4 0.0000 0.0000 0.0000 17.3606 0.0000 0.0000
# 5 0.0000 0.0000 0.0000 0.0000 9.3056 0.0000
# 6 0.0000 0.0000 0.0000 0.0000 0.0000 21.4776
#
#
#
# Elastic Compliance Matrix: (Units=1/GPa)
#
#
# Indices 1 2 3 4 5 6 
#
# 1 0.011806 -0.005140 -0.005434 0.000000 0.000000 0.000000
# 2 -0.005140 0.024945 -0.004459 0.000000 0.000000 0.000000
# 3 -0.005434 -0.004459 0.013098 0.000000 0.000000 0.000000
# 4 0.000000 0.000000 0.000000 0.057602 0.000000 0.000000
# 5 0.000000 0.000000 0.000000 0.000000 0.107462 0.000000
# 6 0.000000 0.000000 0.000000 0.000000 0.000000 0.046560
#
#
# Mechanical properties :
#
#
# Convention : Reuss Voigt Hill
#
# Bulk Modulus (GPa) = 50.54846 66.01908 58.28377
# Shear Modulus (GPa) = 16.77095 20.37920 18.57507
#
# Velocity S-wave (km/s) = 2.95051 3.25246 3.10516
# Velocity P-wave (km/s) = 6.15193 6.95515 6.56583
#
# Compressibility (1/GPa) = 0.01978300
#
# Stress axis : x y z
#
# Youngs Moduli (GPa) = 84.69987 40.08787 76.34610
#
# Poissons Ratio (x) = 0.20605 0.41487
# Poissons Ratio (y) = 0.43536 0.34046
# Poissons Ratio (z) = 0.46026 0.17877
#
# Static dielectric constant tensor:
#      x y z
#    x 3.722360 0.000000 0.000000 
#    y 0.000000 3.356380 0.000000 
#    z 0.000000 0.000000 3.509170 
# 
# 
# High freq. dielectric constant tensor:
#      x y z
#    x 1.753280 0.000000 0.000000 
#    y 0.000000 1.735020 0.000000 
#    z 0.000000 0.000000 1.751330 
# 
# From -- ./inp_files/25576.got.cif
#   From: 2010.03.12/outbox.cif.g09.slc.cpg/sg47_13_cif.got.tgz:25576.got - 2010.04.14 03:12:58.
