data_PCOD8198552
_publ_section_title
;
Structure prediction by ZEFSAII (Michael W. Deem and Ramdas Pophale) SiO2 
 PCOD8198552
Probable space group: P M M M
;
_chemical_formula_sum "Si O2"
_cell_formula_units_Z 64
_cell_length_a 24.711650
_cell_length_b 14.744021
_cell_length_c 9.069963
_cell_angle_alpha 90.000000
_cell_angle_beta 90.000000
_cell_angle_gamma 90.000000
_cell_volume 3304.632734
_symmetry_space_group_name_H-M "P M M M"
_symmetry_group_IT_number 47
_symmetry_cell_setting 'orthorhombic'
loop_
_space_group_symop_operation_xyz
x,y,z
-x,-y,z
x,-y,-z
-x,y,-z
-x,-y,-z
x,y,-z
-x,y,z
x,-y,z
loop_
_atom_site_type_symbol
_atom_site_label
_atom_site_fract_x
_atom_site_fract_y
_atom_site_fract_z
Si Si1 0.588062 0.902607 0.330950
Si Si2 0.133176 0.735936 0.327715
Si Si3 0.343233 0.604778 0.173818
Si Si4 0.244400 0.730195 0.826852
Si Si5 0.715417 0.101422 0.665934
Si Si6 0.060543 0.101404 0.324784
Si Si7 0.063236 0.602244 0.163785
Si Si8 0.439361 0.708112 0.327407
O O1 0.570096 0.906298 0.500000
O O2 0.651776 0.894492 0.314921
O O3 0.562843 0.811261 0.260479
O O4 0.569299 0.000000 0.258388
O O5 0.145002 0.742645 0.500000
O O6 0.187779 0.706379 0.246778
O O7 0.106641 0.829717 0.266195
O O8 0.090561 0.657707 0.294359
O O9 0.335127 0.500000 0.219198
O O10 0.291183 0.661543 0.230141
O O11 0.397764 0.642061 0.247331
O O12 0.350235 0.615808 0.000000
O O13 0.258135 0.833059 0.784651
O O14 0.237932 0.721331 0.000000
O O15 0.731737 0.131564 0.500000
O O16 0.736981 0.000000 0.696086
O O17 0.059489 0.105358 0.500000
O O18 0.000000 0.127511 0.266733
O O19 0.075588 0.000000 0.270587
O O20 0.084634 0.500000 0.174374
O O21 0.000000 0.606057 0.192218
O O22 0.077126 0.640813 0.000000
O O23 0.424126 0.710405 0.500000
O O24 0.500000 0.670383 0.302143
#
# Coordination Sequence:
#
# PCOD8198552 Si02
#       8
#     8   8   8   8   8   8   8   8
#     4   8  14  27  50  80 113 146 176 208 254 314
#     4  11  22  34  54  85 116 145 184 234 285 337
#     4  10  23  43  62  77  99 140 190 234 280 337
#     4  11  23  38  56  79 108 145 189 235 283 335
#     4   9  17  32  56  81 106 141 182 222 267 322
#     4   8  15  30  52  78 110 148 187 225 267 316
#     4   9  19  37  59  81 109 147 185 223 276 339
#     4  10  20  34  57  89 119 143 174 222 275 328
#
# _framework density 19.36675
#
# number of rings (size 3 to 8) (size 9 to 14) (size 15 to 20)
#    0.000    2.500    1.250    2.625    0.000    3.750 
#    0.000    5.625    0.000    1.500    0.000    5.250 
#    0.000    0.000    0.000    0.000    0.000    0.000 
#
# Total GULP energy -793208.927690 kJ/mol
# GULP energy per Si atom -12393.889495 kJ/mol
# Density = 1.932267 g / cm^3
# Si number density = 19.366750 Si / 1000 Ang^3
#
#
#
# Elastic Constant Matrix: (Units=GPa)
#
#
# Indices 1 2 3 4 5 6 
#
# 1 95.0583 60.1695 33.5947 0.0000 0.0000 0.0000
# 2 60.1695 114.5544 31.5902 0.0000 0.0000 0.0000
# 3 33.5947 31.5902 40.8402 0.0000 0.0000 0.0000
# 4 0.0000 0.0000 0.0000 28.1613 0.0000 0.0000
# 5 0.0000 0.0000 0.0000 0.0000 27.6839 0.0000
# 6 0.0000 0.0000 0.0000 0.0000 0.0000 9.2453
#
#
#
# Elastic Compliance Matrix: (Units=1/GPa)
#
#
# Indices 1 2 3 4 5 6 
#
# 1 0.018363 -0.006965 -0.009717 0.000000 0.000000 0.000000
# 2 -0.006965 0.013739 -0.004897 0.000000 0.000000 0.000000
# 3 -0.009717 -0.004897 0.036267 0.000000 0.000000 0.000000
# 4 0.000000 0.000000 0.000000 0.035510 0.000000 0.000000
# 5 0.000000 0.000000 0.000000 0.000000 0.036122 0.000000
# 6 0.000000 0.000000 0.000000 0.000000 0.000000 0.108163
#
#
# Mechanical properties :
#
#
# Convention : Reuss Voigt Hill
#
# Bulk Modulus (GPa) = 39.66893 55.68462 47.67677
# Shear Modulus (GPa) = 16.68188 21.35801 19.01995
#
# Velocity S-wave (km/s) = 2.93809 3.32447 3.13724
# Velocity P-wave (km/s) = 5.66015 6.59934 6.14771
#
# Compressibility (1/GPa) = 0.02520864
#
# Stress axis : x y z
#
# Youngs Moduli (GPa) = 54.45714 72.78804 27.57317
#
# Poissons Ratio (x) = 0.50700 0.26794
# Poissons Ratio (y) = 0.37932 0.13503
# Poissons Ratio (z) = 0.52919 0.35645
#
# Static dielectric constant tensor:
#      x y z
#    x 3.612400 0.000000 0.000000 
#    y 0.000000 3.782500 0.000000 
#    z 0.000000 0.000000 3.201080 
# 
# 
# High freq. dielectric constant tensor:
#      x y z
#    x 1.755300 0.000000 0.000000 
#    y 0.000000 1.762020 0.000000 
#    z 0.000000 0.000000 1.714930 
# 
# From -- ./inp_files/12755.got.cif
#   From: 2010.03.12/outbox.cif.g09.slc.cpg/sg47_7_cif.got.tgz:12755.got - 2010.04.14 03:12:58.
