data_PCOD8198209
_publ_section_title
;
Structure prediction by ZEFSAII (Michael W. Deem and Ramdas Pophale) SiO2 
 PCOD8198209
Probable space group: P M M M
;
_chemical_formula_sum "Si O2"
_cell_formula_units_Z 52
_cell_length_a 8.363021
_cell_length_b 13.753550
_cell_length_c 22.533784
_cell_angle_alpha 90.000000
_cell_angle_beta 90.000000
_cell_angle_gamma 90.000000
_cell_volume 2591.863495
_symmetry_space_group_name_H-M "P M M M"
_symmetry_group_IT_number 47
_symmetry_cell_setting 'orthorhombic'
loop_
_space_group_symop_operation_xyz
x,y,z
-x,-y,z
x,-y,-z
-x,y,-z
-x,-y,-z
x,y,-z
-x,y,z
x,-y,z
loop_
_atom_site_type_symbol
_atom_site_label
_atom_site_fract_x
_atom_site_fract_y
_atom_site_fract_z
Si Si1 0.000000 0.609853 0.729922
Si Si2 0.815294 0.890656 0.346256
Si Si3 0.812977 0.279870 0.567724
Si Si4 0.685386 0.890641 0.777823
Si Si5 0.316328 0.892992 0.000000
Si Si6 0.174906 0.790314 0.889255
Si Si7 0.678466 0.614043 0.670656
Si Si8 0.000000 0.610221 0.129567
O O1 0.166835 0.659796 0.706352
O O2 0.000000 0.610994 0.800028
O O3 0.000000 0.500000 0.705445
O O4 0.774787 0.824224 0.402561
O O5 0.718453 0.853035 0.288766
O O6 0.000000 0.885380 0.328768
O O7 0.763570 0.000000 0.363431
O O8 0.755717 0.275594 0.500000
O O9 0.709614 0.361585 0.601524
O O10 0.000000 0.305949 0.572439
O O11 0.500000 0.891888 0.790935
O O12 0.761684 0.817913 0.824807
O O13 0.756159 0.000000 0.785292
O O14 0.282002 0.829812 0.058011
O O15 0.500000 0.915082 0.000000
O O16 0.230374 0.000000 0.000000
O O17 0.156983 0.671467 0.892123
O O18 0.000000 0.838192 0.897003
O O19 0.500000 0.654036 0.689876
O O20 0.675169 0.500000 0.680862
O O21 0.000000 0.500000 0.104095
#
# Coordination Sequence:
#
# PCOD8198209 Si02
#       8
#     4   8   8   8   4   8   8   4
#     4   9  18  38  62  84 118 154 193 246 303 357
#     4   9  19  35  55  78 109 147 191 239 288 349
#     4  10  21  35  53  76 107 148 194 243 300 360
#     4  10  20  34  53  83 121 153 184 233 299 359
#     4  11  23  41  63  92 134 168 195 243 301 349
#     4  10  22  36  61  91 115 160 200 241 281 351
#     4  10  21  36  57  85 114 149 193 243 305 370
#     4   9  22  41  62  88 122 162 198 249 304 343
#
# _framework density 20.062785000000002
#
# number of rings (size 3 to 8) (size 9 to 14) (size 15 to 20)
#    0.462    1.769    0.769    1.615    2.154    4.923 
#    0.000    4.615    0.000    3.231    0.000    3.231 
#    0.000    0.000    0.000    0.000    0.000    0.000 
#
# Total GULP energy -644330.011988 kJ/mol
# GULP energy per Si atom -12390.961769 kJ/mol
# Density = 2.001712 g / cm^3
# Si number density = 20.062785 Si / 1000 Ang^3
#
#
#
# Elastic Constant Matrix: (Units=GPa)
#
#
# Indices 1 2 3 4 5 6 
#
# 1 92.9593 26.9668 25.1014 0.0000 0.0000 0.0000
# 2 26.9668 77.0870 19.7025 0.0000 0.0000 0.0000
# 3 25.1014 19.7025 73.4293 0.0000 0.0000 0.0000
# 4 0.0000 0.0000 0.0000 -34.4013 0.0000 0.0000
# 5 0.0000 0.0000 0.0000 0.0000 145.4624 0.0000
# 6 0.0000 0.0000 0.0000 0.0000 0.0000 15.5871
#
#
#
# Elastic Compliance Matrix: (Units=1/GPa)
#
#
# Indices 1 2 3 4 5 6 
#
# 1 0.012710 -0.003581 -0.003384 0.000000 0.000000 0.000000
# 2 -0.003581 0.014937 -0.002784 0.000000 0.000000 0.000000
# 3 -0.003384 -0.002784 0.015522 0.000000 0.000000 0.000000
# 4 0.000000 0.000000 0.000000 -0.029069 0.000000 0.000000
# 5 0.000000 0.000000 0.000000 0.000000 0.006875 0.000000
# 6 0.000000 0.000000 0.000000 0.000000 0.000000 0.064156
#
#
# Mechanical properties :
#
#
# Convention : Reuss Voigt Hill
#
# Bulk Modulus (GPa) = 42.24530 43.00189 42.62359
# Shear Modulus (GPa) = 44.43706 36.77662 40.60684
#
# Velocity S-wave (km/s) = 4.71138 4.28609 4.50376
# Velocity P-wave (km/s) = 7.12028 6.78043 6.95243
#
# Compressibility (1/GPa) = 0.02367127
#
# Stress axis : x y z
#
# Youngs Moduli (GPa) = 78.67774 66.94946 64.42393
#
# Poissons Ratio (x) = 0.23977 0.21800
# Poissons Ratio (y) = 0.28178 0.17932
# Poissons Ratio (z) = 0.26624 0.18635
#
# Static dielectric constant tensor:
#      x y z
#    x 3.810210 0.000000 0.000000 
#    y 0.000000 3.765220 0.000000 
#    z 0.000000 0.000000 3.470320 
# 
# 
# High freq. dielectric constant tensor:
#      x y z
#    x 1.777270 0.000000 0.000000 
#    y 0.000000 1.780430 0.000000 
#    z 0.000000 0.000000 1.769740 
# 
# From -- ./inp_files/29632.got.cif
#   From: 2010.03.12/outbox.cif.g09.slc.cpg/sg47_15_cif.got.tgz:29632.got - 2010.04.14 03:12:58.
