data_PCOD8198129
_publ_section_title
;
Structure prediction by ZEFSAII (Michael W. Deem and Ramdas Pophale) SiO2 
 PCOD8198129
Probable space group: P M M M
;
_chemical_formula_sum "Si O2"
_cell_formula_units_Z 48
_cell_length_a 7.544439
_cell_length_b 34.344431
_cell_length_c 9.388875
_cell_angle_alpha 90.000000
_cell_angle_beta 90.000000
_cell_angle_gamma 90.000000
_cell_volume 2432.746375
_symmetry_space_group_name_H-M "P M M M"
_symmetry_group_IT_number 47
_symmetry_cell_setting 'orthorhombic'
loop_
_space_group_symop_operation_xyz
x,y,z
-x,-y,z
x,-y,-z
-x,y,-z
-x,-y,-z
x,y,-z
-x,y,z
x,-y,z
loop_
_atom_site_type_symbol
_atom_site_label
_atom_site_fract_x
_atom_site_fract_y
_atom_site_fract_z
Si Si1 0.298554 0.641242 0.839903
Si Si2 0.500000 0.059861 0.168873
Si Si3 0.797014 0.000000 0.831651
Si Si4 0.202404 0.200176 0.665763
Si Si5 0.788003 0.500000 0.839490
Si Si6 0.500000 0.139712 0.665960
Si Si7 0.799380 0.429160 0.343110
Si Si8 0.209244 0.273839 0.840113
O O1 0.500000 0.627711 0.843850
O O2 0.199412 0.612736 0.732592
O O3 0.284049 0.685314 0.781322
O O4 0.215746 0.638890 0.000000
O O5 0.680502 0.037428 0.216733
O O6 0.500000 0.101147 0.242618
O O7 0.500000 0.065101 0.000000
O O8 0.000000 0.000000 0.766971
O O9 0.813677 0.000000 0.000000
O O10 0.216539 0.209500 0.500000
O O11 0.324004 0.163685 0.707304
O O12 0.277950 0.238284 0.744565
O O13 0.000000 0.190499 0.711017
O O14 0.711133 0.537987 0.757414
O O15 0.000000 0.500000 0.846460
O O16 0.711220 0.500000 0.000000
O O17 0.500000 0.128791 0.500000
O O18 0.706783 0.427123 0.500000
O O19 0.000000 0.441937 0.366912
O O20 0.000000 0.275998 0.834268
O O21 0.279254 0.266773 0.000000
#
# Coordination Sequence:
#
# PCOD8198129 Si02
#       8
#     8   4   4   8   4   4   8   8
#     4  10  21  35  51  74 103 133 165 203 251 306
#     4   9  18  32  52  80 106 136 182 224 263 321
#     4   8  15  31  54  78 108 142 176 222 276 322
#     4   9  19  35  52  71  99 137 179 217 260 320
#     4   9  17  31  54  79 100 127 162 200 246 299
#     4  10  21  35  51  74 108 146 178 219 275 320
#     4  10  20  34  53  77 103 130 163 203 245 294
#     4   9  18  33  53  76 100 127 164 213 261 302
#
# _framework density 19.730786999999999
#
# number of rings (size 3 to 8) (size 9 to 14) (size 15 to 20)
#    0.000    2.667    0.000    1.750    1.167    5.000 
#    0.000    2.917    0.000    3.000    0.000    0.000 
#    0.000    0.000    0.000    0.000    0.000    0.000 
#
# Total GULP energy -594990.251263 kJ/mol
# GULP energy per Si atom -12395.630235 kJ/mol
# Density = 1.968588 g / cm^3
# Si number density = 19.730787 Si / 1000 Ang^3
#
#
#
# Elastic Constant Matrix: (Units=GPa)
#
#
# Indices 1 2 3 4 5 6 
#
# 1 78.9933 46.0522 26.3223 0.0000 0.0000 0.0000
# 2 46.0522 172.9323 84.1969 0.0000 0.0000 0.0000
# 3 26.3223 84.1969 102.4117 0.0000 0.0000 0.0000
# 4 0.0000 0.0000 0.0000 17.1157 0.0000 0.0000
# 5 0.0000 0.0000 0.0000 0.0000 11.8535 0.0000
# 6 0.0000 0.0000 0.0000 0.0000 0.0000 92.4427
#
#
#
# Elastic Compliance Matrix: (Units=1/GPa)
#
#
# Indices 1 2 3 4 5 6 
#
# 1 0.015042 -0.003541 -0.000955 0.000000 0.000000 0.000000
# 2 -0.003541 0.010476 -0.007702 0.000000 0.000000 0.000000
# 3 -0.000955 -0.007702 0.016343 0.000000 0.000000 0.000000
# 4 0.000000 0.000000 0.000000 0.058426 0.000000 0.000000
# 5 0.000000 0.000000 0.000000 0.000000 0.084364 0.000000
# 6 0.000000 0.000000 0.000000 0.000000 0.000000 0.010818
#
#
# Mechanical properties :
#
#
# Convention : Reuss Voigt Hill
#
# Bulk Modulus (GPa) = 57.26271 74.16447 65.71359
# Shear Modulus (GPa) = 22.15484 37.46677 29.81080
#
# Velocity S-wave (km/s) = 3.35454 4.36236 3.89122
# Velocity P-wave (km/s) = 6.63995 7.93999 7.31889
#
# Compressibility (1/GPa) = 0.01746337
#
# Stress axis : x y z
#
# Youngs Moduli (GPa) = 66.48179 95.45999 61.19013
#
# Poissons Ratio (x) = 0.33798 0.05845
# Poissons Ratio (y) = 0.23538 0.47131
# Poissons Ratio (z) = 0.06351 0.73527
#
# Static dielectric constant tensor:
#      x y z
#    x 3.659500 0.000000 0.000000 
#    y 0.000000 3.514650 0.000000 
#    z 0.000000 0.000000 3.645350 
# 
# 
# High freq. dielectric constant tensor:
#      x y z
#    x 1.764300 0.000000 0.000000 
#    y 0.000000 1.764770 0.000000 
#    z 0.000000 0.000000 1.755160 
# 
# From -- ./inp_files/2847.got.cif
#   From: 2010.03.12/outbox.cif.g09.slc.cpg/sg47_2_cif.got.tgz:2847.got - 2010.04.14 03:12:58.
