data_PCOD8198605
_publ_section_title
;
Structure prediction by ZEFSAII (Michael W. Deem and Ramdas Pophale) SiO2 
 PCOD8198605
Probable space group: P M M M
;
_chemical_formula_sum "Si O2"
_cell_formula_units_Z 40
_cell_length_a 20.400703
_cell_length_b 8.887270
_cell_length_c 12.425034
_cell_angle_alpha 90.000000
_cell_angle_beta 90.000000
_cell_angle_gamma 90.000000
_cell_volume 2252.740120
_symmetry_space_group_name_H-M "P M M M"
_symmetry_group_IT_number 47
_symmetry_cell_setting 'orthorhombic'
loop_
_space_group_symop_operation_xyz
x,y,z
-x,-y,z
x,-y,-z
-x,y,-z
-x,-y,-z
x,y,-z
-x,y,z
x,-y,z
loop_
_atom_site_type_symbol
_atom_site_label
_atom_site_fract_x
_atom_site_fract_y
_atom_site_fract_z
Si Si1 0.250053 0.172830 0.265597
Si Si2 0.390490 0.679884 0.266461
Si Si3 0.500000 0.824450 0.126306
Si Si4 0.868867 0.822845 0.876507
Si Si5 0.737177 0.832182 0.500000
Si Si6 0.607125 0.326863 0.500000
Si Si7 0.000000 0.330187 0.127931
O O1 0.316261 0.266430 0.248118
O O2 0.193565 0.239103 0.189154
O O3 0.222436 0.185422 0.388885
O O4 0.265266 0.000000 0.235246
O O5 0.392412 0.500000 0.259642
O O6 0.435150 0.749705 0.174554
O O7 0.418451 0.737063 0.384569
O O8 0.500000 0.000000 0.153159
O O9 0.500000 0.792838 0.000000
O O10 0.934720 0.750036 0.827819
O O11 0.876240 0.000000 0.862963
O O12 0.858130 0.775573 0.000000
O O13 0.684469 0.699830 0.500000
O O14 0.703959 0.000000 0.500000
O O15 0.590242 0.500000 0.500000
O O16 0.000000 0.500000 0.169669
O O17 0.000000 0.318590 0.000000
#
# Coordination Sequence:
#
# PCOD8198605 Si02
#       7
#     8   8   4   8   4   4   4
#     4   9  17  30  49  73  99 127 160 196 235 280
#     4  10  20  35  55  77 101 128 161 201 244 291
#     4  11  25  42  55  68  94 133 170 203 244 293
#     4   9  17  29  46  68  94 124 156 191 235 285
#     4   8  14  26  45  68  95 126 159 194 229 272
#     4   8  16  31  51  76 102 125 151 192 246 293
#     4   9  17  29  45  66  93 122 154 195 238 279
#
# _framework density 17.756153999999999
#
# number of rings (size 3 to 8) (size 9 to 14) (size 15 to 20)
#    0.000    2.800    0.000    1.200    0.000    4.800 
#    0.000    4.000    0.000    0.600    0.000    4.200 
#    0.000    0.000    0.000    0.000    0.000    0.000 
#
# Total GULP energy -495565.613716 kJ/mol
# GULP energy per Si atom -12389.140343 kJ/mol
# Density = 1.771574 g / cm^3
# Si number density = 17.756154 Si / 1000 Ang^3
#
#
#
# Elastic Constant Matrix: (Units=GPa)
#
#
# Indices 1 2 3 4 5 6 
#
# 1 129.1716 48.4622 74.7559 0.0000 0.0000 0.0000
# 2 48.4622 57.8255 43.2039 0.0000 0.0000 0.0000
# 3 74.7559 43.2039 108.5410 0.0000 0.0000 0.0000
# 4 0.0000 0.0000 0.0000 19.3054 0.0000 0.0000
# 5 0.0000 0.0000 0.0000 0.0000 2.3743 0.0000
# 6 0.0000 0.0000 0.0000 0.0000 0.0000 12.9493
#
#
#
# Elastic Compliance Matrix: (Units=1/GPa)
#
#
# Indices 1 2 3 4 5 6 
#
# 1 0.014478 -0.006666 -0.007318 0.000000 0.000000 0.000000
# 2 -0.006666 0.027682 -0.006428 0.000000 0.000000 0.000000
# 3 -0.007318 -0.006428 0.016812 0.000000 0.000000 0.000000
# 4 0.000000 0.000000 0.000000 0.051799 0.000000 0.000000
# 5 0.000000 0.000000 0.000000 0.000000 0.421183 0.000000
# 6 0.000000 0.000000 0.000000 0.000000 0.000000 0.077224
#
#
# Mechanical properties :
#
#
# Convention : Reuss Voigt Hill
#
# Bulk Modulus (GPa) = 55.10054 69.82023 62.46039
# Shear Modulus (GPa) = 7.62136 15.53353 11.57744
#
# Velocity S-wave (km/s) = 2.07402 2.96095 2.55625
# Velocity P-wave (km/s) = 6.06915 7.14820 6.63066
#
# Compressibility (1/GPa) = 0.01814864
#
# Stress axis : x y z
#
# Youngs Moduli (GPa) = 69.07204 36.12417 59.48211
#
# Poissons Ratio (x) = 0.24080 0.43529
# Poissons Ratio (y) = 0.46042 0.38234
# Poissons Ratio (z) = 0.50547 0.23220
#
# Static dielectric constant tensor:
#      x y z
#    x 3.186490 0.000000 0.000000 
#    y 0.000000 3.268100 0.000000 
#    z 0.000000 0.000000 3.546760 
# 
# 
# High freq. dielectric constant tensor:
#      x y z
#    x 1.667520 0.000000 0.000000 
#    y 0.000000 1.683660 0.000000 
#    z 0.000000 0.000000 1.684010 
# 
# From -- ./inp_files/4149.got.cif
#   From: 2010.03.12/outbox.cif.g09.slc.cpg/sg47_3_cif.got.tgz:4149.got - 2010.04.14 03:12:58.
