data_PCOD8198627
_publ_section_title
;
Structure prediction by ZEFSAII (Michael W. Deem and Ramdas Pophale) SiO2 
 PCOD8198627
Probable space group: P M M M
;
_chemical_formula_sum "Si O2"
_cell_formula_units_Z 56
_cell_length_a 22.129493
_cell_length_b 14.918902
_cell_length_c 9.135254
_cell_angle_alpha 90.000000
_cell_angle_beta 90.000000
_cell_angle_gamma 90.000000
_cell_volume 3015.983438
_symmetry_space_group_name_H-M "P M M M"
_symmetry_group_IT_number 47
_symmetry_cell_setting 'orthorhombic'
loop_
_space_group_symop_operation_xyz
x,y,z
-x,-y,z
x,-y,-z
-x,y,-z
-x,-y,-z
x,y,-z
-x,y,z
x,-y,z
loop_
_atom_site_type_symbol
_atom_site_label
_atom_site_fract_x
_atom_site_fract_y
_atom_site_fract_z
Si Si1 0.653205 0.634051 0.668489
Si Si2 0.500000 0.898922 0.827447
Si Si3 0.833108 0.782809 0.170777
Si Si4 0.429466 0.500000 0.828189
Si Si5 0.385963 0.165672 0.335346
Si Si6 0.223909 0.400231 0.832124
Si Si7 0.069567 0.898791 0.328790
Si Si8 0.740098 0.899927 0.666688
O O1 0.650091 0.603804 0.500000
O O2 0.599567 0.587772 0.757398
O O3 0.644315 0.738705 0.687579
O O4 0.717921 0.606385 0.730161
O O5 0.440683 0.847714 0.774790
O O6 0.500000 0.000000 0.765237
O O7 0.500000 0.897968 0.000000
O O8 0.825233 0.676756 0.208164
O O9 0.891640 0.822994 0.249211
O O10 0.773093 0.833660 0.222856
O O11 0.841467 0.798919 0.000000
O O12 0.500000 0.500000 0.792222
O O13 0.416458 0.500000 0.000000
O O14 0.410948 0.153369 0.500000
O O15 0.331690 0.096845 0.301307
O O16 0.195158 0.500000 0.811119
O O17 0.244816 0.386279 0.000000
O O18 0.082670 0.891135 0.500000
O O19 0.000000 0.878676 0.293103
O O20 0.086188 0.000000 0.276275
O O21 0.751532 0.866851 0.500000
O O22 0.765896 0.000000 0.688424
#
# Coordination Sequence:
#
# PCOD8198627 Si02
#       8
#     8   4   8   4   8   8   8   8
#     4  11  22  37  59  84 106 133 179 235 280 327
#     4  11  25  41  57  78 103 136 181 229 276 337
#     4  11  22  34  54  86 119 149 187 236 284 333
#     4  11  25  41  57  79 109 145 178 217 284 359
#     4  10  22  39  58  79 104 138 181 228 278 332
#     4  10  21  38  58  80 111 151 188 225 281 348
#     4   9  19  37  60  85 117 160 202 235 275 333
#     4  10  20  35  55  78 108 146 183 220 269 333
#
# _framework density 18.567741000000002
#
# number of rings (size 3 to 8) (size 9 to 14) (size 15 to 20)
#    0.000    1.714    2.143    2.571    1.000    6.571 
#    0.000    0.714    0.000    0.429    0.000    3.000 
#    0.000    0.000    0.000    0.000    0.000    0.000 
#
# Total GULP energy -694417.057671 kJ/mol
# GULP energy per Si atom -12400.304601 kJ/mol
# Density = 1.852548 g / cm^3
# Si number density = 18.567741 Si / 1000 Ang^3
#
#
#
# Elastic Constant Matrix: (Units=GPa)
#
#
# Indices 1 2 3 4 5 6 
#
# 1 104.2485 55.2681 51.7843 0.0000 0.0000 0.0000
# 2 55.2681 121.9237 51.0342 0.0000 0.0000 0.0000
# 3 51.7843 51.0342 83.6141 0.0000 0.0000 0.0000
# 4 0.0000 0.0000 0.0000 27.6443 0.0000 0.0000
# 5 0.0000 0.0000 0.0000 0.0000 20.6714 0.0000
# 6 0.0000 0.0000 0.0000 0.0000 0.0000 29.9780
#
#
#
# Elastic Compliance Matrix: (Units=1/GPa)
#
#
# Indices 1 2 3 4 5 6 
#
# 1 0.015149 -0.003949 -0.006972 0.000000 0.000000 0.000000
# 2 -0.003949 0.012046 -0.004906 0.000000 0.000000 0.000000
# 3 -0.006972 -0.004906 0.019272 0.000000 0.000000 0.000000
# 4 0.000000 0.000000 0.000000 0.036174 0.000000 0.000000
# 5 0.000000 0.000000 0.000000 0.000000 0.048376 0.000000
# 6 0.000000 0.000000 0.000000 0.000000 0.000000 0.033358
#
#
# Mechanical properties :
#
#
# Convention : Reuss Voigt Hill
#
# Bulk Modulus (GPa) = 67.51101 69.55109 68.53105
# Shear Modulus (GPa) = 24.87969 25.77207 25.32588
#
# Velocity S-wave (km/s) = 3.66449 3.72963 3.69721
# Velocity P-wave (km/s) = 7.37176 7.48907 7.43065
#
# Compressibility (1/GPa) = 0.01481240
#
# Stress axis : x y z
#
# Youngs Moduli (GPa) = 66.00962 83.01801 51.88762
#
# Poissons Ratio (x) = 0.32782 0.36177
# Poissons Ratio (y) = 0.26066 0.25458
# Poissons Ratio (z) = 0.46023 0.40732
#
# Static dielectric constant tensor:
#      x y z
#    x 3.242870 0.000000 0.000000 
#    y 0.000000 3.765970 0.000000 
#    z 0.000000 0.000000 3.422950 
# 
# 
# High freq. dielectric constant tensor:
#      x y z
#    x 1.705450 0.000000 0.000000 
#    y 0.000000 1.730390 0.000000 
#    z 0.000000 0.000000 1.721820 
# 
# From -- ./inp_files/11371.got.cif
#   From: 2010.03.12/outbox.cif.g09.slc.cpg/sg47_6_cif.got.tgz:11371.got - 2010.04.14 03:12:58.
