data_PCOD8198859
_publ_section_title
;
Structure prediction by ZEFSAII (Michael W. Deem and Ramdas Pophale) SiO2 
 PCOD8198859
Probable space group: P M M M
;
_chemical_formula_sum "Si O2"
_cell_formula_units_Z 48
_cell_length_a 8.801711
_cell_length_b 14.963128
_cell_length_c 18.961797
_cell_angle_alpha 90.000000
_cell_angle_beta 90.000000
_cell_angle_gamma 90.000000
_cell_volume 2497.290060
_symmetry_space_group_name_H-M "P M M M"
_symmetry_group_IT_number 47
_symmetry_cell_setting 'orthorhombic'
loop_
_space_group_symop_operation_xyz
x,y,z
-x,-y,z
x,-y,-z
-x,y,-z
-x,-y,-z
x,y,-z
-x,y,z
x,-y,z
loop_
_atom_site_type_symbol
_atom_site_label
_atom_site_fract_x
_atom_site_fract_y
_atom_site_fract_z
Si Si1 0.175357 0.848272 0.183004
Si Si2 0.179645 0.000000 0.078245
Si Si3 0.324443 0.602339 0.322787
Si Si4 0.320791 0.500000 0.079371
Si Si5 0.322073 0.102859 0.328175
Si Si6 0.825750 0.644106 0.824731
Si Si7 0.823942 0.253000 0.582590
O O1 0.278563 0.864641 0.250615
O O2 0.196107 0.747641 0.156297
O O3 0.000000 0.868432 0.202915
O O4 0.233462 0.912108 0.120323
O O5 0.000000 0.000000 0.070991
O O6 0.253480 0.000000 0.000000
O O7 0.500000 0.622361 0.306886
O O8 0.298851 0.500000 0.345487
O O9 0.230413 0.624368 0.253452
O O10 0.268454 0.663865 0.386353
O O11 0.500000 0.500000 0.079790
O O12 0.266765 0.588902 0.118177
O O13 0.256034 0.500000 0.000000
O O14 0.500000 0.118242 0.338926
O O15 0.232091 0.159464 0.385905
O O16 0.276098 0.000000 0.338689
O O17 0.000000 0.614743 0.829021
O O18 0.793762 0.250585 0.500000
O O19 0.000000 0.265813 0.601419
#
# Coordination Sequence:
#
# PCOD8198859 Si02
#       7
#     8   4   8   4   8   8   8
#     4  10  20  35  60  90 119 156 200 247 299 360
#     4   9  18  34  57  87 122 157 194 241 295 352
#     4  11  23  39  63  92 123 160 201 248 300 364
#     4  11  25  43  61  85 122 167 210 257 315 367
#     4  11  23  38  61  91 121 159 204 250 302 365
#     4  11  22  36  61  93 121 157 205 255 305 363
#     4  11  25  43  63  90 124 160 201 252 306 359
#
# _framework density 19.220835999999998
#
# number of rings (size 3 to 8) (size 9 to 14) (size 15 to 20)
#    0.000    1.333    3.333    2.250    0.000    6.000 
#    0.000    5.000    0.000    1.000    0.000    0.000 
#    0.000    0.000    0.000    0.000    0.000    0.000 
#
# Total GULP energy -595443.197353 kJ/mol
# GULP energy per Si atom -12405.066612 kJ/mol
# Density = 1.917709 g / cm^3
# Si number density = 19.220836 Si / 1000 Ang^3
#
#
#
# Elastic Constant Matrix: (Units=GPa)
#
#
# Indices 1 2 3 4 5 6 
#
# 1 42.7842 30.8047 27.3902 0.0000 0.0000 0.0000
# 2 30.8047 135.7886 51.7017 0.0000 0.0000 0.0000
# 3 27.3902 51.7017 111.9921 0.0000 0.0000 0.0000
# 4 0.0000 0.0000 0.0000 31.0230 0.0000 0.0000
# 5 0.0000 0.0000 0.0000 0.0000 26.3680 0.0000
# 6 0.0000 0.0000 0.0000 0.0000 0.0000 29.3264
#
#
#
# Elastic Compliance Matrix: (Units=1/GPa)
#
#
# Indices 1 2 3 4 5 6 
#
# 1 0.030176 -0.004896 -0.005120 0.000000 0.000000 0.000000
# 2 -0.004896 0.009729 -0.003294 0.000000 0.000000 0.000000
# 3 -0.005120 -0.003294 0.011702 0.000000 0.000000 0.000000
# 4 0.000000 0.000000 0.000000 0.032234 0.000000 0.000000
# 5 0.000000 0.000000 0.000000 0.000000 0.037925 0.000000
# 6 0.000000 0.000000 0.000000 0.000000 0.000000 0.034099
#
#
# Mechanical properties :
#
#
# Convention : Reuss Voigt Hill
#
# Bulk Modulus (GPa) = 40.02062 56.70646 48.36354
# Shear Modulus (GPa) = 26.20335 29.38801 27.79568
#
# Velocity S-wave (km/s) = 3.69627 3.91444 3.80692
# Velocity P-wave (km/s) = 6.25165 7.07086 6.67384
#
# Compressibility (1/GPa) = 0.02498712
#
# Stress axis : x y z
#
# Youngs Moduli (GPa) = 33.13872 102.78126 85.45449
#
# Poissons Ratio (x) = 0.50325 0.43752
# Poissons Ratio (y) = 0.16226 0.28150
# Poissons Ratio (z) = 0.16967 0.33857
#
# Static dielectric constant tensor:
#      x y z
#    x 3.575690 0.000000 0.000000 
#    y 0.000000 5.598360 0.000000 
#    z 0.000000 0.000000 3.532460 
# 
# 
# High freq. dielectric constant tensor:
#      x y z
#    x 1.750260 0.000000 0.000000 
#    y 0.000000 1.767030 0.000000 
#    z 0.000000 0.000000 1.743850 
# 
# From -- ./inp_files/6469.got.cif
#   From: 2010.03.12/outbox.cif.g09.slc.cpg/sg47_4_cif.got.tgz:6469.got - 2010.04.14 03:12:58.
