data_PCOD8198269
_publ_section_title
;
Structure prediction by ZEFSAII (Michael W. Deem and Ramdas Pophale) SiO2 
 PCOD8198269
Probable space group: P M M M
;
_chemical_formula_sum "Si O2"
_cell_formula_units_Z 48
_cell_length_a 9.354147
_cell_length_b 8.291606
_cell_length_c 32.335820
_cell_angle_alpha 90.000000
_cell_angle_beta 90.000000
_cell_angle_gamma 90.000000
_cell_volume 2507.995346
_symmetry_space_group_name_H-M "P M M M"
_symmetry_group_IT_number 47
_symmetry_cell_setting 'orthorhombic'
loop_
_space_group_symop_operation_xyz
x,y,z
-x,-y,z
x,-y,-z
-x,y,-z
-x,-y,-z
x,y,-z
-x,y,z
x,-y,z
loop_
_atom_site_type_symbol
_atom_site_label
_atom_site_fract_x
_atom_site_fract_y
_atom_site_fract_z
Si Si1 0.836624 0.312334 0.500000
Si Si2 0.163640 0.314619 0.818521
Si Si3 0.669126 0.000000 0.953789
Si Si4 0.336768 0.314312 0.658124
Si Si5 0.332188 0.684772 0.097605
Si Si6 0.339115 0.185783 0.744313
Si Si7 0.157622 0.813676 0.415702
O O1 0.823276 0.500000 0.500000
O O2 0.763841 0.250581 0.457440
O O3 0.000000 0.249546 0.500000
O O4 0.173606 0.500000 0.805349
O O5 0.247202 0.282833 0.860657
O O6 0.234908 0.210647 0.782713
O O7 0.000000 0.259548 0.824527
O O8 0.718871 0.169664 0.932688
O O9 0.500000 0.000000 0.955289
O O10 0.733805 0.000000 0.000000
O O11 0.500000 0.255387 0.655826
O O12 0.320079 0.500000 0.647107
O O13 0.279587 0.281970 0.704510
O O14 0.248890 0.215814 0.624893
O O15 0.500000 0.700792 0.106852
O O16 0.299844 0.500000 0.080864
O O17 0.500000 0.244540 0.755893
O O18 0.339749 0.000000 0.732089
O O19 0.000000 0.732189 0.410538
O O20 0.137973 0.000000 0.421603
#
# Coordination Sequence:
#
# PCOD8198269 Si02
#       7
#     4   8   4   8   8   8   8
#     4   9  17  31  52  77 104 135 172 212 256 307
#     4  10  21  36  54  78 108 141 178 223 271 318
#     4   9  18  32  53  83 113 141 183 235 279 326
#     4  10  21  37  56  77 103 137 175 215 261 314
#     4   9  18  33  54  79 109 146 185 227 277 330
#     4  10  21  36  55  78 104 137 176 217 263 318
#     4  10  20  34  54  79 106 136 171 213 260 311
#
# _framework density 19.138791000000001
#
# number of rings (size 3 to 8) (size 9 to 14) (size 15 to 20)
#    0.000    2.333    0.000    2.250    1.167    6.000 
#    0.000    2.083    0.000    3.500    0.000    2.333 
#    0.000    0.000    0.000    0.000    0.000    0.000 
#
# Total GULP energy -595003.951714 kJ/mol
# GULP energy per Si atom -12395.915661 kJ/mol
# Density = 1.909523 g / cm^3
# Si number density = 19.138791 Si / 1000 Ang^3
#
#
#
# Elastic Constant Matrix: (Units=GPa)
#
#
# Indices 1 2 3 4 5 6 
#
# 1 58.7508 27.9184 50.5032 0.0000 0.0000 0.0000
# 2 27.9184 88.2659 53.7983 0.0000 0.0000 0.0000
# 3 50.5032 53.7983 139.1272 0.0000 0.0000 0.0000
# 4 0.0000 0.0000 0.0000 38.6423 0.0000 0.0000
# 5 0.0000 0.0000 0.0000 0.0000 -81.2227 0.0000
# 6 0.0000 0.0000 0.0000 0.0000 0.0000 21.2179
#
#
#
# Elastic Compliance Matrix: (Units=1/GPa)
#
#
# Indices 1 2 3 4 5 6 
#
# 1 0.025397 -0.003158 -0.007998 0.000000 0.000000 0.000000
# 2 -0.003158 0.015216 -0.004737 0.000000 0.000000 0.000000
# 3 -0.007998 -0.004737 0.011923 0.000000 0.000000 0.000000
# 4 0.000000 0.000000 0.000000 0.025878 0.000000 0.000000
# 5 0.000000 0.000000 0.000000 0.000000 -0.012312 0.000000
# 6 0.000000 0.000000 0.000000 0.000000 0.000000 0.047130
#
#
# Mechanical properties :
#
#
# Convention : Reuss Voigt Hill
#
# Bulk Modulus (GPa) = 48.19595 61.17596 54.68596
# Shear Modulus (GPa) = 32.90885 5.98911 19.44898
#
# Velocity S-wave (km/s) = 4.15117 1.77090 3.19126
# Velocity P-wave (km/s) = 6.94358 6.01791 6.49725
#
# Compressibility (1/GPa) = 0.02074863
#
# Stress axis : x y z
#
# Youngs Moduli (GPa) = 39.37482 65.72155 83.87381
#
# Poissons Ratio (x) = 0.20757 0.67081
# Poissons Ratio (y) = 0.12436 0.39733
# Poissons Ratio (z) = 0.31491 0.31134
#
# Static dielectric constant tensor:
#      x y z
#    x 3.333200 0.000000 0.000000 
#    y 0.000000 3.605740 0.000000 
#    z 0.000000 0.000000 3.588800 
# 
# 
# High freq. dielectric constant tensor:
#      x y z
#    x 1.714250 0.000000 0.000000 
#    y 0.000000 1.755580 0.000000 
#    z 0.000000 0.000000 1.747750 
# 
# From -- ./inp_files/34100.got.cif
#   From: 2010.03.12/outbox.cif.g09.slc.cpg/sg47_18_cif.got.tgz:34100.got - 2010.04.14 03:12:58.
