data_PCOD8198603
_publ_section_title
;
Structure prediction by ZEFSAII (Michael W. Deem and Ramdas Pophale) SiO2 
 PCOD8198603
Probable space group: P M M M
;
_chemical_formula_sum "Si O2"
_cell_formula_units_Z 40
_cell_length_a 14.946035
_cell_length_b 8.830558
_cell_length_c 15.297539
_cell_angle_alpha 90.000000
_cell_angle_beta 90.000000
_cell_angle_gamma 90.000000
_cell_volume 2018.997175
_symmetry_space_group_name_H-M "P M M M"
_symmetry_group_IT_number 47
_symmetry_cell_setting 'orthorhombic'
loop_
_space_group_symop_operation_xyz
x,y,z
-x,-y,z
x,-y,-z
-x,y,-z
-x,-y,-z
x,y,-z
-x,y,z
x,-y,z
loop_
_atom_site_type_symbol
_atom_site_label
_atom_site_fract_x
_atom_site_fract_y
_atom_site_fract_z
Si Si1 0.000000 0.334408 0.400167
Si Si2 0.597914 0.323611 0.226195
Si Si3 0.217319 0.322651 0.845627
Si Si4 0.165924 0.827295 0.672862
Si Si5 0.104111 0.179315 0.000000
Si Si6 0.644530 0.827209 0.402956
O O1 0.082916 0.228430 0.380945
O O2 0.000000 0.500000 0.351323
O O3 0.000000 0.374178 0.500000
O O4 0.500000 0.288428 0.183882
O O5 0.614531 0.500000 0.237288
O O6 0.678389 0.263182 0.163169
O O7 0.596413 0.259215 0.324346
O O8 0.213496 0.500000 0.867983
O O9 0.172604 0.287391 0.753597
O O10 0.160082 0.234693 0.917061
O O11 0.249433 0.813953 0.608418
O O12 0.153816 0.000000 0.706337
O O13 0.000000 0.239012 0.000000
O O14 0.102395 0.000000 0.000000
O O15 0.619799 0.762473 0.500000
O O16 0.612752 0.000000 0.397175
#
# Coordination Sequence:
#
# PCOD8198603 Si02
#       6
#     4   8   8   8   4   8
#     4  11  23  35  49  74 107 144 191 241 283 331
#     4   9  19  36  57  82 113 150 190 232 282 337
#     4  10  21  39  62  87 115 147 185 231 280 334
#     4  10  20  35  55  76 106 147 189 233 285 340
#     4  11  25  43  64  89 118 148 183 225 277 342
#     4   9  18  32  50  75 108 147 192 239 284 329
#
# _framework density 19.811816
#
# number of rings (size 3 to 8) (size 9 to 14) (size 15 to 20)
#    0.000    2.200    0.000    2.400    1.400    5.200 
#    0.000    2.500    0.000    3.000    0.000    0.000 
#    0.000    0.000    0.000    0.000    0.000    0.000 
#
# Total GULP energy -495636.802923 kJ/mol
# GULP energy per Si atom -12390.920073 kJ/mol
# Density = 1.976672 g / cm^3
# Si number density = 19.811816 Si / 1000 Ang^3
#
#
#
# Elastic Constant Matrix: (Units=GPa)
#
#
# Indices 1 2 3 4 5 6 
#
# 1 145.1603 40.6012 50.1837 0.0000 0.0000 0.0000
# 2 40.6012 51.3620 16.7890 0.0000 0.0000 0.0000
# 3 50.1837 16.7890 86.1924 0.0000 0.0000 0.0000
# 4 0.0000 0.0000 0.0000 26.2182 0.0000 0.0000
# 5 0.0000 0.0000 0.0000 0.0000 107.9728 0.0000
# 6 0.0000 0.0000 0.0000 0.0000 0.0000 24.2278
#
#
#
# Elastic Compliance Matrix: (Units=1/GPa)
#
#
# Indices 1 2 3 4 5 6 
#
# 1 0.010397 -0.006664 -0.004755 0.000000 0.000000 0.000000
# 2 -0.006664 0.025065 -0.001002 0.000000 0.000000 0.000000
# 3 -0.004755 -0.001002 0.014566 0.000000 0.000000 0.000000
# 4 0.000000 0.000000 0.000000 0.038141 0.000000 0.000000
# 5 0.000000 0.000000 0.000000 0.000000 0.009262 0.000000
# 6 0.000000 0.000000 0.000000 0.000000 0.000000 0.041275
#
#
# Mechanical properties :
#
#
# Convention : Reuss Voigt Hill
#
# Bulk Modulus (GPa) = 39.70694 55.31807 47.51251
# Shear Modulus (GPa) = 29.07919 43.35981 36.21950
#
# Velocity S-wave (km/s) = 3.83530 4.68330 4.28036
# Velocity P-wave (km/s) = 6.30066 7.56484 6.96151
#
# Compressibility (1/GPa) = 0.02518451
#
# Stress axis : x y z
#
# Youngs Moduli (GPa) = 96.18267 39.89579 68.65385
#
# Poissons Ratio (x) = 0.26588 0.32647
# Poissons Ratio (y) = 0.64099 0.06881
# Poissons Ratio (z) = 0.45737 0.03998
#
# Static dielectric constant tensor:
#      x y z
#    x 3.926310 0.000000 0.000000 
#    y 0.000000 3.611720 0.000000 
#    z 0.000000 0.000000 3.541970 
# 
# 
# High freq. dielectric constant tensor:
#      x y z
#    x 1.787630 0.000000 0.000000 
#    y 0.000000 1.771890 0.000000 
#    z 0.000000 0.000000 1.752230 
# 
# From -- ./inp_files/5700.got.cif
#   From: 2010.03.12/outbox.cif.g09.slc.cpg/sg47_3_cif.got.tgz:5700.got - 2010.04.14 03:12:58.
