data_PCOD8198861
_publ_section_title
;
Structure prediction by ZEFSAII (Michael W. Deem and Ramdas Pophale) SiO2 
 PCOD8198861
Probable space group: P M M M
;
_chemical_formula_sum "Si O2"
_cell_formula_units_Z 48
_cell_length_a 13.611663
_cell_length_b 20.197591
_cell_length_c 8.685659
_cell_angle_alpha 90.000000
_cell_angle_beta 90.000000
_cell_angle_gamma 90.000000
_cell_volume 2387.885710
_symmetry_space_group_name_H-M "P M M M"
_symmetry_group_IT_number 47
_symmetry_cell_setting 'orthorhombic'
loop_
_space_group_symop_operation_xyz
x,y,z
-x,-y,z
x,-y,-z
-x,y,-z
-x,-y,-z
x,y,-z
-x,y,z
x,-y,z
loop_
_atom_site_type_symbol
_atom_site_label
_atom_site_fract_x
_atom_site_fract_y
_atom_site_fract_z
Si Si1 0.189011 0.360872 0.317981
Si Si2 0.000000 0.273242 0.316363
Si Si3 0.109648 0.500000 0.316933
Si Si4 0.344534 0.840608 0.177683
Si Si5 0.000000 0.874592 0.184377
Si Si6 0.191293 0.924702 0.679982
Si Si7 0.500000 0.070561 0.677947
Si Si8 0.611884 0.307350 0.818016
O O1 0.195124 0.357487 0.500000
O O2 0.100243 0.311978 0.263154
O O3 0.164787 0.434503 0.257930
O O4 0.298811 0.348242 0.254596
O O5 0.000000 0.265579 0.500000
O O6 0.000000 0.202081 0.236584
O O7 0.104286 0.500000 0.500000
O O8 0.000000 0.500000 0.248482
O O9 0.236247 0.865364 0.215285
O O10 0.403922 0.890972 0.279589
O O11 0.367768 0.767360 0.235583
O O12 0.372539 0.847062 0.000000
O O13 0.082609 0.919037 0.261065
O O14 0.000000 0.877364 0.000000
O O15 0.201825 0.907272 0.500000
O O16 0.230589 0.000000 0.710763
O O17 0.500000 0.057884 0.500000
O O18 0.500000 0.000000 0.764405
O O19 0.500000 0.328083 0.764355
O O20 0.619230 0.314574 0.000000
#
# Coordination Sequence:
#
# PCOD8198861 Si02
#       8
#     8   4   4   8   4   8   4   8
#     4  10  20  35  62  95 122 157 199 241 292 352
#     4  10  20  36  59  90 124 154 192 241 302 365
#     4   9  16  34  62  93 130 160 189 236 293 348
#     4  11  22  39  61  84 111 150 198 246 299 355
#     4  12  25  39  57  82 113 153 198 241 292 356
#     4  11  24  41  59  81 112 149 190 244 308 365
#     4  11  23  37  55  83 117 150 189 244 305 357
#     4  10  22  41  59  81 119 163 203 247 299 349
#
# _framework density 20.101465000000001
#
# number of rings (size 3 to 8) (size 9 to 14) (size 15 to 20)
#    0.000    1.500    1.667    3.750    0.000   10.000 
#    0.000    0.833    0.000    3.000    0.000    0.000 
#    0.000    0.000    0.000    0.000    0.000    0.000 
#
# Total GULP energy -594715.818847 kJ/mol
# GULP energy per Si atom -12389.912893 kJ/mol
# Density = 2.005571 g / cm^3
# Si number density = 20.101465 Si / 1000 Ang^3
#
#
#
# Elastic Constant Matrix: (Units=GPa)
#
#
# Indices 1 2 3 4 5 6 
#
# 1 140.6407 48.5525 18.1259 0.0000 0.0000 0.0000
# 2 48.5525 120.7314 36.4029 0.0000 0.0000 0.0000
# 3 18.1259 36.4029 42.7567 0.0000 0.0000 0.0000
# 4 0.0000 0.0000 0.0000 34.8752 0.0000 0.0000
# 5 0.0000 0.0000 0.0000 0.0000 38.6552 0.0000
# 6 0.0000 0.0000 0.0000 0.0000 0.0000 101.7571
#
#
#
# Elastic Compliance Matrix: (Units=1/GPa)
#
#
# Indices 1 2 3 4 5 6 
#
# 1 0.008283 -0.003057 -0.000909 0.000000 0.000000 0.000000
# 2 -0.003057 0.012272 -0.009152 0.000000 0.000000 0.000000
# 3 -0.000909 -0.009152 0.031565 0.000000 0.000000 0.000000
# 4 0.000000 0.000000 0.000000 0.028674 0.000000 0.000000
# 5 0.000000 0.000000 0.000000 0.000000 0.025870 0.000000
# 6 0.000000 0.000000 0.000000 0.000000 0.000000 0.009827
#
#
# Mechanical properties :
#
#
# Convention : Reuss Voigt Hill
#
# Bulk Modulus (GPa) = 38.63329 56.69906 47.66617
# Shear Modulus (GPa) = 33.03504 48.46067 40.74785
#
# Velocity S-wave (km/s) = 4.05830 4.91532 4.50723
# Velocity P-wave (km/s) = 6.42033 7.77698 7.13099
#
# Compressibility (1/GPa) = 0.02588441
#
# Stress axis : x y z
#
# Youngs Moduli (GPa) = 120.73265 81.48774 31.68020
#
# Poissons Ratio (x) = 0.24911 0.02879
# Poissons Ratio (y) = 0.36908 0.28994
# Poissons Ratio (z) = 0.10970 0.74579
#
# Static dielectric constant tensor:
#      x y z
#    x 3.972170 0.000000 0.000000 
#    y 0.000000 3.774920 0.000000 
#    z 0.000000 0.000000 3.433590 
# 
# 
# High freq. dielectric constant tensor:
#      x y z
#    x 1.803500 0.000000 0.000000 
#    y 0.000000 1.784850 0.000000 
#    z 0.000000 0.000000 1.767220 
# 
# From -- ./inp_files/6582.got.cif
#   From: 2010.03.12/outbox.cif.g09.slc.cpg/sg47_4_cif.got.tgz:6582.got - 2010.04.14 03:12:58.
