data_PCOD8198214
_publ_section_title
;
Structure prediction by ZEFSAII (Michael W. Deem and Ramdas Pophale) SiO2 
 PCOD8198214
Probable space group: P M M M
;
_chemical_formula_sum "Si O2"
_cell_formula_units_Z 52
_cell_length_a 27.687789
_cell_length_b 8.021960
_cell_length_c 12.840246
_cell_angle_alpha 90.000000
_cell_angle_beta 90.000000
_cell_angle_gamma 90.000000
_cell_volume 2851.951351
_symmetry_space_group_name_H-M "P M M M"
_symmetry_group_IT_number 47
_symmetry_cell_setting 'orthorhombic'
loop_
_space_group_symop_operation_xyz
x,y,z
-x,-y,z
x,-y,-z
-x,y,-z
-x,-y,-z
x,y,-z
-x,y,z
x,-y,z
loop_
_atom_site_type_symbol
_atom_site_label
_atom_site_fract_x
_atom_site_fract_y
_atom_site_fract_z
Si Si1 0.211294 0.814501 0.000000
Si Si2 0.225708 0.195935 0.618018
Si Si3 0.892723 0.688986 0.000000
Si Si4 0.053485 0.805477 0.200370
Si Si5 0.382295 0.689748 0.876738
Si Si6 0.883158 0.801494 0.614647
Si Si7 0.275800 0.689527 0.181765
Si Si8 0.445768 0.000000 0.876208
O O1 0.243112 0.795734 0.896349
O O2 0.165334 0.693090 0.000000
O O3 0.189910 0.000000 0.000000
O O4 0.241594 0.240691 0.500000
O O5 0.171177 0.259888 0.637969
O O6 0.260455 0.288334 0.698606
O O7 0.229478 0.000000 0.637197
O O8 0.914014 0.778921 0.899916
O O9 0.910292 0.500000 0.000000
O O10 0.080507 0.724270 0.300011
O O11 0.000000 0.725210 0.187993
O O12 0.047844 0.000000 0.219753
O O13 0.397956 0.500000 0.844114
O O14 0.331532 0.742131 0.826022
O O15 0.420274 0.829001 0.836772
O O16 0.376335 0.698667 0.000000
O O17 0.899569 0.740093 0.500000
O O18 0.883279 0.000000 0.618458
O O19 0.269939 0.500000 0.145799
O O20 0.500000 0.000000 0.831076
O O21 0.446350 0.000000 0.000000
#
# Coordination Sequence:
#
# PCOD8198214 Si02
#       8
#     4   8   4   8   8   8   8   4
#     4  12  24  35  55  78 100 134 169 210 259 312
#     4   9  18  32  50  72 100 139 182 218 254 306
#     4  12  25  39  52  69  98 130 167 209 248 303
#     4  10  20  34  54  77  99 125 161 204 249 302
#     4   9  18  31  47  70 106 142 178 227 270 313
#     4   8  15  30  51  74  99 124 156 201 250 300
#     4  11  21  33  50  76 108 140 176 215 260 316
#     4   9  18  30  48  72 101 143 191 227 264 318
#
# _framework density 18.233129999999999
#
# number of rings (size 3 to 8) (size 9 to 14) (size 15 to 20)
#    0.000    2.231    0.769    3.923    2.154    3.385 
#    0.000    3.077    0.000    1.385    0.000    1.077 
#    0.000    1.231    0.000    3.385    0.000    0.154 
#
# Total GULP energy -644696.040192 kJ/mol
# GULP energy per Si atom -12398.000773 kJ/mol
# Density = 1.819163 g / cm^3
# Si number density = 18.233130 Si / 1000 Ang^3
#
#
#
# Elastic Constant Matrix: (Units=GPa)
#
#
# Indices 1 2 3 4 5 6 
#
# 1 134.9705 39.6764 57.4122 0.0000 0.0000 0.0000
# 2 39.6764 55.8857 15.7153 0.0000 0.0000 0.0000
# 3 57.4122 15.7153 102.8161 0.0000 0.0000 0.0000
# 4 0.0000 0.0000 0.0000 9.9347 0.0000 0.0000
# 5 0.0000 0.0000 0.0000 0.0000 9.0153 0.0000
# 6 0.0000 0.0000 0.0000 0.0000 0.0000 14.4478
#
#
#
# Elastic Compliance Matrix: (Units=1/GPa)
#
#
# Indices 1 2 3 4 5 6 
#
# 1 0.011757 -0.006793 -0.005527 0.000000 0.000000 0.000000
# 2 -0.006793 0.022622 0.000335 0.000000 0.000000 0.000000
# 3 -0.005527 0.000335 0.012761 0.000000 0.000000 0.000000
# 4 0.000000 0.000000 0.000000 0.100658 0.000000 0.000000
# 5 0.000000 0.000000 0.000000 0.000000 0.110923 0.000000
# 6 0.000000 0.000000 0.000000 0.000000 0.000000 0.069215
#
#
# Mechanical properties :
#
#
# Convention : Reuss Voigt Hill
#
# Bulk Modulus (GPa) = 43.15657 57.69778 50.42717
# Shear Modulus (GPa) = 13.90333 18.73745 16.32039
#
# Velocity S-wave (km/s) = 2.76439 3.20919 2.99506
# Velocity P-wave (km/s) = 5.82322 6.74129 6.29900
#
# Compressibility (1/GPa) = 0.02317144
#
# Stress axis : x y z
#
# Youngs Moduli (GPa) = 85.05810 44.20507 78.36421
#
# Poissons Ratio (x) = 0.30027 0.43309
# Poissons Ratio (y) = 0.57777 -0.02627
# Poissons Ratio (z) = 0.47009 -0.01482
#
# Static dielectric constant tensor:
#      x y z
#    x 3.425760 0.000000 0.000000 
#    y 0.000000 3.284320 0.000000 
#    z 0.000000 0.000000 3.284140 
# 
# 
# High freq. dielectric constant tensor:
#      x y z
#    x 1.693450 0.000000 0.000000 
#    y 0.000000 1.699130 0.000000 
#    z 0.000000 0.000000 1.688900 
# 
# From -- ./inp_files/19877.got.cif
#   From: 2010.03.12/outbox.cif.g09.slc.cpg/sg47_10_cif.got.tgz:19877.got - 2010.04.14 03:12:58.
