data_PCOD8198369
_publ_section_title
;
Structure prediction by ZEFSAII (Michael W. Deem and Ramdas Pophale) SiO2 
 PCOD8198369
Probable space group: P M M M
;
_chemical_formula_sum "Si O2"
_cell_formula_units_Z 44
_cell_length_a 8.928959
_cell_length_b 14.198010
_cell_length_c 18.107667
_cell_angle_alpha 90.000000
_cell_angle_beta 90.000000
_cell_angle_gamma 90.000000
_cell_volume 2295.571402
_symmetry_space_group_name_H-M "P M M M"
_symmetry_group_IT_number 47
_symmetry_cell_setting 'orthorhombic'
loop_
_space_group_symop_operation_xyz
x,y,z
-x,-y,z
x,-y,-z
-x,y,-z
-x,-y,-z
x,y,-z
-x,y,z
x,-y,z
loop_
_atom_site_type_symbol
_atom_site_label
_atom_site_fract_x
_atom_site_fract_y
_atom_site_fract_z
Si Si1 0.672208 0.393694 0.345576
Si Si2 0.321878 0.105660 0.000000
Si Si3 0.175086 0.108198 0.278449
Si Si4 0.677437 0.214572 0.143722
Si Si5 0.824452 0.393741 0.190871
Si Si6 0.828063 0.229467 0.582412
O O1 0.500000 0.374620 0.324643
O O2 0.694206 0.500000 0.374997
O O3 0.772189 0.374710 0.273947
O O4 0.726277 0.322220 0.408329
O O5 0.261990 0.158117 0.072804
O O6 0.500000 0.103528 0.000000
O O7 0.256547 0.000000 0.000000
O O8 0.266768 0.164589 0.217578
O O9 0.216141 0.148935 0.359056
O O10 0.000000 0.119095 0.261168
O O11 0.225885 0.000000 0.277093
O O12 0.500000 0.218688 0.144923
O O13 0.741035 0.320638 0.137267
O O14 0.783526 0.500000 0.165949
O O15 0.000000 0.375078 0.186984
O O16 0.800188 0.189279 0.500000
O O17 0.000000 0.259807 0.593096
#
# Coordination Sequence:
#
# PCOD8198369 Si02
#       6
#     8   4   8   8   8   8
#     4  10  20  34  54  81 111 145 186 232 282 334
#     4   9  20  38  58  85 120 154 187 227 278 333
#     4  10  21  37  57  81 110 146 190 236 282 335
#     4  11  21  36  61  88 115 149 188 231 279 332
#     4  10  20  35  57  84 115 150 186 227 277 336
#     4  10  21  36  54  78 111 151 191 232 281 336
#
# _framework density 19.167341
#
# number of rings (size 3 to 8) (size 9 to 14) (size 15 to 20)
#    0.000    1.909    1.818    2.182    0.000    4.364 
#    0.000    5.909    0.000    6.000    0.000    2.545 
#    0.000    0.000    0.000    0.000    0.000    0.000 
#
# Total GULP energy -545702.882056 kJ/mol
# GULP energy per Si atom -12402.338229 kJ/mol
# Density = 1.912372 g / cm^3
# Si number density = 19.167341 Si / 1000 Ang^3
#
#
#
# Elastic Constant Matrix: (Units=GPa)
#
#
# Indices 1 2 3 4 5 6 
#
# 1 64.6511 51.0535 38.4715 0.0000 0.0000 0.0000
# 2 51.0535 149.4981 69.0698 0.0000 0.0000 0.0000
# 3 38.4715 69.0698 119.7007 0.0000 0.0000 0.0000
# 4 0.0000 0.0000 0.0000 27.9864 0.0000 0.0000
# 5 0.0000 0.0000 0.0000 0.0000 18.0272 0.0000
# 6 0.0000 0.0000 0.0000 0.0000 0.0000 30.4943
#
#
#
# Elastic Compliance Matrix: (Units=1/GPa)
#
#
# Indices 1 2 3 4 5 6 
#
# 1 0.022375 -0.005888 -0.003794 0.000000 0.000000 0.000000
# 2 -0.005888 0.010670 -0.004264 0.000000 0.000000 0.000000
# 3 -0.003794 -0.004264 0.012034 0.000000 0.000000 0.000000
# 4 0.000000 0.000000 0.000000 0.035732 0.000000 0.000000
# 5 0.000000 0.000000 0.000000 0.000000 0.055472 0.000000
# 6 0.000000 0.000000 0.000000 0.000000 0.000000 0.032793
#
#
# Mechanical properties :
#
#
# Convention : Reuss Voigt Hill
#
# Bulk Modulus (GPa) = 58.18512 72.33773 65.26143
# Shear Modulus (GPa) = 24.66737 26.98525 25.82631
#
# Velocity S-wave (km/s) = 3.59130 3.75624 3.67469
# Velocity P-wave (km/s) = 6.90064 7.52559 7.21988
#
# Compressibility (1/GPa) = 0.01718653
#
# Stress axis : x y z
#
# Youngs Moduli (GPa) = 44.69286 93.71980 83.09769
#
# Poissons Ratio (x) = 0.55186 0.31523
# Poissons Ratio (y) = 0.26317 0.35436
# Poissons Ratio (z) = 0.16954 0.39966
#
# Static dielectric constant tensor:
#      x y z
#    x 3.418720 0.000000 0.000000 
#    y 0.000000 3.783670 0.000000 
#    z 0.000000 0.000000 3.409020 
# 
# 
# High freq. dielectric constant tensor:
#      x y z
#    x 1.740130 0.000000 0.000000 
#    y 0.000000 1.757580 0.000000 
#    z 0.000000 0.000000 1.730400 
# 
# From -- ./inp_files/6055.got.cif
#   From: 2010.03.12/outbox.cif.g09.slc.cpg/sg47_4_cif.got.tgz:6055.got - 2010.04.14 03:12:58.
