data_PCOD8198856
_publ_section_title
;
Structure prediction by ZEFSAII (Michael W. Deem and Ramdas Pophale) SiO2 
 PCOD8198856
Probable space group: P M M M
;
_chemical_formula_sum "Si O2"
_cell_formula_units_Z 44
_cell_length_a 14.165054
_cell_length_b 8.765408
_cell_length_c 17.872623
_cell_angle_alpha 90.000000
_cell_angle_beta 90.000000
_cell_angle_gamma 90.000000
_cell_volume 2219.109154
_symmetry_space_group_name_H-M "P M M M"
_symmetry_group_IT_number 47
_symmetry_cell_setting 'orthorhombic'
loop_
_space_group_symop_operation_xyz
x,y,z
-x,-y,z
x,-y,-z
-x,y,-z
-x,-y,-z
x,y,-z
-x,y,z
x,-y,z
loop_
_atom_site_type_symbol
_atom_site_label
_atom_site_fract_x
_atom_site_fract_y
_atom_site_fract_z
Si Si1 0.395395 0.673494 0.660689
Si Si2 0.205225 0.677069 0.584629
Si Si3 0.210962 0.678346 0.860781
Si Si4 0.106688 0.180119 0.000000
Si Si5 0.393754 0.177107 0.816598
Si Si6 0.890383 0.822559 0.277956
O O1 0.500000 0.698632 0.625577
O O2 0.385242 0.500000 0.690778
O O3 0.316487 0.708322 0.598680
O O4 0.379243 0.786892 0.729411
O O5 0.182527 0.726665 0.500000
O O6 0.181155 0.500000 0.597674
O O7 0.139928 0.777204 0.638498
O O8 0.200576 0.500000 0.872546
O O9 0.320831 0.725581 0.865994
O O10 0.169851 0.724838 0.780398
O O11 0.155561 0.761845 0.925654
O O12 0.000000 0.240807 0.000000
O O13 0.110543 0.000000 0.000000
O O14 0.500000 0.219836 0.841983
O O15 0.372651 0.000000 0.829329
O O16 0.000000 0.784828 0.266615
O O17 0.869578 0.000000 0.264452
#
# Coordination Sequence:
#
# PCOD8198856 Si02
#       6
#     8   8   8   4   8   8
#     4   9  17  31  53  82 116 154 196 242 294 354
#     4  10  21  36  55  83 118 156 199 249 305 361
#     4  12  24  40  65  95 126 159 197 244 298 356
#     4  11  25  45  68  95 128 163 199 244 298 353
#     4  10  20  35  59  90 123 160 201 244 291 348
#     4  11  24  41  61  84 112 153 204 252 303 363
#
# _framework density 19.827776
#
# number of rings (size 3 to 8) (size 9 to 14) (size 15 to 20)
#    0.000    1.545    1.818    3.545    0.000    6.545 
#    0.000    4.091    0.000    2.727    0.000    3.818 
#    0.000    0.000    0.000    0.000    0.000    0.000 
#
# Total GULP energy -545737.310684 kJ/mol
# GULP energy per Si atom -12403.120697 kJ/mol
# Density = 1.978265 g / cm^3
# Si number density = 19.827776 Si / 1000 Ang^3
#
#
#
# Elastic Constant Matrix: (Units=GPa)
#
#
# Indices 1 2 3 4 5 6 
#
# 1 115.0404 33.9368 38.1823 0.0000 0.0000 0.0000
# 2 33.9368 49.1481 15.8025 0.0000 0.0000 0.0000
# 3 38.1823 15.8025 85.6108 0.0000 0.0000 0.0000
# 4 0.0000 0.0000 0.0000 42.3014 0.0000 0.0000
# 5 0.0000 0.0000 0.0000 0.0000 18.7205 0.0000
# 6 0.0000 0.0000 0.0000 0.0000 0.0000 29.4064
#
#
#
# Elastic Compliance Matrix: (Units=1/GPa)
#
#
# Indices 1 2 3 4 5 6 
#
# 1 0.012140 -0.007061 -0.004111 0.000000 0.000000 0.000000
# 2 -0.007061 0.025737 -0.001602 0.000000 0.000000 0.000000
# 3 -0.004111 -0.001602 0.013810 0.000000 0.000000 0.000000
# 4 0.000000 0.000000 0.000000 0.023640 0.000000 0.000000
# 5 0.000000 0.000000 0.000000 0.000000 0.053417 0.000000
# 6 0.000000 0.000000 0.000000 0.000000 0.000000 0.034006
#
#
# Mechanical properties :
#
#
# Convention : Reuss Voigt Hill
#
# Bulk Modulus (GPa) = 38.25548 47.29362 42.77455
# Shear Modulus (GPa) = 25.37928 28.87749 27.12838
#
# Velocity S-wave (km/s) = 3.58157 3.82044 3.70293
# Velocity P-wave (km/s) = 6.03650 6.58521 6.31682
#
# Compressibility (1/GPa) = 0.02614004
#
# Stress axis : x y z
#
# Youngs Moduli (GPa) = 82.37202 38.85434 72.41156
#
# Poissons Ratio (x) = 0.27435 0.29769
# Poissons Ratio (y) = 0.58162 0.11597
# Poissons Ratio (z) = 0.33864 0.06223
#
# Static dielectric constant tensor:
#      x y z
#    x 3.941000 0.000000 0.000000 
#    y 0.000000 3.623070 0.000000 
#    z 0.000000 0.000000 3.421580 
# 
# 
# High freq. dielectric constant tensor:
#      x y z
#    x 1.791900 0.000000 0.000000 
#    y 0.000000 1.775340 0.000000 
#    z 0.000000 0.000000 1.752590 
# 
# From -- ./inp_files/27866.got.cif
#   From: 2010.03.12/outbox.cif.g09.slc.cpg/sg47_14_cif.got.tgz:27866.got - 2010.04.14 03:12:58.
