data_PCOD8198721
_publ_section_title
;
Structure prediction by ZEFSAII (Michael W. Deem and Ramdas Pophale) SiO2 
 PCOD8198721
Probable space group: P M M M
;
_chemical_formula_sum "Si O2"
_cell_formula_units_Z 64
_cell_length_a 9.046272
_cell_length_b 19.127061
_cell_length_c 19.343016
_cell_angle_alpha 90.000000
_cell_angle_beta 90.000000
_cell_angle_gamma 90.000000
_cell_volume 3346.894908
_symmetry_space_group_name_H-M "P M M M"
_symmetry_group_IT_number 47
_symmetry_cell_setting 'orthorhombic'
loop_
_space_group_symop_operation_xyz
x,y,z
-x,-y,z
x,-y,-z
-x,y,-z
-x,-y,-z
x,y,-z
-x,y,z
x,-y,z
loop_
_atom_site_type_symbol
_atom_site_label
_atom_site_fract_x
_atom_site_fract_y
_atom_site_fract_z
Si Si1 0.826127 0.809605 0.179953
Si Si2 0.672442 0.665489 0.816565
Si Si3 0.828882 0.189417 0.338916
Si Si4 0.674049 0.421697 0.313570
Si Si5 0.163663 0.582164 0.922949
Si Si6 0.326895 0.080622 0.920680
Si Si7 0.673994 0.688420 0.578034
Si Si8 0.334533 0.918792 0.422075
O O1 0.758646 0.734875 0.161429
O O2 0.784536 0.822745 0.259653
O O3 0.760611 0.870205 0.131924
O O4 0.000000 0.807820 0.167393
O O5 0.500000 0.682603 0.810074
O O6 0.735645 0.629692 0.746355
O O7 0.703155 0.611395 0.877504
O O8 0.739296 0.251673 0.373850
O O9 0.788885 0.117510 0.376151
O O10 0.000000 0.206704 0.347640
O O11 0.500000 0.428486 0.302875
O O12 0.744536 0.500000 0.310232
O O13 0.712051 0.386697 0.387591
O O14 0.181225 0.500000 0.923836
O O15 0.000000 0.602680 0.894249
O O16 0.181367 0.612370 0.000000
O O17 0.500000 0.092951 0.909288
O O18 0.285701 0.000000 0.904821
O O19 0.283931 0.098787 0.000000
O O20 0.739155 0.689883 0.500000
O O21 0.500000 0.700850 0.576105
O O22 0.322749 0.889945 0.500000
O O23 0.500000 0.903559 0.393841
O O24 0.299245 0.000000 0.420266
#
# Coordination Sequence:
#
# PCOD8198721 Si02
#       8
#     8   8   8   8   8   8   8   8
#     4  11  24  39  57  83 116 153 193 232 276 334
#     4  11  21  35  57  82 112 149 189 240 290 334
#     4  11  23  37  54  79 114 151 188 234 282 332
#     4   9  18  33  54  82 112 141 180 233 290 343
#     4   9  19  36  56  79 111 150 187 225 276 340
#     4   9  20  41  67  93 120 150 187 232 282 335
#     4  10  20  35  57  82 109 146 189 233 287 349
#     4   9  19  36  57  81 109 143 185 230 277 335
#
# _framework density 19.122202999999999
#
# number of rings (size 3 to 8) (size 9 to 14) (size 15 to 20)
#    0.000    2.125    1.250    3.000    0.000    6.500 
#    0.000    5.625    0.000    1.125    0.000    0.875 
#    0.000    0.000    0.000    0.000    0.000    0.000 
#
# Total GULP energy -793472.872602 kJ/mol
# GULP energy per Si atom -12398.013634 kJ/mol
# Density = 1.907868 g / cm^3
# Si number density = 19.122203 Si / 1000 Ang^3
#
#
#
# Elastic Constant Matrix: (Units=GPa)
#
#
# Indices 1 2 3 4 5 6 
#
# 1 54.1615 42.4974 52.5120 0.0000 0.0000 0.0000
# 2 42.4974 105.4681 71.1148 0.0000 0.0000 0.0000
# 3 52.5120 71.1148 130.9330 0.0000 0.0000 0.0000
# 4 0.0000 0.0000 0.0000 33.6788 0.0000 0.0000
# 5 0.0000 0.0000 0.0000 0.0000 30.0969 0.0000
# 6 0.0000 0.0000 0.0000 0.0000 0.0000 21.6088
#
#
#
# Elastic Compliance Matrix: (Units=1/GPa)
#
#
# Indices 1 2 3 4 5 6 
#
# 1 0.033136 -0.006928 -0.009526 0.000000 0.000000 0.000000
# 2 -0.006928 0.016409 -0.006134 0.000000 0.000000 0.000000
# 3 -0.009526 -0.006134 0.014790 0.000000 0.000000 0.000000
# 4 0.000000 0.000000 0.000000 0.029692 0.000000 0.000000
# 5 0.000000 0.000000 0.000000 0.000000 0.033226 0.000000
# 6 0.000000 0.000000 0.000000 0.000000 0.000000 0.046277
#
#
# Mechanical properties :
#
#
# Convention : Reuss Voigt Hill
#
# Bulk Modulus (GPa) = 52.19864 69.20123 60.69993
# Shear Modulus (GPa) = 22.21303 25.37279 23.79291
#
# Velocity S-wave (km/s) = 3.41198 3.64658 3.53123
# Velocity P-wave (km/s) = 6.54819 7.34831 6.95975
#
# Compressibility (1/GPa) = 0.01915759
#
# Stress axis : x y z
#
# Youngs Moduli (GPa) = 30.17881 60.94181 67.61493
#
# Poissons Ratio (x) = 0.42223 0.64413
# Poissons Ratio (y) = 0.20909 0.41473
# Poissons Ratio (z) = 0.28750 0.37380
#
# Static dielectric constant tensor:
#      x y z
#    x 3.324910 0.000000 0.000000 
#    y 0.000000 3.537900 0.000000 
#    z 0.000000 0.000000 3.698290 
# 
# 
# High freq. dielectric constant tensor:
#      x y z
#    x 1.725870 0.000000 0.000000 
#    y 0.000000 1.748810 0.000000 
#    z 0.000000 0.000000 1.749570 
# 
# From -- ./inp_files/30019.got.cif
#   From: 2010.03.12/outbox.cif.g09.slc.cpg/sg47_16_cif.got.tgz:30019.got - 2010.04.14 03:12:58.
