data_PCOD8198320
_publ_section_title
;
Structure prediction by ZEFSAII (Michael W. Deem and Ramdas Pophale) SiO2 
 PCOD8198320
Probable space group: P M M M
;
_chemical_formula_sum "Si O2"
_cell_formula_units_Z 48
_cell_length_a 9.473531
_cell_length_b 9.016120
_cell_length_c 30.369798
_cell_angle_alpha 90.000000
_cell_angle_beta 90.000000
_cell_angle_gamma 90.000000
_cell_volume 2594.020878
_symmetry_space_group_name_H-M "P M M M"
_symmetry_group_IT_number 47
_symmetry_cell_setting 'orthorhombic'
loop_
_space_group_symop_operation_xyz
x,y,z
-x,-y,z
x,-y,-z
-x,y,-z
-x,-y,-z
x,y,-z
-x,y,z
x,-y,z
loop_
_atom_site_type_symbol
_atom_site_label
_atom_site_fract_x
_atom_site_fract_y
_atom_site_fract_z
Si Si1 0.338951 0.827742 0.426646
Si Si2 0.160783 0.674982 0.500000
Si Si3 0.664357 0.831704 0.325485
Si Si4 0.835037 0.172257 0.835776
Si Si5 0.664574 0.326512 0.087713
Si Si6 0.332288 0.832791 0.000000
Si Si7 0.163067 0.329161 0.253374
O O1 0.500000 0.782616 0.437120
O O2 0.235129 0.732657 0.456170
O O3 0.302818 0.793444 0.376047
O O4 0.316467 0.000000 0.437304
O O5 0.169613 0.500000 0.500000
O O6 0.000000 0.731323 0.500000
O O7 0.500000 0.811928 0.315402
O O8 0.749849 0.717476 0.295967
O O9 0.711507 0.000000 0.315010
O O10 0.748694 0.262079 0.871542
O O11 0.788535 0.231213 0.788076
O O12 0.000000 0.201282 0.843804
O O13 0.796065 0.000000 0.838999
O O14 0.500000 0.291346 0.094697
O O15 0.693281 0.500000 0.083715
O O16 0.723425 0.250684 0.043328
O O17 0.500000 0.831075 0.000000
O O18 0.272800 0.000000 0.000000
O O19 0.193782 0.500000 0.242234
O O20 0.000000 0.301506 0.264225
#
# Coordination Sequence:
#
# PCOD8198320 Si02
#       7
#     8   4   8   8   8   4   8
#     4   9  19  37  59  80 103 135 176 218 260 309
#     4  11  24  37  50  76 112 143 174 215 260 308
#     4   9  19  36  57  81 107 135 171 216 262 308
#     4  10  21  37  56  77 103 138 179 220 262 310
#     4  10  20  34  54  80 108 138 173 214 262 315
#     4   9  17  31  52  77 106 139 174 214 260 309
#     4  10  21  36  54  77 106 140 175 212 258 311
#
# _framework density 18.504092
#
# number of rings (size 3 to 8) (size 9 to 14) (size 15 to 20)
#    0.000    2.333    0.000    3.250    0.000    8.333 
#    0.000    5.417    0.000    2.500    0.000    0.000 
#    0.000    0.000    0.000    0.000    0.000    0.000 
#
# Total GULP energy -595355.620011 kJ/mol
# GULP energy per Si atom -12403.242084 kJ/mol
# Density = 1.846198 g / cm^3
# Si number density = 18.504092 Si / 1000 Ang^3
#
#
#
# Elastic Constant Matrix: (Units=GPa)
#
#
# Indices 1 2 3 4 5 6 
#
# 1 69.8935 46.1864 60.9447 0.0000 0.0000 0.0000
# 2 46.1864 90.6693 54.6733 0.0000 0.0000 0.0000
# 3 60.9447 54.6733 122.3781 0.0000 0.0000 0.0000
# 4 0.0000 0.0000 0.0000 26.1717 0.0000 0.0000
# 5 0.0000 0.0000 0.0000 0.0000 102.3903 0.0000
# 6 0.0000 0.0000 0.0000 0.0000 0.0000 31.6429
#
#
#
# Elastic Compliance Matrix: (Units=1/GPa)
#
#
# Indices 1 2 3 4 5 6 
#
# 1 0.029311 -0.008389 -0.010849 0.000000 0.000000 0.000000
# 2 -0.008389 0.017497 -0.003639 0.000000 0.000000 0.000000
# 3 -0.010849 -0.003639 0.015200 0.000000 0.000000 0.000000
# 4 0.000000 0.000000 0.000000 0.038209 0.000000 0.000000
# 5 0.000000 0.000000 0.000000 0.000000 0.009767 0.000000
# 6 0.000000 0.000000 0.000000 0.000000 0.000000 0.031603
#
#
# Mechanical properties :
#
#
# Convention : Reuss Voigt Hill
#
# Bulk Modulus (GPa) = 61.52499 67.39440 64.45969
# Shear Modulus (GPa) = 25.93918 40.11674 33.02796
#
# Velocity S-wave (km/s) = 3.74813 4.66122 4.22939
# Velocity P-wave (km/s) = 7.21477 8.09134 7.66559
#
# Compressibility (1/GPa) = 0.01625356
#
# Stress axis : x y z
#
# Youngs Moduli (GPa) = 34.11682 57.15369 65.78880
#
# Poissons Ratio (x) = 0.47945 0.71376
# Poissons Ratio (y) = 0.28620 0.23941
# Poissons Ratio (z) = 0.37014 0.20799
#
# Static dielectric constant tensor:
#      x y z
#    x 3.267520 0.000000 0.000000 
#    y 0.000000 3.457890 0.000000 
#    z 0.000000 0.000000 3.480200 
# 
# 
# High freq. dielectric constant tensor:
#      x y z
#    x 1.703170 0.000000 0.000000 
#    y 0.000000 1.726510 0.000000 
#    z 0.000000 0.000000 1.730110 
# 
# From -- ./inp_files/2626.got.cif
#   From: 2010.03.12/outbox.cif.g09.slc.cpg/sg47_2_cif.got.tgz:2626.got - 2010.04.14 03:12:58.
