data_PCOD8198313
_publ_section_title
;
Structure prediction by ZEFSAII (Michael W. Deem and Ramdas Pophale) SiO2 
 PCOD8198313
Probable space group: P M M M
;
_chemical_formula_sum "Si O2"
_cell_formula_units_Z 48
_cell_length_a 30.918068
_cell_length_b 9.206720
_cell_length_c 9.213362
_cell_angle_alpha 90.000000
_cell_angle_beta 90.000000
_cell_angle_gamma 90.000000
_cell_volume 2622.620301
_symmetry_space_group_name_H-M "P M M M"
_symmetry_group_IT_number 47
_symmetry_cell_setting 'orthorhombic'
loop_
_space_group_symop_operation_xyz
x,y,z
-x,-y,z
x,-y,-z
-x,y,-z
-x,-y,-z
x,y,-z
-x,y,z
x,-y,z
loop_
_atom_site_type_symbol
_atom_site_label
_atom_site_fract_x
_atom_site_fract_y
_atom_site_fract_z
Si Si1 0.000000 0.336008 0.827182
Si Si2 0.500000 0.664049 0.327739
Si Si3 0.746752 0.330801 0.333937
Si Si4 0.916338 0.167969 0.169956
Si Si5 0.168412 0.168925 0.668060
Si Si6 0.660520 0.332392 0.829112
Si Si7 0.584973 0.170197 0.330724
O O1 0.957306 0.255793 0.767975
O O2 0.000000 0.500000 0.768780
O O3 0.000000 0.329702 0.000000
O O4 0.500000 0.500000 0.265103
O O5 0.500000 0.661896 0.500000
O O6 0.457736 0.748630 0.272124
O O7 0.736728 0.285833 0.500000
O O8 0.756307 0.500000 0.320441
O O9 0.788919 0.249068 0.273712
O O10 0.706432 0.283928 0.235762
O O11 0.873288 0.228097 0.246689
O O12 0.924212 0.000000 0.207890
O O13 0.910406 0.193062 0.000000
O O14 0.160910 0.203732 0.500000
O O15 0.175224 0.000000 0.698578
O O16 0.650472 0.500000 0.789168
O O17 0.624907 0.229314 0.759888
O O18 0.661593 0.307642 0.000000
O O19 0.592983 0.203216 0.500000
O O20 0.579079 0.000000 0.302248
#
# Coordination Sequence:
#
# PCOD8198313 Si02
#       7
#     4   4   8   8   8   8   8
#     4   9  17  29  46  69  94 120 154 195 234 274
#     4   9  17  31  54  81 106 135 172 212 252 297
#     4   9  18  33  52  72  96 129 166 203 246 296
#     4   9  17  30  48  68  91 122 158 193 232 281
#     4   9  18  32  49  70  96 124 156 196 241 289
#     4  10  21  36  53  75 104 137 173 212 254 302
#     4  10  20  34  54  80 108 137 171 212 256 301
#
# _framework density 18.302306000000002
#
# number of rings (size 3 to 8) (size 9 to 14) (size 15 to 20)
#    0.000    2.667    0.000    1.500    0.000    6.000 
#    0.000    2.500    0.000    5.000    0.000    0.000 
#    0.000    0.000    0.000    0.000    0.000    0.000 
#
# Total GULP energy -595298.604038 kJ/mol
# GULP energy per Si atom -12402.054251 kJ/mol
# Density = 1.826065 g / cm^3
# Si number density = 18.302306 Si / 1000 Ang^3
#
#
#
# Elastic Constant Matrix: (Units=GPa)
#
#
# Indices 1 2 3 4 5 6 
#
# 1 188.4514 85.4944 58.7284 0.0000 0.0000 0.0000
# 2 85.4944 91.5411 39.1762 0.0000 0.0000 0.0000
# 3 58.7284 39.1762 51.4257 0.0000 0.0000 0.0000
# 4 0.0000 0.0000 0.0000 20.0019 0.0000 0.0000
# 5 0.0000 0.0000 0.0000 0.0000 -29.6378 0.0000
# 6 0.0000 0.0000 0.0000 0.0000 0.0000 40.5255
#
#
#
# Elastic Compliance Matrix: (Units=1/GPa)
#
#
# Indices 1 2 3 4 5 6 
#
# 1 0.010586 -0.006993 -0.006762 0.000000 0.000000 0.000000
# 2 -0.006993 0.020828 -0.007881 0.000000 0.000000 0.000000
# 3 -0.006762 -0.007881 0.033172 0.000000 0.000000 0.000000
# 4 0.000000 0.000000 0.000000 0.049995 0.000000 0.000000
# 5 0.000000 0.000000 0.000000 0.000000 -0.033741 0.000000
# 6 0.000000 0.000000 0.000000 0.000000 0.000000 0.024676
#
#
# Mechanical properties :
#
#
# Convention : Reuss Voigt Hill
#
# Bulk Modulus (GPa) = 46.91793 77.57959 62.24876
# Shear Modulus (GPa) = 32.07342 16.04586 24.05964
#
# Velocity S-wave (km/s) = 4.19074 2.96414 3.62963
# Velocity P-wave (km/s) = 7.00764 7.36171 7.18686
#
# Compressibility (1/GPa) = 0.02131381
#
# Stress axis : x y z
#
# Youngs Moduli (GPa) = 94.46158 48.01288 30.14634
#
# Poissons Ratio (x) = 0.33576 0.20386
# Poissons Ratio (y) = 0.66057 0.23757
# Poissons Ratio (z) = 0.63878 0.37837
#
# Static dielectric constant tensor:
#      x y z
#    x 3.592260 0.000000 0.000000 
#    y 0.000000 3.382880 0.000000 
#    z 0.000000 0.000000 3.141620 
# 
# 
# High freq. dielectric constant tensor:
#      x y z
#    x 1.723840 0.000000 0.000000 
#    y 0.000000 1.707890 0.000000 
#    z 0.000000 0.000000 1.682930 
# 
# From -- ./inp_files/13819.got.cif
#   From: 2010.03.12/outbox.cif.g09.slc.cpg/sg47_7_cif.got.tgz:13819.got - 2010.04.14 03:12:58.
