data_PCOD8198765
_publ_section_title
;
Structure prediction by ZEFSAII (Michael W. Deem and Ramdas Pophale) SiO2 
 PCOD8198765
Probable space group: P M M M
;
_chemical_formula_sum "Si O2"
_cell_formula_units_Z 48
_cell_length_a 9.028676
_cell_length_b 30.960872
_cell_length_c 9.087622
_cell_angle_alpha 90.000000
_cell_angle_beta 90.000000
_cell_angle_gamma 90.000000
_cell_volume 2540.314613
_symmetry_space_group_name_H-M "P M M M"
_symmetry_group_IT_number 47
_symmetry_cell_setting 'orthorhombic'
loop_
_space_group_symop_operation_xyz
x,y,z
-x,-y,z
x,-y,-z
-x,y,-z
-x,-y,-z
x,y,-z
-x,y,z
x,-y,z
loop_
_atom_site_type_symbol
_atom_site_label
_atom_site_fract_x
_atom_site_fract_y
_atom_site_fract_z
Si Si1 0.676446 0.500000 0.166007
Si Si2 0.666755 0.000000 0.825281
Si Si3 0.673589 0.415913 0.669641
Si Si4 0.672049 0.835186 0.327573
Si Si5 0.172952 0.670248 0.667922
Si Si6 0.825934 0.913849 0.170778
Si Si7 0.828512 0.242873 0.172929
O O1 0.500000 0.500000 0.176326
O O2 0.738964 0.542901 0.244266
O O3 0.734078 0.500000 0.000000
O O4 0.751026 0.042470 0.768490
O O5 0.500000 0.000000 0.762269
O O6 0.666858 0.000000 0.000000
O O7 0.714818 0.422694 0.500000
O O8 0.500000 0.411554 0.694972
O O9 0.746787 0.372198 0.730881
O O10 0.702033 0.831017 0.500000
O O11 0.500000 0.842772 0.292058
O O12 0.765442 0.874734 0.265682
O O13 0.725085 0.791718 0.250581
O O14 0.221951 0.679794 0.500000
O O15 0.220571 0.710421 0.768218
O O16 0.000000 0.661509 0.678472
O O17 0.000000 0.918166 0.194257
O O18 0.786825 0.905640 0.000000
O O19 0.000000 0.233392 0.211988
O O20 0.801015 0.240963 0.000000
#
# Coordination Sequence:
#
# PCOD8198765 Si02
#       7
#     4   4   8   8   8   8   8
#     4   9  17  29  46  69  96 126 162 205 252 300
#     4   9  17  31  54  83 114 147 180 218 266 315
#     4   9  17  30  49  71  95 126 165 206 247 296
#     4  11  24  39  55  78 108 141 178 221 267 313
#     4   9  18  33  52  74 102 135 168 205 253 307
#     4  10  20  35  57  84 112 143 181 222 264 315
#     4  10  21  37  57  80 105 136 174 214 259 314
#
# _framework density 18.895295999999998
#
# number of rings (size 3 to 8) (size 9 to 14) (size 15 to 20)
#    0.000    2.333    0.000    2.500    0.000    8.667 
#    0.000    2.500    0.000    5.000    0.000    0.000 
#    0.000    0.000    0.000    0.000    0.000    0.000 
#
# Total GULP energy -595330.740550 kJ/mol
# GULP energy per Si atom -12402.723761 kJ/mol
# Density = 1.885229 g / cm^3
# Si number density = 18.895296 Si / 1000 Ang^3
#
#
#
# Elastic Constant Matrix: (Units=GPa)
#
#
# Indices 1 2 3 4 5 6 
#
# 1 63.6365 54.1359 38.4141 0.0000 0.0000 0.0000
# 2 54.1359 162.1674 60.3693 0.0000 0.0000 0.0000
# 3 38.4141 60.3693 78.0860 0.0000 0.0000 0.0000
# 4 0.0000 0.0000 0.0000 38.5619 0.0000 0.0000
# 5 0.0000 0.0000 0.0000 0.0000 22.7967 0.0000
# 6 0.0000 0.0000 0.0000 0.0000 0.0000 33.7085
#
#
#
# Elastic Compliance Matrix: (Units=1/GPa)
#
#
# Indices 1 2 3 4 5 6 
#
# 1 0.025273 -0.005347 -0.008299 0.000000 0.000000 0.000000
# 2 -0.005347 0.009790 -0.004938 0.000000 0.000000 0.000000
# 3 -0.008299 -0.004938 0.020707 0.000000 0.000000 0.000000
# 4 0.000000 0.000000 0.000000 0.025932 0.000000 0.000000
# 5 0.000000 0.000000 0.000000 0.000000 0.043866 0.000000
# 6 0.000000 0.000000 0.000000 0.000000 0.000000 0.029666
#
#
# Mechanical properties :
#
#
# Convention : Reuss Voigt Hill
#
# Bulk Modulus (GPa) = 53.76074 67.74760 60.75417
# Shear Modulus (GPa) = 25.17595 29.07813 27.12704
#
# Velocity S-wave (km/s) = 3.65416 3.92715 3.79311
# Velocity P-wave (km/s) = 6.80569 7.51634 7.16983
#
# Compressibility (1/GPa) = 0.01860094
#
# Stress axis : x y z
#
# Youngs Moduli (GPa) = 39.56811 102.14683 48.29397
#
# Poissons Ratio (x) = 0.54622 0.40078
# Poissons Ratio (y) = 0.21159 0.23847
# Poissons Ratio (z) = 0.32836 0.50440
#
# Static dielectric constant tensor:
#      x y z
#    x 3.403380 0.000000 0.000000 
#    y 0.000000 3.735610 0.000000 
#    z 0.000000 0.000000 3.397020 
# 
# 
# High freq. dielectric constant tensor:
#      x y z
#    x 1.725040 0.000000 0.000000 
#    y 0.000000 1.751590 0.000000 
#    z 0.000000 0.000000 1.722550 
# 
# From -- ./inp_files/2568.got.cif
#   From: 2010.03.12/outbox.cif.g09.slc.cpg/sg47_2_cif.got.tgz:2568.got - 2010.04.14 03:12:58.
