data_PCOD8198586
_publ_section_title
;
Structure prediction by ZEFSAII (Michael W. Deem and Ramdas Pophale) SiO2 
 PCOD8198586
Probable space group: P M M M
;
_chemical_formula_sum "Si O2"
_cell_formula_units_Z 48
_cell_length_a 8.910434
_cell_length_b 13.268855
_cell_length_c 20.953989
_cell_angle_alpha 90.000000
_cell_angle_beta 90.000000
_cell_angle_gamma 90.000000
_cell_volume 2477.416453
_symmetry_space_group_name_H-M "P M M M"
_symmetry_group_IT_number 47
_symmetry_cell_setting 'orthorhombic'
loop_
_space_group_symop_operation_xyz
x,y,z
-x,-y,z
x,-y,-z
-x,y,-z
-x,-y,-z
x,y,-z
-x,y,z
x,-y,z
loop_
_atom_site_type_symbol
_atom_site_label
_atom_site_fract_x
_atom_site_fract_y
_atom_site_fract_z
Si Si1 0.331272 0.380969 0.626313
Si Si2 0.822661 0.295293 0.250253
Si Si3 0.330641 0.380453 0.873110
Si Si4 0.324528 0.114845 0.695778
Si Si5 0.829920 0.119252 0.570126
Si Si6 0.829715 0.379491 0.500000
Si Si7 0.830254 0.379920 0.000000
O O1 0.500000 0.336840 0.631208
O O2 0.337514 0.500000 0.618283
O O3 0.241960 0.356703 0.690287
O O4 0.248775 0.334961 0.563822
O O5 0.769281 0.345549 0.185490
O O6 0.762564 0.180334 0.251695
O O7 0.000000 0.297752 0.253004
O O8 0.500000 0.338130 0.867243
O O9 0.333043 0.500000 0.874191
O O10 0.256202 0.338440 0.937883
O O11 0.500000 0.125247 0.706555
O O12 0.281637 0.159324 0.625456
O O13 0.269870 0.000000 0.702836
O O14 0.792542 0.166966 0.500000
O O15 0.000000 0.146055 0.590179
O O16 0.809875 0.000000 0.564368
O O17 0.821770 0.500000 0.500000
O O18 0.000000 0.340998 0.500000
O O19 0.831343 0.500000 0.000000
O O20 0.000000 0.337987 0.000000
#
# Coordination Sequence:
#
# PCOD8198586 Si02
#       7
#     8   8   8   8   8   4   4
#     4  10  20  35  54  75 102 136 174 218 267 318
#     4  12  24  36  53  78 107 140 179 224 270 320
#     4  10  20  35  56  83 117 153 185 218 259 310
#     4  10  21  37  55  74  99 132 173 222 274 329
#     4   8  14  27  48  71  94 121 155 201 261 324
#     4   9  17  31  51  73  98 131 172 217 265 317
#     4   9  17  31  53  83 118 153 186 217 253 303
#
# _framework density 19.375022000000001
#
# number of rings (size 3 to 8) (size 9 to 14) (size 15 to 20)
#    0.000    2.167    0.000    4.500    0.000    7.333 
#    1.500    1.667    0.000    0.000    0.000    0.583 
#    0.000    4.667    0.000    0.000    0.000    0.000 
#
# Total GULP energy -595281.077137 kJ/mol
# GULP energy per Si atom -12401.689107 kJ/mol
# Density = 1.933092 g / cm^3
# Si number density = 19.375022 Si / 1000 Ang^3
#
#
#
# Elastic Constant Matrix: (Units=GPa)
#
#
# Indices 1 2 3 4 5 6 
#
# 1 159.1653 15.5221 65.6561 0.0000 0.0000 0.0000
# 2 15.5221 15.3815 16.6029 0.0000 0.0000 0.0000
# 3 65.6561 16.6029 137.7474 0.0000 0.0000 0.0000
# 4 0.0000 0.0000 0.0000 18.0837 0.0000 0.0000
# 5 0.0000 0.0000 0.0000 0.0000 34.4439 0.0000
# 6 0.0000 0.0000 0.0000 0.0000 0.0000 23.3224
#
#
#
# Elastic Compliance Matrix: (Units=1/GPa)
#
#
# Indices 1 2 3 4 5 6 
#
# 1 0.008094 -0.004603 -0.003303 0.000000 0.000000 0.000000
# 2 -0.004603 0.077354 -0.007130 0.000000 0.000000 0.000000
# 3 -0.003303 -0.007130 0.009694 0.000000 0.000000 0.000000
# 4 0.000000 0.000000 0.000000 0.055299 0.000000 0.000000
# 5 0.000000 0.000000 0.000000 0.000000 0.029033 0.000000
# 6 0.000000 0.000000 0.000000 0.000000 0.000000 0.042877
#
#
# Mechanical properties :
#
#
# Convention : Reuss Voigt Hill
#
# Bulk Modulus (GPa) = 15.36801 56.42846 35.89824
# Shear Modulus (GPa) = 18.24076 29.47088 23.85582
#
# Velocity S-wave (km/s) = 3.07165 3.90433 3.51275
# Velocity P-wave (km/s) = 4.53091 7.03652 5.91784
#
# Compressibility (1/GPa) = 0.06507023
#
# Stress axis : x y z
#
# Youngs Moduli (GPa) = 123.54448 12.92761 103.16175
#
# Poissons Ratio (x) = 0.05950 0.34077
# Poissons Ratio (y) = 0.56863 0.73552
# Poissons Ratio (z) = 0.40810 0.09217
#
# Static dielectric constant tensor:
#      x y z
#    x 3.714650 0.000000 0.000000 
#    y 0.000000 3.493000 0.000000 
#    z 0.000000 0.000000 3.615730 
# 
# 
# High freq. dielectric constant tensor:
#      x y z
#    x 1.767330 0.000000 0.000000 
#    y 0.000000 1.743950 0.000000 
#    z 0.000000 0.000000 1.740670 
# 
# From -- ./inp_files/21093.got.cif
#   From: 2010.03.12/outbox.cif.g09.slc.cpg/sg47_11_cif.got.tgz:21093.got - 2010.04.14 03:12:58.
