data_PCOD8198572
_publ_section_title
;
Structure prediction by ZEFSAII (Michael W. Deem and Ramdas Pophale) SiO2 
 PCOD8198572
Probable space group: P M M M
;
_chemical_formula_sum "Si O2"
_cell_formula_units_Z 52
_cell_length_a 28.576361
_cell_length_b 7.515637
_cell_length_c 13.361688
_cell_angle_alpha 90.000000
_cell_angle_beta 90.000000
_cell_angle_gamma 90.000000
_cell_volume 2869.683800
_symmetry_space_group_name_H-M "P M M M"
_symmetry_group_IT_number 47
_symmetry_cell_setting 'orthorhombic'
loop_
_space_group_symop_operation_xyz
x,y,z
-x,-y,z
x,-y,-z
-x,y,-z
-x,-y,-z
x,y,-z
-x,y,z
x,-y,z
loop_
_atom_site_type_symbol
_atom_site_label
_atom_site_fract_x
_atom_site_fract_y
_atom_site_fract_z
Si Si1 0.090542 0.211246 0.237134
Si Si2 0.230105 0.500000 0.383230
Si Si3 0.549866 0.708840 0.884955
Si Si4 0.734330 0.789811 0.758635
Si Si5 0.350339 0.201255 0.888317
Si Si6 0.822081 0.791197 0.890489
Si Si7 0.000000 0.790416 0.887341
Si Si8 0.880395 0.500000 0.382872
O O1 0.134246 0.278758 0.172222
O O2 0.045083 0.270778 0.175062
O O3 0.094527 0.322440 0.339669
O O4 0.091037 0.000000 0.261474
O O5 0.239935 0.500000 0.500000
O O6 0.254945 0.677710 0.340715
O O7 0.174960 0.500000 0.359277
O O8 0.500000 0.775814 0.836479
O O9 0.553063 0.500000 0.872199
O O10 0.597459 0.790032 0.838974
O O11 0.548752 0.766471 0.000000
O O12 0.686261 0.717099 0.809285
O O13 0.773986 0.740241 0.838087
O O14 0.733263 0.000000 0.731221
O O15 0.334482 0.000000 0.902820
O O16 0.349127 0.292869 0.000000
O O17 0.827275 0.000000 0.901425
O O18 0.822538 0.701626 0.000000
O O19 0.000000 0.000000 0.898891
O O20 0.000000 0.707200 0.000000
O O21 0.890100 0.500000 0.500000
#
# Coordination Sequence:
#
# PCOD8198572 Si02
#       8
#     8   4   8   8   8   8   4   4
#     4  10  20  37  58  82 110 141 176 214 258 309
#     4  11  24  40  57  77  99 130 177 223 263 313
#     4   8  14  24  37  57  91 137 182 214 240 279
#     4  10  20  35  53  77 106 133 167 211 262 314
#     4   9  17  28  44  69 102 138 171 206 250 301
#     4   9  16  29  51  76 106 140 167 199 246 302
#     4   9  18  35  61  88 115 147 176 208 254 308
#     4  11  24  41  59  80 105 134 179 230 268 309
#
# _framework density 18.120463000000001
#
# number of rings (size 3 to 8) (size 9 to 14) (size 15 to 20)
#    0.000    2.538    1.538    1.385    1.077    4.923 
#    0.000    7.692    0.000    1.385    0.000    0.000 
#    0.000    1.231    0.000    3.385    0.000    0.154 
#
# Total GULP energy -644299.733836 kJ/mol
# GULP energy per Si atom -12390.379497 kJ/mol
# Density = 1.807922 g / cm^3
# Si number density = 18.120463 Si / 1000 Ang^3
#
#
#
# Elastic Constant Matrix: (Units=GPa)
#
#
# Indices 1 2 3 4 5 6 
#
# 1 153.3650 32.2182 63.2340 0.0000 0.0000 0.0000
# 2 32.2182 65.0532 42.4618 0.0000 0.0000 0.0000
# 3 63.2340 42.4618 113.8330 0.0000 0.0000 0.0000
# 4 0.0000 0.0000 0.0000 21.2214 0.0000 0.0000
# 5 0.0000 0.0000 0.0000 0.0000 24.8662 0.0000
# 6 0.0000 0.0000 0.0000 0.0000 0.0000 14.8924
#
#
#
# Elastic Compliance Matrix: (Units=1/GPa)
#
#
# Indices 1 2 3 4 5 6 
#
# 1 0.008567 -0.001502 -0.004199 0.000000 0.000000 0.000000
# 2 -0.001502 0.020583 -0.006843 0.000000 0.000000 0.000000
# 3 -0.004199 -0.006843 0.013670 0.000000 0.000000 0.000000
# 4 0.000000 0.000000 0.000000 0.047122 0.000000 0.000000
# 5 0.000000 0.000000 0.000000 0.000000 0.040215 0.000000
# 6 0.000000 0.000000 0.000000 0.000000 0.000000 0.067148
#
#
# Mechanical properties :
#
#
# Convention : Reuss Voigt Hill
#
# Bulk Modulus (GPa) = 56.39744 67.56437 61.98090
# Shear Modulus (GPa) = 21.90061 25.15183 23.52622
#
# Velocity S-wave (km/s) = 3.48028 3.72968 3.60713
# Velocity P-wave (km/s) = 6.88048 7.47760 7.18524
#
# Compressibility (1/GPa) = 0.01773130
#
# Stress axis : x y z
#
# Youngs Moduli (GPa) = 116.72508 48.58417 73.15425
#
# Poissons Ratio (x) = 0.07299 0.30714
# Poissons Ratio (y) = 0.17537 0.50061
# Poissons Ratio (z) = 0.49008 0.33247
#
# Static dielectric constant tensor:
#      x y z
#    x 3.693040 0.000000 0.000000 
#    y 0.000000 3.178150 0.000000 
#    z 0.000000 0.000000 3.068820 
# 
# 
# High freq. dielectric constant tensor:
#      x y z
#    x 1.717120 0.000000 0.000000 
#    y 0.000000 1.696880 0.000000 
#    z 0.000000 0.000000 1.651040 
# 
# From -- ./inp_files/19854.got.cif
#   From: 2010.03.12/outbox.cif.g09.slc.cpg/sg47_10_cif.got.tgz:19854.got - 2010.04.14 03:12:58.
