data_PCOD8198992
_publ_section_title
;
Structure prediction by ZEFSAII (Michael W. Deem and Ramdas Pophale) SiO2 
 PCOD8198992
Probable space group: P M M M
;
_chemical_formula_sum "Si O2"
_cell_formula_units_Z 48
_cell_length_a 9.216398
_cell_length_b 33.994497
_cell_length_c 7.787570
_cell_angle_alpha 90.000000
_cell_angle_beta 90.000000
_cell_angle_gamma 90.000000
_cell_volume 2439.898747
_symmetry_space_group_name_H-M "P M M M"
_symmetry_group_IT_number 47
_symmetry_cell_setting 'orthorhombic'
loop_
_space_group_symop_operation_xyz
x,y,z
-x,-y,z
x,-y,-z
-x,y,-z
-x,-y,-z
x,y,-z
-x,y,z
x,-y,z
loop_
_atom_site_type_symbol
_atom_site_label
_atom_site_fract_x
_atom_site_fract_y
_atom_site_fract_z
Si Si1 0.173253 0.798116 0.500000
Si Si2 0.161139 0.582657 0.800399
Si Si3 0.162556 0.500000 0.299106
Si Si4 0.331354 0.158903 0.193261
Si Si5 0.331482 0.342240 0.196751
Si Si6 0.669117 0.716561 0.500000
Si Si7 0.829660 0.000000 0.195485
Si Si8 0.661315 0.074705 0.695118
O O1 0.230803 0.818511 0.672815
O O2 0.226799 0.753647 0.500000
O O3 0.000000 0.799881 0.500000
O O4 0.239193 0.540453 0.763389
O O5 0.253561 0.618896 0.727628
O O6 0.000000 0.583151 0.715419
O O7 0.148640 0.589358 0.000000
O O8 0.160372 0.500000 0.500000
O O9 0.000000 0.500000 0.219708
O O10 0.500000 0.165111 0.244224
O O11 0.292975 0.112442 0.193111
O O12 0.301663 0.174686 0.000000
O O13 0.500000 0.352035 0.202531
O O14 0.293036 0.307000 0.325844
O O15 0.284654 0.331374 0.000000
O O16 0.500000 0.729070 0.500000
O O17 0.771177 0.039029 0.284176
O O18 0.000000 0.000000 0.217867
O O19 0.778828 0.000000 0.000000
O O20 0.664557 0.089323 0.500000
O O21 0.500000 0.060155 0.747027
#
# Coordination Sequence:
#
# PCOD8198992 Si02
#       8
#     4   8   4   8   8   4   4   8
#     4  12  26  42  62  93 130 159 188 240 304 364
#     4   9  17  30  49  72 101 139 180 222 268 322
#     4   9  17  27  42  69 102 138 179 220 262 317
#     4  10  21  41  69  94 120 160 207 251 295 353
#     4   9  19  36  57  81 108 140 180 228 282 334
#     4  10  22  40  62  83 110 147 189 232 278 344
#     4  11  24  37  50  78 122 165 204 246 297 355
#     4  10  20  37  62  88 115 151 202 255 296 342
#
# _framework density 19.672947000000001
#
# number of rings (size 3 to 8) (size 9 to 14) (size 15 to 20)
#    0.000    2.167    0.833    2.000    1.167    6.000 
#    0.000    2.083    0.000    2.500    0.000    0.000 
#    0.000    0.000    0.000    0.000    0.000    0.000 
#
# Total GULP energy -595044.917095 kJ/mol
# GULP energy per Si atom -12396.769106 kJ/mol
# Density = 1.962817 g / cm^3
# Si number density = 19.672947 Si / 1000 Ang^3
#
#
#
# Elastic Constant Matrix: (Units=GPa)
#
#
# Indices 1 2 3 4 5 6 
#
# 1 80.2963 64.9231 45.7051 0.0000 0.0000 0.0000
# 2 64.9231 134.8011 55.0880 0.0000 0.0000 0.0000
# 3 45.7051 55.0880 101.2297 0.0000 0.0000 0.0000
# 4 0.0000 0.0000 0.0000 11.1529 0.0000 0.0000
# 5 0.0000 0.0000 0.0000 0.0000 20.7624 0.0000
# 6 0.0000 0.0000 0.0000 0.0000 0.0000 -663.0992
#
#
#
# Elastic Compliance Matrix: (Units=1/GPa)
#
#
# Indices 1 2 3 4 5 6 
#
# 1 0.022544 -0.008614 -0.005491 0.000000 0.000000 0.000000
# 2 -0.008614 0.012831 -0.003093 0.000000 0.000000 0.000000
# 3 -0.005491 -0.003093 0.014041 0.000000 0.000000 0.000000
# 4 0.000000 0.000000 0.000000 0.089663 0.000000 0.000000
# 5 0.000000 0.000000 0.000000 0.000000 0.048164 0.000000
# 6 0.000000 0.000000 0.000000 0.000000 0.000000 -0.001508
#
#
# Mechanical properties :
#
#
# Convention : Reuss Voigt Hill
#
# Bulk Modulus (GPa) = 66.57906 71.97326 69.27616
# Shear Modulus (GPa) = 22.20862 -116.19604 -46.99371
#
# Velocity S-wave (km/s) = 3.36354 -7.69364 -4.89278
# Velocity P-wave (km/s) = 7.00007 6.50065 1.83610
#
# Compressibility (1/GPa) = 0.01501974
#
# Stress axis : x y z
#
# Youngs Moduli (GPa) = 44.35780 77.93613 71.21910
#
# Poissons Ratio (x) = 0.67131 0.39107
# Poissons Ratio (y) = 0.38208 0.22031
# Poissons Ratio (z) = 0.24357 0.24109
#
# Static dielectric constant tensor:
#      x y z
#    x 3.525750 0.000000 0.000000 
#    y 0.000000 3.647960 0.000000 
#    z 0.000000 0.000000 3.759050 
# 
# 
# High freq. dielectric constant tensor:
#      x y z
#    x 1.738900 0.000000 0.000000 
#    y 0.000000 1.769300 0.000000 
#    z 0.000000 0.000000 1.776500 
# 
# From -- ./inp_files/2860.got.cif
#   From: 2010.03.12/outbox.cif.g09.slc.cpg/sg47_2_cif.got.tgz:2860.got - 2010.04.14 03:12:58.
