data_PCOD8198282
_publ_section_title
;
Structure prediction by ZEFSAII (Michael W. Deem and Ramdas Pophale) SiO2 
 PCOD8198282
Probable space group: P M M M
;
_chemical_formula_sum "Si O2"
_cell_formula_units_Z 40
_cell_length_a 13.180601
_cell_length_b 19.587569
_cell_length_c 8.167473
_cell_angle_alpha 90.000000
_cell_angle_beta 90.000000
_cell_angle_gamma 90.000000
_cell_volume 2108.644950
_symmetry_space_group_name_H-M "P M M M"
_symmetry_group_IT_number 47
_symmetry_cell_setting 'orthorhombic'
loop_
_space_group_symop_operation_xyz
x,y,z
-x,-y,z
x,-y,-z
-x,y,-z
-x,-y,-z
x,y,-z
-x,y,z
x,-y,z
loop_
_atom_site_type_symbol
_atom_site_label
_atom_site_fract_x
_atom_site_fract_y
_atom_site_fract_z
Si Si1 0.882600 0.820369 0.813919
Si Si2 0.500000 0.420028 0.310770
Si Si3 0.885285 0.676320 0.310881
Si Si4 0.266975 0.921268 0.317085
Si Si5 0.714749 0.421648 0.809387
Si Si6 0.611095 0.080866 0.000000
O O1 0.845168 0.742901 0.785577
O O2 0.832215 0.874464 0.691516
O O3 0.000000 0.823512 0.772255
O O4 0.858387 0.841799 0.000000
O O5 0.500000 0.500000 0.273987
O O6 0.500000 0.401541 0.500000
O O7 0.396252 0.389542 0.232985
O O8 0.886710 0.695538 0.500000
O O9 0.806466 0.615576 0.281906
O O10 0.000000 0.655386 0.253809
O O11 0.315901 0.912950 0.500000
O O12 0.338633 0.894337 0.170207
O O13 0.236723 0.000000 0.287492
O O14 0.717924 0.500000 0.750032
O O15 0.734498 0.414666 0.000000
O O16 0.500000 0.113632 0.000000
O O17 0.606118 0.000000 0.000000
#
# Coordination Sequence:
#
# PCOD8198282 Si02
#       6
#     8   4   8   8   8   4
#     4  10  20  35  56  79 107 144 180 217 267 326
#     4   9  17  31  53  79 105 135 172 213 264 321
#     4  10  21  36  54  77 106 142 182 221 267 324
#     4  10  20  34  55  83 112 143 182 226 272 323
#     4  10  20  34  54  79 107 139 176 220 267 318
#     4   9  18  34  55  79 109 143 181 226 274 324
#
# _framework density 18.969526999999999
#
# number of rings (size 3 to 8) (size 9 to 14) (size 15 to 20)
#    0.000    2.200    1.000    2.100    0.000    6.000 
#    0.000    6.000    2.200    0.000    0.000    0.000 
#    0.000    0.000    0.000    0.000    0.000    0.000 
#
# Total GULP energy -495848.911344 kJ/mol
# GULP energy per Si atom -12396.222784 kJ/mol
# Density = 1.892635 g / cm^3
# Si number density = 18.969527 Si / 1000 Ang^3
#
#
#
# Elastic Constant Matrix: (Units=GPa)
#
#
# Indices 1 2 3 4 5 6 
#
# 1 108.8639 51.9302 45.0706 0.0000 0.0000 0.0000
# 2 51.9302 61.8432 26.4191 0.0000 0.0000 0.0000
# 3 45.0706 26.4191 98.2217 0.0000 0.0000 0.0000
# 4 0.0000 0.0000 0.0000 27.7965 0.0000 0.0000
# 5 0.0000 0.0000 0.0000 0.0000 26.6949 0.0000
# 6 0.0000 0.0000 0.0000 0.0000 0.0000 8.5107
#
#
#
# Elastic Compliance Matrix: (Units=1/GPa)
#
#
# Indices 1 2 3 4 5 6 
#
# 1 0.016883 -0.012278 -0.004444 0.000000 0.000000 0.000000
# 2 -0.012278 0.027198 -0.001682 0.000000 0.000000 0.000000
# 3 -0.004444 -0.001682 0.012673 0.000000 0.000000 0.000000
# 4 0.000000 0.000000 0.000000 0.035976 0.000000 0.000000
# 5 0.000000 0.000000 0.000000 0.000000 0.037460 0.000000
# 6 0.000000 0.000000 0.000000 0.000000 0.000000 0.117499
#
#
# Mechanical properties :
#
#
# Convention : Reuss Voigt Hill
#
# Bulk Modulus (GPa) = 50.13646 57.30763 53.72205
# Shear Modulus (GPa) = 17.17360 22.30102 19.73731
#
# Velocity S-wave (km/s) = 3.01213 3.43246 3.22914
# Velocity P-wave (km/s) = 6.21165 6.78122 6.50267
#
# Compressibility (1/GPa) = 0.01994556
#
# Stress axis : x y z
#
# Youngs Moduli (GPa) = 59.23278 36.76734 78.90919
#
# Poissons Ratio (x) = 0.45142 0.35071
# Poissons Ratio (y) = 0.72725 0.13270
# Poissons Ratio (z) = 0.26326 0.06183
#
# Static dielectric constant tensor:
#      x y z
#    x 3.559520 0.000000 0.000000 
#    y 0.000000 3.231020 0.000000 
#    z 0.000000 0.000000 3.581820 
# 
# 
# High freq. dielectric constant tensor:
#      x y z
#    x 1.732440 0.000000 0.000000 
#    y 0.000000 1.707530 0.000000 
#    z 0.000000 0.000000 1.754140 
# 
# From -- ./inp_files/4071.got.cif
#   From: 2010.03.12/outbox.cif.g09.slc.cpg/sg47_3_cif.got.tgz:4071.got - 2010.04.14 03:12:58.
