data_PCOD8198980
_publ_section_title
;
Structure prediction by ZEFSAII (Michael W. Deem and Ramdas Pophale) SiO2 
 PCOD8198980
Probable space group: P M M M
;
_chemical_formula_sum "Si O2"
_cell_formula_units_Z 64
_cell_length_a 9.387341
_cell_length_b 25.258911
_cell_length_c 14.366816
_cell_angle_alpha 90.000000
_cell_angle_beta 90.000000
_cell_angle_gamma 90.000000
_cell_volume 3406.573365
_symmetry_space_group_name_H-M "P M M M"
_symmetry_group_IT_number 47
_symmetry_cell_setting 'orthorhombic'
loop_
_space_group_symop_operation_xyz
x,y,z
-x,-y,z
x,-y,-z
-x,y,-z
-x,-y,-z
x,y,-z
-x,y,z
x,-y,z
loop_
_atom_site_type_symbol
_atom_site_label
_atom_site_fract_x
_atom_site_fract_y
_atom_site_fract_z
Si Si1 0.340725 0.437195 0.598303
Si Si2 0.164329 0.349907 0.892621
Si Si3 0.669078 0.561310 0.799997
Si Si4 0.834544 0.890306 0.602727
Si Si5 0.662281 0.785652 0.397184
Si Si6 0.664336 0.740990 0.794001
Si Si7 0.833338 0.059554 0.791559
Si Si8 0.335031 0.849697 0.892339
O O1 0.262783 0.419673 0.500000
O O2 0.500000 0.414073 0.594580
O O3 0.348895 0.500000 0.602200
O O4 0.272942 0.419492 0.697068
O O5 0.245991 0.405015 0.875669
O O6 0.234563 0.303971 0.832633
O O7 0.000000 0.356193 0.863828
O O8 0.180266 0.334658 0.000000
O O9 0.500000 0.571374 0.807992
O O10 0.704234 0.500000 0.818510
O O11 0.790764 0.912260 0.500000
O O12 0.756687 0.836025 0.625756
O O13 0.794416 0.932348 0.682435
O O14 0.000000 0.876816 0.605111
O O15 0.697673 0.761976 0.500000
O O16 0.500000 0.805459 0.392533
O O17 0.687994 0.741668 0.317789
O O18 0.500000 0.728356 0.819699
O O19 0.710887 0.797323 0.836519
O O20 0.751505 0.099822 0.857510
O O21 0.000000 0.068600 0.808130
O O22 0.788135 0.000000 0.818459
O O23 0.500000 0.862195 0.875646
O O24 0.300098 0.839752 0.000000
#
# Coordination Sequence:
#
# PCOD8198980 Si02
#       8
#     8   8   8   8   8   8   8   8
#     4   7  10  20  43  76 109 137 169 211 254 297
#     4  11  25  41  56  78 108 143 183 227 275 322
#     4   9  18  34  58  86 113 145 185 224 265 316
#     4   9  17  30  50  76 106 141 178 215 259 313
#     4   9  17  31  55  85 112 137 168 210 263 321
#     4  10  20  37  61  84 107 136 173 220 269 320
#     4  10  21  35  51  75 108 144 182 223 265 316
#     4  10  21  37  57  80 103 132 175 226 280 330
#
# _framework density 18.787206999999999
#
# number of rings (size 3 to 8) (size 9 to 14) (size 15 to 20)
#    0.000    2.625    1.250    1.875    0.000    4.000 
#    0.000    4.375    0.000    4.125    0.000    4.375 
#    0.000    0.000    0.000    0.000    0.000    0.000 
#
# Total GULP energy -793106.238293 kJ/mol
# GULP energy per Si atom -12392.284973 kJ/mol
# Density = 1.874445 g / cm^3
# Si number density = 18.787207 Si / 1000 Ang^3
#
#
#
# Elastic Constant Matrix: (Units=GPa)
#
#
# Indices 1 2 3 4 5 6 
#
# 1 56.2956 45.8819 41.1215 0.0000 0.0000 0.0000
# 2 45.8819 93.6185 48.8581 0.0000 0.0000 0.0000
# 3 41.1215 48.8581 103.2015 0.0000 0.0000 0.0000
# 4 0.0000 0.0000 0.0000 25.1637 0.0000 0.0000
# 5 0.0000 0.0000 0.0000 0.0000 24.8454 0.0000
# 6 0.0000 0.0000 0.0000 0.0000 0.0000 30.1956
#
#
#
# Elastic Compliance Matrix: (Units=1/GPa)
#
#
# Indices 1 2 3 4 5 6 
#
# 1 0.033320 -0.012486 -0.007365 0.000000 0.000000 0.000000
# 2 -0.012486 0.018866 -0.003956 0.000000 0.000000 0.000000
# 3 -0.007365 -0.003956 0.014498 0.000000 0.000000 0.000000
# 4 0.000000 0.000000 0.000000 0.039740 0.000000 0.000000
# 5 0.000000 0.000000 0.000000 0.000000 0.040249 0.000000
# 6 0.000000 0.000000 0.000000 0.000000 0.000000 0.033117
#
#
# Mechanical properties :
#
#
# Convention : Reuss Voigt Hill
#
# Bulk Modulus (GPa) = 52.44472 58.31541 55.38007
# Shear Modulus (GPa) = 21.38943 23.85787 22.62365
#
# Velocity S-wave (km/s) = 3.37784 3.56743 3.47393
# Velocity P-wave (km/s) = 6.57182 6.93369 6.75518
#
# Compressibility (1/GPa) = 0.01906770
#
# Stress axis : x y z
#
# Youngs Moduli (GPa) = 30.01230 53.00635 68.97678
#
# Poissons Ratio (x) = 0.66183 0.50804
# Poissons Ratio (y) = 0.37473 0.27290
# Poissons Ratio (z) = 0.22105 0.20971
#
# Static dielectric constant tensor:
#      x y z
#    x 3.260370 0.000000 0.000000 
#    y 0.000000 3.220300 0.000000 
#    z 0.000000 0.000000 3.927580 
# 
# 
# High freq. dielectric constant tensor:
#      x y z
#    x 1.703990 0.000000 0.000000 
#    y 0.000000 1.706770 0.000000 
#    z 0.000000 0.000000 1.751490 
# 
# From -- ./inp_files/21921.got.cif
#   From: 2010.03.12/outbox.cif.g09.slc.cpg/sg47_11_cif.got.tgz:21921.got - 2010.04.14 03:12:58.
