data_PCOD8198196
_publ_section_title
;
Structure prediction by ZEFSAII (Michael W. Deem and Ramdas Pophale) SiO2 
 PCOD8198196
Probable space group: P M M M
;
_chemical_formula_sum "Si O2"
_cell_formula_units_Z 64
_cell_length_a 15.409957
_cell_length_b 8.897613
_cell_length_c 23.915255
_cell_angle_alpha 90.000000
_cell_angle_beta 90.000000
_cell_angle_gamma 90.000000
_cell_volume 3279.064467
_symmetry_space_group_name_H-M "P M M M"
_symmetry_group_IT_number 47
_symmetry_cell_setting 'orthorhombic'
loop_
_space_group_symop_operation_xyz
x,y,z
-x,-y,z
x,-y,-z
-x,y,-z
-x,-y,-z
x,y,-z
-x,y,z
x,-y,z
loop_
_atom_site_type_symbol
_atom_site_label
_atom_site_fract_x
_atom_site_fract_y
_atom_site_fract_z
Si Si1 0.597859 0.172720 0.354643
Si Si2 0.597528 0.328580 0.874341
Si Si3 0.097738 0.327622 0.133783
Si Si4 0.903913 0.178668 0.635855
Si Si5 0.746386 0.178804 0.562477
Si Si6 0.246958 0.176116 0.935833
Si Si7 0.662075 0.672368 0.753187
Si Si8 0.155449 0.822325 0.243447
O O1 0.500000 0.188084 0.377548
O O2 0.662476 0.232395 0.402711
O O3 0.607148 0.272554 0.299589
O O4 0.620204 0.000000 0.339537
O O5 0.500000 0.284770 0.892832
O O6 0.618741 0.500000 0.891153
O O7 0.664521 0.221402 0.905447
O O8 0.602813 0.309135 0.807669
O O9 0.125375 0.500000 0.141291
O O10 0.163226 0.253820 0.090404
O O11 0.100274 0.250129 0.194068
O O12 0.000000 0.312157 0.110096
O O13 0.833349 0.242478 0.592147
O O14 0.882203 0.237507 0.697864
O O15 0.000000 0.234809 0.618342
O O16 0.899700 0.000000 0.635956
O O17 0.740990 0.246405 0.500000
O O18 0.749366 0.000000 0.559819
O O19 0.234191 0.000000 0.928816
O O20 0.253388 0.225690 0.000000
O O21 0.690514 0.500000 0.744216
O O22 0.745172 0.776048 0.761797
O O23 0.147570 0.000000 0.238448
#
# Coordination Sequence:
#
# PCOD8198196 Si02
#       8
#     8   8   8   8   8   8   8   8
#     4  10  20  34  53  79 110 145 186 231 284 342
#     4  10  22  40  62  88 118 153 192 235 288 351
#     4  11  24  41  62  90 122 156 195 237 287 349
#     4   9  17  29  48  77 111 143 176 221 279 337
#     4   9  17  30  48  73 107 144 186 236 284 333
#     4  11  25  43  63  88 118 155 200 247 291 337
#     4  11  21  35  58  86 116 150 187 228 283 346
#     4  11  20  34  58  86 118 151 186 232 286 343
#
# _framework density 19.517762999999999
#
# number of rings (size 3 to 8) (size 9 to 14) (size 15 to 20)
#    0.000    1.750    2.500    2.250    0.000    5.000 
#    0.000    5.000    0.000    0.375    0.000    0.875 
#    0.000    1.000    0.000    0.000    0.000    0.000 
#
# Total GULP energy -793724.867523 kJ/mol
# GULP energy per Si atom -12401.951055 kJ/mol
# Density = 1.947334 g / cm^3
# Si number density = 19.517763 Si / 1000 Ang^3
#
#
#
# Elastic Constant Matrix: (Units=GPa)
#
#
# Indices 1 2 3 4 5 6 
#
# 1 140.2097 34.9436 60.1321 0.0000 0.0000 0.0000
# 2 34.9436 62.9218 49.6279 0.0000 0.0000 0.0000
# 3 60.1321 49.6279 139.3993 0.0000 0.0000 0.0000
# 4 0.0000 0.0000 0.0000 4.5399 0.0000 0.0000
# 5 0.0000 0.0000 0.0000 0.0000 10.7580 0.0000
# 6 0.0000 0.0000 0.0000 0.0000 0.0000 20.7393
#
#
#
# Elastic Compliance Matrix: (Units=1/GPa)
#
#
# Indices 1 2 3 4 5 6 
#
# 1 0.009073 -0.002714 -0.002947 0.000000 0.000000 0.000000
# 2 -0.002714 0.022909 -0.006985 0.000000 0.000000 0.000000
# 3 -0.002947 -0.006985 0.010932 0.000000 0.000000 0.000000
# 4 0.000000 0.000000 0.000000 0.220271 0.000000 0.000000
# 5 0.000000 0.000000 0.000000 0.000000 0.092954 0.000000
# 6 0.000000 0.000000 0.000000 0.000000 0.000000 0.048218
#
#
# Mechanical properties :
#
#
# Convention : Reuss Voigt Hill
#
# Bulk Modulus (GPa) = 56.75145 70.21535 63.48340
# Shear Modulus (GPa) = 11.48043 20.39590 15.93817
#
# Velocity S-wave (km/s) = 2.42792 3.23614 2.86072
# Velocity P-wave (km/s) = 6.08274 7.07225 6.59607
#
# Compressibility (1/GPa) = 0.01762069
#
# Stress axis : x y z
#
# Youngs Moduli (GPa) = 110.22204 43.65032 91.47480
#
# Poissons Ratio (x) = 0.11845 0.26962
# Poissons Ratio (y) = 0.29911 0.63899
# Poissons Ratio (z) = 0.32488 0.30491
#
# Static dielectric constant tensor:
#      x y z
#    x 3.678960 0.000000 0.000000 
#    y 0.000000 3.370560 0.000000 
#    z 0.000000 0.000000 3.699080 
# 
# 
# High freq. dielectric constant tensor:
#      x y z
#    x 1.775010 0.000000 0.000000 
#    y 0.000000 1.734960 0.000000 
#    z 0.000000 0.000000 1.758190 
# 
# From -- ./inp_files/7805.got.cif
#   From: 2010.03.12/outbox.cif.g09.slc.cpg/sg47_4_cif.got.tgz:7805.got - 2010.04.14 03:12:58.
