data_PCOD8198926
_publ_section_title
;
Structure prediction by ZEFSAII (Michael W. Deem and Ramdas Pophale) SiO2 
 PCOD8198926
Probable space group: P M M M
;
_chemical_formula_sum "Si O2"
_cell_formula_units_Z 56
_cell_length_a 14.814748
_cell_length_b 20.113064
_cell_length_c 9.249641
_cell_angle_alpha 90.000000
_cell_angle_beta 90.000000
_cell_angle_gamma 90.000000
_cell_volume 2756.115294
_symmetry_space_group_name_H-M "P M M M"
_symmetry_group_IT_number 47
_symmetry_cell_setting 'orthorhombic'
loop_
_space_group_symop_operation_xyz
x,y,z
-x,-y,z
x,-y,-z
-x,y,-z
-x,-y,-z
x,y,-z
-x,y,z
x,-y,z
loop_
_atom_site_type_symbol
_atom_site_label
_atom_site_fract_x
_atom_site_fract_y
_atom_site_fract_z
Si Si1 0.789210 0.629921 0.668928
Si Si2 0.897003 0.741163 0.832544
Si Si3 0.147380 0.126943 0.337191
Si Si4 0.103678 0.500000 0.328972
Si Si5 0.601085 0.189279 0.843739
Si Si6 0.899258 0.000000 0.844523
Si Si7 0.602531 0.685398 0.332854
Si Si8 0.342417 0.076007 0.339710
O O1 0.810081 0.642024 0.500000
O O2 0.831024 0.688563 0.761423
O O3 0.837815 0.562951 0.724437
O O4 0.679459 0.628489 0.694502
O O5 0.885337 0.810182 0.751079
O O6 0.000000 0.716657 0.815639
O O7 0.871331 0.750756 0.000000
O O8 0.107278 0.129023 0.500000
O O9 0.254620 0.122103 0.343846
O O10 0.115650 0.062980 0.253827
O O11 0.097533 0.500000 0.500000
O O12 0.000000 0.500000 0.266528
O O13 0.500000 0.211620 0.872223
O O14 0.641170 0.248472 0.745917
O O15 0.595358 0.116151 0.770835
O O16 0.651875 0.185384 0.000000
O O17 0.000000 0.000000 0.895959
O O18 0.844202 0.000000 0.000000
O O19 0.599323 0.704651 0.500000
O O20 0.500000 0.662791 0.284652
O O21 0.385865 0.073386 0.500000
O O22 0.324261 0.000000 0.286025
#
# Coordination Sequence:
#
# PCOD8198926 Si02
#       8
#     8   8   8   4   8   4   8   8
#     4  10  20  36  60  88 116 153 197 237 281 341
#     4  11  24  39  55  81 116 149 187 240 297 349
#     4  11  22  38  57  78 104 139 185 234 281 338
#     4   9  18  34  58  88 122 157 197 243 286 331
#     4  10  21  35  52  77 106 137 178 227 279 337
#     4  11  23  37  53  75 104 137 174 219 275 334
#     4   9  18  34  56  83 115 149 185 229 282 338
#     4  10  21  37  53  72 100 134 177 227 281 342
#
# _framework density 20.318453000000002
#
# number of rings (size 3 to 8) (size 9 to 14) (size 15 to 20)
#    0.000    1.857    0.714    3.214    0.000   10.571 
#    0.000    2.143    0.000    3.429    0.000    0.000 
#    0.000    3.429    0.000    0.000    0.000    0.000 
#
# Total GULP energy -693811.931174 kJ/mol
# GULP energy per Si atom -12389.498771 kJ/mol
# Density = 2.027221 g / cm^3
# Si number density = 20.318453 Si / 1000 Ang^3
#
#
#
# Elastic Constant Matrix: (Units=GPa)
#
#
# Indices 1 2 3 4 5 6 
#
# 1 104.4953 55.8208 40.6485 0.0000 0.0000 0.0000
# 2 55.8208 115.5114 50.1355 0.0000 0.0000 0.0000
# 3 40.6485 50.1355 113.9969 0.0000 0.0000 0.0000
# 4 0.0000 0.0000 0.0000 77.8533 0.0000 0.0000
# 5 0.0000 0.0000 0.0000 0.0000 205.2174 0.0000
# 6 0.0000 0.0000 0.0000 0.0000 0.0000 34.8026
#
#
#
# Elastic Compliance Matrix: (Units=1/GPa)
#
#
# Indices 1 2 3 4 5 6 
#
# 1 0.013405 -0.005442 -0.002387 0.000000 0.000000 0.000000
# 2 -0.005442 0.012909 -0.003737 0.000000 0.000000 0.000000
# 3 -0.002387 -0.003737 0.011267 0.000000 0.000000 0.000000
# 4 0.000000 0.000000 0.000000 0.012845 0.000000 0.000000
# 5 0.000000 0.000000 0.000000 0.000000 0.004873 0.000000
# 6 0.000000 0.000000 0.000000 0.000000 0.000000 0.028734
#
#
# Mechanical properties :
#
#
# Convention : Reuss Voigt Hill
#
# Bulk Modulus (GPa) = 69.20513 69.69033 69.44773
# Shear Modulus (GPa) = 44.65087 76.06790 60.35939
#
# Velocity S-wave (km/s) = 4.69289 6.12528 5.45630
# Velocity P-wave (km/s) = 7.96859 9.18689 8.59935
#
# Compressibility (1/GPa) = 0.01444979
#
# Stress axis : x y z
#
# Youngs Moduli (GPa) = 74.59669 77.46518 88.75825
#
# Poissons Ratio (x) = 0.42159 0.21182
# Poissons Ratio (y) = 0.40598 0.33167
# Poissons Ratio (z) = 0.17803 0.28947
#
# Static dielectric constant tensor:
#      x y z
#    x 3.934850 0.000000 0.000000 
#    y 0.000000 6.364410 0.000000 
#    z 0.000000 0.000000 3.919810 
# 
# 
# High freq. dielectric constant tensor:
#      x y z
#    x 1.798120 0.000000 0.000000 
#    y 0.000000 1.774430 0.000000 
#    z 0.000000 0.000000 1.793700 
# 
# From -- ./inp_files/7391.got.cif
#   From: 2010.03.12/outbox.cif.g09.slc.cpg/sg47_4_cif.got.tgz:7391.got - 2010.04.14 03:12:58.
