data_PCOD8198892
_publ_section_title
;
Structure prediction by ZEFSAII (Michael W. Deem and Ramdas Pophale) SiO2 
 PCOD8198892
Probable space group: P M M M
;
_chemical_formula_sum "Si O2"
_cell_formula_units_Z 40
_cell_length_a 13.222934
_cell_length_b 15.040750
_cell_length_c 10.111932
_cell_angle_alpha 90.000000
_cell_angle_beta 90.000000
_cell_angle_gamma 90.000000
_cell_volume 2011.089800
_symmetry_space_group_name_H-M "P M M M"
_symmetry_group_IT_number 47
_symmetry_cell_setting 'orthorhombic'
loop_
_space_group_symop_operation_xyz
x,y,z
-x,-y,z
x,-y,-z
-x,y,-z
-x,-y,-z
x,y,-z
-x,y,z
x,-y,z
loop_
_atom_site_type_symbol
_atom_site_label
_atom_site_fract_x
_atom_site_fract_y
_atom_site_fract_z
Si Si1 0.119761 0.098848 0.500000
Si Si2 0.379537 0.500000 0.842087
Si Si3 0.117591 0.233238 0.274407
Si Si4 0.768794 0.096722 0.144807
Si Si5 0.383434 0.159707 0.646668
Si Si6 0.295465 0.650902 0.652250
O O1 0.154695 0.155837 0.374955
O O2 0.000000 0.092325 0.500000
O O3 0.167539 0.000000 0.500000
O O4 0.500000 0.500000 0.827691
O O5 0.333300 0.583334 0.763908
O O6 0.349796 0.500000 0.000000
O O7 0.151562 0.180491 0.143183
O O8 0.179916 0.322216 0.307808
O O9 0.000000 0.258443 0.278483
O O10 0.676220 0.105469 0.244592
O O11 0.822338 0.000000 0.170710
O O12 0.719987 0.097468 0.000000
O O13 0.345837 0.130916 0.500000
O O14 0.500000 0.137029 0.664611
O O15 0.368533 0.265226 0.663956
O O16 0.296612 0.613151 0.500000
#
# Coordination Sequence:
#
# PCOD8198892 Si02
#       6
#     4   4   8   8   8   8
#     4   9  16  28  52  85 115 148 194 243 287 326
#     4  11  25  43  64  91 120 150 189 239 294 355
#     4  10  20  36  58  85 117 154 196 242 291 342
#     4  10  22  36  50  76 114 156 201 245 291 346
#     4   9  19  36  58  83 110 144 189 242 300 358
#     4  10  20  37  62  90 118 148 187 239 294 354
#
# _framework density 19.889711999999999
#
# number of rings (size 3 to 8) (size 9 to 14) (size 15 to 20)
#    0.000    2.200    1.000    1.500    1.400    7.600 
#    0.000    3.500    0.000    1.800    0.000    0.000 
#    0.000    0.000    0.000    0.000    0.000    0.000 
#
# Total GULP energy -495568.402321 kJ/mol
# GULP energy per Si atom -12389.210058 kJ/mol
# Density = 1.984444 g / cm^3
# Si number density = 19.889712 Si / 1000 Ang^3
#
#
#
# Elastic Constant Matrix: (Units=GPa)
#
#
# Indices 1 2 3 4 5 6 
#
# 1 98.4023 31.0745 53.0473 0.0000 0.0000 0.0000
# 2 31.0745 88.7337 57.3454 0.0000 0.0000 0.0000
# 3 53.0473 57.3454 139.1155 0.0000 0.0000 0.0000
# 4 0.0000 0.0000 0.0000 35.5762 0.0000 0.0000
# 5 0.0000 0.0000 0.0000 0.0000 19.7473 0.0000
# 6 0.0000 0.0000 0.0000 0.0000 0.0000 27.5913
#
#
#
# Elastic Compliance Matrix: (Units=1/GPa)
#
#
# Indices 1 2 3 4 5 6 
#
# 1 0.013009 -0.001840 -0.004202 0.000000 0.000000 0.000000
# 2 -0.001840 0.015622 -0.005738 0.000000 0.000000 0.000000
# 3 -0.004202 -0.005738 0.011156 0.000000 0.000000 0.000000
# 4 0.000000 0.000000 0.000000 0.028109 0.000000 0.000000
# 5 0.000000 0.000000 0.000000 0.000000 0.050640 0.000000
# 6 0.000000 0.000000 0.000000 0.000000 0.000000 0.036243
#
#
# Mechanical properties :
#
#
# Convention : Reuss Voigt Hill
#
# Bulk Modulus (GPa) = 61.62688 67.68732 64.65710
# Shear Modulus (GPa) = 27.21119 28.90192 28.05655
#
# Velocity S-wave (km/s) = 3.70280 3.81610 3.75988
# Velocity P-wave (km/s) = 7.02371 7.31588 7.17128
#
# Compressibility (1/GPa) = 0.01622669
#
# Stress axis : x y z
#
# Youngs Moduli (GPa) = 76.87197 64.01065 89.63882
#
# Poissons Ratio (x) = 0.11778 0.37666
# Poissons Ratio (y) = 0.14145 0.51436
# Poissons Ratio (z) = 0.32301 0.36730
#
# Static dielectric constant tensor:
#      x y z
#    x 3.515720 0.000000 0.000000 
#    y 0.000000 3.503470 0.000000 
#    z 0.000000 0.000000 3.926590 
# 
# 
# High freq. dielectric constant tensor:
#      x y z
#    x 1.773030 0.000000 0.000000 
#    y 0.000000 1.758520 0.000000 
#    z 0.000000 0.000000 1.784770 
# 
# From -- ./inp_files/5714.got.cif
#   From: 2010.03.12/outbox.cif.g09.slc.cpg/sg47_3_cif.got.tgz:5714.got - 2010.04.14 03:12:58.
