data_PCOD8198818
_publ_section_title
;
Structure prediction by ZEFSAII (Michael W. Deem and Ramdas Pophale) SiO2 
 PCOD8198818
Probable space group: P M M M
;
_chemical_formula_sum "Si O2"
_cell_formula_units_Z 40
_cell_length_a 13.861606
_cell_length_b 9.248687
_cell_length_c 15.640539
_cell_angle_alpha 90.000000
_cell_angle_beta 90.000000
_cell_angle_gamma 90.000000
_cell_volume 2005.142988
_symmetry_space_group_name_H-M "P M M M"
_symmetry_group_IT_number 47
_symmetry_cell_setting 'orthorhombic'
loop_
_space_group_symop_operation_xyz
x,y,z
-x,-y,z
x,-y,-z
-x,y,-z
-x,-y,-z
x,y,-z
-x,y,z
x,-y,z
loop_
_atom_site_type_symbol
_atom_site_label
_atom_site_fract_x
_atom_site_fract_y
_atom_site_fract_z
Si Si1 0.887963 0.668986 0.241771
Si Si2 0.384777 0.665528 0.500000
Si Si3 0.608420 0.171852 0.000000
Si Si4 0.724504 0.169677 0.164779
Si Si5 0.389403 0.832035 0.335176
Si Si6 0.114368 0.161721 0.593681
O O1 0.867934 0.500000 0.240361
O O2 0.826766 0.746752 0.167358
O O3 0.850379 0.729760 0.333056
O O4 0.000000 0.705241 0.226107
O O5 0.350506 0.500000 0.500000
O O6 0.500000 0.679882 0.500000
O O7 0.344017 0.744169 0.414945
O O8 0.664740 0.226941 0.916386
O O9 0.500000 0.236289 0.000000
O O10 0.602337 0.000000 0.000000
O O11 0.665005 0.210539 0.248987
O O12 0.745292 0.000000 0.157482
O O13 0.500000 0.788762 0.320358
O O14 0.378734 0.000000 0.357030
O O15 0.152459 0.212486 0.500000
O O16 0.000000 0.158381 0.591373
O O17 0.153385 0.000000 0.614760
#
# Coordination Sequence:
#
# PCOD8198818 Si02
#       6
#     8   4   4   8   8   8
#     4  10  21  36  53  75 108 150 191 232 277 324
#     4   9  17  29  47  73 106 145 184 221 263 312
#     4   9  18  36  64  95 120 138 169 225 286 341
#     4  10  20  35  58  86 111 141 180 226 280 335
#     4   9  17  31  52  78 108 141 177 217 266 327
#     4   8  14  27  49  75 102 136 181 232 281 325
#
# _framework density 19.948702000000001
#
# number of rings (size 3 to 8) (size 9 to 14) (size 15 to 20)
#    0.000    2.800    0.000    2.100    0.000    6.000 
#    1.800    3.000    0.000    5.400    0.000    0.000 
#    0.000    0.000    0.000    0.000    0.000    0.000 
#
# Total GULP energy -495966.660137 kJ/mol
# GULP energy per Si atom -12399.166503 kJ/mol
# Density = 1.990330 g / cm^3
# Si number density = 19.948702 Si / 1000 Ang^3
#
#
#
# Elastic Constant Matrix: (Units=GPa)
#
#
# Indices 1 2 3 4 5 6 
#
# 1 92.3146 42.6541 72.1803 0.0000 0.0000 0.0000
# 2 42.6541 77.8770 64.5694 0.0000 0.0000 0.0000
# 3 72.1803 64.5694 155.5553 0.0000 0.0000 0.0000
# 4 0.0000 0.0000 0.0000 9.0383 0.0000 0.0000
# 5 0.0000 0.0000 0.0000 0.0000 33.9625 0.0000
# 6 0.0000 0.0000 0.0000 0.0000 0.0000 20.8247
#
#
#
# Elastic Compliance Matrix: (Units=1/GPa)
#
#
# Indices 1 2 3 4 5 6 
#
# 1 0.017964 -0.004464 -0.006482 0.000000 0.000000 0.000000
# 2 -0.004464 0.020689 -0.006516 0.000000 0.000000 0.000000
# 3 -0.006482 -0.006516 0.012141 0.000000 0.000000 0.000000
# 4 0.000000 0.000000 0.000000 0.110640 0.000000 0.000000
# 5 0.000000 0.000000 0.000000 0.000000 0.029444 0.000000
# 6 0.000000 0.000000 0.000000 0.000000 0.000000 0.048020
#
#
# Mechanical properties :
#
#
# Convention : Reuss Voigt Hill
#
# Bulk Modulus (GPa) = 63.01977 76.06162 69.54070
# Shear Modulus (GPa) = 17.91389 22.52131 20.21760
#
# Velocity S-wave (km/s) = 2.99991 3.36365 3.18697
# Velocity P-wave (km/s) = 6.60748 7.30047 6.96260
#
# Compressibility (1/GPa) = 0.01586804
#
# Stress axis : x y z
#
# Youngs Moduli (GPa) = 55.66742 48.33599 82.36336
#
# Poissons Ratio (x) = 0.21578 0.53392
# Poissons Ratio (y) = 0.24851 0.53669
# Poissons Ratio (z) = 0.36086 0.31496
#
# Static dielectric constant tensor:
#      x y z
#    x 3.664760 0.000000 0.000000 
#    y 0.000000 3.389330 0.000000 
#    z 0.000000 0.000000 3.732820 
# 
# 
# High freq. dielectric constant tensor:
#      x y z
#    x 1.785550 0.000000 0.000000 
#    y 0.000000 1.751510 0.000000 
#    z 0.000000 0.000000 1.768070 
# 
# From -- ./inp_files/5780.got.cif
#   From: 2010.03.12/outbox.cif.g09.slc.cpg/sg47_3_cif.got.tgz:5780.got - 2010.04.14 03:12:58.
