data_PCOD8198457
_publ_section_title
;
Structure prediction by ZEFSAII (Michael W. Deem and Ramdas Pophale) SiO2 
 PCOD8198457
Probable space group: P M M M
;
_chemical_formula_sum "Si O2"
_cell_formula_units_Z 40
_cell_length_a 14.841106
_cell_length_b 9.200889
_cell_length_c 14.933112
_cell_angle_alpha 90.000000
_cell_angle_beta 90.000000
_cell_angle_gamma 90.000000
_cell_volume 2039.136886
_symmetry_space_group_name_H-M "P M M M"
_symmetry_group_IT_number 47
_symmetry_cell_setting 'orthorhombic'
loop_
_space_group_symop_operation_xyz
x,y,z
-x,-y,z
x,-y,-z
-x,y,-z
-x,-y,-z
x,y,-z
-x,y,z
x,-y,z
loop_
_atom_site_type_symbol
_atom_site_label
_atom_site_fract_x
_atom_site_fract_y
_atom_site_fract_z
Si Si1 0.900391 0.672862 0.500000
Si Si2 0.769628 0.329990 0.347620
Si Si3 0.106381 0.829400 0.000000
Si Si4 0.599377 0.836697 0.139702
Si Si5 0.774616 0.327991 0.141184
Si Si6 0.597969 0.837291 0.647969
O O1 0.905322 0.500000 0.500000
O O2 0.850618 0.727173 0.590042
O O3 0.000000 0.741392 0.500000
O O4 0.757350 0.500000 0.356004
O O5 0.788969 0.285461 0.245153
O O6 0.677589 0.263850 0.387556
O O7 0.146742 0.753263 0.088054
O O8 0.000000 0.802904 0.000000
O O9 0.129980 0.000000 0.000000
O O10 0.500000 0.788157 0.103976
O O11 0.677144 0.727595 0.105400
O O12 0.597753 0.834851 0.245715
O O13 0.620837 0.000000 0.105406
O O14 0.780618 0.500000 0.124766
O O15 0.500000 0.781966 0.613266
O O16 0.615080 0.000000 0.612787
#
# Coordination Sequence:
#
# PCOD8198457 Si02
#       6
#     4   8   4   8   8   8
#     4   9  18  34  54  75 102 136 175 217 260 313
#     4   9  18  32  53  80 106 137 175 213 257 305
#     4  11  25  43  60  77 100 135 177 218 264 321
#     4   8  14  27  49  76 107 144 180 210 247 303
#     4  10  20  34  55  83 111 137 170 218 269 311
#     4   8  14  26  46  72 103 140 176 209 251 302
#
# _framework density 19.616143999999998
#
# number of rings (size 3 to 8) (size 9 to 14) (size 15 to 20)
#    0.000    3.000    0.000    2.100    0.000    3.200 
#    0.000    7.500    0.000    7.200    0.000    0.000 
#    0.000    0.000    0.000    0.000    0.000    0.000 
#
# Total GULP energy -495737.804473 kJ/mol
# GULP energy per Si atom -12393.445112 kJ/mol
# Density = 1.957150 g / cm^3
# Si number density = 19.616144 Si / 1000 Ang^3
#
#
#
# Elastic Constant Matrix: (Units=GPa)
#
#
# Indices 1 2 3 4 5 6 
#
# 1 188.4516 70.3186 65.9767 0.0000 0.0000 0.0000
# 2 70.3186 80.4860 37.1612 0.0000 0.0000 0.0000
# 3 65.9767 37.1612 85.4772 0.0000 0.0000 0.0000
# 4 0.0000 0.0000 0.0000 11.1541 0.0000 0.0000
# 5 0.0000 0.0000 0.0000 0.0000 -139.4945 0.0000
# 6 0.0000 0.0000 0.0000 0.0000 0.0000 32.8495
#
#
#
# Elastic Compliance Matrix: (Units=1/GPa)
#
#
# Indices 1 2 3 4 5 6 
#
# 1 0.009043 -0.005853 -0.004436 0.000000 0.000000 0.000000
# 2 -0.005853 0.019333 -0.003887 0.000000 0.000000 0.000000
# 3 -0.004436 -0.003887 0.016813 0.000000 0.000000 0.000000
# 4 0.000000 0.000000 0.000000 0.089654 0.000000 0.000000
# 5 0.000000 0.000000 0.000000 0.000000 -0.007169 0.000000
# 6 0.000000 0.000000 0.000000 0.000000 0.000000 0.030442
#
#
# Mechanical properties :
#
#
# Convention : Reuss Voigt Hill
#
# Bulk Modulus (GPa) = 59.39238 77.92530 68.65884
# Shear Modulus (GPa) = 26.03088 -7.03431 9.49829
#
# Velocity S-wave (km/s) = 3.64677 -1.89572 2.20286
# Velocity P-wave (km/s) = 6.93361 5.91774 6.44572
#
# Compressibility (1/GPa) = 0.01683718
#
# Stress axis : x y z
#
# Youngs Moduli (GPa) = 110.57989 51.72535 59.47879
#
# Poissons Ratio (x) = 0.30274 0.26382
# Poissons Ratio (y) = 0.64721 0.23121
# Poissons Ratio (z) = 0.49049 0.20107
#
# Static dielectric constant tensor:
#      x y z
#    x 4.015360 0.000000 0.000000 
#    y 0.000000 3.504370 0.000000 
#    z 0.000000 0.000000 3.496850 
# 
# 
# High freq. dielectric constant tensor:
#      x y z
#    x 1.768020 0.000000 0.000000 
#    y 0.000000 1.744730 0.000000 
#    z 0.000000 0.000000 1.755020 
# 
# From -- ./inp_files/23374.got.cif
#   From: 2010.03.12/outbox.cif.g09.slc.cpg/sg47_12_cif.got.tgz:23374.got - 2010.04.14 03:12:58.
