data_PCOD8198724
_publ_section_title
;
Structure prediction by ZEFSAII (Michael W. Deem and Ramdas Pophale) SiO2 
 PCOD8198724
Probable space group: P M M M
;
_chemical_formula_sum "Si O2"
_cell_formula_units_Z 36
_cell_length_a 8.995299
_cell_length_b 8.963111
_cell_length_c 23.685604
_cell_angle_alpha 90.000000
_cell_angle_beta 90.000000
_cell_angle_gamma 90.000000
_cell_volume 1909.672273
_symmetry_space_group_name_H-M "P M M M"
_symmetry_group_IT_number 47
_symmetry_cell_setting 'orthorhombic'
loop_
_space_group_symop_operation_xyz
x,y,z
-x,-y,z
x,-y,-z
-x,y,-z
-x,-y,-z
x,y,-z
-x,y,z
x,-y,z
loop_
_atom_site_type_symbol
_atom_site_label
_atom_site_fract_x
_atom_site_fract_y
_atom_site_fract_z
Si Si1 0.171230 0.324749 0.387368
Si Si2 0.833895 0.676949 0.059691
Si Si3 0.326383 0.171953 0.715893
Si Si4 0.823291 0.831855 0.500000
Si Si5 0.822450 0.329236 0.818455
O O1 0.188457 0.500000 0.394317
O O2 0.266888 0.270841 0.335019
O O3 0.236217 0.250028 0.444092
O O4 0.000000 0.279141 0.377087
O O5 0.842664 0.500000 0.061758
O O6 0.760653 0.725504 0.119514
O O7 0.000000 0.742639 0.057664
O O8 0.752949 0.726679 0.000000
O O9 0.500000 0.200719 0.722558
O O10 0.247798 0.219206 0.773448
O O11 0.289357 0.000000 0.703490
O O12 0.000000 0.826140 0.500000
O O13 0.762247 0.000000 0.500000
O O14 0.774272 0.500000 0.805707
O O15 0.000000 0.316780 0.816625
#
# Coordination Sequence:
#
# PCOD8198724 Si02
#       5
#     8   8   8   4   8
#     4  10  20  35  57  83 107 131 164 206 249 294
#     4   7  10  19  39  69 101 126 150 190 245 298
#     4  11  24  38  50  68  98 136 175 212 251 296
#     4   9  17  31  54  83 112 139 164 194 238 291
#     4   9  17  30  51  78 102 126 162 206 251 301
#
# _framework density 18.851400999999999
#
# number of rings (size 3 to 8) (size 9 to 14) (size 15 to 20)
#    0.000    2.778    0.000    4.333    0.000    7.556 
#    0.000    0.556    0.000    4.667    0.000    7.778 
#    0.000    0.000    0.000    0.000    0.000    0.000 
#
# Total GULP energy -446025.525403 kJ/mol
# GULP energy per Si atom -12389.597928 kJ/mol
# Density = 1.880849 g / cm^3
# Si number density = 18.851401 Si / 1000 Ang^3
#
#
#
# Elastic Constant Matrix: (Units=GPa)
#
#
# Indices 1 2 3 4 5 6 
#
# 1 34.0657 21.2369 29.6799 0.0000 0.0000 0.0000
# 2 21.2369 61.3958 39.3543 0.0000 0.0000 0.0000
# 3 29.6799 39.3543 173.5446 0.0000 0.0000 0.0000
# 4 0.0000 0.0000 0.0000 6.2287 0.0000 0.0000
# 5 0.0000 0.0000 0.0000 0.0000 -8.9777 0.0000
# 6 0.0000 0.0000 0.0000 0.0000 0.0000 21.0791
#
#
#
# Elastic Compliance Matrix: (Units=1/GPa)
#
#
# Indices 1 2 3 4 5 6 
#
# 1 0.040033 -0.011068 -0.004337 0.000000 0.000000 0.000000
# 2 -0.011068 0.022118 -0.003123 0.000000 0.000000 0.000000
# 3 -0.004337 -0.003123 0.007212 0.000000 0.000000 0.000000
# 4 0.000000 0.000000 0.000000 0.160546 0.000000 0.000000
# 5 0.000000 0.000000 0.000000 0.000000 -0.111387 0.000000
# 6 0.000000 0.000000 0.000000 0.000000 0.000000 0.047440
#
#
# Mechanical properties :
#
#
# Convention : Reuss Voigt Hill
#
# Bulk Modulus (GPa) = 30.95161 49.94981 40.45071
# Shear Modulus (GPa) = 23.38786 15.58169 19.48478
#
# Velocity S-wave (km/s) = 3.52610 2.87810 3.21845
# Velocity P-wave (km/s) = 5.74736 6.13178 5.94268
#
# Compressibility (1/GPa) = 0.03230849
#
# Stress axis : x y z
#
# Youngs Moduli (GPa) = 24.97930 45.21254 138.65730
#
# Poissons Ratio (x) = 0.50040 0.60132
# Poissons Ratio (y) = 0.27646 0.43299
# Poissons Ratio (z) = 0.10833 0.14119
#
# Static dielectric constant tensor:
#      x y z
#    x 3.033920 0.000000 0.000000 
#    y 0.000000 3.278650 0.000000 
#    z 0.000000 0.000000 4.078830 
# 
# 
# High freq. dielectric constant tensor:
#      x y z
#    x 1.680210 0.000000 0.000000 
#    y 0.000000 1.711230 0.000000 
#    z 0.000000 0.000000 1.765540 
# 
# From -- ./inp_files/1356.got.cif
#   From: 2010.03.12/outbox.cif.g09.slc.cpg/sg47_1_cif.got.tgz:1356.got - 2010.04.14 03:12:58.
