data_PCOD8198038
_publ_section_title
;
Structure prediction by ZEFSAII (Michael W. Deem and Ramdas Pophale) SiO2 
 PCOD8198038
Probable space group: P M M M
;
_chemical_formula_sum "Si O2"
_cell_formula_units_Z 64
_cell_length_a 9.107997
_cell_length_b 20.251796
_cell_length_c 18.574779
_cell_angle_alpha 90.000000
_cell_angle_beta 90.000000
_cell_angle_gamma 90.000000
_cell_volume 3426.179232
_symmetry_space_group_name_H-M "P M M M"
_symmetry_group_IT_number 47
_symmetry_cell_setting 'orthorhombic'
loop_
_space_group_symop_operation_xyz
x,y,z
-x,-y,z
x,-y,-z
-x,y,-z
-x,-y,-z
x,y,-z
-x,y,z
x,-y,z
loop_
_atom_site_type_symbol
_atom_site_label
_atom_site_fract_x
_atom_site_fract_y
_atom_site_fract_z
Si Si1 0.174259 0.926437 0.419541
Si Si2 0.325676 0.073067 0.080386
Si Si3 0.830411 0.693233 0.916541
Si Si4 0.830675 0.680645 0.582744
Si Si5 0.328113 0.424031 0.672633
Si Si6 0.325454 0.804709 0.828463
Si Si7 0.826960 0.807096 0.323516
Si Si8 0.830764 0.425485 0.816375
O O1 0.235225 0.911766 0.500000
O O2 0.234515 0.872877 0.362949
O O3 0.000000 0.921424 0.422193
O O4 0.223426 0.000000 0.394929
O O5 0.500000 0.075036 0.078604
O O6 0.266306 0.127107 0.136390
O O7 0.271567 0.000000 0.104428
O O8 0.266029 0.088982 0.000000
O O9 0.725485 0.745376 0.878774
O O10 0.797714 0.620963 0.884191
O O11 0.000000 0.713251 0.904163
O O12 0.789678 0.690235 0.000000
O O13 0.795570 0.695584 0.500000
O O14 0.735644 0.618428 0.607489
O O15 0.786541 0.745478 0.626678
O O16 0.000000 0.662637 0.594770
O O17 0.500000 0.412819 0.676899
O O18 0.286508 0.500000 0.657992
O O19 0.260672 0.399759 0.748103
O O20 0.500000 0.803300 0.822280
O O21 0.256467 0.797447 0.750550
O O22 0.000000 0.811688 0.308582
O O23 0.785012 0.500000 0.838004
O O24 0.000000 0.421965 0.793424
#
# Coordination Sequence:
#
# PCOD8198038 Si02
#       8
#     8   8   8   8   8   8   8   8
#     4   8  14  27  50  78 104 132 169 211 254 302
#     4   8  15  30  51  72  95 127 168 210 248 288
#     4  10  21  36  54  77 105 135 167 208 257 302
#     4  10  21  36  54  75  99 131 172 214 253 297
#     4  10  21  36  54  77 105 135 166 204 252 303
#     4  11  22  34  51  76 104 135 172 211 251 301
#     4  10  20  34  52  75 104 135 168 210 257 301
#     4   9  18  34  56  79 103 134 171 207 244 293
#
# _framework density 18.6797
#
# number of rings (size 3 to 8) (size 9 to 14) (size 15 to 20)
#    0.000    2.500    0.000    3.000    0.000    8.250 
#    0.000    2.500    0.000    2.250    0.000    7.875 
#    0.000    0.000    0.000    0.000    0.000    0.000 
#
# Total GULP energy -793618.936822 kJ/mol
# GULP energy per Si atom -12400.295888 kJ/mol
# Density = 1.863718 g / cm^3
# Si number density = 18.679700 Si / 1000 Ang^3
#
#
#
# Elastic Constant Matrix: (Units=GPa)
#
#
# Indices 1 2 3 4 5 6 
#
# 1 47.5005 44.8887 47.3486 0.0000 0.0000 0.0000
# 2 44.8887 125.3440 81.5902 0.0000 0.0000 0.0000
# 3 47.3486 81.5902 144.6950 0.0000 0.0000 0.0000
# 4 0.0000 0.0000 0.0000 41.1197 0.0000 0.0000
# 5 0.0000 0.0000 0.0000 0.0000 6.7678 0.0000
# 6 0.0000 0.0000 0.0000 0.0000 0.0000 14.7489
#
#
#
# Elastic Compliance Matrix: (Units=1/GPa)
#
#
# Indices 1 2 3 4 5 6 
#
# 1 0.035925 -0.008237 -0.007111 0.000000 0.000000 0.000000
# 2 -0.008237 0.014493 -0.005477 0.000000 0.000000 0.000000
# 3 -0.007111 -0.005477 0.012326 0.000000 0.000000 0.000000
# 4 0.000000 0.000000 0.000000 0.024319 0.000000 0.000000
# 5 0.000000 0.000000 0.000000 0.000000 0.147758 0.000000
# 6 0.000000 0.000000 0.000000 0.000000 0.000000 0.067802
#
#
# Mechanical properties :
#
#
# Convention : Reuss Voigt Hill
#
# Bulk Modulus (GPa) = 47.40590 73.91051 60.65820
# Shear Modulus (GPa) = 14.23269 22.10808 18.17038
#
# Velocity S-wave (km/s) = 2.76331 3.44399 3.12225
# Velocity P-wave (km/s) = 5.96779 7.44768 6.74842
#
# Compressibility (1/GPa) = 0.02109442
#
# Stress axis : x y z
#
# Youngs Moduli (GPa) = 27.83613 68.99945 81.12661
#
# Poissons Ratio (x) = 0.56832 0.57691
# Poissons Ratio (y) = 0.22927 0.44433
# Poissons Ratio (z) = 0.19795 0.37791
#
# Static dielectric constant tensor:
#      x y z
#    x 3.145270 0.000000 0.000000 
#    y 0.000000 3.737030 0.000000 
#    z 0.000000 0.000000 3.492260 
# 
# 
# High freq. dielectric constant tensor:
#      x y z
#    x 1.694110 0.000000 0.000000 
#    y 0.000000 1.739560 0.000000 
#    z 0.000000 0.000000 1.728000 
# 
# From -- ./inp_files/27013.got.cif
#   From: 2010.03.12/outbox.cif.g09.slc.cpg/sg47_14_cif.got.tgz:27013.got - 2010.04.14 03:12:58.
