data_PCOD8198131
_publ_section_title
;
Structure prediction by ZEFSAII (Michael W. Deem and Ramdas Pophale) SiO2 
 PCOD8198131
Probable space group: P M M M
;
_chemical_formula_sum "Si O2"
_cell_formula_units_Z 40
_cell_length_a 9.632182
_cell_length_b 26.968007
_cell_length_c 8.082606
_cell_angle_alpha 90.000000
_cell_angle_beta 90.000000
_cell_angle_gamma 90.000000
_cell_volume 2099.543809
_symmetry_space_group_name_H-M "P M M M"
_symmetry_group_IT_number 47
_symmetry_cell_setting 'orthorhombic'
loop_
_space_group_symop_operation_xyz
x,y,z
-x,-y,z
x,-y,-z
-x,y,-z
-x,-y,-z
x,y,-z
-x,y,z
x,-y,z
loop_
_atom_site_type_symbol
_atom_site_label
_atom_site_fract_x
_atom_site_fract_y
_atom_site_fract_z
Si Si1 0.159034 0.395511 0.190766
Si Si2 0.835348 0.055428 0.000000
Si Si3 0.838760 0.880986 0.686287
Si Si4 0.654769 0.690784 0.311053
Si Si5 0.835311 0.500000 0.686717
Si Si6 0.660183 0.795345 0.811214
O O1 0.245098 0.355764 0.292558
O O2 0.220319 0.450541 0.223240
O O3 0.000000 0.392648 0.251434
O O4 0.172997 0.382373 0.000000
O O5 0.784060 0.081916 0.830215
O O6 0.000000 0.053149 0.000000
O O7 0.772498 0.000000 0.000000
O O8 0.816968 0.903283 0.500000
O O9 0.754218 0.829953 0.696596
O O10 0.000000 0.868817 0.716401
O O11 0.653235 0.707610 0.500000
O O12 0.500000 0.675469 0.251719
O O13 0.707960 0.738222 0.207853
O O14 0.780155 0.500000 0.500000
O O15 0.000000 0.500000 0.696295
O O16 0.500000 0.800818 0.756085
O O17 0.681923 0.811721 0.000000
#
# Coordination Sequence:
#
# PCOD8198131 Si02
#       6
#     8   4   8   8   4   8
#     4  10  20  34  53  77 103 133 170 212 259 312
#     4   9  18  34  55  81 115 149 181 224 273 318
#     4  10  20  34  55  83 112 144 183 226 271 319
#     4  10  21  36  53  75 104 137 174 217 264 316
#     4   9  17  31  52  75 100 131 166 208 258 311
#     4  10  20  35  56  79 105 142 182 220 269 325
#
# _framework density 19.051759000000001
#
# number of rings (size 3 to 8) (size 9 to 14) (size 15 to 20)
#    0.000    2.200    1.000    2.100    0.000    6.000 
#    0.000    2.500    0.000    4.200    0.000    1.400 
#    0.000    0.000    0.000    0.000    0.000    0.000 
#
# Total GULP energy -495968.239045 kJ/mol
# GULP energy per Si atom -12399.205976 kJ/mol
# Density = 1.900840 g / cm^3
# Si number density = 19.051759 Si / 1000 Ang^3
#
#
#
# Elastic Constant Matrix: (Units=GPa)
#
#
# Indices 1 2 3 4 5 6 
#
# 1 48.6031 47.5277 27.7696 0.0000 0.0000 0.0000
# 2 47.5277 128.5924 44.9508 0.0000 0.0000 0.0000
# 3 27.7696 44.9508 99.5412 0.0000 0.0000 0.0000
# 4 0.0000 0.0000 0.0000 29.4377 0.0000 0.0000
# 5 0.0000 0.0000 0.0000 0.0000 21.3748 0.0000
# 6 0.0000 0.0000 0.0000 0.0000 0.0000 -0.5273
#
#
#
# Elastic Compliance Matrix: (Units=1/GPa)
#
#
# Indices 1 2 3 4 5 6 
#
# 1 0.033838 -0.010933 -0.004503 0.000000 0.000000 0.000000
# 2 -0.010933 0.012766 -0.002715 0.000000 0.000000 0.000000
# 3 -0.004503 -0.002715 0.012528 0.000000 0.000000 0.000000
# 4 0.000000 0.000000 0.000000 0.033970 0.000000 0.000000
# 5 0.000000 0.000000 0.000000 0.000000 0.046784 0.000000
# 6 0.000000 0.000000 0.000000 0.000000 0.000000 -1.896417
#
#
# Mechanical properties :
#
#
# Convention : Reuss Voigt Hill
#
# Bulk Modulus (GPa) = 43.79911 57.47034 50.63472
# Shear Modulus (GPa) = -2.91951 20.48959 8.78504
#
# Velocity S-wave (km/s) = -1.23925 3.28299 2.14969
# Velocity P-wave (km/s) = 4.58168 6.67844 5.72684
#
# Compressibility (1/GPa) = 0.02283152
#
# Stress axis : x y z
#
# Youngs Moduli (GPa) = 29.55219 78.33152 79.81835
#
# Poissons Ratio (x) = 0.85636 0.35944
# Poissons Ratio (y) = 0.32308 0.21671
# Poissons Ratio (z) = 0.13308 0.21268
#
# Static dielectric constant tensor:
#      x y z
#    x 3.204990 0.000000 0.000000 
#    y 0.000000 3.488370 0.000000 
#    z 0.000000 0.000000 3.598640 
# 
# 
# High freq. dielectric constant tensor:
#      x y z
#    x 1.707230 0.000000 0.000000 
#    y 0.000000 1.737930 0.000000 
#    z 0.000000 0.000000 1.754810 
# 
# From -- ./inp_files/1791.got.cif
#   From: 2010.03.12/outbox.cif.g09.slc.cpg/sg47_1_cif.got.tgz:1791.got - 2010.04.14 03:12:58.
