data_PCOD8198390
_publ_section_title
;
Structure prediction by ZEFSAII (Michael W. Deem and Ramdas Pophale) SiO2 
 PCOD8198390
Probable space group: P M M M
;
_chemical_formula_sum "Si O2"
_cell_formula_units_Z 48
_cell_length_a 9.108637
_cell_length_b 9.597775
_cell_length_c 28.948253
_cell_angle_alpha 90.000000
_cell_angle_beta 90.000000
_cell_angle_gamma 90.000000
_cell_volume 2530.732946
_symmetry_space_group_name_H-M "P M M M"
_symmetry_group_IT_number 47
_symmetry_cell_setting 'orthorhombic'
loop_
_space_group_symop_operation_xyz
x,y,z
-x,-y,z
x,-y,-z
-x,y,-z
-x,-y,-z
x,y,-z
-x,y,z
x,-y,z
loop_
_atom_site_type_symbol
_atom_site_label
_atom_site_fract_x
_atom_site_fract_y
_atom_site_fract_z
Si Si1 0.171320 0.161654 0.800099
Si Si2 0.837420 0.000000 0.946047
Si Si3 0.330061 0.657633 0.553825
Si Si4 0.825637 0.160047 0.373088
Si Si5 0.673656 0.230976 0.105417
Si Si6 0.825691 0.658872 0.712941
Si Si7 0.672793 0.500000 0.948170
O O1 0.262670 0.209251 0.844005
O O2 0.226988 0.259180 0.758460
O O3 0.000000 0.184998 0.810052
O O4 0.202600 0.000000 0.788029
O O5 0.743075 0.870594 0.931205
O O6 0.000000 0.000000 0.922624
O O7 0.856501 0.000000 0.000000
O O8 0.301309 0.682093 0.500000
O O9 0.500000 0.679863 0.565962
O O10 0.282300 0.500000 0.567535
O O11 0.235068 0.772201 0.580268
O O12 0.765486 0.253357 0.330611
O O13 0.000000 0.163551 0.374868
O O14 0.770856 0.000000 0.368098
O O15 0.500000 0.211006 0.107900
O O16 0.724834 0.375057 0.083844
O O17 0.763194 0.500000 0.712523
O O18 0.000000 0.654668 0.711295
O O19 0.500000 0.500000 0.955059
O O20 0.744232 0.500000 0.000000
#
# Coordination Sequence:
#
# PCOD8198390 Si02
#       7
#     8   4   8   8   8   8   4
#     4  10  20  35  55  79 111 145 179 223 275 328
#     4  11  23  39  59  85 115 145 183 229 274 323
#     4   9  19  36  56  78 108 148 192 236 285 340
#     4  10  20  34  54  82 115 148 187 234 281 331
#     4  11  22  37  59  84 112 147 185 225 272 328
#     4   9  18  33  55  81 107 144 190 231 275 329
#     4   9  20  38  57  79 109 145 183 223 270 323
#
# _framework density 18.966837000000002
#
# number of rings (size 3 to 8) (size 9 to 14) (size 15 to 20)
#    0.000    2.167    0.833    2.750    1.167    5.333 
#    0.000    4.583    0.000    6.000    0.000    0.000 
#    0.000    0.000    0.000    0.000    0.000    0.000 
#
# Total GULP energy -595056.640905 kJ/mol
# GULP energy per Si atom -12397.013352 kJ/mol
# Density = 1.892367 g / cm^3
# Si number density = 18.966837 Si / 1000 Ang^3
#
#
#
# Elastic Constant Matrix: (Units=GPa)
#
#
# Indices 1 2 3 4 5 6 
#
# 1 46.0134 46.2400 38.5784 0.0000 0.0000 0.0000
# 2 46.2400 184.9188 77.8316 0.0000 0.0000 0.0000
# 3 38.5784 77.8316 111.1999 0.0000 0.0000 0.0000
# 4 0.0000 0.0000 0.0000 47.3047 0.0000 0.0000
# 5 0.0000 0.0000 0.0000 0.0000 -49.4972 0.0000
# 6 0.0000 0.0000 0.0000 0.0000 0.0000 26.1962
#
#
#
# Elastic Compliance Matrix: (Units=1/GPa)
#
#
# Indices 1 2 3 4 5 6 
#
# 1 0.033566 -0.004950 -0.008180 0.000000 0.000000 0.000000
# 2 -0.004950 0.008396 -0.004159 0.000000 0.000000 0.000000
# 3 -0.008180 -0.004159 0.014742 0.000000 0.000000 0.000000
# 4 0.000000 0.000000 0.000000 0.021140 0.000000 0.000000
# 5 0.000000 0.000000 0.000000 0.000000 -0.020203 0.000000
# 6 0.000000 0.000000 0.000000 0.000000 0.000000 0.038174
#
#
# Mechanical properties :
#
#
# Convention : Reuss Voigt Hill
#
# Bulk Modulus (GPa) = 45.19874 74.15912 59.67893
# Shear Modulus (GPa) = 36.29281 16.76622 26.52951
#
# Velocity S-wave (km/s) = 4.37909 2.97640 3.74402
# Velocity P-wave (km/s) = 7.03212 7.14116 7.08685
#
# Compressibility (1/GPa) = 0.02212451
#
# Stress axis : x y z
#
# Youngs Moduli (GPa) = 29.79223 119.09996 67.83370
#
# Poissons Ratio (x) = 0.58959 0.55488
# Poissons Ratio (y) = 0.14748 0.28214
# Poissons Ratio (z) = 0.24370 0.49538
#
# Static dielectric constant tensor:
#      x y z
#    x 3.251030 0.000000 0.000000 
#    y 0.000000 3.698470 0.000000 
#    z 0.000000 0.000000 3.541930 
# 
# 
# High freq. dielectric constant tensor:
#      x y z
#    x 1.708410 0.000000 0.000000 
#    y 0.000000 1.753250 0.000000 
#    z 0.000000 0.000000 1.748790 
# 
# From -- ./inp_files/34080.got.cif
#   From: 2010.03.12/outbox.cif.g09.slc.cpg/sg47_18_cif.got.tgz:34080.got - 2010.04.14 03:12:58.
