data_PCOD8198342
_publ_section_title
;
Structure prediction by ZEFSAII (Michael W. Deem and Ramdas Pophale) SiO2 
 PCOD8198342
Probable space group: P M M M
;
_chemical_formula_sum "Si O2"
_cell_formula_units_Z 44
_cell_length_a 29.639769
_cell_length_b 7.956112
_cell_length_c 9.527216
_cell_angle_alpha 90.000000
_cell_angle_beta 90.000000
_cell_angle_gamma 90.000000
_cell_volume 2246.682562
_symmetry_space_group_name_H-M "P M M M"
_symmetry_group_IT_number 47
_symmetry_cell_setting 'orthorhombic'
loop_
_space_group_symop_operation_xyz
x,y,z
-x,-y,z
x,-y,-z
-x,y,-z
-x,-y,-z
x,y,-z
-x,y,z
x,-y,z
loop_
_atom_site_type_symbol
_atom_site_label
_atom_site_fract_x
_atom_site_fract_y
_atom_site_fract_z
Si Si1 0.390204 0.311677 0.162415
Si Si2 0.788060 0.699770 0.658572
Si Si3 0.051073 0.802040 0.342000
Si Si4 0.550407 0.000000 0.833353
Si Si5 0.309673 0.193900 0.338404
Si Si6 0.868823 0.305433 0.844955
O O1 0.410727 0.500000 0.182138
O O2 0.343663 0.303752 0.246884
O O3 0.424765 0.169938 0.219719
O O4 0.379228 0.276502 0.000000
O O5 0.796846 0.762929 0.500000
O O6 0.786361 0.500000 0.664094
O O7 0.740962 0.772868 0.715671
O O8 0.828196 0.775523 0.754337
O O9 0.063174 0.742744 0.500000
O O10 0.083562 0.714390 0.231653
O O11 0.000000 0.748237 0.305542
O O12 0.056666 0.000000 0.329757
O O13 0.500000 0.000000 0.769491
O O14 0.547985 0.000000 0.000000
O O15 0.313883 0.251077 0.500000
O O16 0.322230 0.000000 0.318762
O O17 0.858399 0.500000 0.861506
O O18 0.870680 0.221496 0.000000
#
# Coordination Sequence:
#
# PCOD8198342 Si02
#       6
#     8   8   8   4   8   8
#     4  10  20  34  55  82 111 146 186 229 279 330
#     4   9  18  33  51  71  99 137 178 216 256 308
#     4   9  19  36  56  76  98 128 169 215 261 312
#     4   9  18  34  55  81 115 149 185 233 280 327
#     4  10  20  34  54  80 109 142 180 223 272 325
#     4  10  21  35  51  75 107 138 169 210 261 316
#
# _framework density 19.584430000000001
#
# number of rings (size 3 to 8) (size 9 to 14) (size 15 to 20)
#    0.000    2.455    0.909    1.636    0.000    5.091 
#    0.000    8.182    0.000    1.091    0.000    1.273 
#    0.000    0.000    0.000    0.000    0.000    0.000 
#
# Total GULP energy -545565.908264 kJ/mol
# GULP energy per Si atom -12399.225188 kJ/mol
# Density = 1.953985 g / cm^3
# Si number density = 19.584430 Si / 1000 Ang^3
#
#
#
# Elastic Constant Matrix: (Units=GPa)
#
#
# Indices 1 2 3 4 5 6 
#
# 1 146.0516 39.8209 70.5339 0.0000 0.0000 0.0000
# 2 39.8209 66.8042 26.5821 0.0000 0.0000 0.0000
# 3 70.5339 26.5821 93.9458 0.0000 0.0000 0.0000
# 4 0.0000 0.0000 0.0000 18.0597 0.0000 0.0000
# 5 0.0000 0.0000 0.0000 0.0000 28.5847 0.0000
# 6 0.0000 0.0000 0.0000 0.0000 0.0000 30.1556
#
#
#
# Elastic Compliance Matrix: (Units=1/GPa)
#
#
# Indices 1 2 3 4 5 6 
#
# 1 0.011569 -0.003876 -0.007589 0.000000 0.000000 0.000000
# 2 -0.003876 0.018167 -0.002230 0.000000 0.000000 0.000000
# 3 -0.007589 -0.002230 0.016973 0.000000 0.000000 0.000000
# 4 0.000000 0.000000 0.000000 0.055372 0.000000 0.000000
# 5 0.000000 0.000000 0.000000 0.000000 0.034984 0.000000
# 6 0.000000 0.000000 0.000000 0.000000 0.000000 0.033161
#
#
# Mechanical properties :
#
#
# Convention : Reuss Voigt Hill
#
# Bulk Modulus (GPa) = 51.76425 64.51949 58.14187
# Shear Modulus (GPa) = 24.50309 26.68434 25.59371
#
# Velocity S-wave (km/s) = 3.54100 3.69525 3.61895
# Velocity P-wave (km/s) = 6.57320 7.15697 6.87129
#
# Compressibility (1/GPa) = 0.01931835
#
# Stress axis : x y z
#
# Youngs Moduli (GPa) = 86.43978 55.04463 58.91642
#
# Poissons Ratio (x) = 0.21337 0.44711
# Poissons Ratio (y) = 0.33506 0.13139
# Poissons Ratio (z) = 0.65599 0.12276
#
# Static dielectric constant tensor:
#      x y z
#    x 3.642830 0.000000 0.000000 
#    y 0.000000 3.471910 0.000000 
#    z 0.000000 0.000000 3.637760 
# 
# 
# High freq. dielectric constant tensor:
#      x y z
#    x 1.761610 0.000000 0.000000 
#    y 0.000000 1.758260 0.000000 
#    z 0.000000 0.000000 1.746280 
# 
# From -- ./inp_files/2036.got.cif
#   From: 2010.03.12/outbox.cif.g09.slc.cpg/sg47_2_cif.got.tgz:2036.got - 2010.04.14 03:12:58.
