data_PCOD8198031
_publ_section_title
;
Structure prediction by ZEFSAII (Michael W. Deem and Ramdas Pophale) SiO2 
 PCOD8198031
Probable space group: P M M M
;
_chemical_formula_sum "Si O2"
_cell_formula_units_Z 52
_cell_length_a 8.096816
_cell_length_b 24.570908
_cell_length_c 14.328488
_cell_angle_alpha 90.000000
_cell_angle_beta 90.000000
_cell_angle_gamma 90.000000
_cell_volume 2850.597108
_symmetry_space_group_name_H-M "P M M M"
_symmetry_group_IT_number 47
_symmetry_cell_setting 'orthorhombic'
loop_
_space_group_symop_operation_xyz
x,y,z
-x,-y,z
x,-y,-z
-x,y,-z
-x,-y,-z
x,y,-z
-x,y,z
x,-y,z
loop_
_atom_site_type_symbol
_atom_site_label
_atom_site_fract_x
_atom_site_fract_y
_atom_site_fract_z
Si Si1 0.314798 0.870407 0.108789
Si Si2 0.000000 0.938998 0.889147
Si Si3 0.811532 0.617308 0.603805
Si Si4 0.186055 0.769178 0.792259
Si Si5 0.695377 0.663179 0.106354
Si Si6 0.689209 0.265970 0.395722
Si Si7 0.305814 0.560273 0.221476
O O1 0.500000 0.895023 0.125853
O O2 0.306872 0.812988 0.161564
O O3 0.169268 0.910097 0.146253
O O4 0.287193 0.858624 0.000000
O O5 0.000000 0.000000 0.847967
O O6 0.000000 0.940710 0.000000
O O7 0.773174 0.594622 0.500000
O O8 0.700223 0.669842 0.626062
O O9 0.774328 0.570180 0.677488
O O10 0.000000 0.636637 0.611776
O O11 0.219842 0.709828 0.833482
O O12 0.210047 0.768417 0.680487
O O13 0.000000 0.786742 0.815378
O O14 0.500000 0.669930 0.113728
O O15 0.754656 0.604865 0.146482
O O16 0.756207 0.667111 0.000000
O O17 0.758827 0.253683 0.500000
O O18 0.500000 0.248245 0.388222
O O19 0.500000 0.563901 0.233883
O O20 0.252260 0.500000 0.187078
#
# Coordination Sequence:
#
# PCOD8198031 Si02
#       7
#     8   4   8   8   8   8   8
#     4  10  20  34  53  80 115 154 196 237 275 318
#     4   9  18  34  54  80 117 157 198 238 276 319
#     4  10  20  34  52  74  98 125 159 201 256 320
#     4  12  22  33  53  79 110 143 177 220 269 323
#     4  10  21  36  53  73  97 130 172 215 266 325
#     4  10  20  34  53  76 103 135 170 211 263 325
#     4  10  21  36  53  72  94 124 165 211 259 316
#
# _framework density 18.241790999999999
#
# number of rings (size 3 to 8) (size 9 to 14) (size 15 to 20)
#    0.000    1.769    2.308    2.769    0.000    5.231 
#    0.000    4.615    0.000    0.000    0.000    2.154 
#    0.000    1.231    0.000    3.231    0.000    0.154 
#
# Total GULP energy -644796.382813 kJ/mol
# GULP energy per Si atom -12399.930439 kJ/mol
# Density = 1.820027 g / cm^3
# Si number density = 18.241791 Si / 1000 Ang^3
#
#
#
# Elastic Constant Matrix: (Units=GPa)
#
#
# Indices 1 2 3 4 5 6 
#
# 1 79.8221 38.6771 26.8690 0.0000 0.0000 0.0000
# 2 38.6771 88.7358 35.4952 0.0000 0.0000 0.0000
# 3 26.8690 35.4952 94.1607 0.0000 0.0000 0.0000
# 4 0.0000 0.0000 0.0000 13.5849 0.0000 0.0000
# 5 0.0000 0.0000 0.0000 0.0000 21.6833 0.0000
# 6 0.0000 0.0000 0.0000 0.0000 0.0000 22.0801
#
#
#
# Elastic Compliance Matrix: (Units=1/GPa)
#
#
# Indices 1 2 3 4 5 6 
#
# 1 0.016303 -0.006176 -0.002324 0.000000 0.000000 0.000000
# 2 -0.006176 0.015610 -0.004122 0.000000 0.000000 0.000000
# 3 -0.002324 -0.004122 0.012837 0.000000 0.000000 0.000000
# 4 0.000000 0.000000 0.000000 0.073611 0.000000 0.000000
# 5 0.000000 0.000000 0.000000 0.000000 0.046118 0.000000
# 6 0.000000 0.000000 0.000000 0.000000 0.000000 0.045290
#
#
# Mechanical properties :
#
#
# Convention : Reuss Voigt Hill
#
# Bulk Modulus (GPa) = 51.26679 51.64458 51.45568
# Shear Modulus (GPa) = 20.70258 22.24815 21.47536
#
# Velocity S-wave (km/s) = 3.37248 3.49610 3.43485
# Velocity P-wave (km/s) = 6.58254 6.68353 6.63323
#
# Compressibility (1/GPa) = 0.01950581
#
# Stress axis : x y z
#
# Youngs Moduli (GPa) = 61.33937 64.06001 77.89903
#
# Poissons Ratio (x) = 0.39565 0.18102
# Poissons Ratio (y) = 0.37885 0.32111
# Poissons Ratio (z) = 0.14254 0.26406
#
# Static dielectric constant tensor:
#      x y z
#    x 3.413260 0.000000 0.000000 
#    y 0.000000 3.174780 0.000000 
#    z 0.000000 0.000000 3.398940 
# 
# 
# High freq. dielectric constant tensor:
#      x y z
#    x 1.714770 0.000000 0.000000 
#    y 0.000000 1.671610 0.000000 
#    z 0.000000 0.000000 1.697510 
# 
# From -- ./inp_files/21371.got.cif
#   From: 2010.03.12/outbox.cif.g09.slc.cpg/sg47_11_cif.got.tgz:21371.got - 2010.04.14 03:12:58.
