data_PCOD8198518
_publ_section_title
;
Structure prediction by ZEFSAII (Michael W. Deem and Ramdas Pophale) SiO2 
 PCOD8198518
Probable space group: P M M M
;
_chemical_formula_sum "Si O2"
_cell_formula_units_Z 40
_cell_length_a 7.839704
_cell_length_b 9.254299
_cell_length_c 27.651269
_cell_angle_alpha 90.000000
_cell_angle_beta 90.000000
_cell_angle_gamma 90.000000
_cell_volume 2006.126246
_symmetry_space_group_name_H-M "P M M M"
_symmetry_group_IT_number 47
_symmetry_cell_setting 'orthorhombic'
loop_
_space_group_symop_operation_xyz
x,y,z
-x,-y,z
x,-y,-z
-x,y,-z
-x,-y,-z
x,y,-z
-x,y,z
x,-y,z
loop_
_atom_site_type_symbol
_atom_site_label
_atom_site_fract_x
_atom_site_fract_y
_atom_site_fract_z
Si Si1 0.500000 0.328723 0.053856
Si Si2 0.301246 0.659727 0.304671
Si Si3 0.701732 0.833209 0.213061
Si Si4 0.203161 0.838040 0.396205
Si Si5 0.808164 0.333383 0.879785
Si Si6 0.186055 0.828895 0.500000
O O1 0.500000 0.500000 0.050267
O O2 0.329108 0.275307 0.081248
O O3 0.500000 0.261067 0.000000
O O4 0.500000 0.645641 0.295999
O O5 0.217142 0.500000 0.302700
O O6 0.226126 0.759289 0.261931
O O7 0.268834 0.728047 0.356618
O O8 0.500000 0.812908 0.207120
O O9 0.795588 0.759646 0.168440
O O10 0.753975 0.000000 0.215195
O O11 0.278274 0.787422 0.449071
O O12 0.000000 0.836905 0.398683
O O13 0.268070 0.000000 0.383537
O O14 0.768453 0.500000 0.866814
O O15 0.000000 0.316930 0.901062
O O16 0.000000 0.754516 0.500000
O O17 0.163108 0.000000 0.500000
#
# Coordination Sequence:
#
# PCOD8198518 Si02
#       6
#     4   8   8   8   8   4
#     4   9  18  34  57  85 119 155 189 230 275 318
#     4  10  21  35  51  73 104 140 174 212 262 318
#     4  10  20  35  56  78 102 138 181 224 273 327
#     4   9  17  31  52  75  98 127 168 217 265 315
#     4  10  20  34  56  85 115 149 188 229 275 326
#     4   7  12  26  48  71  94 124 164 211 262 313
#
# _framework density 19.938925000000001
#
# number of rings (size 3 to 8) (size 9 to 14) (size 15 to 20)
#    0.000    2.600    1.000    2.400    0.000    4.000 
#    0.000    3.000    0.000    6.000    0.000    1.400 
#    0.000    0.000    0.000    0.000    0.000    0.000 
#
# Total GULP energy -495745.195489 kJ/mol
# GULP energy per Si atom -12393.629887 kJ/mol
# Density = 1.989354 g / cm^3
# Si number density = 19.938925 Si / 1000 Ang^3
#
#
#
# Elastic Constant Matrix: (Units=GPa)
#
#
# Indices 1 2 3 4 5 6 
#
# 1 64.1805 29.4740 43.1789 0.0000 0.0000 0.0000
# 2 29.4740 107.3399 67.1265 0.0000 0.0000 0.0000
# 3 43.1789 67.1265 177.9858 0.0000 0.0000 0.0000
# 4 0.0000 0.0000 0.0000 26.7003 0.0000 0.0000
# 5 0.0000 0.0000 0.0000 0.0000 6.2946 0.0000
# 6 0.0000 0.0000 0.0000 0.0000 0.0000 18.2567
#
#
#
# Elastic Compliance Matrix: (Units=1/GPa)
#
#
# Indices 1 2 3 4 5 6 
#
# 1 0.019386 -0.003117 -0.003527 0.000000 0.000000 0.000000
# 2 -0.003117 0.012693 -0.004031 0.000000 0.000000 0.000000
# 3 -0.003527 -0.004031 0.007994 0.000000 0.000000 0.000000
# 4 0.000000 0.000000 0.000000 0.037453 0.000000 0.000000
# 5 0.000000 0.000000 0.000000 0.000000 0.158867 0.000000
# 6 0.000000 0.000000 0.000000 0.000000 0.000000 0.054774
#
#
# Mechanical properties :
#
#
# Convention : Reuss Voigt Hill
#
# Bulk Modulus (GPa) = 53.41237 69.89611 61.65424
# Shear Modulus (GPa) = 15.68587 24.23211 19.95899
#
# Velocity S-wave (km/s) = 2.80785 3.48992 3.16730
# Velocity P-wave (km/s) = 6.11213 7.16733 6.66066
#
# Compressibility (1/GPa) = 0.01872226
#
# Stress axis : x y z
#
# Youngs Moduli (GPa) = 51.58460 78.78435 125.08847
#
# Poissons Ratio (x) = 0.24559 0.44122
# Poissons Ratio (y) = 0.16080 0.50421
# Poissons Ratio (z) = 0.18195 0.31757
#
# Static dielectric constant tensor:
#      x y z
#    x 3.442210 0.000000 0.000000 
#    y 0.000000 3.583990 0.000000 
#    z 0.000000 0.000000 4.010000 
# 
# 
# High freq. dielectric constant tensor:
#      x y z
#    x 1.760540 0.000000 0.000000 
#    y 0.000000 1.751430 0.000000 
#    z 0.000000 0.000000 1.785860 
# 
# From -- ./inp_files/1696.got.cif
#   From: 2010.03.12/outbox.cif.g09.slc.cpg/sg47_1_cif.got.tgz:1696.got - 2010.04.14 03:12:58.
