data_PCOD8198089
_publ_section_title
;
Structure prediction by ZEFSAII (Michael W. Deem and Ramdas Pophale) SiO2 
 PCOD8198089
Probable space group: P M M M
;
_chemical_formula_sum "Si O2"
_cell_formula_units_Z 48
_cell_length_a 9.058377
_cell_length_b 31.107189
_cell_length_c 9.326437
_cell_angle_alpha 90.000000
_cell_angle_beta 90.000000
_cell_angle_gamma 90.000000
_cell_volume 2628.009437
_symmetry_space_group_name_H-M "P M M M"
_symmetry_group_IT_number 47
_symmetry_cell_setting 'orthorhombic'
loop_
_space_group_symop_operation_xyz
x,y,z
-x,-y,z
x,-y,-z
-x,y,-z
-x,-y,-z
x,y,-z
-x,y,z
x,-y,z
loop_
_atom_site_type_symbol
_atom_site_label
_atom_site_fract_x
_atom_site_fract_y
_atom_site_fract_z
Si Si1 0.672548 0.414448 0.167822
Si Si2 0.333364 0.000000 0.829415
Si Si3 0.170829 0.662024 0.330653
Si Si4 0.827665 0.915519 0.165870
Si Si5 0.833509 0.500000 0.829762
Si Si6 0.828552 0.168130 0.332879
Si Si7 0.333684 0.252734 0.670400
O O1 0.500000 0.417564 0.201064
O O2 0.741344 0.375349 0.253321
O O3 0.748457 0.457913 0.225723
O O4 0.703383 0.407647 0.000000
O O5 0.253885 0.042691 0.770460
O O6 0.500000 0.000000 0.773121
O O7 0.323435 0.000000 0.000000
O O8 0.191830 0.656723 0.500000
O O9 0.238049 0.706982 0.275283
O O10 0.000000 0.660371 0.286393
O O11 0.770771 0.873928 0.250953
O O12 0.000000 0.923070 0.190267
O O13 0.788997 0.908262 0.000000
O O14 0.000000 0.500000 0.768179
O O15 0.834884 0.500000 0.000000
O O16 0.798426 0.160905 0.500000
O O17 0.739352 0.208925 0.271758
O O18 0.000000 0.176713 0.301548
O O19 0.333100 0.251865 0.500000
O O20 0.500000 0.256634 0.730432
#
# Coordination Sequence:
#
# PCOD8198089 Si02
#       7
#     8   4   8   8   4   8   8
#     4  10  20  34  53  77 104 133 166 205 249 296
#     4   9  17  29  46  67  90 118 152 187 224 270
#     4  10  20  34  53  76 101 131 168 208 248 292
#     4   9  17  30  48  68  90 118 152 188 227 273
#     4   9  17  31  52  75 100 133 170 204 242 293
#     4   9  17  30  48  69  92 119 153 192 232 276
#     4   9  17  30  49  71  95 126 162 197 236 286
#
# _framework density 18.264775
#
# number of rings (size 3 to 8) (size 9 to 14) (size 15 to 20)
#    0.000    2.667    0.000    2.000    0.000    6.667 
#    0.000    1.667    0.000    8.000    0.000    0.000 
#    0.000    0.000    0.000    0.000    0.000    0.000 
#
# Total GULP energy -595248.111983 kJ/mol
# GULP energy per Si atom -12401.002333 kJ/mol
# Density = 1.822320 g / cm^3
# Si number density = 18.264775 Si / 1000 Ang^3
#
#
#
# Elastic Constant Matrix: (Units=GPa)
#
#
# Indices 1 2 3 4 5 6 
#
# 1 117.4220 82.5604 30.1479 0.0000 0.0000 0.0000
# 2 82.5604 189.3610 40.6147 0.0000 0.0000 0.0000
# 3 30.1479 40.6147 26.8701 0.0000 0.0000 0.0000
# 4 0.0000 0.0000 0.0000 31.6637 0.0000 0.0000
# 5 0.0000 0.0000 0.0000 0.0000 19.5809 0.0000
# 6 0.0000 0.0000 0.0000 0.0000 0.0000 27.9985
#
#
#
# Elastic Compliance Matrix: (Units=1/GPa)
#
#
# Indices 1 2 3 4 5 6 
#
# 1 0.013717 -0.003965 -0.009397 0.000000 0.000000 0.000000
# 2 -0.003965 0.008960 -0.009095 0.000000 0.000000 0.000000
# 3 -0.009397 -0.009095 0.061507 0.000000 0.000000 0.000000
# 4 0.000000 0.000000 0.000000 0.031582 0.000000 0.000000
# 5 0.000000 0.000000 0.000000 0.000000 0.051070 0.000000
# 6 0.000000 0.000000 0.000000 0.000000 0.000000 0.035716
#
#
# Mechanical properties :
#
#
# Convention : Reuss Voigt Hill
#
# Bulk Modulus (GPa) = 25.46476 71.14435 48.30455
# Shear Modulus (GPa) = 19.18972 27.87064 23.53018
#
# Velocity S-wave (km/s) = 3.24488 3.91054 3.59316
# Velocity P-wave (km/s) = 5.29256 7.70883 6.61201
#
# Compressibility (1/GPa) = 0.03926996
#
# Stress axis : x y z
#
# Youngs Moduli (GPa) = 72.90370 111.60258 16.25833
#
# Poissons Ratio (x) = 0.44250 0.15278
# Poissons Ratio (y) = 0.28906 0.14787
# Poissons Ratio (z) = 0.68507 1.01504
#
# Static dielectric constant tensor:
#      x y z
#    x 3.512470 0.000000 0.000000 
#    y 0.000000 3.636340 0.000000 
#    z 0.000000 0.000000 2.980980 
# 
# 
# High freq. dielectric constant tensor:
#      x y z
#    x 1.717300 0.000000 0.000000 
#    y 0.000000 1.726130 0.000000 
#    z 0.000000 0.000000 1.661870 
# 
# From -- ./inp_files/2782.got.cif
#   From: 2010.03.12/outbox.cif.g09.slc.cpg/sg47_2_cif.got.tgz:2782.got - 2010.04.14 03:12:58.
