data_PCOD8198396
_publ_section_title
;
Structure prediction by ZEFSAII (Michael W. Deem and Ramdas Pophale) SiO2 
 PCOD8198396
Probable space group: P M M M
;
_chemical_formula_sum "Si O2"
_cell_formula_units_Z 44
_cell_length_a 17.933768
_cell_length_b 8.855319
_cell_length_c 14.112885
_cell_angle_alpha 90.000000
_cell_angle_beta 90.000000
_cell_angle_gamma 90.000000
_cell_volume 2241.256492
_symmetry_space_group_name_H-M "P M M M"
_symmetry_group_IT_number 47
_symmetry_cell_setting 'orthorhombic'
loop_
_space_group_symop_operation_xyz
x,y,z
-x,-y,z
x,-y,-z
-x,y,-z
-x,-y,-z
x,y,-z
-x,y,z
x,-y,z
loop_
_atom_site_type_symbol
_atom_site_label
_atom_site_fract_x
_atom_site_fract_y
_atom_site_fract_z
Si Si1 0.083327 0.673190 0.770378
Si Si2 0.160566 0.172848 0.393202
Si Si3 0.775692 0.324086 0.108893
Si Si4 0.500000 0.327996 0.112073
Si Si5 0.361522 0.177928 0.210809
Si Si6 0.683109 0.676779 0.393091
O O1 0.092190 0.500000 0.738654
O O2 0.096134 0.776588 0.678255
O O3 0.141376 0.712299 0.853701
O O4 0.000000 0.705464 0.808920
O O5 0.130365 0.193098 0.500000
O O6 0.231737 0.277639 0.374881
O O7 0.183914 0.000000 0.374003
O O8 0.755480 0.500000 0.120616
O O9 0.717775 0.226937 0.168895
O O10 0.771955 0.273892 0.000000
O O11 0.500000 0.500000 0.147709
O O12 0.426588 0.246752 0.148411
O O13 0.500000 0.318622 0.000000
O O14 0.369479 0.235537 0.319128
O O15 0.368847 0.000000 0.208924
O O16 0.658517 0.720084 0.500000
O O17 0.675253 0.500000 0.374557
#
# Coordination Sequence:
#
# PCOD8198396 Si02
#       6
#     8   8   8   4   8   8
#     4  10  21  36  55  81 114 154 201 251 300 353
#     4  10  20  34  54  82 115 152 194 242 299 357
#     4  10  21  38  60  84 113 154 203 249 297 357
#     4  11  25  45  68  93 124 163 205 248 294 345
#     4  12  24  39  63  94 127 159 194 242 298 355
#     4  10  20  36  61  90 120 157 200 243 288 347
#
# _framework density 19.631844000000001
#
# number of rings (size 3 to 8) (size 9 to 14) (size 15 to 20)
#    0.000    1.545    1.818    3.545    0.000    6.545 
#    0.000    4.091    0.000    2.727    0.000    2.545 
#    0.000    0.000    0.000    0.000    0.000    0.000 
#
# Total GULP energy -545766.965696 kJ/mol
# GULP energy per Si atom -12403.794675 kJ/mol
# Density = 1.958716 g / cm^3
# Si number density = 19.631844 Si / 1000 Ang^3
#
#
#
# Elastic Constant Matrix: (Units=GPa)
#
#
# Indices 1 2 3 4 5 6 
#
# 1 88.5136 45.9307 38.8962 0.0000 0.0000 0.0000
# 2 45.9307 117.4351 59.1669 0.0000 0.0000 0.0000
# 3 38.8962 59.1669 119.9005 0.0000 0.0000 0.0000
# 4 0.0000 0.0000 0.0000 23.3054 0.0000 0.0000
# 5 0.0000 0.0000 0.0000 0.0000 9.0585 0.0000
# 6 0.0000 0.0000 0.0000 0.0000 0.0000 -24.0929
#
#
#
# Elastic Compliance Matrix: (Units=1/GPa)
#
#
# Indices 1 2 3 4 5 6 
#
# 1 0.014751 -0.004470 -0.002580 0.000000 0.000000 0.000000
# 2 -0.004470 0.012687 -0.004811 0.000000 0.000000 0.000000
# 3 -0.002580 -0.004811 0.011551 0.000000 0.000000 0.000000
# 4 0.000000 0.000000 0.000000 0.042908 0.000000 0.000000
# 5 0.000000 0.000000 0.000000 0.000000 0.110394 0.000000
# 6 0.000000 0.000000 0.000000 0.000000 0.000000 -0.041506
#
#
# Mechanical properties :
#
#
# Convention : Reuss Voigt Hill
#
# Bulk Modulus (GPa) = 65.49199 68.20409 66.84804
# Shear Modulus (GPa) = 27.84047 13.77790 20.80918
#
# Velocity S-wave (km/s) = 3.76989 2.65205 3.25925
# Velocity P-wave (km/s) = 7.23754 6.64792 6.94898
#
# Compressibility (1/GPa) = 0.01526904
#
# Stress axis : x y z
#
# Youngs Moduli (GPa) = 67.79416 78.81924 86.57225
#
# Poissons Ratio (x) = 0.35228 0.22332
# Poissons Ratio (y) = 0.30301 0.41648
# Poissons Ratio (z) = 0.17488 0.37918
#
# Static dielectric constant tensor:
#      x y z
#    x 3.546800 0.000000 0.000000 
#    y 0.000000 3.605510 0.000000 
#    z 0.000000 0.000000 3.795420 
# 
# 
# High freq. dielectric constant tensor:
#      x y z
#    x 1.749170 0.000000 0.000000 
#    y 0.000000 1.768080 0.000000 
#    z 0.000000 0.000000 1.776570 
# 
# From -- ./inp_files/8992.got.cif
#   From: 2010.03.12/outbox.cif.g09.slc.cpg/sg47_5_cif.got.tgz:8992.got - 2010.04.14 03:12:58.
