data_PCOD8198504
_publ_section_title
;
Structure prediction by ZEFSAII (Michael W. Deem and Ramdas Pophale) SiO2 
 PCOD8198504
Probable space group: P M M M
;
_chemical_formula_sum "Si O2"
_cell_formula_units_Z 64
_cell_length_a 14.710711
_cell_length_b 8.661821
_cell_length_c 25.100793
_cell_angle_alpha 90.000000
_cell_angle_beta 90.000000
_cell_angle_gamma 90.000000
_cell_volume 3198.381836
_symmetry_space_group_name_H-M "P M M M"
_symmetry_group_IT_number 47
_symmetry_cell_setting 'orthorhombic'
loop_
_space_group_symop_operation_xyz
x,y,z
-x,-y,z
x,-y,-z
-x,y,-z
-x,-y,-z
x,y,-z
-x,y,z
x,-y,z
loop_
_atom_site_type_symbol
_atom_site_label
_atom_site_fract_x
_atom_site_fract_y
_atom_site_fract_z
Si Si1 0.400182 0.322865 0.590444
Si Si2 0.748437 0.182374 0.135758
Si Si3 0.601229 0.175781 0.297651
Si Si4 0.394110 0.679630 0.940066
Si Si5 0.778332 0.821774 0.441567
Si Si6 0.103743 0.183135 0.658605
Si Si7 0.770999 0.321120 0.250683
Si Si8 0.900564 0.816872 0.058767
O O1 0.500000 0.305305 0.562262
O O2 0.386604 0.500000 0.608570
O O3 0.397706 0.208615 0.640134
O O4 0.316303 0.272344 0.553803
O O5 0.653972 0.227812 0.107750
O O6 0.772720 0.258523 0.191363
O O7 0.826008 0.251582 0.097745
O O8 0.750838 0.000000 0.143538
O O9 0.500000 0.200450 0.274144
O O10 0.668469 0.293978 0.269754
O O11 0.634009 0.000000 0.288018
O O12 0.500000 0.713756 0.933299
O O13 0.372777 0.500000 0.932859
O O14 0.363509 0.732773 0.000000
O O15 0.825401 0.803014 0.500000
O O16 0.844200 0.756870 0.394832
O O17 0.755885 0.000000 0.429995
O O18 0.155673 0.238405 0.711423
O O19 0.000000 0.246983 0.658297
O O20 0.102185 0.000000 0.658770
O O21 0.794466 0.500000 0.251497
O O22 0.000000 0.767729 0.079679
O O23 0.892463 0.000000 0.056549
O O24 0.883931 0.748169 0.000000
#
# Coordination Sequence:
#
# PCOD8198504 Si02
#       8
#     8   8   8   8   8   8   8   8
#     4  10  20  34  55  85 120 158 194 229 278 339
#     4  11  22  35  56  86 117 150 194 245 293 344
#     4  10  20  36  60  86 112 145 187 235 284 338
#     4   9  19  37  59  83 117 162 205 245 296 356
#     4  10  21  37  60  90 122 156 196 244 294 346
#     4  10  22  42  66  88 114 151 196 246 300 358
#     4  12  25  40  59  84 117 156 196 240 294 355
#     4   8  15  30  53  81 111 141 176 223 279 335
#
# _framework density 20.010120000000001
#
# number of rings (size 3 to 8) (size 9 to 14) (size 15 to 20)
#    0.000    2.000    1.250    3.375    0.000    4.500 
#    0.000    4.375    0.000    1.125    0.000    6.125 
#    0.000    0.000    0.000    0.000    0.000    0.000 
#
# Total GULP energy -793257.659188 kJ/mol
# GULP energy per Si atom -12394.650925 kJ/mol
# Density = 1.996458 g / cm^3
# Si number density = 20.010120 Si / 1000 Ang^3
#
#
#
# Elastic Constant Matrix: (Units=GPa)
#
#
# Indices 1 2 3 4 5 6 
#
# 1 125.3160 26.4266 61.6259 0.0000 0.0000 0.0000
# 2 26.4266 42.3958 17.9251 0.0000 0.0000 0.0000
# 3 61.6259 17.9251 125.0327 0.0000 0.0000 0.0000
# 4 0.0000 0.0000 0.0000 9.7868 0.0000 0.0000
# 5 0.0000 0.0000 0.0000 0.0000 8.0326 0.0000
# 6 0.0000 0.0000 0.0000 0.0000 0.0000 15.2831
#
#
#
# Elastic Compliance Matrix: (Units=1/GPa)
#
#
# Indices 1 2 3 4 5 6 
#
# 1 0.011472 -0.005067 -0.004928 0.000000 0.000000 0.000000
# 2 -0.005067 0.027347 -0.001423 0.000000 0.000000 0.000000
# 3 -0.004928 -0.001423 0.010631 0.000000 0.000000 0.000000
# 4 0.000000 0.000000 0.000000 0.102178 0.000000 0.000000
# 5 0.000000 0.000000 0.000000 0.000000 0.124492 0.000000
# 6 0.000000 0.000000 0.000000 0.000000 0.000000 0.065432
#
#
# Mechanical properties :
#
#
# Convention : Reuss Voigt Hill
#
# Bulk Modulus (GPa) = 37.57445 56.07774 46.82610
# Shear Modulus (GPa) = 13.39553 19.07166 16.23359
#
# Velocity S-wave (km/s) = 2.59016 3.09058 2.85137
# Velocity P-wave (km/s) = 5.26913 6.38914 5.85597
#
# Compressibility (1/GPa) = 0.02661383
#
# Stress axis : x y z
#
# Youngs Moduli (GPa) = 87.17152 36.56646 94.06747
#
# Poissons Ratio (x) = 0.18529 0.46353
# Poissons Ratio (y) = 0.44171 0.13387
# Poissons Ratio (z) = 0.42955 0.05204
#
# Static dielectric constant tensor:
#      x y z
#    x 3.949730 0.000000 0.000000 
#    y 0.000000 3.417650 0.000000 
#    z 0.000000 0.000000 3.768570 
# 
# 
# High freq. dielectric constant tensor:
#      x y z
#    x 1.785790 0.000000 0.000000 
#    y 0.000000 1.764530 0.000000 
#    z 0.000000 0.000000 1.779050 
# 
# From -- ./inp_files/32800.got.cif
#   From: 2010.03.12/outbox.cif.g09.slc.cpg/sg47_17_cif.got.tgz:32800.got - 2010.04.14 03:12:58.
