data_PCOD8198262
_publ_section_title
;
Structure prediction by ZEFSAII (Michael W. Deem and Ramdas Pophale) SiO2 
 PCOD8198262
Probable space group: P M M M
;
_chemical_formula_sum "Si O2"
_cell_formula_units_Z 44
_cell_length_a 28.343922
_cell_length_b 9.456434
_cell_length_c 8.979836
_cell_angle_alpha 90.000000
_cell_angle_beta 90.000000
_cell_angle_gamma 90.000000
_cell_volume 2406.887243
_symmetry_space_group_name_H-M "P M M M"
_symmetry_group_IT_number 47
_symmetry_cell_setting 'orthorhombic'
loop_
_space_group_symop_operation_xyz
x,y,z
-x,-y,z
x,-y,-z
-x,y,-z
-x,-y,-z
x,y,-z
-x,y,z
x,-y,z
loop_
_atom_site_type_symbol
_atom_site_label
_atom_site_fract_x
_atom_site_fract_y
_atom_site_fract_z
Si Si1 0.593994 0.335682 0.825822
Si Si2 0.227567 0.836672 0.172250
Si Si3 0.675865 0.164754 0.327654
Si Si4 0.500000 0.331887 0.332044
Si Si5 0.861798 0.659179 0.177409
Si Si6 0.947710 0.158673 0.177148
O O1 0.601208 0.500000 0.787534
O O2 0.638354 0.252183 0.764872
O O3 0.546621 0.274893 0.749965
O O4 0.589137 0.309594 0.000000
O O5 0.272552 0.793633 0.269451
O O6 0.184288 0.743127 0.231907
O O7 0.213729 0.000000 0.194762
O O8 0.239083 0.804727 0.000000
O O9 0.672109 0.205904 0.500000
O O10 0.666039 0.000000 0.300521
O O11 0.500000 0.500000 0.327084
O O12 0.500000 0.273738 0.500000
O O13 0.859928 0.500000 0.240184
O O14 0.908499 0.735215 0.243078
O O15 0.863609 0.659583 0.000000
O O16 0.000000 0.207702 0.229283
O O17 0.937407 0.000000 0.235339
O O18 0.945235 0.159026 0.000000
#
# Coordination Sequence:
#
# PCOD8198262 Si02
#       6
#     8   8   8   4   8   8
#     4  10  20  34  54  79 105 134 169 207 246 292
#     4   9  17  30  47  64  86 120 157 191 233 288
#     4  10  21  36  53  74 100 129 163 205 252 299
#     4   9  17  31  52  77 106 139 172 206 246 291
#     4   9  16  24  36  57  84 113 148 192 237 279
#     4   8  13  21  33  50  76 113 153 188 226 278
#
# _framework density 18.280871999999999
#
# number of rings (size 3 to 8) (size 9 to 14) (size 15 to 20)
#    0.000    2.818    0.000    2.455    0.000    6.545 
#    0.000    4.091    0.000    2.727    0.000    0.000 
#    0.000    0.727    0.000    8.364    0.000   10.727 
#
# Total GULP energy -545566.233707 kJ/mol
# GULP energy per Si atom -12399.232584 kJ/mol
# Density = 1.823926 g / cm^3
# Si number density = 18.280872 Si / 1000 Ang^3
#
#
#
# Elastic Constant Matrix: (Units=GPa)
#
#
# Indices 1 2 3 4 5 6 
#
# 1 156.5757 79.0048 39.2299 0.0000 0.0000 0.0000
# 2 79.0048 88.3260 27.9313 0.0000 0.0000 0.0000
# 3 39.2299 27.9313 49.8216 0.0000 0.0000 0.0000
# 4 0.0000 0.0000 0.0000 15.7024 0.0000 0.0000
# 5 0.0000 0.0000 0.0000 0.0000 0.6024 0.0000
# 6 0.0000 0.0000 0.0000 0.0000 0.0000 33.8338
#
#
#
# Elastic Compliance Matrix: (Units=1/GPa)
#
#
# Indices 1 2 3 4 5 6 
#
# 1 0.012352 -0.009691 -0.004293 0.000000 0.000000 0.000000
# 2 -0.009691 0.021365 -0.004347 0.000000 0.000000 0.000000
# 3 -0.004293 -0.004347 0.025889 0.000000 0.000000 0.000000
# 4 0.000000 0.000000 0.000000 0.063684 0.000000 0.000000
# 5 0.000000 0.000000 0.000000 0.000000 1.659908 0.000000
# 6 0.000000 0.000000 0.000000 0.000000 0.000000 0.029556
#
#
# Mechanical properties :
#
#
# Convention : Reuss Voigt Hill
#
# Bulk Modulus (GPa) = 43.58467 65.22839 54.40653
# Shear Modulus (GPa) = 2.69242 19.93155 11.31199
#
# Velocity S-wave (km/s) = 1.21491 3.30554 2.49024
# Velocity P-wave (km/s) = 5.08541 7.09419 6.17207
#
# Compressibility (1/GPa) = 0.02294385
#
# Stress axis : x y z
#
# Youngs Moduli (GPa) = 80.95691 46.80635 38.62645
#
# Poissons Ratio (x) = 0.45360 0.16583
# Poissons Ratio (y) = 0.78456 0.16790
# Poissons Ratio (z) = 0.34756 0.20346
#
# Static dielectric constant tensor:
#      x y z
#    x 3.609120 0.000000 0.000000 
#    y 0.000000 3.356670 0.000000 
#    z 0.000000 0.000000 3.045890 
# 
# 
# High freq. dielectric constant tensor:
#      x y z
#    x 1.725270 0.000000 0.000000 
#    y 0.000000 1.695210 0.000000 
#    z 0.000000 0.000000 1.671110 
# 
# From -- ./inp_files/1963.got.cif
#   From: 2010.03.12/outbox.cif.g09.slc.cpg/sg47_1_cif.got.tgz:1963.got - 2010.04.14 03:12:58.
