data_PCOD8198778
_publ_section_title
;
Structure prediction by ZEFSAII (Michael W. Deem and Ramdas Pophale) SiO2 
 PCOD8198778
Probable space group: P M M M
;
_chemical_formula_sum "Si O2"
_cell_formula_units_Z 48
_cell_length_a 9.095047
_cell_length_b 15.607158
_cell_length_c 17.694966
_cell_angle_alpha 90.000000
_cell_angle_beta 90.000000
_cell_angle_gamma 90.000000
_cell_volume 2511.762124
_symmetry_space_group_name_H-M "P M M M"
_symmetry_group_IT_number 47
_symmetry_cell_setting 'orthorhombic'
loop_
_space_group_symop_operation_xyz
x,y,z
-x,-y,z
x,-y,-z
-x,y,-z
-x,-y,-z
x,y,-z
-x,y,z
x,-y,z
loop_
_atom_site_type_symbol
_atom_site_label
_atom_site_fract_x
_atom_site_fract_y
_atom_site_fract_z
Si Si1 0.326843 0.140852 0.322479
Si Si2 0.674216 0.732346 0.085481
Si Si3 0.168823 0.597073 0.808942
Si Si4 0.174308 0.595117 0.500000
Si Si5 0.169765 0.683991 0.346762
Si Si6 0.673773 0.906678 0.154532
Si Si7 0.835045 0.000000 0.411026
O O1 0.500000 0.136959 0.335474
O O2 0.273469 0.237377 0.327713
O O3 0.281127 0.103687 0.241480
O O4 0.248944 0.085087 0.386049
O O5 0.500000 0.732060 0.095308
O O6 0.736234 0.660523 0.140469
O O7 0.738183 0.826817 0.106728
O O8 0.721651 0.711361 0.000000
O O9 0.221366 0.500000 0.824184
O O10 0.188915 0.615238 0.720063
O O11 0.000000 0.609161 0.832725
O O12 0.243104 0.500000 0.500000
O O13 0.227784 0.643791 0.424940
O O14 0.000000 0.588471 0.500000
O O15 0.000000 0.713660 0.353698
O O16 0.500000 0.906083 0.145844
O O17 0.734235 0.000000 0.126324
O O18 0.839739 0.000000 0.500000
O O19 0.000000 0.000000 0.377582
#
# Coordination Sequence:
#
# PCOD8198778 Si02
#       7
#     8   8   8   4   8   8   4
#     4  11  21  36  58  83 112 148 189 233 282 338
#     4  10  21  37  58  85 115 147 187 237 291 348
#     4  10  21  37  58  83 112 151 197 240 285 342
#     4   9  18  34  57  82 109 142 183 233 282 333
#     4  10  20  35  57  84 113 146 188 235 285 341
#     4   9  17  33  57  83 110 142 181 224 274 334
#     4  11  25  41  57  81 116 153 194 240 284 332
#
# _framework density 19.110088999999999
#
# number of rings (size 3 to 8) (size 9 to 14) (size 15 to 20)
#    0.000    2.000    2.500    1.250    1.167    4.000 
#    0.000    3.333    0.000    2.000    0.000    1.167 
#    0.000    0.000    0.000    0.000    0.000    0.000 
#
# Total GULP energy -595171.937034 kJ/mol
# GULP energy per Si atom -12399.415355 kJ/mol
# Density = 1.906659 g / cm^3
# Si number density = 19.110089 Si / 1000 Ang^3
#
#
#
# Elastic Constant Matrix: (Units=GPa)
#
#
# Indices 1 2 3 4 5 6 
#
# 1 48.6535 28.1425 36.2073 0.0000 0.0000 0.0000
# 2 28.1425 143.3514 54.0998 0.0000 0.0000 0.0000
# 3 36.2073 54.0998 107.2358 0.0000 0.0000 0.0000
# 4 0.0000 0.0000 0.0000 25.7679 0.0000 0.0000
# 5 0.0000 0.0000 0.0000 0.0000 23.4376 0.0000
# 6 0.0000 0.0000 0.0000 0.0000 0.0000 28.1777
#
#
#
# Elastic Compliance Matrix: (Units=1/GPa)
#
#
# Indices 1 2 3 4 5 6 
#
# 1 0.028099 -0.002391 -0.008281 0.000000 0.000000 0.000000
# 2 -0.002391 0.008820 -0.003642 0.000000 0.000000 0.000000
# 3 -0.008281 -0.003642 0.013959 0.000000 0.000000 0.000000
# 4 0.000000 0.000000 0.000000 0.038808 0.000000 0.000000
# 5 0.000000 0.000000 0.000000 0.000000 0.042667 0.000000
# 6 0.000000 0.000000 0.000000 0.000000 0.000000 0.035489
#
#
# Mechanical properties :
#
#
# Convention : Reuss Voigt Hill
#
# Bulk Modulus (GPa) = 44.94609 59.57110 52.25860
# Shear Modulus (GPa) = 24.52340 27.52937 26.02638
#
# Velocity S-wave (km/s) = 3.58616 3.79960 3.69442
# Velocity P-wave (km/s) = 6.38107 7.10560 6.75306
#
# Compressibility (1/GPa) = 0.02224888
#
# Stress axis : x y z
#
# Youngs Moduli (GPa) = 35.58804 113.38086 71.63947
#
# Poissons Ratio (x) = 0.27111 0.59326
# Poissons Ratio (y) = 0.08510 0.26093
# Poissons Ratio (z) = 0.29471 0.41296
#
# Static dielectric constant tensor:
#      x y z
#    x 3.242960 0.000000 0.000000 
#    y 0.000000 3.701550 0.000000 
#    z 0.000000 0.000000 3.599940 
# 
# 
# High freq. dielectric constant tensor:
#      x y z
#    x 1.711870 0.000000 0.000000 
#    y 0.000000 1.759690 0.000000 
#    z 0.000000 0.000000 1.746470 
# 
# From -- ./inp_files/26484.got.cif
#   From: 2010.03.12/outbox.cif.g09.slc.cpg/sg47_14_cif.got.tgz:26484.got - 2010.04.14 03:12:58.
