data_PCOD8198708
_publ_section_title
;
Structure prediction by ZEFSAII (Michael W. Deem and Ramdas Pophale) SiO2 
 PCOD8198708
Probable space group: P M M M
;
_chemical_formula_sum "Si O2"
_cell_formula_units_Z 40
_cell_length_a 26.213407
_cell_length_b 8.932509
_cell_length_c 9.406477
_cell_angle_alpha 90.000000
_cell_angle_beta 90.000000
_cell_angle_gamma 90.000000
_cell_volume 2202.540642
_symmetry_space_group_name_H-M "P M M M"
_symmetry_group_IT_number 47
_symmetry_cell_setting 'orthorhombic'
loop_
_space_group_symop_operation_xyz
x,y,z
-x,-y,z
x,-y,-z
-x,y,-z
-x,-y,-z
x,y,-z
-x,y,z
x,-y,z
loop_
_atom_site_type_symbol
_atom_site_label
_atom_site_fract_x
_atom_site_fract_y
_atom_site_fract_z
Si Si1 0.305971 0.331887 0.831279
Si Si2 0.890792 0.820885 0.340343
Si Si3 0.408985 0.823922 0.165254
Si Si4 0.204827 0.825702 0.834297
Si Si5 0.500000 0.323458 0.665524
Si Si6 0.000000 0.164319 0.669074
O O1 0.311595 0.500000 0.771323
O O2 0.354049 0.233758 0.781780
O O3 0.254143 0.258872 0.771160
O O4 0.303236 0.332053 0.000000
O O5 0.879052 0.766144 0.500000
O O6 0.845705 0.760270 0.240569
O O7 0.946291 0.755446 0.287352
O O8 0.893823 0.000000 0.335000
O O9 0.450438 0.743603 0.260978
O O10 0.412113 0.000000 0.190025
O O11 0.418529 0.783423 0.000000
O O12 0.212376 0.000000 0.801001
O O13 0.198148 0.794846 0.000000
O O14 0.500000 0.500000 0.687966
O O15 0.500000 0.279526 0.500000
O O16 0.000000 0.147785 0.500000
O O17 0.000000 0.000000 0.739654
#
# Coordination Sequence:
#
# PCOD8198708 Si02
#       6
#     8   8   8   8   4   4
#     4   9  17  30  49  71  94 123 158 193 231 278
#     4   8  13  22  37  57  82 113 147 181 221 272
#     4  10  20  35  57  82 103 127 165 208 244 283
#     4   9  16  26  41  63  90 116 144 184 231 273
#     4  11  24  39  54  76 108 141 168 197 238 286
#     4   7  10  18  33  53  78 109 144 180 218 265
#
# _framework density 18.160847
#
# number of rings (size 3 to 8) (size 9 to 14) (size 15 to 20)
#    0.000    3.000    0.000    3.000    0.000    5.600 
#    0.000    1.500    0.000    7.200    0.000    0.700 
#    0.000    5.600    0.000    0.000    0.000    0.000 
#
# Total GULP energy -495710.630049 kJ/mol
# GULP energy per Si atom -12392.765751 kJ/mol
# Density = 1.811951 g / cm^3
# Si number density = 18.160847 Si / 1000 Ang^3
#
#
#
# Elastic Constant Matrix: (Units=GPa)
#
#
# Indices 1 2 3 4 5 6 
#
# 1 204.9463 57.3841 66.6761 0.0000 0.0000 0.0000
# 2 57.3841 65.3662 36.8561 0.0000 0.0000 0.0000
# 3 66.6761 36.8561 57.0445 0.0000 0.0000 0.0000
# 4 0.0000 0.0000 0.0000 14.0892 0.0000 0.0000
# 5 0.0000 0.0000 0.0000 0.0000 -9.8603 0.0000
# 6 0.0000 0.0000 0.0000 0.0000 0.0000 -1.2577
#
#
#
# Elastic Compliance Matrix: (Units=1/GPa)
#
#
# Indices 1 2 3 4 5 6 
#
# 1 0.008191 -0.002820 -0.007752 0.000000 0.000000 0.000000
# 2 -0.002820 0.025036 -0.012880 0.000000 0.000000 0.000000
# 3 -0.007752 -0.012880 0.034913 0.000000 0.000000 0.000000
# 4 0.000000 0.000000 0.000000 0.070976 0.000000 0.000000
# 5 0.000000 0.000000 0.000000 0.000000 -0.101417 0.000000
# 6 0.000000 0.000000 0.000000 0.000000 0.000000 -0.795098
#
#
# Mechanical properties :
#
#
# Convention : Reuss Voigt Hill
#
# Bulk Modulus (GPa) = 47.08895 72.13218 59.61057
# Shear Modulus (GPa) = -7.10816 11.69028 2.29106
#
# Velocity S-wave (km/s) = -1.98053 2.53989 1.12440
# Velocity P-wave (km/s) = 4.55578 6.95745 5.88053
#
# Compressibility (1/GPa) = 0.02123640
#
# Stress axis : x y z
#
# Youngs Moduli (GPa) = 122.08769 39.94253 28.64294
#
# Poissons Ratio (x) = 0.11263 0.22204
# Poissons Ratio (y) = 0.34425 0.36891
# Poissons Ratio (z) = 0.94642 0.51445
#
# Static dielectric constant tensor:
#      x y z
#    x 3.927130 0.000000 0.000000 
#    y 0.000000 3.127300 0.000000 
#    z 0.000000 0.000000 3.068900 
# 
# 
# High freq. dielectric constant tensor:
#      x y z
#    x 1.730780 0.000000 0.000000 
#    y 0.000000 1.672660 0.000000 
#    z 0.000000 0.000000 1.662270 
# 
# From -- ./inp_files/13079.got.cif
#   From: 2010.03.12/outbox.cif.g09.slc.cpg/sg47_7_cif.got.tgz:13079.got - 2010.04.14 03:12:58.
