data_PCOD8198999
_publ_section_title
;
Structure prediction by ZEFSAII (Michael W. Deem and Ramdas Pophale) SiO2 
 PCOD8198999
Probable space group: P M M M
;
_chemical_formula_sum "Si O2"
_cell_formula_units_Z 48
_cell_length_a 7.758757
_cell_length_b 33.730249
_cell_length_c 9.149618
_cell_angle_alpha 90.000000
_cell_angle_beta 90.000000
_cell_angle_gamma 90.000000
_cell_volume 2394.498999
_symmetry_space_group_name_H-M "P M M M"
_symmetry_group_IT_number 47
_symmetry_cell_setting 'orthorhombic'
loop_
_space_group_symop_operation_xyz
x,y,z
-x,-y,z
x,-y,-z
-x,y,-z
-x,-y,-z
x,y,-z
-x,y,z
x,-y,z
loop_
_atom_site_type_symbol
_atom_site_label
_atom_site_fract_x
_atom_site_fract_y
_atom_site_fract_z
Si Si1 0.305520 0.348411 0.838284
Si Si2 0.500000 0.780299 0.326202
Si Si3 0.702999 0.500000 0.832542
Si Si4 0.795759 0.000000 0.663273
Si Si5 0.197290 0.077538 0.830518
Si Si6 0.500000 0.862624 0.169548
Si Si7 0.197730 0.422289 0.663442
Si Si8 0.193516 0.264096 0.829839
O O1 0.500000 0.332792 0.842680
O O2 0.298039 0.385299 0.729825
O O3 0.194150 0.310738 0.786681
O O4 0.245814 0.362635 0.000000
O O5 0.500000 0.778076 0.500000
O O6 0.500000 0.825338 0.274780
O O7 0.326811 0.759780 0.268420
O O8 0.500000 0.500000 0.816286
O O9 0.778966 0.538592 0.757630
O O10 0.762111 0.500000 0.000000
O O11 0.731537 0.960614 0.744577
O O12 0.719447 0.000000 0.500000
O O13 0.000000 0.000000 0.662548
O O14 0.325690 0.113382 0.793819
O O15 0.000000 0.088964 0.785843
O O16 0.205561 0.066416 0.000000
O O17 0.500000 0.849440 0.000000
O O18 0.267483 0.430286 0.500000
O O19 0.000000 0.410141 0.661206
O O20 0.000000 0.247986 0.800987
O O21 0.244637 0.259139 0.000000
#
# Coordination Sequence:
#
# PCOD8198999 Si02
#       8
#     8   4   4   4   8   4   8   8
#     4  10  20  37  63  92 120 150 191 241 289 343
#     4  12  26  42  61  89 128 163 196 248 312 376
#     4  11  24  41  60  82 108 145 196 245 288 338
#     4   9  17  30  51  80 115 153 190 235 293 356
#     4   9  18  34  56  81 110 148 195 247 298 347
#     4  10  22  39  59  82 111 150 203 253 294 354
#     4  11  24  39  56  83 119 155 191 233 285 347
#     4  10  21  41  69  94 119 157 204 252 301 359
#
# _framework density 20.045947000000002
#
# number of rings (size 3 to 8) (size 9 to 14) (size 15 to 20)
#    0.000    1.833    0.833    3.000    0.000    9.667 
#    0.000    3.333    0.000    0.000    0.000    0.000 
#    0.000    0.000    0.000    0.000    0.000    0.000 
#
# Total GULP energy -595247.876610 kJ/mol
# GULP energy per Si atom -12400.997429 kJ/mol
# Density = 2.000032 g / cm^3
# Si number density = 20.045947 Si / 1000 Ang^3
#
#
#
# Elastic Constant Matrix: (Units=GPa)
#
#
# Indices 1 2 3 4 5 6 
#
# 1 102.0426 51.8198 48.5169 0.0000 0.0000 0.0000
# 2 51.8198 130.3642 75.2764 0.0000 0.0000 0.0000
# 3 48.5169 75.2764 124.6553 0.0000 0.0000 0.0000
# 4 0.0000 0.0000 0.0000 -22.1788 0.0000 0.0000
# 5 0.0000 0.0000 0.0000 0.0000 22.1052 0.0000
# 6 0.0000 0.0000 0.0000 0.0000 0.0000 2.2725
#
#
#
# Elastic Compliance Matrix: (Units=1/GPa)
#
#
# Indices 1 2 3 4 5 6 
#
# 1 0.012956 -0.003437 -0.002967 0.000000 0.000000 0.000000
# 2 -0.003437 0.012689 -0.006325 0.000000 0.000000 0.000000
# 3 -0.002967 -0.006325 0.012997 0.000000 0.000000 0.000000
# 4 0.000000 0.000000 0.000000 -0.045088 0.000000 0.000000
# 5 0.000000 0.000000 0.000000 0.000000 0.045238 0.000000
# 6 0.000000 0.000000 0.000000 0.000000 0.000000 0.440040
#
#
# Mechanical properties :
#
#
# Convention : Reuss Voigt Hill
#
# Bulk Modulus (GPa) = 75.85140 78.69868 77.27504
# Shear Modulus (GPa) = 9.82927 12.53639 11.18283
#
# Velocity S-wave (km/s) = 2.21676 2.50348 2.36447
# Velocity P-wave (km/s) = 6.66880 6.90658 6.78874
#
# Compressibility (1/GPa) = 0.01318367
#
# Stress axis : x y z
#
# Youngs Moduli (GPa) = 77.18549 78.80719 76.94313
#
# Poissons Ratio (x) = 0.27083 0.22831
# Poissons Ratio (y) = 0.26525 0.48668
# Poissons Ratio (z) = 0.22903 0.49847
#
# Static dielectric constant tensor:
#      x y z
#    x 3.842770 0.000000 0.000000 
#    y 0.000000 3.518380 0.000000 
#    z 0.000000 0.000000 3.715480 
# 
# 
# High freq. dielectric constant tensor:
#      x y z
#    x 1.791260 0.000000 0.000000 
#    y 0.000000 1.778430 0.000000 
#    z 0.000000 0.000000 1.776430 
# 
# From -- ./inp_files/2845.got.cif
#   From: 2010.03.12/outbox.cif.g09.slc.cpg/sg47_2_cif.got.tgz:2845.got - 2010.04.14 03:12:58.
