data_PCOD8198066
_publ_section_title
;
Structure prediction by ZEFSAII (Michael W. Deem and Ramdas Pophale) SiO2 
 PCOD8198066
Probable space group: P M M M
;
_chemical_formula_sum "Si O2"
_cell_formula_units_Z 52
_cell_length_a 28.131681
_cell_length_b 12.820181
_cell_length_c 7.872480
_cell_angle_alpha 90.000000
_cell_angle_beta 90.000000
_cell_angle_gamma 90.000000
_cell_volume 2839.235437
_symmetry_space_group_name_H-M "P M M M"
_symmetry_group_IT_number 47
_symmetry_cell_setting 'orthorhombic'
loop_
_space_group_symop_operation_xyz
x,y,z
-x,-y,z
x,-y,-z
-x,y,-z
-x,-y,-z
x,y,-z
-x,y,z
x,-y,z
loop_
_atom_site_type_symbol
_atom_site_label
_atom_site_fract_x
_atom_site_fract_y
_atom_site_fract_z
Si Si1 0.729595 0.884778 0.805728
Si Si2 0.090163 0.121726 0.191348
Si Si3 0.553683 0.721712 0.195142
Si Si4 0.371093 0.884221 0.306457
Si Si5 0.816161 0.247779 0.803609
Si Si6 0.947076 0.752428 0.500000
Si Si7 0.556206 0.500000 0.307632
Si Si8 0.854365 0.622788 0.500000
O O1 0.675627 0.841898 0.790518
O O2 0.767189 0.802296 0.731138
O O3 0.732850 0.000000 0.718290
O O4 0.743816 0.896979 0.000000
O O5 0.144456 0.157956 0.209159
O O6 0.057767 0.178569 0.329967
O O7 0.088455 0.000000 0.230049
O O8 0.071363 0.146176 0.000000
O O9 0.500000 0.726929 0.269752
O O10 0.585030 0.806320 0.290432
O O11 0.575437 0.605401 0.219356
O O12 0.553835 0.751706 0.000000
O O13 0.355964 0.890939 0.500000
O O14 0.385587 0.000000 0.238743
O O15 0.828598 0.340295 0.673282
O O16 0.812133 0.289219 0.000000
O O17 0.909027 0.659681 0.500000
O O18 0.000000 0.704022 0.500000
O O19 0.500000 0.500000 0.289622
O O20 0.573895 0.500000 0.500000
O O21 0.853402 0.500000 0.500000
#
# Coordination Sequence:
#
# PCOD8198066 Si02
#       8
#     8   8   8   8   8   4   4   4
#     4   9  17  31  53  79 106 135 164 199 247 306
#     4   9  17  30  49  76 109 141 173 209 255 314
#     4  10  20  34  53  74  98 132 175 220 262 310
#     4  10  21  34  49  74 107 140 173 210 256 311
#     4   9  18  33  55  80 105 134 170 215 262 313
#     4  10  21  35  50  73 105 140 181 222 260 307
#     4   9  17  31  53  77  97 121 159 209 263 309
#     4  10  22  38  57  78 100 135 180 226 272 309
#
# _framework density 18.314789000000001
#
# number of rings (size 3 to 8) (size 9 to 14) (size 15 to 20)
#    0.000    2.538    0.000    1.846    1.077    6.308 
#    0.000    3.077    1.692    0.000    0.000    4.308 
#    0.000    0.000    0.000    0.000    0.000    0.000 
#
# Total GULP energy -644553.505066 kJ/mol
# GULP energy per Si atom -12395.259713 kJ/mol
# Density = 1.827310 g / cm^3
# Si number density = 18.314789 Si / 1000 Ang^3
#
#
#
# Elastic Constant Matrix: (Units=GPa)
#
#
# Indices 1 2 3 4 5 6 
#
# 1 102.2719 64.3885 29.1327 0.0000 0.0000 0.0000
# 2 64.3885 120.2316 41.4169 0.0000 0.0000 0.0000
# 3 29.1327 41.4169 82.0889 0.0000 0.0000 0.0000
# 4 0.0000 0.0000 0.0000 22.6258 0.0000 0.0000
# 5 0.0000 0.0000 0.0000 0.0000 20.7081 0.0000
# 6 0.0000 0.0000 0.0000 0.0000 0.0000 15.9143
#
#
#
# Elastic Compliance Matrix: (Units=1/GPa)
#
#
# Indices 1 2 3 4 5 6 
#
# 1 0.014908 -0.007458 -0.001528 0.000000 0.000000 0.000000
# 2 -0.007458 0.013797 -0.004315 0.000000 0.000000 0.000000
# 3 -0.001528 -0.004315 0.014901 0.000000 0.000000 0.000000
# 4 0.000000 0.000000 0.000000 0.044197 0.000000 0.000000
# 5 0.000000 0.000000 0.000000 0.000000 0.048290 0.000000
# 6 0.000000 0.000000 0.000000 0.000000 0.000000 0.062836
#
#
# Mechanical properties :
#
#
# Convention : Reuss Voigt Hill
#
# Bulk Modulus (GPa) = 58.80277 63.82982 61.31630
# Shear Modulus (GPa) = 21.62625 23.15992 22.39308
#
# Velocity S-wave (km/s) = 3.44002 3.55991 3.50047
# Velocity P-wave (km/s) = 6.92493 7.19892 7.06325
#
# Compressibility (1/GPa) = 0.01700600
#
# Stress axis : x y z
#
# Youngs Moduli (GPa) = 67.07676 72.47767 67.10875
#
# Poissons Ratio (x) = 0.54050 0.10256
# Poissons Ratio (y) = 0.50022 0.28955
# Poissons Ratio (z) = 0.10251 0.31272
#
# Static dielectric constant tensor:
#      x y z
#    x 3.237070 0.000000 0.000000 
#    y 0.000000 3.232890 0.000000 
#    z 0.000000 0.000000 3.522020 
# 
# 
# High freq. dielectric constant tensor:
#      x y z
#    x 1.696150 0.000000 0.000000 
#    y 0.000000 1.687850 0.000000 
#    z 0.000000 0.000000 1.719480 
# 
# From -- ./inp_files/13352.got.cif
#   From: 2010.03.12/outbox.cif.g09.slc.cpg/sg47_7_cif.got.tgz:13352.got - 2010.04.14 03:12:58.
