data_PCOD8198799
_publ_section_title
;
Structure prediction by ZEFSAII (Michael W. Deem and Ramdas Pophale) SiO2 
 PCOD8198799
Probable space group: P M M M
;
_chemical_formula_sum "Si O2"
_cell_formula_units_Z 44
_cell_length_a 14.150849
_cell_length_b 8.898783
_cell_length_c 17.872292
_cell_angle_alpha 90.000000
_cell_angle_beta 90.000000
_cell_angle_gamma 90.000000
_cell_volume 2250.574349
_symmetry_space_group_name_H-M "P M M M"
_symmetry_group_IT_number 47
_symmetry_cell_setting 'orthorhombic'
loop_
_space_group_symop_operation_xyz
x,y,z
-x,-y,z
x,-y,-z
-x,y,-z
-x,-y,-z
x,y,-z
-x,y,z
x,-y,z
loop_
_atom_site_type_symbol
_atom_site_label
_atom_site_fract_x
_atom_site_fract_y
_atom_site_fract_z
Si Si1 0.891542 0.674849 0.210974
Si Si2 0.776050 0.173184 0.915469
Si Si3 0.606691 0.175636 0.687640
Si Si4 0.889014 0.174013 0.500000
Si Si5 0.606290 0.326750 0.846177
Si Si6 0.786178 0.676706 0.362658
O O1 0.878313 0.500000 0.193019
O O2 0.856678 0.767330 0.139622
O O3 0.831391 0.721901 0.283254
O O4 0.000000 0.715699 0.226785
O O5 0.678493 0.265088 0.907524
O O6 0.755420 0.000000 0.897620
O O7 0.812832 0.195263 0.000000
O O8 0.500000 0.210029 0.660167
O O9 0.621676 0.233298 0.771256
O O10 0.679236 0.260749 0.633035
O O11 0.628772 0.000000 0.685799
O O12 0.847847 0.249514 0.573435
O O13 0.000000 0.200989 0.500000
O O14 0.861789 0.000000 0.500000
O O15 0.500000 0.307440 0.877337
O O16 0.628886 0.500000 0.827917
O O17 0.785249 0.500000 0.375539
#
# Coordination Sequence:
#
# PCOD8198799 Si02
#       6
#     8   8   8   4   8   8
#     4  10  22  40  62  87 114 151 199 247 299 358
#     4  11  24  39  56  82 117 156 199 249 304 359
#     4  10  20  35  59  91 125 160 198 241 291 351
#     4  11  25  43  64  93 128 165 203 246 300 355
#     4  10  20  35  57  85 116 153 198 245 295 353
#     4  11  22  39  65  94 124 159 200 246 296 354
#
# _framework density 19.550566
#
# number of rings (size 3 to 8) (size 9 to 14) (size 15 to 20)
#    0.000    1.545    1.818    3.000    0.000    6.909 
#    0.000    4.091    0.000    2.727    0.000    0.000 
#    0.000    0.000    0.000    0.000    0.000    0.000 
#
# Total GULP energy -545789.701772 kJ/mol
# GULP energy per Si atom -12404.311404 kJ/mol
# Density = 1.950607 g / cm^3
# Si number density = 19.550566 Si / 1000 Ang^3
#
#
#
# Elastic Constant Matrix: (Units=GPa)
#
#
# Indices 1 2 3 4 5 6 
#
# 1 123.6176 69.6410 47.8769 0.0000 0.0000 0.0000
# 2 69.6410 107.7419 62.5372 0.0000 0.0000 0.0000
# 3 47.8769 62.5372 92.8678 0.0000 0.0000 0.0000
# 4 0.0000 0.0000 0.0000 32.6997 0.0000 0.0000
# 5 0.0000 0.0000 0.0000 0.0000 29.8123 0.0000
# 6 0.0000 0.0000 0.0000 0.0000 0.0000 33.6840
#
#
#
# Elastic Compliance Matrix: (Units=1/GPa)
#
#
# Indices 1 2 3 4 5 6 
#
# 1 0.012883 -0.007342 -0.001698 0.000000 0.000000 0.000000
# 2 -0.007342 0.019421 -0.009293 0.000000 0.000000 0.000000
# 3 -0.001698 -0.009293 0.017901 0.000000 0.000000 0.000000
# 4 0.000000 0.000000 0.000000 0.030581 0.000000 0.000000
# 5 0.000000 0.000000 0.000000 0.000000 0.033543 0.000000
# 6 0.000000 0.000000 0.000000 0.000000 0.000000 0.029688
#
#
# Mechanical properties :
#
#
# Convention : Reuss Voigt Hill
#
# Bulk Modulus (GPa) = 73.85539 76.03750 74.94644
# Shear Modulus (GPa) = 26.99840 28.85069 27.92454
#
# Velocity S-wave (km/s) = 3.72015 3.84565 3.78342
# Velocity P-wave (km/s) = 7.50408 7.66132 7.58311
#
# Compressibility (1/GPa) = 0.01353997
#
# Stress axis : x y z
#
# Youngs Moduli (GPa) = 77.62143 51.49064 55.86193
#
# Poissons Ratio (x) = 0.37803 0.09484
# Poissons Ratio (y) = 0.56988 0.51913
# Poissons Ratio (z) = 0.13178 0.47851
#
# Static dielectric constant tensor:
#      x y z
#    x 3.790150 0.000000 0.000000 
#    y 0.000000 3.691500 0.000000 
#    z 0.000000 0.000000 3.265940 
# 
# 
# High freq. dielectric constant tensor:
#      x y z
#    x 1.775630 0.000000 0.000000 
#    y 0.000000 1.774610 0.000000 
#    z 0.000000 0.000000 1.744580 
# 
# From -- ./inp_files/9016.got.cif
#   From: 2010.03.12/outbox.cif.g09.slc.cpg/sg47_5_cif.got.tgz:9016.got - 2010.04.14 03:12:58.
