data_PCOD8198672
_publ_section_title
;
Structure prediction by ZEFSAII (Michael W. Deem and Ramdas Pophale) SiO2 
 PCOD8198672
Probable space group: P M M M
;
_chemical_formula_sum "Si O2"
_cell_formula_units_Z 48
_cell_length_a 14.773393
_cell_length_b 19.649439
_cell_length_c 8.979672
_cell_angle_alpha 90.000000
_cell_angle_beta 90.000000
_cell_angle_gamma 90.000000
_cell_volume 2606.698969
_symmetry_space_group_name_H-M "P M M M"
_symmetry_group_IT_number 47
_symmetry_cell_setting 'orthorhombic'
loop_
_space_group_symop_operation_xyz
x,y,z
-x,-y,z
x,-y,-z
-x,y,-z
-x,-y,-z
x,y,-z
-x,y,z
x,-y,z
loop_
_atom_site_type_symbol
_atom_site_label
_atom_site_fract_x
_atom_site_fract_y
_atom_site_fract_z
Si Si1 0.896756 0.000000 0.660990
Si Si2 0.898466 0.731126 0.674213
Si Si3 0.279886 0.689075 0.823948
Si Si4 0.852036 0.133682 0.166585
Si Si5 0.396025 0.578717 0.329219
Si Si6 0.500000 0.921122 0.676248
Si Si7 0.647394 0.168322 0.834178
O O1 0.874809 0.936294 0.759776
O O2 0.844564 0.000000 0.500000
O O3 0.000000 0.000000 0.620599
O O4 0.877247 0.732251 0.500000
O O5 0.820677 0.686505 0.753331
O O6 0.895568 0.807427 0.734886
O O7 0.000000 0.701451 0.704360
O O8 0.332197 0.621267 0.779047
O O9 0.339489 0.754475 0.770881
O O10 0.266150 0.693279 0.000000
O O11 0.744774 0.135262 0.159615
O O12 0.892548 0.138516 0.000000
O O13 0.377416 0.599205 0.500000
O O14 0.500000 0.593337 0.287802
O O15 0.372931 0.500000 0.303417
O O16 0.500000 0.922198 0.500000
O O17 0.412830 0.879094 0.729388
O O18 0.500000 0.000000 0.735732
O O19 0.604109 0.170601 0.000000
#
# Coordination Sequence:
#
# PCOD8198672 Si02
#       7
#     4   8   8   8   8   4   8
#     4  11  23  35  49  72 101 134 169 211 270 333
#     4  10  20  35  56  81 109 143 183 226 276 332
#     4  10  21  36  57  86 116 148 188 231 275 327
#     4  10  21  36  54  76 101 132 174 223 275 329
#     4   9  19  36  58  86 120 156 190 225 272 329
#     4  11  25  39  53  77 102 133 182 231 277 326
#     4   9  21  39  55  75 103 139 178 219 272 327
#
# _framework density 18.414093999999999
#
# number of rings (size 3 to 8) (size 9 to 14) (size 15 to 20)
#    0.000    2.167    0.000    4.000    2.333    9.333 
#    0.000    0.833    0.000    0.500    0.000    3.500 
#    0.000    0.000    0.000    0.000    0.000    0.000 
#
# Total GULP energy -595031.156107 kJ/mol
# GULP energy per Si atom -12396.482419 kJ/mol
# Density = 1.837218 g / cm^3
# Si number density = 18.414094 Si / 1000 Ang^3
#
#
#
# Elastic Constant Matrix: (Units=GPa)
#
#
# Indices 1 2 3 4 5 6 
#
# 1 92.6603 56.1337 53.7518 0.0000 0.0000 0.0000
# 2 56.1337 91.8084 43.4211 0.0000 0.0000 0.0000
# 3 53.7518 43.4211 98.6031 0.0000 0.0000 0.0000
# 4 0.0000 0.0000 0.0000 30.1951 0.0000 0.0000
# 5 0.0000 0.0000 0.0000 0.0000 31.1868 0.0000
# 6 0.0000 0.0000 0.0000 0.0000 0.0000 10.3386
#
#
#
# Elastic Compliance Matrix: (Units=1/GPa)
#
#
# Indices 1 2 3 4 5 6 
#
# 1 0.020467 -0.009141 -0.007132 0.000000 0.000000 0.000000
# 2 -0.009141 0.017840 -0.002873 0.000000 0.000000 0.000000
# 3 -0.007132 -0.002873 0.015295 0.000000 0.000000 0.000000
# 4 0.000000 0.000000 0.000000 0.033118 0.000000 0.000000
# 5 0.000000 0.000000 0.000000 0.000000 0.032065 0.000000
# 6 0.000000 0.000000 0.000000 0.000000 0.000000 0.096725
#
#
# Mechanical properties :
#
#
# Convention : Reuss Voigt Hill
#
# Bulk Modulus (GPa) = 65.31709 65.52054 65.41881
# Shear Modulus (GPa) = 19.31218 22.99510 21.15364
#
# Velocity S-wave (km/s) = 3.24199 3.53764 3.39303
# Velocity P-wave (km/s) = 7.04004 7.23502 7.13820
#
# Compressibility (1/GPa) = 0.01530993
#
# Stress axis : x y z
#
# Youngs Moduli (GPa) = 48.85973 56.05384 65.38226
#
# Poissons Ratio (x) = 0.51238 0.46629
# Poissons Ratio (y) = 0.44662 0.18785
# Poissons Ratio (z) = 0.34846 0.16105
#
# Static dielectric constant tensor:
#      x y z
#    x 3.454220 0.000000 0.000000 
#    y 0.000000 3.198930 0.000000 
#    z 0.000000 0.000000 3.608140 
# 
# 
# High freq. dielectric constant tensor:
#      x y z
#    x 1.717550 0.000000 0.000000 
#    y 0.000000 1.698560 0.000000 
#    z 0.000000 0.000000 1.725200 
# 
# From -- ./inp_files/6428.got.cif
#   From: 2010.03.12/outbox.cif.g09.slc.cpg/sg47_4_cif.got.tgz:6428.got - 2010.04.14 03:12:58.
