data_PCOD8198666
_publ_section_title
;
Structure prediction by ZEFSAII (Michael W. Deem and Ramdas Pophale) SiO2 
 PCOD8198666
Probable space group: P M M M
;
_chemical_formula_sum "Si O2"
_cell_formula_units_Z 36
_cell_length_a 8.789967
_cell_length_b 16.099339
_cell_length_c 13.526391
_cell_angle_alpha 90.000000
_cell_angle_beta 90.000000
_cell_angle_gamma 90.000000
_cell_volume 1914.155551
_symmetry_space_group_name_H-M "P M M M"
_symmetry_group_IT_number 47
_symmetry_cell_setting 'orthorhombic'
loop_
_space_group_symop_operation_xyz
x,y,z
-x,-y,z
x,-y,-z
-x,y,-z
-x,-y,-z
x,y,-z
-x,y,z
x,-y,z
loop_
_atom_site_type_symbol
_atom_site_label
_atom_site_fract_x
_atom_site_fract_y
_atom_site_fract_z
Si Si1 0.179035 0.328339 0.892688
Si Si2 0.178613 0.159817 0.790177
Si Si3 0.679856 0.000000 0.887541
Si Si4 0.179831 0.593534 0.694789
Si Si5 0.675410 0.751786 0.387222
O O1 0.222775 0.234689 0.863249
O O2 0.236375 0.391364 0.807900
O O3 0.000000 0.336712 0.901836
O O4 0.253312 0.349129 0.000000
O O5 0.231972 0.183422 0.679797
O O6 0.000000 0.142332 0.788022
O O7 0.263687 0.079522 0.828558
O O8 0.500000 0.000000 0.888507
O O9 0.743837 0.000000 0.000000
O O10 0.222328 0.500000 0.663201
O O11 0.263096 0.657646 0.622857
O O12 0.000000 0.609826 0.687082
O O13 0.696886 0.780207 0.500000
O O14 0.500000 0.753243 0.355205
#
# Coordination Sequence:
#
# PCOD8198666 Si02
#       5
#     8   8   4   8   8
#     4   8  14  26  46  72 101 133 169 210 256 304
#     4  10  20  35  56  81 108 138 177 222 263 310
#     4  11  23  37  56  85 120 151 175 206 252 303
#     4   9  18  31  48  74 105 136 175 222 267 314
#     4  10  21  37  56  76 101 136 176 220 274 331
#
# _framework density 18.807248999999999
#
# number of rings (size 3 to 8) (size 9 to 14) (size 15 to 20)
#    0.000    2.556    0.000    3.667    0.000    4.889 
#    0.000    5.000    0.000    9.333    0.000    6.222 
#    0.000    0.000    0.000    0.000    0.000    0.000 
#
# Total GULP energy -446301.277464 kJ/mol
# GULP energy per Si atom -12397.257707 kJ/mol
# Density = 1.876444 g / cm^3
# Si number density = 18.807249 Si / 1000 Ang^3
#
#
#
# Elastic Constant Matrix: (Units=GPa)
#
#
# Indices 1 2 3 4 5 6 
#
# 1 53.2412 28.0044 24.8335 0.0000 0.0000 0.0000
# 2 28.0044 90.3472 26.8921 0.0000 0.0000 0.0000
# 3 24.8335 26.8921 94.2057 0.0000 0.0000 0.0000
# 4 0.0000 0.0000 0.0000 16.5672 0.0000 0.0000
# 5 0.0000 0.0000 0.0000 0.0000 23.4927 0.0000
# 6 0.0000 0.0000 0.0000 0.0000 0.0000 22.8737
#
#
#
# Elastic Compliance Matrix: (Units=1/GPa)
#
#
# Indices 1 2 3 4 5 6 
#
# 1 0.024153 -0.006111 -0.004623 0.000000 0.000000 0.000000
# 2 -0.006111 0.013642 -0.002284 0.000000 0.000000 0.000000
# 3 -0.004623 -0.002284 0.012485 0.000000 0.000000 0.000000
# 4 0.000000 0.000000 0.000000 0.060360 0.000000 0.000000
# 5 0.000000 0.000000 0.000000 0.000000 0.042566 0.000000
# 6 0.000000 0.000000 0.000000 0.000000 0.000000 0.043718
#
#
# Mechanical properties :
#
#
# Convention : Reuss Voigt Hill
#
# Bulk Modulus (GPa) = 41.24208 44.13935 42.69072
# Shear Modulus (GPa) = 21.64120 23.12432 22.38276
#
# Velocity S-wave (km/s) = 3.39585 3.51029 3.45354
# Velocity P-wave (km/s) = 6.11164 6.32058 6.21699
#
# Compressibility (1/GPa) = 0.02424708
#
# Stress axis : x y z
#
# Youngs Moduli (GPa) = 41.40329 73.30220 80.09312
#
# Poissons Ratio (x) = 0.44792 0.37023
# Poissons Ratio (y) = 0.25300 0.18289
# Poissons Ratio (z) = 0.19139 0.16739
#
# Static dielectric constant tensor:
#      x y z
#    x 3.295380 0.000000 0.000000 
#    y 0.000000 3.373800 0.000000 
#    z 0.000000 0.000000 3.674460 
# 
# 
# High freq. dielectric constant tensor:
#      x y z
#    x 1.712790 0.000000 0.000000 
#    y 0.000000 1.721720 0.000000 
#    z 0.000000 0.000000 1.737100 
# 
# From -- ./inp_files/5486.got.cif
#   From: 2010.03.12/outbox.cif.g09.slc.cpg/sg47_3_cif.got.tgz:5486.got - 2010.04.14 03:12:58.
