data_PCOD8198028
_publ_section_title
;
Structure prediction by ZEFSAII (Michael W. Deem and Ramdas Pophale) SiO2 
 PCOD8198028
Probable space group: P M M M
;
_chemical_formula_sum "Si O2"
_cell_formula_units_Z 36
_cell_length_a 11.864079
_cell_length_b 19.520504
_cell_length_c 7.517416
_cell_angle_alpha 90.000000
_cell_angle_beta 90.000000
_cell_angle_gamma 90.000000
_cell_volume 1740.979432
_symmetry_space_group_name_H-M "P M M M"
_symmetry_group_IT_number 47
_symmetry_cell_setting 'orthorhombic'
loop_
_space_group_symop_operation_xyz
x,y,z
-x,-y,z
x,-y,-z
-x,y,-z
-x,-y,-z
x,y,-z
-x,y,z
x,-y,z
loop_
_atom_site_type_symbol
_atom_site_label
_atom_site_fract_x
_atom_site_fract_y
_atom_site_fract_z
Si Si1 0.270649 0.424421 0.208938
Si Si2 0.500000 0.647265 0.702734
Si Si3 0.500000 0.800176 0.198587
Si Si4 0.869712 0.919124 0.500000
Si Si5 0.874780 0.698381 0.211003
Si Si6 0.255228 0.834375 0.212793
O O1 0.251427 0.500000 0.292937
O O2 0.394963 0.399493 0.251014
O O3 0.181187 0.370620 0.290460
O O4 0.253744 0.428453 0.000000
O O5 0.500000 0.670172 0.500000
O O6 0.500000 0.717746 0.811484
O O7 0.384843 0.830076 0.283436
O O8 0.500000 0.827669 0.000000
O O9 0.808709 0.893516 0.679882
O O10 0.000000 0.895192 0.500000
O O11 0.860362 0.000000 0.500000
O O12 0.801053 0.762933 0.269992
O O13 0.000000 0.705625 0.290875
O O14 0.878727 0.694406 0.000000
O O15 0.245352 0.847570 0.000000
#
# Coordination Sequence:
#
# PCOD8198028 Si02
#       6
#     8   4   4   4   8   8
#     4  10  20  34  52  74 107 150 194 245 304 361
#     4  12  23  33  52  79 111 151 196 253 307 359
#     4  10  20  37  63  93 124 156 200 255 306 360
#     4  11  26  45  67  97 130 164 202 244 294 360
#     4   9  17  31  54  83 112 146 193 245 297 355
#     4  10  21  39  65  94 126 164 205 254 305 359
#
# _framework density 20.678014000000001
#
# number of rings (size 3 to 8) (size 9 to 14) (size 15 to 20)
#    0.000    1.889    2.222    2.000    1.556    4.000 
#    0.000    4.444    0.000    2.000    0.000    1.556 
#    0.000    0.000    0.000    0.000    0.000    0.000 
#
# Total GULP energy -446261.213547 kJ/mol
# GULP energy per Si atom -12396.144821 kJ/mol
# Density = 2.063095 g / cm^3
# Si number density = 20.678014 Si / 1000 Ang^3
#
#
#
# Elastic Constant Matrix: (Units=GPa)
#
#
# Indices 1 2 3 4 5 6 
#
# 1 196.8351 77.7905 24.6570 0.0000 0.0000 0.0000
# 2 77.7905 113.9112 33.6240 0.0000 0.0000 0.0000
# 3 24.6570 33.6240 50.3681 0.0000 0.0000 0.0000
# 4 0.0000 0.0000 0.0000 -3.6502 0.0000 0.0000
# 5 0.0000 0.0000 0.0000 0.0000 1.1146 0.0000
# 6 0.0000 0.0000 0.0000 0.0000 0.0000 36.3696
#
#
#
# Elastic Compliance Matrix: (Units=1/GPa)
#
#
# Indices 1 2 3 4 5 6 
#
# 1 0.006962 -0.004668 -0.000292 0.000000 0.000000 0.000000
# 2 -0.004668 0.014063 -0.007103 0.000000 0.000000 0.000000
# 3 -0.000292 -0.007103 0.024738 0.000000 0.000000 0.000000
# 4 0.000000 0.000000 0.000000 -0.273961 0.000000 0.000000
# 5 0.000000 0.000000 0.000000 0.000000 0.897164 0.000000
# 6 0.000000 0.000000 0.000000 0.000000 0.000000 0.027496
#
#
# Mechanical properties :
#
#
# Convention : Reuss Voigt Hill
#
# Bulk Modulus (GPa) = 46.21553 70.36194 58.28874
# Shear Modulus (GPa) = 6.87002 21.76967 14.31984
#
# Velocity S-wave (km/s) = 1.82472 3.24820 2.63442
# Velocity P-wave (km/s) = 5.18055 6.94039 6.12401
#
# Compressibility (1/GPa) = 0.02163775
#
# Stress axis : x y z
#
# Youngs Moduli (GPa) = 143.64061 71.10708 40.42304
#
# Poissons Ratio (x) = 0.33194 0.01179
# Poissons Ratio (y) = 0.67053 0.28712
# Poissons Ratio (z) = 0.04191 0.50507
#
# Static dielectric constant tensor:
#      x y z
#    x 4.117660 0.000000 0.000000 
#    y 0.000000 3.692290 0.000000 
#    z 0.000000 0.000000 3.617400 
# 
# 
# High freq. dielectric constant tensor:
#      x y z
#    x 1.824430 0.000000 0.000000 
#    y 0.000000 1.792800 0.000000 
#    z 0.000000 0.000000 1.794660 
# 
# From -- ./inp_files/3967.got.cif
#   From: 2010.03.12/outbox.cif.g09.slc.cpg/sg47_2_cif.got.tgz:3967.got - 2010.04.14 03:12:58.
