data_PCOD8198698
_publ_section_title
;
Structure prediction by ZEFSAII (Michael W. Deem and Ramdas Pophale) SiO2 
 PCOD8198698
Probable space group: P M M M
;
_chemical_formula_sum "Si O2"
_cell_formula_units_Z 48
_cell_length_a 8.847257
_cell_length_b 13.322419
_cell_length_c 19.691492
_cell_angle_alpha 90.000000
_cell_angle_beta 90.000000
_cell_angle_gamma 90.000000
_cell_volume 2320.974424
_symmetry_space_group_name_H-M "P M M M"
_symmetry_group_IT_number 47
_symmetry_cell_setting 'orthorhombic'
loop_
_space_group_symop_operation_xyz
x,y,z
-x,-y,z
x,-y,-z
-x,y,-z
-x,-y,-z
x,y,-z
-x,y,z
x,-y,z
loop_
_atom_site_type_symbol
_atom_site_label
_atom_site_fract_x
_atom_site_fract_y
_atom_site_fract_z
Si Si1 0.677662 0.284768 0.797404
Si Si2 0.178476 0.887038 0.136350
Si Si3 0.673165 0.119918 0.000000
Si Si4 0.829555 0.381266 0.924652
Si Si5 0.820309 0.306651 0.342572
Si Si6 0.820636 0.500000 0.575325
Si Si7 0.179504 0.887817 0.576797
O O1 0.500000 0.280470 0.789917
O O2 0.747027 0.172849 0.801955
O O3 0.720071 0.345496 0.864989
O O4 0.748815 0.331986 0.730228
O O5 0.000000 0.879123 0.138369
O O6 0.235375 0.000000 0.143785
O O7 0.240226 0.838317 0.066194
O O8 0.500000 0.156544 0.000000
O O9 0.684900 0.000000 0.000000
O O10 0.830694 0.500000 0.923634
O O11 0.000000 0.340780 0.910960
O O12 0.773899 0.345080 0.000000
O O13 0.763920 0.398587 0.388762
O O14 0.759196 0.200803 0.373963
O O15 0.000000 0.304318 0.335272
O O16 0.751977 0.500000 0.500000
O O17 0.000000 0.500000 0.573224
O O18 0.238722 0.868845 0.500000
O O19 0.000000 0.882981 0.576448
O O20 0.231505 0.000000 0.601330
#
# Coordination Sequence:
#
# PCOD8198698 Si02
#       7
#     8   8   4   8   8   4   8
#     4  12  26  39  55  83 121 161 197 240 296 355
#     4  10  21  38  59  81 108 148 199 248 293 345
#     4   9  17  31  53  81 112 145 184 237 299 355
#     4   9  20  41  67  89 109 140 189 249 306 360
#     4  10  20  35  56  84 117 154 197 243 294 354
#     4   9  18  34  61  93 118 147 192 249 301 344
#     4   8  14  27  52  86 118 146 183 238 296 346
#
# _framework density 20.680969000000001
#
# number of rings (size 3 to 8) (size 9 to 14) (size 15 to 20)
#    0.000    2.333    0.000    3.750    2.333    5.333 
#    0.000    2.500    0.000    2.500    0.000    1.167 
#    0.000    0.000    0.000    0.000    0.000    0.000 
#
# Total GULP energy -595056.068797 kJ/mol
# GULP energy per Si atom -12397.001433 kJ/mol
# Density = 2.063390 g / cm^3
# Si number density = 20.680969 Si / 1000 Ang^3
#
#
#
# Elastic Constant Matrix: (Units=GPa)
#
#
# Indices 1 2 3 4 5 6 
#
# 1 66.4428 18.8943 39.5777 0.0000 0.0000 0.0000
# 2 18.8943 107.3385 63.5143 0.0000 0.0000 0.0000
# 3 39.5777 63.5143 145.0373 0.0000 0.0000 0.0000
# 4 0.0000 0.0000 0.0000 9.2451 0.0000 0.0000
# 5 0.0000 0.0000 0.0000 0.0000 4.2356 0.0000
# 6 0.0000 0.0000 0.0000 0.0000 0.0000 15.6599
#
#
#
# Elastic Compliance Matrix: (Units=1/GPa)
#
#
# Indices 1 2 3 4 5 6 
#
# 1 0.017982 -0.000353 -0.004752 0.000000 0.000000 0.000000
# 2 -0.000353 0.012582 -0.005413 0.000000 0.000000 0.000000
# 3 -0.004752 -0.005413 0.010562 0.000000 0.000000 0.000000
# 4 0.000000 0.000000 0.000000 0.108165 0.000000 0.000000
# 5 0.000000 0.000000 0.000000 0.000000 0.236096 0.000000
# 6 0.000000 0.000000 0.000000 0.000000 0.000000 0.063857
#
#
# Mechanical properties :
#
#
# Convention : Reuss Voigt Hill
#
# Bulk Modulus (GPa) = 49.78097 62.53235 56.15666
# Shear Modulus (GPa) = 10.48268 18.95028 14.71648
#
# Velocity S-wave (km/s) = 2.25383 3.03035 2.67047
# Velocity P-wave (km/s) = 5.55843 6.52276 6.05981
#
# Compressibility (1/GPa) = 0.02008800
#
# Stress axis : x y z
#
# Youngs Moduli (GPa) = 55.61216 79.48066 94.67802
#
# Poissons Ratio (x) = 0.02808 0.44992
# Poissons Ratio (y) = 0.01965 0.51252
# Poissons Ratio (z) = 0.26428 0.43025
#
# Static dielectric constant tensor:
#      x y z
#    x 3.300560 0.000000 0.000000 
#    y 0.000000 4.046630 0.000000 
#    z 0.000000 0.000000 3.844100 
# 
# 
# High freq. dielectric constant tensor:
#      x y z
#    x 1.766930 0.000000 0.000000 
#    y 0.000000 1.827160 0.000000 
#    z 0.000000 0.000000 1.809340 
# 
# From -- ./inp_files/26544.got.cif
#   From: 2010.03.12/outbox.cif.g09.slc.cpg/sg47_14_cif.got.tgz:26544.got - 2010.04.14 03:12:58.
