data_PCOD8198433
_publ_section_title
;
Structure prediction by ZEFSAII (Michael W. Deem and Ramdas Pophale) SiO2 
 PCOD8198433
Probable space group: P M M M
;
_chemical_formula_sum "Si O2"
_cell_formula_units_Z 48
_cell_length_a 30.696966
_cell_length_b 9.210186
_cell_length_c 9.310796
_cell_angle_alpha 90.000000
_cell_angle_beta 90.000000
_cell_angle_gamma 90.000000
_cell_volume 2632.392625
_symmetry_space_group_name_H-M "P M M M"
_symmetry_group_IT_number 47
_symmetry_cell_setting 'orthorhombic'
loop_
_space_group_symop_operation_xyz
x,y,z
-x,-y,z
x,-y,-z
-x,y,-z
-x,-y,-z
x,y,-z
-x,y,z
x,-y,z
loop_
_atom_site_type_symbol
_atom_site_label
_atom_site_fract_x
_atom_site_fract_y
_atom_site_fract_z
Si Si1 0.576510 0.669302 0.831261
Si Si2 0.500000 0.829259 0.669048
Si Si3 0.756113 0.828326 0.839923
Si Si4 0.000000 0.830382 0.832709
Si Si5 0.827401 0.337512 0.331349
Si Si6 0.660701 0.838920 0.170236
Si Si7 0.073826 0.669266 0.665399
O O1 0.572372 0.500000 0.794862
O O2 0.542137 0.758505 0.739820
O O3 0.624087 0.724381 0.781667
O O4 0.568440 0.698199 0.000000
O O5 0.500000 0.796786 0.500000
O O6 0.500000 0.000000 0.701613
O O7 0.793922 0.771113 0.739662
O O8 0.708351 0.784490 0.776828
O O9 0.759239 0.000000 0.844332
O O10 0.762393 0.764145 0.000000
O O11 0.043231 0.763395 0.765533
O O12 0.000000 0.000000 0.800823
O O13 0.000000 0.794516 0.000000
O O14 0.820564 0.330445 0.500000
O O15 0.818378 0.500000 0.275018
O O16 0.876628 0.291540 0.292655
O O17 0.649777 0.000000 0.232308
O O18 0.662938 0.850149 0.000000
O O19 0.064492 0.708605 0.500000
O O20 0.064529 0.500000 0.691598
#
# Coordination Sequence:
#
# PCOD8198433 Si02
#       7
#     8   4   8   4   8   8   8
#     4  10  20  34  55  82 106 130 167 213 257 303
#     4  11  24  39  54  74 102 137 174 209 250 304
#     4   9  18  32  51  77 107 137 170 209 253 300
#     4  11  24  37  50  76 110 135 160 203 256 306
#     4   9  19  35  53  75 103 134 171 213 253 297
#     4   8  15  30  51  74 102 136 172 209 249 295
#     4   9  19  37  58  76  97 131 174 214 251 297
#
# _framework density 18.234362000000001
#
# number of rings (size 3 to 8) (size 9 to 14) (size 15 to 20)
#    0.000    2.667    0.000    3.500    0.000    7.333 
#    0.000    7.500    0.000    1.000    0.000    0.000 
#    0.000    0.000    0.000    0.000    0.000    0.000 
#
# Total GULP energy -595098.238360 kJ/mol
# GULP energy per Si atom -12397.879966 kJ/mol
# Density = 1.819286 g / cm^3
# Si number density = 18.234362 Si / 1000 Ang^3
#
#
#
# Elastic Constant Matrix: (Units=GPa)
#
#
# Indices 1 2 3 4 5 6 
#
# 1 162.2411 76.7228 67.0844 0.0000 0.0000 0.0000
# 2 76.7228 90.5972 51.6855 0.0000 0.0000 0.0000
# 3 67.0844 51.6855 62.0361 0.0000 0.0000 0.0000
# 4 0.0000 0.0000 0.0000 28.8990 0.0000 0.0000
# 5 0.0000 0.0000 0.0000 0.0000 61.3151 0.0000
# 6 0.0000 0.0000 0.0000 0.0000 0.0000 37.0778
#
#
#
# Elastic Compliance Matrix: (Units=1/GPa)
#
#
# Indices 1 2 3 4 5 6 
#
# 1 0.012412 -0.005439 -0.008890 0.000000 0.000000 0.000000
# 2 -0.005439 0.023421 -0.013631 0.000000 0.000000 0.000000
# 3 -0.008890 -0.013631 0.037090 0.000000 0.000000 0.000000
# 4 0.000000 0.000000 0.000000 0.034603 0.000000 0.000000
# 5 0.000000 0.000000 0.000000 0.000000 0.016309 0.000000
# 6 0.000000 0.000000 0.000000 0.000000 0.000000 0.026970
#
#
# Mechanical properties :
#
#
# Convention : Reuss Voigt Hill
#
# Bulk Modulus (GPa) = 58.81825 78.42887 68.62356
# Shear Modulus (GPa) = 23.54123 33.41717 28.47920
#
# Velocity S-wave (km/s) = 3.59700 4.28559 3.95630
# Velocity P-wave (km/s) = 7.04117 8.22151 7.65413
#
# Compressibility (1/GPa) = 0.01700153
#
# Stress axis : x y z
#
# Youngs Moduli (GPa) = 80.56883 42.69738 26.96140
#
# Poissons Ratio (x) = 0.23224 0.23969
# Poissons Ratio (y) = 0.43823 0.36752
# Poissons Ratio (z) = 0.71627 0.58202
#
# Static dielectric constant tensor:
#      x y z
#    x 3.641960 0.000000 0.000000 
#    y 0.000000 3.348020 0.000000 
#    z 0.000000 0.000000 3.162170 
# 
# 
# High freq. dielectric constant tensor:
#      x y z
#    x 1.723910 0.000000 0.000000 
#    y 0.000000 1.704990 0.000000 
#    z 0.000000 0.000000 1.682430 
# 
# From -- ./inp_files/13923.got.cif
#   From: 2010.03.12/outbox.cif.g09.slc.cpg/sg47_7_cif.got.tgz:13923.got - 2010.04.14 03:12:58.
