data_PCOD8198840
_publ_section_title
;
Structure prediction by ZEFSAII (Michael W. Deem and Ramdas Pophale) SiO2 
 PCOD8198840
Probable space group: P M M M
;
_chemical_formula_sum "Si O2"
_cell_formula_units_Z 64
_cell_length_a 14.605516
_cell_length_b 8.825112
_cell_length_c 24.597375
_cell_angle_alpha 90.000000
_cell_angle_beta 90.000000
_cell_angle_gamma 90.000000
_cell_volume 3170.486387
_symmetry_space_group_name_H-M "P M M M"
_symmetry_group_IT_number 47
_symmetry_cell_setting 'orthorhombic'
loop_
_space_group_symop_operation_xyz
x,y,z
-x,-y,z
x,-y,-z
-x,y,-z
-x,-y,-z
x,y,-z
-x,y,z
x,-y,z
loop_
_atom_site_type_symbol
_atom_site_label
_atom_site_fract_x
_atom_site_fract_y
_atom_site_fract_z
Si Si1 0.397274 0.326714 0.788119
Si Si2 0.399794 0.828075 0.900264
Si Si3 0.605770 0.823033 0.438420
Si Si4 0.894715 0.678830 0.838851
Si Si5 0.756862 0.674904 0.631509
Si Si6 0.774752 0.177434 0.744006
Si Si7 0.101484 0.168692 0.563732
Si Si8 0.204857 0.174944 0.060452
O O1 0.500000 0.300768 0.766065
O O2 0.366175 0.500000 0.779916
O O3 0.391305 0.289493 0.851450
O O4 0.330770 0.217303 0.755260
O O5 0.500000 0.805976 0.929062
O O6 0.314774 0.795733 0.939980
O O7 0.392759 0.000000 0.877439
O O8 0.636174 0.777831 0.500000
O O9 0.500000 0.781984 0.430125
O O10 0.660772 0.732822 0.392453
O O11 0.623408 0.000000 0.429669
O O12 0.888508 0.500000 0.833858
O O13 0.842260 0.748439 0.787716
O O14 0.847729 0.726010 0.895372
O O15 0.000000 0.734372 0.838430
O O16 0.746229 0.500000 0.646414
O O17 0.794466 0.763949 0.683805
O O18 0.833852 0.700701 0.586387
O O19 0.790425 0.000000 0.747094
O O20 0.097663 0.189837 0.500000
O O21 0.000000 0.188503 0.588339
O O22 0.139197 0.000000 0.578208
O O23 0.183944 0.000000 0.073509
O O24 0.169787 0.218147 0.000000
#
# Coordination Sequence:
#
# PCOD8198840 Si02
#       8
#     8   8   8   8   8   8   8   8
#     4  10  20  35  58  87 119 153 189 234 287 343
#     4   9  17  31  54  85 121 161 200 235 278 336
#     4   9  19  38  63  89 121 165 214 259 302 352
#     4  11  25  45  67  89 116 152 196 249 312 374
#     4  12  25  38  57  88 125 160 196 245 302 358
#     4  12  25  42  64  87 115 155 201 247 298 359
#     4   9  19  38  63  88 116 153 196 241 290 347
#     4  10  21  37  60  92 127 163 203 247 293 347
#
# _framework density 20.186178000000002
#
# number of rings (size 3 to 8) (size 9 to 14) (size 15 to 20)
#    0.000    1.750    1.250    4.125    0.000    6.000 
#    0.000    3.750    0.000    0.000    0.000    2.625 
#    0.000    0.000    0.000    0.000    0.000    0.000 
#
# Total GULP energy -793497.548660 kJ/mol
# GULP energy per Si atom -12398.399198 kJ/mol
# Density = 2.014023 g / cm^3
# Si number density = 20.186178 Si / 1000 Ang^3
#
#
#
# Elastic Constant Matrix: (Units=GPa)
#
#
# Indices 1 2 3 4 5 6 
#
# 1 118.7345 46.8711 49.0233 0.0000 0.0000 0.0000
# 2 46.8711 91.0669 42.5504 0.0000 0.0000 0.0000
# 3 49.0233 42.5504 92.6189 0.0000 0.0000 0.0000
# 4 0.0000 0.0000 0.0000 17.2184 0.0000 0.0000
# 5 0.0000 0.0000 0.0000 0.0000 7.4060 0.0000
# 6 0.0000 0.0000 0.0000 0.0000 0.0000 28.4788
#
#
#
# Elastic Compliance Matrix: (Units=1/GPa)
#
#
# Indices 1 2 3 4 5 6 
#
# 1 0.011835 -0.004029 -0.004413 0.000000 0.000000 0.000000
# 2 -0.004029 0.015354 -0.004921 0.000000 0.000000 0.000000
# 3 -0.004413 -0.004921 0.015394 0.000000 0.000000 0.000000
# 4 0.000000 0.000000 0.000000 0.058078 0.000000 0.000000
# 5 0.000000 0.000000 0.000000 0.000000 0.135026 0.000000
# 6 0.000000 0.000000 0.000000 0.000000 0.000000 0.035114
#
#
# Mechanical properties :
#
#
# Convention : Reuss Voigt Hill
#
# Bulk Modulus (GPa) = 63.06958 64.36777 63.71867
# Shear Modulus (GPa) = 16.51185 21.55231 19.03208
#
# Velocity S-wave (km/s) = 2.86313 3.27108 3.07388
# Velocity P-wave (km/s) = 6.49937 6.79874 6.65074
#
# Compressibility (1/GPa) = 0.01585550
#
# Stress axis : x y z
#
# Youngs Moduli (GPa) = 84.49656 65.12891 64.96179
#
# Poissons Ratio (x) = 0.26242 0.28668
# Poissons Ratio (y) = 0.34046 0.31969
# Poissons Ratio (z) = 0.37289 0.32051
#
# Static dielectric constant tensor:
#      x y z
#    x 3.907370 0.000000 0.000000 
#    y 0.000000 3.601050 0.000000 
#    z 0.000000 0.000000 3.548300 
# 
# 
# High freq. dielectric constant tensor:
#      x y z
#    x 1.798330 0.000000 0.000000 
#    y 0.000000 1.782790 0.000000 
#    z 0.000000 0.000000 1.779360 
# 
# From -- ./inp_files/32808.got.cif
#   From: 2010.03.12/outbox.cif.g09.slc.cpg/sg47_17_cif.got.tgz:32808.got - 2010.04.14 03:12:58.
