data_PCOD8198844
_publ_section_title
;
Structure prediction by ZEFSAII (Michael W. Deem and Ramdas Pophale) SiO2 
 PCOD8198844
Probable space group: P M M M
;
_chemical_formula_sum "Si O2"
_cell_formula_units_Z 40
_cell_length_a 16.755352
_cell_length_b 13.174423
_cell_length_c 8.183470
_cell_angle_alpha 90.000000
_cell_angle_beta 90.000000
_cell_angle_gamma 90.000000
_cell_volume 1806.436310
_symmetry_space_group_name_H-M "P M M M"
_symmetry_group_IT_number 47
_symmetry_cell_setting 'orthorhombic'
loop_
_space_group_symop_operation_xyz
x,y,z
-x,-y,z
x,-y,-z
-x,y,-z
-x,-y,-z
x,y,-z
-x,y,z
x,-y,z
loop_
_atom_site_type_symbol
_atom_site_label
_atom_site_fract_x
_atom_site_fract_y
_atom_site_fract_z
Si Si1 0.176533 0.618188 0.179782
Si Si2 0.500000 0.614301 0.693959
Si Si3 0.666296 0.699023 0.311292
Si Si4 0.912884 0.878885 0.684584
Si Si5 0.091474 0.379906 0.500000
Si Si6 0.253733 0.885893 0.811787
O O1 0.157238 0.500000 0.179050
O O2 0.270557 0.635141 0.206357
O O3 0.127966 0.668717 0.332283
O O4 0.152709 0.662648 0.000000
O O5 0.500000 0.500000 0.763830
O O6 0.500000 0.612588 0.500000
O O7 0.421575 0.673284 0.756925
O O8 0.674540 0.667369 0.500000
O O9 0.683398 0.818783 0.289019
O O10 0.903821 0.835942 0.500000
O O11 0.836716 0.841220 0.790818
O O12 0.000000 0.844328 0.756075
O O13 0.910923 0.000000 0.681327
O O14 0.108367 0.500000 0.500000
O O15 0.000000 0.351971 0.500000
O O16 0.259622 0.000000 0.742647
O O17 0.277071 0.881426 0.000000
#
# Coordination Sequence:
#
# PCOD8198844 Si02
#       6
#     8   4   8   8   4   8
#     4  10  20  35  58  88 121 157 199 248 303 367
#     4   9  20  38  64  97 124 147 183 241 313 379
#     4  11  21  37  62  88 118 154 195 247 307 373
#     4   8  14  27  49  76 105 140 187 243 298 348
#     4   9  18  34  56  83 118 162 207 249 300 360
#     4  10  21  36  54  79 115 159 205 251 301 359
#
# _framework density 22.143045999999998
#
# number of rings (size 3 to 8) (size 9 to 14) (size 15 to 20)
#    0.000    2.400    1.000    2.400    0.000    2.800 
#    0.000    7.500    0.000    9.000    0.000    0.000 
#    0.000    0.000    0.000    0.000    0.000    0.000 
#
# Total GULP energy -495861.226420 kJ/mol
# GULP energy per Si atom -12396.530661 kJ/mol
# Density = 2.209265 g / cm^3
# Si number density = 22.143046 Si / 1000 Ang^3
#
#
#
# Elastic Constant Matrix: (Units=GPa)
#
#
# Indices 1 2 3 4 5 6 
#
# 1 172.9116 41.3959 58.5981 0.0000 0.0000 0.0000
# 2 41.3959 61.1569 22.9766 0.0000 0.0000 0.0000
# 3 58.5981 22.9766 127.3886 0.0000 0.0000 0.0000
# 4 0.0000 0.0000 0.0000 25.5831 0.0000 0.0000
# 5 0.0000 0.0000 0.0000 0.0000 14.8820 0.0000
# 6 0.0000 0.0000 0.0000 0.0000 0.0000 28.0708
#
#
#
# Elastic Compliance Matrix: (Units=1/GPa)
#
#
# Indices 1 2 3 4 5 6 
#
# 1 0.007735 -0.004182 -0.002804 0.000000 0.000000 0.000000
# 2 -0.004182 0.019801 -0.001648 0.000000 0.000000 0.000000
# 3 -0.002804 -0.001648 0.009437 0.000000 0.000000 0.000000
# 4 0.000000 0.000000 0.000000 0.039088 0.000000 0.000000
# 5 0.000000 0.000000 0.000000 0.000000 0.067195 0.000000
# 6 0.000000 0.000000 0.000000 0.000000 0.000000 0.035624
#
#
# Mechanical properties :
#
#
# Convention : Reuss Voigt Hill
#
# Bulk Modulus (GPa) = 50.74636 67.48871 59.11753
# Shear Modulus (GPa) = 24.66507 29.60628 27.13568
#
# Velocity S-wave (km/s) = 3.34113 3.66053 3.50447
# Velocity P-wave (km/s) = 6.15235 6.95778 6.56742
#
# Compressibility (1/GPa) = 0.01970585
#
# Stress axis : x y z
#
# Youngs Moduli (GPa) = 129.28871 50.50190 105.96792
#
# Poissons Ratio (x) = 0.21120 0.29709
# Poissons Ratio (y) = 0.54070 0.17461
# Poissons Ratio (z) = 0.36247 0.08321
#
# Static dielectric constant tensor:
#      x y z
#    x 4.036810 0.000000 0.000000 
#    y 0.000000 4.028560 0.000000 
#    z 0.000000 0.000000 4.073150 
# 
# 
# High freq. dielectric constant tensor:
#      x y z
#    x 1.852080 0.000000 0.000000 
#    y 0.000000 1.885760 0.000000 
#    z 0.000000 0.000000 1.860860 
# 
# From -- ./inp_files/5782.got.cif
#   From: 2010.03.12/outbox.cif.g09.slc.cpg/sg47_3_cif.got.tgz:5782.got - 2010.04.14 03:12:58.
