data_PCOD8198021
_publ_section_title
;
Structure prediction by ZEFSAII (Michael W. Deem and Ramdas Pophale) SiO2 
 PCOD8198021
Probable space group: P M M M
;
_chemical_formula_sum "Si O2"
_cell_formula_units_Z 48
_cell_length_a 34.032800
_cell_length_b 7.710911
_cell_length_c 9.489261
_cell_angle_alpha 90.000000
_cell_angle_beta 90.000000
_cell_angle_gamma 90.000000
_cell_volume 2490.208803
_symmetry_space_group_name_H-M "P M M M"
_symmetry_group_IT_number 47
_symmetry_cell_setting 'orthorhombic'
loop_
_space_group_symop_operation_xyz
x,y,z
-x,-y,z
x,-y,-z
-x,y,-z
-x,-y,-z
x,y,-z
-x,y,z
x,-y,z
loop_
_atom_site_type_symbol
_atom_site_label
_atom_site_fract_x
_atom_site_fract_y
_atom_site_fract_z
Si Si1 0.546204 0.198451 0.661133
Si Si2 0.113893 0.794238 0.658002
Si Si3 0.956788 0.793782 0.157993
Si Si4 0.413282 0.500000 0.169146
Si Si5 0.800996 0.300416 0.660946
Si Si6 0.270060 0.807483 0.838661
Si Si7 0.324041 0.500000 0.166889
O O1 0.558055 0.243251 0.500000
O O2 0.500000 0.223496 0.680499
O O3 0.567349 0.326363 0.769525
O O4 0.558168 0.000000 0.696499
O O5 0.109469 0.722147 0.500000
O O6 0.077692 0.714057 0.746018
O O7 0.155254 0.729636 0.722170
O O8 0.112817 0.000000 0.661353
O O9 0.000000 0.734944 0.213296
O O10 0.954440 0.000000 0.159779
O O11 0.950515 0.724326 0.000000
O O12 0.368363 0.500000 0.222483
O O13 0.417567 0.500000 0.000000
O O14 0.799293 0.232873 0.500000
O O15 0.789240 0.500000 0.671556
O O16 0.770290 0.193186 0.752483
O O17 0.301609 0.671312 0.776586
O O18 0.288469 0.000000 0.826873
O O19 0.259967 0.760289 0.000000
O O20 0.325009 0.500000 0.000000
#
# Coordination Sequence:
#
# PCOD8198021 Si02
#       7
#     8   8   8   4   8   8   4
#     4   9  19  37  59  82 113 156 201 242 287 341
#     4   9  17  28  43  66  94 121 153 195 244 302
#     4   8  14  25  41  62  89 119 152 194 241 289
#     4  11  22  34  55  86 118 152 190 239 295 344
#     4  10  20  34  52  74 102 133 164 207 264 317
#     4  10  20  36  59  80 100 135 180 221 264 318
#     4   9  20  38  54  77 114 148 181 223 272 330
#
# _framework density 19.275490999999999
#
# number of rings (size 3 to 8) (size 9 to 14) (size 15 to 20)
#    0.000    2.667    0.833    2.000    0.000    4.333 
#    0.000    7.500    0.000    0.500    0.000    3.500 
#    0.000    0.000    0.000    0.000    0.000    0.000 
#
# Total GULP energy -595071.142999 kJ/mol
# GULP energy per Si atom -12397.315479 kJ/mol
# Density = 1.923162 g / cm^3
# Si number density = 19.275491 Si / 1000 Ang^3
#
#
#
# Elastic Constant Matrix: (Units=GPa)
#
#
# Indices 1 2 3 4 5 6 
#
# 1 134.8817 54.0789 60.8825 0.0000 0.0000 0.0000
# 2 54.0789 92.0480 39.5167 0.0000 0.0000 0.0000
# 3 60.8825 39.5167 77.5306 0.0000 0.0000 0.0000
# 4 0.0000 0.0000 0.0000 19.3494 0.0000 0.0000
# 5 0.0000 0.0000 0.0000 0.0000 20.0930 0.0000
# 6 0.0000 0.0000 0.0000 0.0000 0.0000 18.4142
#
#
#
# Elastic Compliance Matrix: (Units=1/GPa)
#
#
# Indices 1 2 3 4 5 6 
#
# 1 0.012549 -0.004022 -0.007805 0.000000 0.000000 0.000000
# 2 -0.004022 0.015196 -0.004587 0.000000 0.000000 0.000000
# 3 -0.007805 -0.004587 0.021365 0.000000 0.000000 0.000000
# 4 0.000000 0.000000 0.000000 0.051681 0.000000 0.000000
# 5 0.000000 0.000000 0.000000 0.000000 0.049769 0.000000
# 6 0.000000 0.000000 0.000000 0.000000 0.000000 0.054306
#
#
# Mechanical properties :
#
#
# Convention : Reuss Voigt Hill
#
# Bulk Modulus (GPa) = 61.41377 68.15738 64.78558
# Shear Modulus (GPa) = 20.56591 21.57013 21.06802
#
# Velocity S-wave (km/s) = 3.26996 3.34884 3.30963
# Velocity P-wave (km/s) = 6.79611 7.09855 6.94897
#
# Compressibility (1/GPa) = 0.01628299
#
# Stress axis : x y z
#
# Youngs Moduli (GPa) = 79.68524 65.80614 46.80640
#
# Poissons Ratio (x) = 0.26469 0.36530
# Poissons Ratio (y) = 0.32052 0.21469
# Poissons Ratio (z) = 0.62190 0.30183
#
# Static dielectric constant tensor:
#      x y z
#    x 3.629040 0.000000 0.000000 
#    y 0.000000 3.422790 0.000000 
#    z 0.000000 0.000000 3.481510 
# 
# 
# High freq. dielectric constant tensor:
#      x y z
#    x 1.747950 0.000000 0.000000 
#    y 0.000000 1.748040 0.000000 
#    z 0.000000 0.000000 1.731190 
# 
# From -- ./inp_files/13997.got.cif
#   From: 2010.03.12/outbox.cif.g09.slc.cpg/sg47_7_cif.got.tgz:13997.got - 2010.04.14 03:12:58.
