data_PCOD8198447
_publ_section_title
;
Structure prediction by ZEFSAII (Michael W. Deem and Ramdas Pophale) SiO2 
 PCOD8198447
Probable space group: P M M M
;
_chemical_formula_sum "Si O2"
_cell_formula_units_Z 48
_cell_length_a 14.896590
_cell_length_b 8.817173
_cell_length_c 19.881257
_cell_angle_alpha 90.000000
_cell_angle_beta 90.000000
_cell_angle_gamma 90.000000
_cell_volume 2611.319827
_symmetry_space_group_name_H-M "P M M M"
_symmetry_group_IT_number 47
_symmetry_cell_setting 'orthorhombic'
loop_
_space_group_symop_operation_xyz
x,y,z
-x,-y,z
x,-y,-z
-x,y,-z
-x,-y,-z
x,y,-z
-x,y,z
x,-y,z
loop_
_atom_site_type_symbol
_atom_site_label
_atom_site_fract_x
_atom_site_fract_y
_atom_site_fract_z
Si Si1 0.097489 0.321265 0.729306
Si Si2 0.895352 0.832054 0.000000
Si Si3 0.642693 0.828552 0.175532
Si Si4 0.500000 0.680136 0.078876
Si Si5 0.603038 0.174760 0.422657
Si Si6 0.292831 0.678811 0.693420
Si Si7 0.152486 0.172147 0.139872
O O1 0.100098 0.500000 0.725481
O O2 0.188947 0.258095 0.694166
O O3 0.098967 0.270465 0.806406
O O4 0.000000 0.265567 0.698507
O O5 0.863896 0.747947 0.932279
O O6 0.000000 0.845484 0.000000
O O7 0.850750 0.000000 0.000000
O O8 0.586076 0.740224 0.119431
O O9 0.642927 0.750814 0.249235
O O10 0.742748 0.826479 0.150368
O O11 0.605589 0.000000 0.183043
O O12 0.500000 0.500000 0.081019
O O13 0.500000 0.734985 0.000000
O O14 0.628338 0.203685 0.500000
O O15 0.500000 0.219765 0.409574
O O16 0.667281 0.280255 0.378783
O O17 0.619107 0.000000 0.403391
O O18 0.293446 0.500000 0.704709
O O19 0.114519 0.000000 0.141951
#
# Coordination Sequence:
#
# PCOD8198447 Si02
#       7
#     8   4   8   4   8   8   8
#     4   9  18  33  51  72 102 138 174 213 259 309
#     4   9  16  26  43  68  95 120 150 199 259 309
#     4  10  21  36  55  76 100 135 178 220 264 316
#     4  11  25  41  55  73 100 135 178 225 275 321
#     4   9  19  36  57  81 111 145 178 214 261 317
#     4  10  20  34  55  82 112 142 177 222 264 310
#     4   9  18  31  49  71  95 125 165 212 260 313
#
# _framework density 18.381508
#
# number of rings (size 3 to 8) (size 9 to 14) (size 15 to 20)
#    0.000    2.500    0.000    2.250    2.333    3.667 
#    0.000    1.250    0.000    2.000    0.000    3.500 
#    0.000    0.000    0.000    0.000    0.000    0.000 
#
# Total GULP energy -594774.069129 kJ/mol
# GULP energy per Si atom -12391.126440 kJ/mol
# Density = 1.833967 g / cm^3
# Si number density = 18.381508 Si / 1000 Ang^3
#
#
#
# Elastic Constant Matrix: (Units=GPa)
#
#
# Indices 1 2 3 4 5 6 
#
# 1 87.0526 27.3866 49.2249 0.0000 0.0000 0.0000
# 2 27.3866 41.7330 24.9015 0.0000 0.0000 0.0000
# 3 49.2249 24.9015 103.0002 0.0000 0.0000 0.0000
# 4 0.0000 0.0000 0.0000 31.0668 0.0000 0.0000
# 5 0.0000 0.0000 0.0000 0.0000 16.9024 0.0000
# 6 0.0000 0.0000 0.0000 0.0000 0.0000 19.6857
#
#
#
# Elastic Compliance Matrix: (Units=1/GPa)
#
#
# Indices 1 2 3 4 5 6 
#
# 1 0.017602 -0.007633 -0.006567 0.000000 0.000000 0.000000
# 2 -0.007633 0.031311 -0.003922 0.000000 0.000000 0.000000
# 3 -0.006567 -0.003922 0.013795 0.000000 0.000000 0.000000
# 4 0.000000 0.000000 0.000000 0.032189 0.000000 0.000000
# 5 0.000000 0.000000 0.000000 0.000000 0.059163 0.000000
# 6 0.000000 0.000000 0.000000 0.000000 0.000000 0.050798
#
#
# Mechanical properties :
#
#
# Convention : Reuss Voigt Hill
#
# Bulk Modulus (GPa) = 37.78577 48.31243 43.04910
# Shear Modulus (GPa) = 20.00620 22.21583 21.11102
#
# Velocity S-wave (km/s) = 3.30265 3.48026 3.39262
# Velocity P-wave (km/s) = 5.92827 6.51842 6.23034
#
# Compressibility (1/GPa) = 0.02646499
#
# Stress axis : x y z
#
# Youngs Moduli (GPa) = 56.81243 31.93783 72.48850
#
# Poissons Ratio (x) = 0.24377 0.47602
# Poissons Ratio (y) = 0.43362 0.28431
# Poissons Ratio (z) = 0.37308 0.12526
#
# Static dielectric constant tensor:
#      x y z
#    x 3.782490 0.000000 0.000000 
#    y 0.000000 3.360760 0.000000 
#    z 0.000000 0.000000 3.269040 
# 
# 
# High freq. dielectric constant tensor:
#      x y z
#    x 1.721940 0.000000 0.000000 
#    y 0.000000 1.699050 0.000000 
#    z 0.000000 0.000000 1.700200 
# 
# From -- ./inp_files/27999.got.cif
#   From: 2010.03.12/outbox.cif.g09.slc.cpg/sg47_14_cif.got.tgz:27999.got - 2010.04.14 03:12:58.
