data_PCOD8198648
_publ_section_title
;
Structure prediction by ZEFSAII (Michael W. Deem and Ramdas Pophale) SiO2 
 PCOD8198648
Probable space group: P M M M
;
_chemical_formula_sum "Si O2"
_cell_formula_units_Z 52
_cell_length_a 8.996556
_cell_length_b 11.719592
_cell_length_c 28.201797
_cell_angle_alpha 90.000000
_cell_angle_beta 90.000000
_cell_angle_gamma 90.000000
_cell_volume 2973.483702
_symmetry_space_group_name_H-M "P M M M"
_symmetry_group_IT_number 47
_symmetry_cell_setting 'orthorhombic'
loop_
_space_group_symop_operation_xyz
x,y,z
-x,-y,z
x,-y,-z
-x,y,-z
-x,-y,-z
x,y,-z
-x,y,z
x,-y,z
loop_
_atom_site_type_symbol
_atom_site_label
_atom_site_fract_x
_atom_site_fract_y
_atom_site_fract_z
Si Si1 0.826688 0.367773 0.868192
Si Si2 0.667486 0.636166 0.500000
Si Si3 0.670794 0.226318 0.945607
Si Si4 0.167371 0.364131 0.592734
Si Si5 0.824018 0.000000 0.912141
Si Si6 0.332178 0.000000 0.813910
Si Si7 0.673740 0.631150 0.686893
Si Si8 0.671442 0.753202 0.218080
O O1 0.793114 0.500000 0.859865
O O2 0.739747 0.327610 0.914732
O O3 0.771803 0.298890 0.822867
O O4 0.000000 0.342968 0.875681
O O5 0.671721 0.500000 0.500000
O O6 0.500000 0.682037 0.500000
O O7 0.748068 0.684773 0.546785
O O8 0.500000 0.206930 0.930493
O O9 0.759319 0.110067 0.937927
O O10 0.683760 0.264258 0.000000
O O11 0.172942 0.500000 0.591842
O O12 0.244005 0.319540 0.640710
O O13 0.000000 0.318075 0.591293
O O14 0.782543 0.000000 0.856984
O O15 0.000000 0.000000 0.917360
O O16 0.306780 0.889457 0.781197
O O17 0.500000 0.000000 0.834795
O O18 0.500000 0.643956 0.677328
O O19 0.717323 0.500000 0.696825
O O20 0.726776 0.704975 0.731710
O O21 0.500000 0.718603 0.209042
#
# Coordination Sequence:
#
# PCOD8198648 Si02
#       8
#     8   4   8   8   4   4   8   8
#     4  11  24  39  56  80 109 139 171 210 257 308
#     4   9  15  23  37  57  85 124 167 208 247 293
#     4  11  24  41  61  83 107 137 173 211 251 302
#     4   9  16  25  38  59  89 126 166 208 252 295
#     4  12  23  37  60  87 112 136 165 207 259 308
#     4  10  20  35  57  82 106 134 169 210 255 304
#     4   9  17  29  45  67  96 132 172 209 248 297
#     4  10  20  35  56  78 103 135 172 213 256 306
#
# _framework density 17.487904
#
# number of rings (size 3 to 8) (size 9 to 14) (size 15 to 20)
#    0.000    1.923    1.538    3.000    0.000    7.692 
#    0.000    3.077    0.000    0.000    0.000    0.000 
#    0.000    0.615    0.000    7.231    0.000    3.538 
#
# Total GULP energy -644948.714010 kJ/mol
# GULP energy per Si atom -12402.859885 kJ/mol
# Density = 1.744810 g / cm^3
# Si number density = 17.487904 Si / 1000 Ang^3
#
#
#
# Elastic Constant Matrix: (Units=GPa)
#
#
# Indices 1 2 3 4 5 6 
#
# 1 114.5401 41.1059 63.9370 0.0000 0.0000 0.0000
# 2 41.1059 78.7241 46.7631 0.0000 0.0000 0.0000
# 3 63.9370 46.7631 145.4838 0.0000 0.0000 0.0000
# 4 0.0000 0.0000 0.0000 -24.1283 0.0000 0.0000
# 5 0.0000 0.0000 0.0000 0.0000 10.6499 0.0000
# 6 0.0000 0.0000 0.0000 0.0000 0.0000 20.2946
#
#
#
# Elastic Compliance Matrix: (Units=1/GPa)
#
#
# Indices 1 2 3 4 5 6 
#
# 1 0.012530 -0.004044 -0.004207 0.000000 0.000000 0.000000
# 2 -0.004044 0.017005 -0.003689 0.000000 0.000000 0.000000
# 3 -0.004207 -0.003689 0.009908 0.000000 0.000000 0.000000
# 4 0.000000 0.000000 0.000000 -0.041445 0.000000 0.000000
# 5 0.000000 0.000000 0.000000 0.000000 0.093897 0.000000
# 6 0.000000 0.000000 0.000000 0.000000 0.000000 0.049274
#
#
# Mechanical properties :
#
#
# Convention : Reuss Voigt Hill
#
# Bulk Modulus (GPa) = 64.24865 71.37334 67.81099
# Shear Modulus (GPa) = 29.37076 13.82604 21.59840
#
# Velocity S-wave (km/s) = 4.10260 2.81482 3.51814
# Velocity P-wave (km/s) = 7.69808 7.17397 7.44064
#
# Compressibility (1/GPa) = 0.01556453
#
# Stress axis : x y z
#
# Youngs Moduli (GPa) = 79.80793 58.80535 100.92628
#
# Poissons Ratio (x) = 0.23779 0.42459
# Poissons Ratio (y) = 0.32271 0.37231
# Poissons Ratio (z) = 0.33575 0.21693
#
# Static dielectric constant tensor:
#      x y z
#    x 3.376670 0.000000 0.000000 
#    y 0.000000 3.043510 0.000000 
#    z 0.000000 0.000000 3.367020 
# 
# 
# High freq. dielectric constant tensor:
#      x y z
#    x 1.685890 0.000000 0.000000 
#    y 0.000000 1.638780 0.000000 
#    z 0.000000 0.000000 1.681990 
# 
# From -- ./inp_files/33311.got.cif
#   From: 2010.03.12/outbox.cif.g09.slc.cpg/sg47_17_cif.got.tgz:33311.got - 2010.04.14 03:12:58.
