data_PCOD8198756
_publ_section_title
;
Structure prediction by ZEFSAII (Michael W. Deem and Ramdas Pophale) SiO2 
 PCOD8198756
Probable space group: P M M M
;
_chemical_formula_sum "Si O2"
_cell_formula_units_Z 48
_cell_length_a 8.798923
_cell_length_b 9.015888
_cell_length_c 30.967617
_cell_angle_alpha 90.000000
_cell_angle_beta 90.000000
_cell_angle_gamma 90.000000
_cell_volume 2456.664286
_symmetry_space_group_name_H-M "P M M M"
_symmetry_group_IT_number 47
_symmetry_cell_setting 'orthorhombic'
loop_
_space_group_symop_operation_xyz
x,y,z
-x,-y,z
x,-y,-z
-x,y,-z
-x,-y,-z
x,y,-z
-x,y,z
x,-y,z
loop_
_atom_site_type_symbol
_atom_site_label
_atom_site_fract_x
_atom_site_fract_y
_atom_site_fract_z
Si Si1 0.323436 0.326507 0.661080
Si Si2 0.177897 0.828636 0.580795
Si Si3 0.176161 0.825878 0.259252
Si Si4 0.679610 0.332296 0.500000
Si Si5 0.823143 0.173199 0.914824
Si Si6 0.180896 0.667510 0.000000
Si Si7 0.670345 0.823960 0.171752
O O1 0.500000 0.293881 0.652335
O O2 0.287735 0.500000 0.658821
O O3 0.222382 0.244064 0.625855
O O4 0.278161 0.265294 0.707631
O O5 0.265164 0.749995 0.542386
O O6 0.000000 0.809178 0.573025
O O7 0.225355 0.000000 0.581772
O O8 0.225532 0.772567 0.211656
O O9 0.000000 0.787799 0.266175
O O10 0.207544 0.000000 0.265927
O O11 0.743036 0.500000 0.500000
O O12 0.500000 0.332510 0.500000
O O13 0.755715 0.252924 0.957155
O O14 0.738779 0.238992 0.872809
O O15 0.000000 0.207421 0.908641
O O16 0.792296 0.000000 0.920727
O O17 0.239823 0.500000 0.000000
O O18 0.000000 0.678213 0.000000
O O19 0.500000 0.762319 0.178066
O O20 0.670680 0.000000 0.169300
#
# Coordination Sequence:
#
# PCOD8198756 Si02
#       7
#     8   8   8   4   8   4   8
#     4  11  24  40  58  83 115 150 188 229 275 328
#     4  11  24  41  62  89 118 150 192 237 279 328
#     4  10  20  35  57  84 111 141 180 224 270 323
#     4  11  24  41  62  90 122 155 192 233 280 334
#     4   9  16  28  48  72  96 125 165 211 255 303
#     4   9  17  29  46  69  96 126 162 205 254 308
#     4   9  17  30  50  76 104 134 170 214 263 313
#
# _framework density 19.538689000000002
#
# number of rings (size 3 to 8) (size 9 to 14) (size 15 to 20)
#    0.000    2.000    0.000    3.750    0.000   12.333 
#    0.000    1.250    0.000    6.000    0.000    0.000 
#    0.000    0.000    0.000    0.000    0.000    0.000 
#
# Total GULP energy -595353.775819 kJ/mol
# GULP energy per Si atom -12403.203663 kJ/mol
# Density = 1.949422 g / cm^3
# Si number density = 19.538689 Si / 1000 Ang^3
#
#
#
# Elastic Constant Matrix: (Units=GPa)
#
#
# Indices 1 2 3 4 5 6 
#
# 1 58.1557 39.0792 26.4345 0.0000 0.0000 0.0000
# 2 39.0792 88.0019 50.3074 0.0000 0.0000 0.0000
# 3 26.4345 50.3074 141.1431 0.0000 0.0000 0.0000
# 4 0.0000 0.0000 0.0000 60.6372 0.0000 0.0000
# 5 0.0000 0.0000 0.0000 0.0000 23.0465 0.0000
# 6 0.0000 0.0000 0.0000 0.0000 0.0000 22.0632
#
#
#
# Elastic Compliance Matrix: (Units=1/GPa)
#
#
# Indices 1 2 3 4 5 6 
#
# 1 0.024599 -0.010411 -0.000896 0.000000 0.000000 0.000000
# 2 -0.010411 0.018678 -0.004707 0.000000 0.000000 0.000000
# 3 -0.000896 -0.004707 0.008931 0.000000 0.000000 0.000000
# 4 0.000000 0.000000 0.000000 0.016492 0.000000 0.000000
# 5 0.000000 0.000000 0.000000 0.000000 0.043391 0.000000
# 6 0.000000 0.000000 0.000000 0.000000 0.000000 0.045324
#
#
# Mechanical properties :
#
#
# Convention : Reuss Voigt Hill
#
# Bulk Modulus (GPa) = 49.56017 57.66031 53.61024
# Shear Modulus (GPa) = 25.48823 32.58137 29.03480
#
# Velocity S-wave (km/s) = 3.61571 4.08797 3.85907
# Velocity P-wave (km/s) = 6.54609 7.20117 6.88143
#
# Compressibility (1/GPa) = 0.02017749
#
# Stress axis : x y z
#
# Youngs Moduli (GPa) = 40.65262 53.53956 111.97341
#
# Poissons Ratio (x) = 0.55741 0.10035
# Poissons Ratio (y) = 0.42325 0.52710
# Poissons Ratio (z) = 0.03643 0.25203
#
# Static dielectric constant tensor:
#      x y z
#    x 3.555280 0.000000 0.000000 
#    y 0.000000 3.481740 0.000000 
#    z 0.000000 0.000000 3.894620 
# 
# 
# High freq. dielectric constant tensor:
#      x y z
#    x 1.758840 0.000000 0.000000 
#    y 0.000000 1.743170 0.000000 
#    z 0.000000 0.000000 1.781250 
# 
# From -- ./inp_files/2675.got.cif
#   From: 2010.03.12/outbox.cif.g09.slc.cpg/sg47_2_cif.got.tgz:2675.got - 2010.04.14 03:12:58.
