data_PCOD8198943
_publ_section_title
;
Structure prediction by ZEFSAII (Michael W. Deem and Ramdas Pophale) SiO2 
 PCOD8198943
Probable space group: P M M M
;
_chemical_formula_sum "Si O2"
_cell_formula_units_Z 40
_cell_length_a 8.247167
_cell_length_b 7.817456
_cell_length_c 29.292599
_cell_angle_alpha 90.000000
_cell_angle_beta 90.000000
_cell_angle_gamma 90.000000
_cell_volume 1888.548493
_symmetry_space_group_name_H-M "P M M M"
_symmetry_group_IT_number 47
_symmetry_cell_setting 'orthorhombic'
loop_
_space_group_symop_operation_xyz
x,y,z
-x,-y,z
x,-y,-z
-x,y,-z
-x,-y,-z
x,y,-z
-x,y,z
x,-y,z
loop_
_atom_site_type_symbol
_atom_site_label
_atom_site_fract_x
_atom_site_fract_y
_atom_site_fract_z
Si Si1 0.311107 0.000000 0.050420
Si Si2 0.679714 0.701605 0.606121
Si Si3 0.818591 0.296132 0.699751
Si Si4 0.812076 0.307243 0.889595
Si Si5 0.000000 0.800596 0.449526
Si Si6 0.319664 0.297551 0.206274
O O1 0.265271 0.826255 0.075976
O O2 0.500000 0.000000 0.044804
O O3 0.229729 0.000000 0.000000
O O4 0.500000 0.770915 0.589959
O O5 0.672333 0.500000 0.607037
O O6 0.710553 0.770897 0.657483
O O7 0.831734 0.750442 0.574705
O O8 0.815438 0.500000 0.701777
O O9 0.754403 0.217940 0.747444
O O10 0.000000 0.228834 0.691684
O O11 0.738959 0.500000 0.896546
O O12 0.783867 0.243008 0.837802
O O13 0.000000 0.311646 0.899798
O O14 0.000000 0.715904 0.500000
O O15 0.000000 0.000000 0.454269
O O16 0.500000 0.224866 0.199588
O O17 0.320774 0.500000 0.211320
#
# Coordination Sequence:
#
# PCOD8198943 Si02
#       6
#     4   8   8   8   4   8
#     4  11  25  43  63  87 117 155 199 253 311 364
#     4  10  20  36  61  91 119 149 191 247 305 357
#     4   9  15  26  49  82 118 153 190 234 288 351
#     4  10  21  38  61  88 119 157 200 247 301 361
#     4  11  25  43  61  81 113 159 203 245 297 360
#     4   9  16  27  48  81 118 155 194 234 281 346
#
# _framework density 21.180288000000001
#
# number of rings (size 3 to 8) (size 9 to 14) (size 15 to 20)
#    0.000    2.200    1.000    2.400    0.000    8.800 
#    0.000    4.000    2.200    0.000    0.000    0.000 
#    0.000    0.000    0.000    0.000    0.000    0.000 
#
# Total GULP energy -495674.430040 kJ/mol
# GULP energy per Si atom -12391.860751 kJ/mol
# Density = 2.113208 g / cm^3
# Si number density = 21.180288 Si / 1000 Ang^3
#
#
#
# Elastic Constant Matrix: (Units=GPa)
#
#
# Indices 1 2 3 4 5 6 
#
# 1 143.2450 28.9570 66.3692 0.0000 0.0000 0.0000
# 2 28.9570 55.9714 46.8168 0.0000 0.0000 0.0000
# 3 66.3692 46.8168 180.7711 0.0000 0.0000 0.0000
# 4 0.0000 0.0000 0.0000 130.4363 0.0000 0.0000
# 5 0.0000 0.0000 0.0000 0.0000 33.3004 0.0000
# 6 0.0000 0.0000 0.0000 0.0000 0.0000 14.2447
#
#
#
# Elastic Compliance Matrix: (Units=1/GPa)
#
#
# Indices 1 2 3 4 5 6 
#
# 1 0.008642 -0.002319 -0.002572 0.000000 0.000000 0.000000
# 2 -0.002319 0.023429 -0.005216 0.000000 0.000000 0.000000
# 3 -0.002572 -0.005216 0.007827 0.000000 0.000000 0.000000
# 4 0.000000 0.000000 0.000000 0.007667 0.000000 0.000000
# 5 0.000000 0.000000 0.000000 0.000000 0.030030 0.000000
# 6 0.000000 0.000000 0.000000 0.000000 0.000000 0.070201
#
#
# Mechanical properties :
#
#
# Convention : Reuss Voigt Hill
#
# Bulk Modulus (GPa) = 50.80626 73.80816 62.30721
# Shear Modulus (GPa) = 28.64151 51.45259 40.04705
#
# Velocity S-wave (km/s) = 3.68131 4.93411 4.35302
# Velocity P-wave (km/s) = 6.48915 8.20876 7.39908
#
# Compressibility (1/GPa) = 0.01968262
#
# Stress axis : x y z
#
# Youngs Moduli (GPa) = 115.71927 42.68162 127.76138
#
# Poissons Ratio (x) = 0.09900 0.32861
# Poissons Ratio (y) = 0.26840 0.66644
# Poissons Ratio (z) = 0.29763 0.22264
#
# Static dielectric constant tensor:
#      x y z
#    x 3.997580 0.000000 0.000000 
#    y 0.000000 3.975950 0.000000 
#    z 0.000000 0.000000 4.250250 
# 
# 
# High freq. dielectric constant tensor:
#      x y z
#    x 1.842350 0.000000 0.000000 
#    y 0.000000 1.796550 0.000000 
#    z 0.000000 0.000000 1.832890 
# 
# From -- ./inp_files/33012.got.cif
#   From: 2010.03.12/outbox.cif.g09.slc.cpg/sg47_17_cif.got.tgz:33012.got - 2010.04.14 03:12:58.
