data_PCOD8198848
_publ_section_title
;
Structure prediction by ZEFSAII (Michael W. Deem and Ramdas Pophale) SiO2 
 PCOD8198848
Probable space group: P M M M
;
_chemical_formula_sum "Si O2"
_cell_formula_units_Z 48
_cell_length_a 18.893834
_cell_length_b 13.950962
_cell_length_c 9.813991
_cell_angle_alpha 90.000000
_cell_angle_beta 90.000000
_cell_angle_gamma 90.000000
_cell_volume 2586.842018
_symmetry_space_group_name_H-M "P M M M"
_symmetry_group_IT_number 47
_symmetry_cell_setting 'orthorhombic'
loop_
_space_group_symop_operation_xyz
x,y,z
-x,-y,z
x,-y,-z
-x,y,-z
-x,-y,-z
x,y,-z
-x,y,z
x,-y,z
loop_
_atom_site_type_symbol
_atom_site_label
_atom_site_fract_x
_atom_site_fract_y
_atom_site_fract_z
Si Si1 0.083859 0.113707 0.500000
Si Si2 0.346249 0.606233 0.653483
Si Si3 0.212005 0.391978 0.159511
Si Si4 0.302218 0.888091 0.157780
Si Si5 0.082405 0.895342 0.000000
Si Si6 0.156286 0.202484 0.241125
Si Si7 0.581043 0.799171 0.656191
O O1 0.122435 0.166124 0.378161
O O2 0.000000 0.133435 0.500000
O O3 0.098993 0.000000 0.500000
O O4 0.314385 0.616928 0.500000
O O5 0.379835 0.500000 0.671327
O O6 0.286083 0.622265 0.764913
O O7 0.406255 0.685643 0.678099
O O8 0.182983 0.500000 0.179951
O O9 0.156257 0.318221 0.227198
O O10 0.223257 0.368400 0.000000
O O11 0.236461 0.832691 0.223222
O O12 0.372097 0.861831 0.241835
O O13 0.287419 0.000000 0.171456
O O14 0.311704 0.858053 0.000000
O O15 0.104081 0.837581 0.130150
O O16 0.000000 0.910230 0.000000
O O17 0.119831 0.000000 0.000000
O O18 0.598514 0.828147 0.500000
O O19 0.500000 0.821500 0.691437
#
# Coordination Sequence:
#
# PCOD8198848 Si02
#       7
#     4   8   8   8   4   8   8
#     4  11  26  44  63  93 130 162 194 239 301 363
#     4   9  18  33  55  83 114 150 193 241 296 353
#     4  10  20  35  58  90 122 154 197 249 299 348
#     4  11  23  38  58  85 114 149 198 248 294 350
#     4  11  22  38  63  91 120 156 198 241 293 355
#     4  12  22  39  63  91 123 159 198 246 298 352
#     4  10  22  38  56  81 116 155 195 244 298 351
#
# _framework density 18.555443
#
# number of rings (size 3 to 8) (size 9 to 14) (size 15 to 20)
#    0.000    1.500    3.333    2.000    2.333    2.667 
#    0.000    3.333    0.000    3.000    0.000    3.500 
#    0.000    0.000    0.000    0.000    0.000    0.000 
#
# Total GULP energy -595092.775907 kJ/mol
# GULP energy per Si atom -12397.766165 kJ/mol
# Density = 1.851321 g / cm^3
# Si number density = 18.555443 Si / 1000 Ang^3
#
#
#
# Elastic Constant Matrix: (Units=GPa)
#
#
# Indices 1 2 3 4 5 6 
#
# 1 91.9747 48.6915 59.0177 0.0000 0.0000 0.0000
# 2 48.6915 115.3751 55.1195 0.0000 0.0000 0.0000
# 3 59.0177 55.1195 137.5757 0.0000 0.0000 0.0000
# 4 0.0000 0.0000 0.0000 33.9153 0.0000 0.0000
# 5 0.0000 0.0000 0.0000 0.0000 34.7289 0.0000
# 6 0.0000 0.0000 0.0000 0.0000 0.0000 17.0951
#
#
#
# Elastic Compliance Matrix: (Units=1/GPa)
#
#
# Indices 1 2 3 4 5 6 
#
# 1 0.016685 -0.004480 -0.005363 0.000000 0.000000 0.000000
# 2 -0.004480 0.011922 -0.002855 0.000000 0.000000 0.000000
# 3 -0.005363 -0.002855 0.010713 0.000000 0.000000 0.000000
# 4 0.000000 0.000000 0.000000 0.029485 0.000000 0.000000
# 5 0.000000 0.000000 0.000000 0.000000 0.028794 0.000000
# 6 0.000000 0.000000 0.000000 0.000000 0.000000 0.058496
#
#
# Mechanical properties :
#
#
# Convention : Reuss Voigt Hill
#
# Bulk Modulus (GPa) = 71.81053 74.50921 73.15987
# Shear Modulus (GPa) = 26.86255 29.28763 28.07509
#
# Velocity S-wave (km/s) = 3.80898 3.97720 3.89400
# Velocity P-wave (km/s) = 7.62424 7.83153 7.72858
#
# Compressibility (1/GPa) = 0.01392553
#
# Stress axis : x y z
#
# Youngs Moduli (GPa) = 59.93285 83.88052 93.34337
#
# Poissons Ratio (x) = 0.37575 0.50060
# Poissons Ratio (y) = 0.26847 0.26647
# Poissons Ratio (z) = 0.32142 0.23946
#
# Static dielectric constant tensor:
#      x y z
#    x 3.231340 0.000000 0.000000 
#    y 0.000000 3.777820 0.000000 
#    z 0.000000 0.000000 3.504020 
# 
# 
# High freq. dielectric constant tensor:
#      x y z
#    x 1.698130 0.000000 0.000000 
#    y 0.000000 1.736570 0.000000 
#    z 0.000000 0.000000 1.731830 
# 
# From -- ./inp_files/9173.got.cif
#   From: 2010.03.12/outbox.cif.g09.slc.cpg/sg47_5_cif.got.tgz:9173.got - 2010.04.14 03:12:58.
