data_PCOD8198113
_publ_section_title
;
Structure prediction by ZEFSAII (Michael W. Deem and Ramdas Pophale) SiO2 
 PCOD8198113
Probable space group: P M M M
;
_chemical_formula_sum "Si O2"
_cell_formula_units_Z 40
_cell_length_a 9.322073
_cell_length_b 7.840112
_cell_length_c 27.529478
_cell_angle_alpha 90.000000
_cell_angle_beta 90.000000
_cell_angle_gamma 90.000000
_cell_volume 2012.022083
_symmetry_space_group_name_H-M "P M M M"
_symmetry_group_IT_number 47
_symmetry_cell_setting 'orthorhombic'
loop_
_space_group_symop_operation_xyz
x,y,z
-x,-y,z
x,-y,-z
-x,y,-z
-x,-y,-z
x,y,-z
-x,y,z
x,-y,z
loop_
_atom_site_type_symbol
_atom_site_label
_atom_site_fract_x
_atom_site_fract_y
_atom_site_fract_z
Si Si1 0.166099 0.701182 0.713105
Si Si2 0.160813 0.203933 0.000000
Si Si3 0.340148 0.800182 0.910026
Si Si4 0.665301 0.808285 0.379274
Si Si5 0.330010 0.500000 0.554081
Si Si6 0.660864 0.298824 0.194585
O O1 0.189357 0.500000 0.706767
O O2 0.241274 0.796931 0.668993
O O3 0.237276 0.770559 0.762739
O O4 0.000000 0.751080 0.714125
O O5 0.240270 0.277373 0.952192
O O6 0.000000 0.276489 0.000000
O O7 0.159714 0.000000 0.000000
O O8 0.500000 0.719485 0.913884
O O9 0.273834 0.758487 0.857196
O O10 0.349904 0.000000 0.917781
O O11 0.500000 0.768101 0.365999
O O12 0.722876 0.670888 0.418388
O O13 0.680709 0.000000 0.400805
O O14 0.500000 0.500000 0.550401
O O15 0.262698 0.500000 0.500000
O O16 0.500000 0.222985 0.201015
O O17 0.655805 0.500000 0.196980
#
# Coordination Sequence:
#
# PCOD8198113 Si02
#       6
#     8   4   8   8   4   8
#     4  10  20  34  53  76 105 143 181 219 268 324
#     4   9  17  29  46  67  90 120 158 201 252 306
#     4   9  17  30  48  68  90 119 159 205 251 305
#     4  10  20  34  56  84 112 146 187 228 273 327
#     4   9  18  34  57  85 117 149 183 230 281 322
#     4   9  18  32  50  72 100 133 168 210 261 316
#
# _framework density 19.880497999999999
#
# number of rings (size 3 to 8) (size 9 to 14) (size 15 to 20)
#    0.000    2.600    1.000    0.900    0.000    4.400 
#    0.000    4.500    0.000    4.200    0.000    1.400 
#    0.000    0.000    0.000    0.000    0.000    0.000 
#
# Total GULP energy -495945.750956 kJ/mol
# GULP energy per Si atom -12398.643774 kJ/mol
# Density = 1.983525 g / cm^3
# Si number density = 19.880498 Si / 1000 Ang^3
#
#
#
# Elastic Constant Matrix: (Units=GPa)
#
#
# Indices 1 2 3 4 5 6 
#
# 1 95.0328 28.9435 71.6786 0.0000 0.0000 0.0000
# 2 28.9435 63.7349 46.7697 0.0000 0.0000 0.0000
# 3 71.6786 46.7697 182.9823 0.0000 0.0000 0.0000
# 4 0.0000 0.0000 0.0000 21.8462 0.0000 0.0000
# 5 0.0000 0.0000 0.0000 0.0000 4.4950 0.0000
# 6 0.0000 0.0000 0.0000 0.0000 0.0000 15.1012
#
#
#
# Elastic Compliance Matrix: (Units=1/GPa)
#
#
# Indices 1 2 3 4 5 6 
#
# 1 0.015438 -0.003167 -0.005238 0.000000 0.000000 0.000000
# 2 -0.003167 0.019962 -0.003862 0.000000 0.000000 0.000000
# 3 -0.005238 -0.003862 0.008504 0.000000 0.000000 0.000000
# 4 0.000000 0.000000 0.000000 0.045775 0.000000 0.000000
# 5 0.000000 0.000000 0.000000 0.000000 0.222468 0.000000
# 6 0.000000 0.000000 0.000000 0.000000 0.000000 0.066220
#
#
# Mechanical properties :
#
#
# Convention : Reuss Voigt Hill
#
# Bulk Modulus (GPa) = 51.62472 70.72598 61.17535
# Shear Modulus (GPa) = 12.21429 21.24568 16.72998
#
# Velocity S-wave (km/s) = 2.48137 3.27260 2.90406
# Velocity P-wave (km/s) = 5.85094 7.06630 6.48715
#
# Compressibility (1/GPa) = 0.01937056
#
# Stress axis : x y z
#
# Youngs Moduli (GPa) = 64.77527 50.09538 117.59377
#
# Poissons Ratio (x) = 0.15866 0.61595
# Poissons Ratio (y) = 0.20515 0.45410
# Poissons Ratio (z) = 0.33929 0.19345
#
# Static dielectric constant tensor:
#      x y z
#    x 3.594290 0.000000 0.000000 
#    y 0.000000 3.403590 0.000000 
#    z 0.000000 0.000000 3.790370 
# 
# 
# High freq. dielectric constant tensor:
#      x y z
#    x 1.752720 0.000000 0.000000 
#    y 0.000000 1.761130 0.000000 
#    z 0.000000 0.000000 1.777680 
# 
# From -- ./inp_files/13024.got.cif
#   From: 2010.03.12/outbox.cif.g09.slc.cpg/sg47_7_cif.got.tgz:13024.got - 2010.04.14 03:12:58.
