data_PCOD8198199
_publ_section_title
;
Structure prediction by ZEFSAII (Michael W. Deem and Ramdas Pophale) SiO2 
 PCOD8198199
Probable space group: P M M M
;
_chemical_formula_sum "Si O2"
_cell_formula_units_Z 52
_cell_length_a 8.834526
_cell_length_b 10.699283
_cell_length_c 30.531377
_cell_angle_alpha 90.000000
_cell_angle_beta 90.000000
_cell_angle_gamma 90.000000
_cell_volume 2885.920213
_symmetry_space_group_name_H-M "P M M M"
_symmetry_group_IT_number 47
_symmetry_cell_setting 'orthorhombic'
loop_
_space_group_symop_operation_xyz
x,y,z
-x,-y,z
x,-y,-z
-x,y,-z
-x,-y,-z
x,y,-z
-x,y,z
x,-y,z
loop_
_atom_site_type_symbol
_atom_site_label
_atom_site_fract_x
_atom_site_fract_y
_atom_site_fract_z
Si Si1 0.331517 0.147115 0.086474
Si Si2 0.170033 0.645218 0.328742
Si Si3 0.829402 0.850601 0.000000
Si Si4 0.322648 0.000000 0.548273
Si Si5 0.835394 0.357958 0.500000
Si Si6 0.321214 0.356519 0.762297
Si Si7 0.321678 0.741095 0.584538
Si Si8 0.178988 0.856190 0.823107
O O1 0.500000 0.204291 0.092087
O O2 0.254355 0.203468 0.042961
O O3 0.230252 0.180914 0.128225
O O4 0.343316 0.000000 0.080764
O O5 0.166503 0.500000 0.338663
O O6 0.271943 0.675927 0.286843
O O7 0.241664 0.708312 0.370665
O O8 0.000000 0.695962 0.320694
O O9 0.000000 0.799436 0.000000
O O10 0.829095 0.000000 0.000000
O O11 0.273058 0.117193 0.576521
O O12 0.500000 0.000000 0.540317
O O13 0.244747 0.000000 0.500000
O O14 0.877162 0.500000 0.500000
O O15 0.737121 0.334423 0.543058
O O16 0.000000 0.286701 0.500000
O O17 0.500000 0.345574 0.766212
O O18 0.269748 0.500000 0.774573
O O19 0.248551 0.249251 0.792032
O O20 0.500000 0.718569 0.589101
O O21 0.000000 0.847582 0.820189
O O22 0.231277 0.000000 0.811566
#
# Coordination Sequence:
#
# PCOD8198199 Si02
#       8
#     8   8   4   4   4   8   8   8
#     4   9  16  26  42  66  99 139 181 225 273 324
#     4  10  21  38  58  80 108 137 166 209 262 309
#     4   9  15  23  37  61  96 137 180 225 274 327
#     4   9  18  36  56  76 104 136 168 206 246 287
#     4  11  23  36  51  76 108 135 162 203 254 301
#     4  10  21  38  60  84 108 139 182 226 269 323
#     4  11  21  36  58  79 102 134 172 209 248 299
#     4  10  20  34  53  79 111 145 181 224 275 328
#
# _framework density 18.018516999999999
#
# number of rings (size 3 to 8) (size 9 to 14) (size 15 to 20)
#    0.000    2.077    0.769    3.231    0.000    8.000 
#    1.385    1.923    0.000    0.000    0.000    0.538 
#    0.000    4.308    0.000    0.000    0.000    0.000 
#
# Total GULP energy -644528.358799 kJ/mol
# GULP energy per Si atom -12394.776131 kJ/mol
# Density = 1.797751 g / cm^3
# Si number density = 18.018517 Si / 1000 Ang^3
#
#
#
# Elastic Constant Matrix: (Units=GPa)
#
#
# Indices 1 2 3 4 5 6 
#
# 1 95.1650 43.9847 47.1559 0.0000 0.0000 0.0000
# 2 43.9847 77.6967 68.7161 0.0000 0.0000 0.0000
# 3 47.1559 68.7161 144.8379 0.0000 0.0000 0.0000
# 4 0.0000 0.0000 0.0000 30.6719 0.0000 0.0000
# 5 0.0000 0.0000 0.0000 0.0000 -17.7592 0.0000
# 6 0.0000 0.0000 0.0000 0.0000 0.0000 26.0995
#
#
#
# Elastic Compliance Matrix: (Units=1/GPa)
#
#
# Indices 1 2 3 4 5 6 
#
# 1 0.014398 -0.006900 -0.001414 0.000000 0.000000 0.000000
# 2 -0.006900 0.025482 -0.009843 0.000000 0.000000 0.000000
# 3 -0.001414 -0.009843 0.012034 0.000000 0.000000 0.000000
# 4 0.000000 0.000000 0.000000 0.032603 0.000000 0.000000
# 5 0.000000 0.000000 0.000000 0.000000 -0.056309 0.000000
# 6 0.000000 0.000000 0.000000 0.000000 0.000000 0.038315
#
#
# Mechanical properties :
#
#
# Convention : Reuss Voigt Hill
#
# Bulk Modulus (GPa) = 64.10206 70.82367 67.46286
# Shear Modulus (GPa) = 46.27974 18.32529 32.30251
#
# Velocity S-wave (km/s) = 5.07349 3.19254 4.23867
# Velocity P-wave (km/s) = 8.36500 7.27882 7.84074
#
# Compressibility (1/GPa) = 0.01560012
#
# Stress axis : x y z
#
# Youngs Moduli (GPa) = 69.45424 39.24301 83.09447
#
# Poissons Ratio (x) = 0.27079 0.11749
# Poissons Ratio (y) = 0.47926 0.81790
# Poissons Ratio (z) = 0.09820 0.38627
#
# Static dielectric constant tensor:
#      x y z
#    x 3.528110 0.000000 0.000000 
#    y 0.000000 3.209250 0.000000 
#    z 0.000000 0.000000 3.460410 
# 
# 
# High freq. dielectric constant tensor:
#      x y z
#    x 1.713350 0.000000 0.000000 
#    y 0.000000 1.665450 0.000000 
#    z 0.000000 0.000000 1.705080 
# 
# From -- ./inp_files/33339.got.cif
#   From: 2010.03.12/outbox.cif.g09.slc.cpg/sg47_17_cif.got.tgz:33339.got - 2010.04.14 03:12:58.
