data_PCOD8198102
_publ_section_title
;
Structure prediction by ZEFSAII (Michael W. Deem and Ramdas Pophale) SiO2 
 PCOD8198102
Probable space group: P M M M
;
_chemical_formula_sum "Si O2"
_cell_formula_units_Z 44
_cell_length_a 30.177489
_cell_length_b 7.814410
_cell_length_c 9.470822
_cell_angle_alpha 90.000000
_cell_angle_beta 90.000000
_cell_angle_gamma 90.000000
_cell_volume 2233.402348
_symmetry_space_group_name_H-M "P M M M"
_symmetry_group_IT_number 47
_symmetry_cell_setting 'orthorhombic'
loop_
_space_group_symop_operation_xyz
x,y,z
-x,-y,z
x,-y,-z
-x,y,-z
-x,-y,-z
x,y,-z
-x,y,z
x,-y,z
loop_
_atom_site_type_symbol
_atom_site_label
_atom_site_fract_x
_atom_site_fract_y
_atom_site_fract_z
Si Si1 0.223096 0.701400 0.341514
Si Si2 0.951273 0.796518 0.157934
Si Si3 0.610905 0.807262 0.337470
Si Si4 0.694211 0.702637 0.836722
Si Si5 0.450771 0.500000 0.666998
Si Si6 0.872311 0.798782 0.343230
O O1 0.228836 0.779286 0.500000
O O2 0.226690 0.500000 0.349471
O O3 0.261058 0.771641 0.237625
O O4 0.175535 0.754582 0.276515
O O5 0.912223 0.715728 0.252975
O O6 0.000000 0.741740 0.215698
O O7 0.947784 0.000000 0.156630
O O8 0.945034 0.725374 0.000000
O O9 0.623978 0.766250 0.500000
O O10 0.653815 0.794356 0.240317
O O11 0.574529 0.671446 0.282359
O O12 0.591511 0.000000 0.324663
O O13 0.688939 0.500000 0.819837
O O14 0.695312 0.757720 0.000000
O O15 0.500000 0.500000 0.734482
O O16 0.454679 0.500000 0.500000
O O17 0.874659 0.718686 0.500000
O O18 0.878829 0.000000 0.349135
#
# Coordination Sequence:
#
# PCOD8198102 Si02
#       6
#     8   8   8   8   4   8
#     4   9  18  32  49  68  95 132 167 201 248 308
#     4   8  14  25  41  61  85 114 148 187 236 293
#     4  10  20  34  56  84 112 146 185 224 271 324
#     4  10  20  34  53  76 103 137 177 220 265 314
#     4   9  18  34  57  85 117 149 183 229 276 317
#     4   9  17  28  43  65  90 114 147 195 244 290
#
# _framework density 19.700883999999999
#
# number of rings (size 3 to 8) (size 9 to 14) (size 15 to 20)
#    0.000    2.818    0.909    1.091    0.000    3.273 
#    0.000    5.455    0.000    1.636    0.000    5.091 
#    0.000    0.000    0.000    0.000    0.000    0.000 
#
# Total GULP energy -545419.857157 kJ/mol
# GULP energy per Si atom -12395.905844 kJ/mol
# Density = 1.965604 g / cm^3
# Si number density = 19.700884 Si / 1000 Ang^3
#
#
#
# Elastic Constant Matrix: (Units=GPa)
#
#
# Indices 1 2 3 4 5 6 
#
# 1 188.3440 41.7889 74.8601 0.0000 0.0000 0.0000
# 2 41.7889 56.3897 25.6502 0.0000 0.0000 0.0000
# 3 74.8601 25.6502 88.8242 0.0000 0.0000 0.0000
# 4 0.0000 0.0000 0.0000 13.5836 0.0000 0.0000
# 5 0.0000 0.0000 0.0000 0.0000 10.5530 0.0000
# 6 0.0000 0.0000 0.0000 0.0000 0.0000 22.4970
#
#
#
# Elastic Compliance Matrix: (Units=1/GPa)
#
#
# Indices 1 2 3 4 5 6 
#
# 1 0.008551 -0.003521 -0.006190 0.000000 0.000000 0.000000
# 2 -0.003521 0.021866 -0.003346 0.000000 0.000000 0.000000
# 3 -0.006190 -0.003346 0.017441 0.000000 0.000000 0.000000
# 4 0.000000 0.000000 0.000000 0.073618 0.000000 0.000000
# 5 0.000000 0.000000 0.000000 0.000000 0.094760 0.000000
# 6 0.000000 0.000000 0.000000 0.000000 0.000000 0.044450
#
#
# Mechanical properties :
#
#
# Convention : Reuss Voigt Hill
#
# Bulk Modulus (GPa) = 45.99277 68.68405 57.33841
# Shear Modulus (GPa) = 17.00400 22.07731 19.54065
#
# Velocity S-wave (km/s) = 2.94106 3.35121 3.15281
# Velocity P-wave (km/s) = 5.91010 7.06493 6.51316
#
# Compressibility (1/GPa) = 0.02174255
#
# Stress axis : x y z
#
# Youngs Moduli (GPa) = 116.94617 45.73413 57.33535
#
# Poissons Ratio (x) = 0.16104 0.35489
# Poissons Ratio (y) = 0.41180 0.19187
# Poissons Ratio (z) = 0.72387 0.15305
#
# Static dielectric constant tensor:
#      x y z
#    x 3.821440 0.000000 0.000000 
#    y 0.000000 3.315930 0.000000 
#    z 0.000000 0.000000 3.661130 
# 
# 
# High freq. dielectric constant tensor:
#      x y z
#    x 1.771360 0.000000 0.000000 
#    y 0.000000 1.748780 0.000000 
#    z 0.000000 0.000000 1.744970 
# 
# From -- ./inp_files/2310.got.cif
#   From: 2010.03.12/outbox.cif.g09.slc.cpg/sg47_2_cif.got.tgz:2310.got - 2010.04.14 03:12:58.
