data_PCOD8198340
_publ_section_title
;
Structure prediction by ZEFSAII (Michael W. Deem and Ramdas Pophale) SiO2 
 PCOD8198340
Probable space group: P M M M
;
_chemical_formula_sum "Si O2"
_cell_formula_units_Z 44
_cell_length_a 8.964249
_cell_length_b 28.002872
_cell_length_c 9.234943
_cell_angle_alpha 90.000000
_cell_angle_beta 90.000000
_cell_angle_gamma 90.000000
_cell_volume 2318.198956
_symmetry_space_group_name_H-M "P M M M"
_symmetry_group_IT_number 47
_symmetry_cell_setting 'orthorhombic'
loop_
_space_group_symop_operation_xyz
x,y,z
-x,-y,z
x,-y,-z
-x,y,-z
-x,-y,-z
x,y,-z
-x,y,z
x,-y,z
loop_
_atom_site_type_symbol
_atom_site_label
_atom_site_fract_x
_atom_site_fract_y
_atom_site_fract_z
Si Si1 0.668279 0.000000 0.672300
Si Si2 0.170837 0.094985 0.671532
Si Si3 0.828765 0.555177 0.167024
Si Si4 0.173966 0.278615 0.166837
Si Si5 0.671790 0.636560 0.669945
Si Si6 0.674526 0.819124 0.832507
O O1 0.752237 0.046840 0.730922
O O2 0.500000 0.000000 0.732883
O O3 0.669362 0.000000 0.500000
O O4 0.185532 0.098450 0.500000
O O5 0.252146 0.139985 0.738371
O O6 0.000000 0.094302 0.721735
O O7 0.795654 0.500000 0.199395
O O8 0.719558 0.585596 0.266829
O O9 0.000000 0.567609 0.203892
O O10 0.796263 0.567245 0.000000
O O11 0.227145 0.322473 0.262322
O O12 0.259384 0.231321 0.218495
O O13 0.000000 0.270029 0.192114
O O14 0.210130 0.290287 0.000000
O O15 0.699417 0.635731 0.500000
O O16 0.500000 0.646227 0.708846
O O17 0.500000 0.818577 0.801815
O O18 0.712115 0.828513 0.000000
#
# Coordination Sequence:
#
# PCOD8198340 Si02
#       6
#     4   8   8   8   8   8
#     4   9  17  31  52  77 106 141 180 222 268 317
#     4  10  20  34  54  80 109 142 180 221 266 318
#     4   9  19  37  60  84 109 140 181 225 267 316
#     4  10  21  38  60  82 104 136 179 223 267 319
#     4  11  24  38  53  79 114 147 179 219 267 317
#     4  10  21  37  57  81 109 141 177 219 269 322
#
# _framework density 18.980253000000001
#
# number of rings (size 3 to 8) (size 9 to 14) (size 15 to 20)
#    0.000    2.091    0.000    3.545    0.000    9.818 
#    0.000    3.182    0.000    2.727    0.000    0.000 
#    0.000    0.000    0.000    0.000    0.000    0.000 
#
# Total GULP energy -545797.610826 kJ/mol
# GULP energy per Si atom -12404.491155 kJ/mol
# Density = 1.893705 g / cm^3
# Si number density = 18.980253 Si / 1000 Ang^3
#
#
#
# Elastic Constant Matrix: (Units=GPa)
#
#
# Indices 1 2 3 4 5 6 
#
# 1 106.3965 58.2770 39.1516 0.0000 0.0000 0.0000
# 2 58.2770 126.5811 43.0799 0.0000 0.0000 0.0000
# 3 39.1516 43.0799 49.3744 0.0000 0.0000 0.0000
# 4 0.0000 0.0000 0.0000 35.4508 0.0000 0.0000
# 5 0.0000 0.0000 0.0000 0.0000 30.7003 0.0000
# 6 0.0000 0.0000 0.0000 0.0000 0.0000 14.4860
#
#
#
# Elastic Compliance Matrix: (Units=1/GPa)
#
#
# Indices 1 2 3 4 5 6 
#
# 1 0.014532 -0.003938 -0.008087 0.000000 0.000000 0.000000
# 2 -0.003938 0.012304 -0.007613 0.000000 0.000000 0.000000
# 3 -0.008087 -0.007613 0.033308 0.000000 0.000000 0.000000
# 4 0.000000 0.000000 0.000000 0.028208 0.000000 0.000000
# 5 0.000000 0.000000 0.000000 0.000000 0.032573 0.000000
# 6 0.000000 0.000000 0.000000 0.000000 0.000000 0.069032
#
#
# Mechanical properties :
#
#
# Convention : Reuss Voigt Hill
#
# Bulk Modulus (GPa) = 47.91927 62.59655 55.25791
# Shear Modulus (GPa) = 21.16953 25.58366 23.37660
#
# Velocity S-wave (km/s) = 3.34330 3.67537 3.51326
# Velocity P-wave (km/s) = 6.34076 7.14581 6.75529
#
# Compressibility (1/GPa) = 0.02086843
#
# Stress axis : x y z
#
# Youngs Moduli (GPa) = 68.81560 81.27457 30.02261
#
# Poissons Ratio (x) = 0.32006 0.24279
# Poissons Ratio (y) = 0.27099 0.22856
# Poissons Ratio (z) = 0.55651 0.61872
#
# Static dielectric constant tensor:
#      x y z
#    x 3.644760 0.000000 0.000000 
#    y 0.000000 3.652230 0.000000 
#    z 0.000000 0.000000 3.302130 
# 
# 
# High freq. dielectric constant tensor:
#      x y z
#    x 1.751990 0.000000 0.000000 
#    y 0.000000 1.752850 0.000000 
#    z 0.000000 0.000000 1.719270 
# 
# From -- ./inp_files/2135.got.cif
#   From: 2010.03.12/outbox.cif.g09.slc.cpg/sg47_2_cif.got.tgz:2135.got - 2010.04.14 03:12:58.
