data_PCOD8198103
_publ_section_title
;
Structure prediction by ZEFSAII (Michael W. Deem and Ramdas Pophale) SiO2 
 PCOD8198103
Probable space group: P M M M
;
_chemical_formula_sum "Si O2"
_cell_formula_units_Z 64
_cell_length_a 14.436372
_cell_length_b 9.121799
_cell_length_c 25.492625
_cell_angle_alpha 90.000000
_cell_angle_beta 90.000000
_cell_angle_gamma 90.000000
_cell_volume 3357.013752
_symmetry_space_group_name_H-M "P M M M"
_symmetry_group_IT_number 47
_symmetry_cell_setting 'orthorhombic'
loop_
_space_group_symop_operation_xyz
x,y,z
-x,-y,z
x,-y,-z
-x,y,-z
-x,-y,-z
x,y,-z
-x,y,z
x,-y,z
loop_
_atom_site_type_symbol
_atom_site_label
_atom_site_fract_x
_atom_site_fract_y
_atom_site_fract_z
Si Si1 0.212353 0.825904 0.942673
Si Si2 0.794692 0.329485 0.743887
Si Si3 0.398407 0.826761 0.893659
Si Si4 0.402282 0.673896 0.558933
Si Si5 0.397652 0.333218 0.786722
Si Si6 0.893124 0.169566 0.349770
Si Si7 0.201523 0.671037 0.561748
Si Si8 0.892118 0.827813 0.159894
O O1 0.317476 0.770203 0.932020
O O2 0.143682 0.771286 0.896896
O O3 0.210105 0.000000 0.943937
O O4 0.181592 0.764566 0.000000
O O5 0.821085 0.500000 0.742225
O O6 0.683212 0.305701 0.744267
O O7 0.831239 0.253511 0.692012
O O8 0.839560 0.259909 0.795350
O O9 0.500000 0.773639 0.913788
O O10 0.378087 0.769794 0.835750
O O11 0.395399 0.000000 0.889930
O O12 0.405384 0.735144 0.500000
O O13 0.500000 0.724918 0.587216
O O14 0.399449 0.500000 0.557178
O O15 0.303782 0.723630 0.583436
O O16 0.500000 0.300785 0.762182
O O17 0.392775 0.500000 0.807025
O O18 0.874471 0.235039 0.407431
O O19 0.000000 0.192331 0.335178
O O20 0.865989 0.000000 0.349152
O O21 0.191446 0.702872 0.500000
O O22 0.185150 0.500000 0.573453
O O23 0.000000 0.792373 0.163715
O O24 0.872065 0.000000 0.167527
#
# Coordination Sequence:
#
# PCOD8198103 Si02
#       8
#     8   8   8   8   8   8   8   8
#     4   9  17  29  46  72 106 140 176 219 263 313
#     4  11  22  37  60  84 105 133 172 220 269 319
#     4   9  16  27  47  74 102 135 174 215 260 311
#     4   7  10  20  43  76 110 141 174 211 250 296
#     4   9  18  33  54  80 108 136 167 207 260 321
#     4  11  25  42  58  78 107 144 183 224 271 320
#     4   9  18  34  58  87 116 147 184 224 265 310
#     4  10  20  34  53  76 103 137 177 222 272 322
#
# _framework density 19.064561999999999
#
# number of rings (size 3 to 8) (size 9 to 14) (size 15 to 20)
#    0.000    2.625    1.250    2.250    0.000    4.250 
#    0.000    4.375    0.000    5.625    0.000    4.375 
#    0.000    0.000    0.000    0.000    0.000    0.000 
#
# Total GULP energy -792949.810898 kJ/mol
# GULP energy per Si atom -12389.840795 kJ/mol
# Density = 1.902117 g / cm^3
# Si number density = 19.064562 Si / 1000 Ang^3
#
#
#
# Elastic Constant Matrix: (Units=GPa)
#
#
# Indices 1 2 3 4 5 6 
#
# 1 107.2366 43.6272 54.0561 0.0000 0.0000 0.0000
# 2 43.6272 50.8342 37.9066 0.0000 0.0000 0.0000
# 3 54.0561 37.9066 94.9052 0.0000 0.0000 0.0000
# 4 0.0000 0.0000 0.0000 303.6009 0.0000 0.0000
# 5 0.0000 0.0000 0.0000 0.0000 26.1301 0.0000
# 6 0.0000 0.0000 0.0000 0.0000 0.0000 21.1383
#
#
#
# Elastic Compliance Matrix: (Units=1/GPa)
#
#
# Indices 1 2 3 4 5 6 
#
# 1 0.015913 -0.009824 -0.005140 0.000000 0.000000 0.000000
# 2 -0.009824 0.034081 -0.008017 0.000000 0.000000 0.000000
# 3 -0.005140 -0.008017 0.016666 0.000000 0.000000 0.000000
# 4 0.000000 0.000000 0.000000 0.003294 0.000000 0.000000
# 5 0.000000 0.000000 0.000000 0.000000 0.038270 0.000000
# 6 0.000000 0.000000 0.000000 0.000000 0.000000 0.047307
#
#
# Mechanical properties :
#
#
# Convention : Reuss Voigt Hill
#
# Bulk Modulus (GPa) = 48.31175 58.23953 53.27564
# Shear Modulus (GPa) = 23.99315 77.99962 50.99639
#
# Velocity S-wave (km/s) = 3.55141 6.40330 5.17758
# Velocity P-wave (km/s) = 6.49714 9.23496 7.98428
#
# Compressibility (1/GPa) = 0.02069890
#
# Stress axis : x y z
#
# Youngs Moduli (GPa) = 62.84258 29.34163 60.00101
#
# Poissons Ratio (x) = 0.28826 0.30839
# Poissons Ratio (y) = 0.61737 0.48102
# Poissons Ratio (z) = 0.32299 0.23523
#
# Static dielectric constant tensor:
#      x y z
#    x 4.011400 0.000000 0.000000 
#    y 0.000000 3.218550 0.000000 
#    z 0.000000 0.000000 3.385830 
# 
# 
# High freq. dielectric constant tensor:
#      x y z
#    x 1.762690 0.000000 0.000000 
#    y 0.000000 1.707320 0.000000 
#    z 0.000000 0.000000 1.719380 
# 
# From -- ./inp_files/32753.got.cif
#   From: 2010.03.12/outbox.cif.g09.slc.cpg/sg47_17_cif.got.tgz:32753.got - 2010.04.14 03:12:58.
