data_PCOD8198177
_publ_section_title
;
Structure prediction by ZEFSAII (Michael W. Deem and Ramdas Pophale) SiO2 
 PCOD8198177
Probable space group: P M M M
;
_chemical_formula_sum "Si O2"
_cell_formula_units_Z 64
_cell_length_a 9.046190
_cell_length_b 18.849833
_cell_length_c 19.093255
_cell_angle_alpha 90.000000
_cell_angle_beta 90.000000
_cell_angle_gamma 90.000000
_cell_volume 3255.766010
_symmetry_space_group_name_H-M "P M M M"
_symmetry_group_IT_number 47
_symmetry_cell_setting 'orthorhombic'
loop_
_space_group_symop_operation_xyz
x,y,z
-x,-y,z
x,-y,-z
-x,y,-z
-x,-y,-z
x,y,-z
-x,y,z
x,-y,z
loop_
_atom_site_type_symbol
_atom_site_label
_atom_site_fract_x
_atom_site_fract_y
_atom_site_fract_z
Si Si1 0.327845 0.187817 0.418423
Si Si2 0.670675 0.668366 0.175879
Si Si3 0.839250 0.417271 0.076277
Si Si4 0.328579 0.080606 0.174186
Si Si5 0.324778 0.418645 0.306759
Si Si6 0.674497 0.792603 0.920836
Si Si7 0.171724 0.332596 0.581490
Si Si8 0.828535 0.917031 0.683988
O O1 0.299762 0.173129 0.500000
O O2 0.500000 0.193942 0.400419
O O3 0.250823 0.260354 0.394211
O O4 0.257964 0.122666 0.377060
O O5 0.500000 0.682457 0.186685
O O6 0.701275 0.604060 0.123427
O O7 0.734541 0.639994 0.250093
O O8 0.742590 0.737682 0.137497
O O9 0.835517 0.500000 0.067724
O O10 0.000000 0.393618 0.107473
O O11 0.818793 0.381832 0.000000
O O12 0.500000 0.088945 0.194794
O O13 0.288245 0.128716 0.107135
O O14 0.234162 0.106191 0.240663
O O15 0.289845 0.000000 0.153241
O O16 0.500000 0.412474 0.316289
O O17 0.282840 0.500000 0.285934
O O18 0.243823 0.399234 0.378871
O O19 0.500000 0.779726 0.924838
O O20 0.740485 0.783862 0.000000
O O21 0.198551 0.346804 0.500000
O O22 0.000000 0.326234 0.599978
O O23 0.000000 0.896690 0.680770
O O24 0.801643 0.000000 0.671760
#
# Coordination Sequence:
#
# PCOD8198177 Si02
#       8
#     8   8   8   8   8   8   8   8
#     4  10  21  37  59  86 117 154 195 238 284 337
#     4  10  20  34  53  78 108 140 178 226 275 330
#     4   9  18  32  49  70  99 136 175 216 266 323
#     4   9  18  33  54  80 109 146 193 240 287 341
#     4  10  22  38  56  82 114 149 191 236 285 342
#     4   9  18  32  52  81 113 144 182 233 290 339
#     4  10  22  40  61  86 115 147 187 235 288 344
#     4  10  21  36  55  82 118 157 196 241 290 338
#
# _framework density 19.657433000000001
#
# number of rings (size 3 to 8) (size 9 to 14) (size 15 to 20)
#    0.000    2.375    0.000    2.250    1.750    5.250 
#    0.000    5.000    0.000    1.125    0.000    1.750 
#    0.000    0.000    0.000    0.000    0.000    0.000 
#
# Total GULP energy -793191.581588 kJ/mol
# GULP energy per Si atom -12393.618462 kJ/mol
# Density = 1.961269 g / cm^3
# Si number density = 19.657433 Si / 1000 Ang^3
#
#
#
# Elastic Constant Matrix: (Units=GPa)
#
#
# Indices 1 2 3 4 5 6 
#
# 1 49.6034 40.8112 39.2102 0.0000 0.0000 0.0000
# 2 40.8112 99.6407 69.9897 0.0000 0.0000 0.0000
# 3 39.2102 69.9897 104.2745 0.0000 0.0000 0.0000
# 4 0.0000 0.0000 0.0000 37.7622 0.0000 0.0000
# 5 0.0000 0.0000 0.0000 0.0000 21.0859 0.0000
# 6 0.0000 0.0000 0.0000 0.0000 0.0000 26.8312
#
#
#
# Elastic Compliance Matrix: (Units=1/GPa)
#
#
# Indices 1 2 3 4 5 6 
#
# 1 0.032393 -0.008915 -0.006197 0.000000 0.000000 0.000000
# 2 -0.008915 0.021442 -0.011040 0.000000 0.000000 0.000000
# 3 -0.006197 -0.011040 0.019330 0.000000 0.000000 0.000000
# 4 0.000000 0.000000 0.000000 0.026482 0.000000 0.000000
# 5 0.000000 0.000000 0.000000 0.000000 0.047425 0.000000
# 6 0.000000 0.000000 0.000000 0.000000 0.000000 0.037270
#
#
# Mechanical properties :
#
#
# Convention : Reuss Voigt Hill
#
# Bulk Modulus (GPa) = 47.93362 61.50454 54.71908
# Shear Modulus (GPa) = 20.52551 24.03636 22.28093
#
# Velocity S-wave (km/s) = 3.23485 3.50060 3.37034
# Velocity P-wave (km/s) = 6.19595 6.90616 6.56067
#
# Compressibility (1/GPa) = 0.02086218
#
# Stress axis : x y z
#
# Youngs Moduli (GPa) = 30.87074 46.63755 51.73204
#
# Poissons Ratio (x) = 0.41576 0.32059
# Poissons Ratio (y) = 0.27520 0.57111
# Poissons Ratio (z) = 0.19131 0.51487
#
# Static dielectric constant tensor:
#      x y z
#    x 3.498070 0.000000 0.000000 
#    y 0.000000 3.619560 0.000000 
#    z 0.000000 0.000000 3.678080 
# 
# 
# High freq. dielectric constant tensor:
#      x y z
#    x 1.747350 0.000000 0.000000 
#    y 0.000000 1.767190 0.000000 
#    z 0.000000 0.000000 1.768280 
# 
# From -- ./inp_files/27041.got.cif
#   From: 2010.03.12/outbox.cif.g09.slc.cpg/sg47_14_cif.got.tgz:27041.got - 2010.04.14 03:12:58.
