data_PCOD8198467
_publ_section_title
;
Structure prediction by ZEFSAII (Michael W. Deem and Ramdas Pophale) SiO2 
 PCOD8198467
Probable space group: P M M M
;
_chemical_formula_sum "Si O2"
_cell_formula_units_Z 52
_cell_length_a 9.215262
_cell_length_b 20.591365
_cell_length_c 14.577091
_cell_angle_alpha 90.000000
_cell_angle_beta 90.000000
_cell_angle_gamma 90.000000
_cell_volume 2766.073329
_symmetry_space_group_name_H-M "P M M M"
_symmetry_group_IT_number 47
_symmetry_cell_setting 'orthorhombic'
loop_
_space_group_symop_operation_xyz
x,y,z
-x,-y,z
x,-y,-z
-x,y,-z
-x,-y,-z
x,y,-z
-x,y,z
x,-y,z
loop_
_atom_site_type_symbol
_atom_site_label
_atom_site_fract_x
_atom_site_fract_y
_atom_site_fract_z
Si Si1 0.157984 0.922975 0.000000
Si Si2 0.163281 0.268707 0.601153
Si Si3 0.831809 0.571798 0.217534
Si Si4 0.338128 0.928028 0.169204
Si Si5 0.337358 0.205811 0.748971
Si Si6 0.329541 0.399347 0.396871
Si Si7 0.331013 0.684423 0.893676
O O1 0.238834 0.899231 0.910285
O O2 0.000000 0.891040 0.000000
O O3 0.152219 0.000000 0.000000
O O4 0.166697 0.237547 0.500000
O O5 0.214505 0.215891 0.673383
O O6 0.280039 0.325398 0.608498
O O7 0.000000 0.293055 0.624336
O O8 0.818299 0.500000 0.171696
O O9 0.759254 0.563929 0.318234
O O10 0.755248 0.625612 0.154483
O O11 0.000000 0.591482 0.229101
O O12 0.500000 0.934081 0.129520
O O13 0.330342 0.872169 0.244395
O O14 0.288263 0.000000 0.205386
O O15 0.500000 0.225570 0.717035
O O16 0.300064 0.247541 0.840842
O O17 0.297026 0.426952 0.500000
O O18 0.500000 0.404463 0.375292
O O19 0.500000 0.666326 0.888855
O O20 0.281136 0.691965 0.000000
#
# Coordination Sequence:
#
# PCOD8198467 Si02
#       7
#     4   8   8   8   8   8   8
#     4   9  17  29  45  69 103 141 182 223 264 317
#     4  10  20  34  55  83 113 143 177 221 274 331
#     4  11  24  40  58  81 111 147 186 229 276 327
#     4   9  18  32  51  76 108 147 186 224 272 327
#     4  10  20  34  57  84 110 143 183 228 272 321
#     4  10  20  35  57  84 113 144 179 221 272 331
#     4  10  22  39  58  81 109 143 186 233 277 322
#
# _framework density 18.799212000000001
#
# number of rings (size 3 to 8) (size 9 to 14) (size 15 to 20)
#    0.000    2.077    1.538    1.615    1.077    5.538 
#    0.000    3.077    0.000    0.462    0.000    3.231 
#    0.000    0.000    0.000    0.000    0.000    0.000 
#
# Total GULP energy -644284.541772 kJ/mol
# GULP energy per Si atom -12390.087342 kJ/mol
# Density = 1.875642 g / cm^3
# Si number density = 18.799212 Si / 1000 Ang^3
#
#
#
# Elastic Constant Matrix: (Units=GPa)
#
#
# Indices 1 2 3 4 5 6 
#
# 1 92.8346 37.3488 47.8226 0.0000 0.0000 0.0000
# 2 37.3488 103.7849 42.3515 0.0000 0.0000 0.0000
# 3 47.8226 42.3515 97.6416 0.0000 0.0000 0.0000
# 4 0.0000 0.0000 0.0000 12.5551 0.0000 0.0000
# 5 0.0000 0.0000 0.0000 0.0000 33.1212 0.0000
# 6 0.0000 0.0000 0.0000 0.0000 0.0000 18.2369
#
#
#
# Elastic Compliance Matrix: (Units=1/GPa)
#
#
# Indices 1 2 3 4 5 6 
#
# 1 0.015109 -0.002938 -0.006126 0.000000 0.000000 0.000000
# 2 -0.002938 0.012279 -0.003887 0.000000 0.000000 0.000000
# 3 -0.006126 -0.003887 0.014928 0.000000 0.000000 0.000000
# 4 0.000000 0.000000 0.000000 0.079649 0.000000 0.000000
# 5 0.000000 0.000000 0.000000 0.000000 0.030192 0.000000
# 6 0.000000 0.000000 0.000000 0.000000 0.000000 0.054834
#
#
# Mechanical properties :
#
#
# Convention : Reuss Voigt Hill
#
# Bulk Modulus (GPa) = 60.92123 61.03409 60.97766
# Shear Modulus (GPa) = 20.97635 23.89852 22.43743
#
# Velocity S-wave (km/s) = 3.34400 3.56933 3.45850
# Velocity P-wave (km/s) = 6.88378 7.03730 6.96096
#
# Compressibility (1/GPa) = 0.01641464
#
# Stress axis : x y z
#
# Youngs Moduli (GPa) = 66.18373 81.44240 66.98839
#
# Poissons Ratio (x) = 0.23924 0.41038
# Poissons Ratio (y) = 0.19442 0.26039
# Poissons Ratio (z) = 0.40545 0.31657
#
# Static dielectric constant tensor:
#      x y z
#    x 3.623620 0.000000 0.000000 
#    y 0.000000 3.313580 0.000000 
#    z 0.000000 0.000000 3.489080 
# 
# 
# High freq. dielectric constant tensor:
#      x y z
#    x 1.738360 0.000000 0.000000 
#    y 0.000000 1.720290 0.000000 
#    z 0.000000 0.000000 1.714050 
# 
# From -- ./inp_files/11100.got.cif
#   From: 2010.03.12/outbox.cif.g09.slc.cpg/sg47_6_cif.got.tgz:11100.got - 2010.04.14 03:12:58.
