data_PCOD8198503
_publ_section_title
;
Structure prediction by ZEFSAII (Michael W. Deem and Ramdas Pophale) SiO2 
 PCOD8198503
Probable space group: P M M M
;
_chemical_formula_sum "Si O2"
_cell_formula_units_Z 48
_cell_length_a 9.529816
_cell_length_b 8.582136
_cell_length_c 29.424958
_cell_angle_alpha 90.000000
_cell_angle_beta 90.000000
_cell_angle_gamma 90.000000
_cell_volume 2406.554822
_symmetry_space_group_name_H-M "P M M M"
_symmetry_group_IT_number 47
_symmetry_cell_setting 'orthorhombic'
loop_
_space_group_symop_operation_xyz
x,y,z
-x,-y,z
x,-y,-z
-x,y,-z
-x,-y,-z
x,y,-z
-x,y,z
x,-y,z
loop_
_atom_site_type_symbol
_atom_site_label
_atom_site_fract_x
_atom_site_fract_y
_atom_site_fract_z
Si Si1 0.337690 0.682646 0.200977
Si Si2 0.663557 0.684612 0.634479
Si Si3 0.156403 0.684644 0.449648
Si Si4 0.500000 0.184088 0.049851
Si Si5 0.756764 0.182727 0.892135
Si Si6 0.000000 0.680459 0.949335
Si Si7 0.835566 0.182780 0.283107
O O1 0.500000 0.737251 0.207290
O O2 0.332008 0.500000 0.191494
O O3 0.263289 0.772563 0.160024
O O4 0.246253 0.721510 0.244842
O O5 0.500000 0.733383 0.637975
O O6 0.680220 0.500000 0.642194
O O7 0.724664 0.739339 0.585745
O O8 0.758286 0.775934 0.670318
O O9 0.195195 0.748580 0.500000
O O10 0.153436 0.500000 0.450878
O O11 0.000000 0.744702 0.435629
O O12 0.372281 0.243139 0.078985
O O13 0.500000 0.000000 0.044737
O O14 0.500000 0.262271 0.000000
O O15 0.875110 0.274259 0.917271
O O16 0.785292 0.000000 0.895142
O O17 0.000000 0.500000 0.958411
O O18 0.000000 0.761674 0.000000
O O19 0.000000 0.232181 0.284909
O O20 0.821691 0.000000 0.273191
#
# Coordination Sequence:
#
# PCOD8198503 Si02
#       7
#     8   8   8   4   8   4   8
#     4  11  24  42  64  90 121 153 189 235 294 358
#     4  10  20  34  55  85 119 154 194 241 296 353
#     4   8  14  26  47  77 114 156 199 242 289 344
#     4   9  18  34  59  91 121 151 193 239 284 337
#     4  11  22  39  64  91 122 158 198 244 292 346
#     4  11  25  43  61  87 125 165 203 245 294 345
#     4  11  25  42  61  85 113 149 196 244 293 351
#
# _framework density 19.945525
#
# number of rings (size 3 to 8) (size 9 to 14) (size 15 to 20)
#    0.000    1.833    0.833    3.750    1.167    7.000 
#    0.000    1.667    0.000    2.500    0.000    3.500 
#    0.000    0.000    0.000    0.000    0.000    0.000 
#
# Total GULP energy -594953.190387 kJ/mol
# GULP energy per Si atom -12394.858133 kJ/mol
# Density = 1.990013 g / cm^3
# Si number density = 19.945525 Si / 1000 Ang^3
#
#
#
# Elastic Constant Matrix: (Units=GPa)
#
#
# Indices 1 2 3 4 5 6 
#
# 1 149.7536 23.8400 59.3230 0.0000 0.0000 0.0000
# 2 23.8400 44.1954 10.4715 0.0000 0.0000 0.0000
# 3 59.3230 10.4715 127.9867 0.0000 0.0000 0.0000
# 4 0.0000 0.0000 0.0000 63.3332 0.0000 0.0000
# 5 0.0000 0.0000 0.0000 0.0000 41.1946 0.0000
# 6 0.0000 0.0000 0.0000 0.0000 0.0000 40.7255
#
#
#
# Elastic Compliance Matrix: (Units=1/GPa)
#
#
# Indices 1 2 3 4 5 6 
#
# 1 0.008777 -0.003845 -0.003753 0.000000 0.000000 0.000000
# 2 -0.003845 0.024759 -0.000244 0.000000 0.000000 0.000000
# 3 -0.003753 -0.000244 0.009573 0.000000 0.000000 0.000000
# 4 0.000000 0.000000 0.000000 0.015789 0.000000 0.000000
# 5 0.000000 0.000000 0.000000 0.000000 0.024275 0.000000
# 6 0.000000 0.000000 0.000000 0.000000 0.000000 0.024555
#
#
# Mechanical properties :
#
#
# Convention : Reuss Voigt Hill
#
# Bulk Modulus (GPa) = 36.46401 56.57830 46.52116
# Shear Modulus (GPa) = 37.72086 44.27074 40.99580
#
# Velocity S-wave (km/s) = 4.35350 4.71636 4.53856
# Velocity P-wave (km/s) = 6.60244 7.62146 7.13018
#
# Compressibility (1/GPa) = 0.02742430
#
# Stress axis : x y z
#
# Youngs Moduli (GPa) = 113.93914 40.39010 104.46052
#
# Poissons Ratio (x) = 0.15530 0.39209
# Poissons Ratio (y) = 0.43809 0.02544
# Poissons Ratio (z) = 0.42767 0.00984
#
# Static dielectric constant tensor:
#      x y z
#    x 3.771320 0.000000 0.000000 
#    y 0.000000 3.363460 0.000000 
#    z 0.000000 0.000000 3.808330 
# 
# 
# High freq. dielectric constant tensor:
#      x y z
#    x 1.791720 0.000000 0.000000 
#    y 0.000000 1.752610 0.000000 
#    z 0.000000 0.000000 1.796430 
# 
# From -- ./inp_files/34166.got.cif
#   From: 2010.03.12/outbox.cif.g09.slc.cpg/sg47_18_cif.got.tgz:34166.got - 2010.04.14 03:12:58.
