data_PCOD8198157
_publ_section_title
;
Structure prediction by ZEFSAII (Michael W. Deem and Ramdas Pophale) SiO2 
 PCOD8198157
Probable space group: P M M M
;
_chemical_formula_sum "Si O2"
_cell_formula_units_Z 64
_cell_length_a 15.095826
_cell_length_b 23.206473
_cell_length_c 9.452468
_cell_angle_alpha 90.000000
_cell_angle_beta 90.000000
_cell_angle_gamma 90.000000
_cell_volume 3311.396894
_symmetry_space_group_name_H-M "P M M M"
_symmetry_group_IT_number 47
_symmetry_cell_setting 'orthorhombic'
loop_
_space_group_symop_operation_xyz
x,y,z
-x,-y,z
x,-y,-z
-x,y,-z
-x,-y,-z
x,y,-z
-x,y,z
x,-y,z
loop_
_atom_site_type_symbol
_atom_site_label
_atom_site_fract_x
_atom_site_fract_y
_atom_site_fract_z
Si Si1 0.096362 0.245356 0.657465
Si Si2 0.599309 0.212642 0.663276
Si Si3 0.101334 0.565014 0.342353
Si Si4 0.100181 0.932088 0.162414
Si Si5 0.157233 0.340509 0.843855
Si Si6 0.395484 0.435449 0.341663
Si Si7 0.227003 0.147031 0.333767
Si Si8 0.644648 0.323785 0.839950
O O1 0.121373 0.266237 0.500000
O O2 0.090452 0.300459 0.757713
O O3 0.168830 0.201328 0.712848
O O4 0.000000 0.215216 0.659566
O O5 0.618644 0.229300 0.500000
O O6 0.500000 0.186415 0.680299
O O7 0.671409 0.163675 0.710288
O O8 0.601398 0.271541 0.752983
O O9 0.110929 0.590572 0.500000
O O10 0.134839 0.500000 0.340485
O O11 0.164433 0.598387 0.234542
O O12 0.000000 0.569569 0.291566
O O13 0.182594 0.906056 0.251041
O O14 0.000000 0.913780 0.213388
O O15 0.109622 0.000000 0.178293
O O16 0.111944 0.912929 0.000000
O O17 0.251900 0.310098 0.847655
O O18 0.118761 0.349902 0.000000
O O19 0.357454 0.422468 0.500000
O O20 0.500000 0.434940 0.349650
O O21 0.363854 0.500000 0.293182
O O22 0.367074 0.385946 0.232519
O O23 0.220521 0.133126 0.500000
O O24 0.605066 0.325731 0.000000
#
# Coordination Sequence:
#
# PCOD8198157 Si02
#       8
#     8   8   8   8   8   8   8   8
#     4  10  20  34  53  77 106 141 179 220 269 324
#     4  10  21  38  60  83 109 146 191 237 285 338
#     4   9  19  36  55  72  91 122 168 218 268 325
#     4   9  19  36  58  87 125 166 201 232 272 324
#     4  11  23  35  48  71 103 135 170 214 265 324
#     4   9  19  36  56  76  97 125 166 216 273 340
#     4  10  20  35  57  86 117 148 189 239 282 323
#     4  11  23  36  51  75 107 139 175 223 278 337
#
# _framework density 19.327192
#
# number of rings (size 3 to 8) (size 9 to 14) (size 15 to 20)
#    0.000    2.125    1.250    3.000    0.000    8.500 
#    0.000    4.375    0.000    0.375    0.000    2.625 
#    0.000    0.000    0.000    0.000    0.000    0.000 
#
# Total GULP energy -793141.196917 kJ/mol
# GULP energy per Si atom -12392.831202 kJ/mol
# Density = 1.928320 g / cm^3
# Si number density = 19.327192 Si / 1000 Ang^3
#
#
#
# Elastic Constant Matrix: (Units=GPa)
#
#
# Indices 1 2 3 4 5 6 
#
# 1 102.5372 38.0258 33.7626 0.0000 0.0000 0.0000
# 2 38.0258 76.0075 48.2502 0.0000 0.0000 0.0000
# 3 33.7626 48.2502 100.6605 0.0000 0.0000 0.0000
# 4 0.0000 0.0000 0.0000 10.1566 0.0000 0.0000
# 5 0.0000 0.0000 0.0000 0.0000 18.9362 0.0000
# 6 0.0000 0.0000 0.0000 0.0000 0.0000 29.2982
#
#
#
# Elastic Compliance Matrix: (Units=1/GPa)
#
#
# Indices 1 2 3 4 5 6 
#
# 1 0.012167 -0.005026 -0.001672 0.000000 0.000000 0.000000
# 2 -0.005026 0.020987 -0.008374 0.000000 0.000000 0.000000
# 3 -0.001672 -0.008374 0.014509 0.000000 0.000000 0.000000
# 4 0.000000 0.000000 0.000000 0.098459 0.000000 0.000000
# 5 0.000000 0.000000 0.000000 0.000000 0.052809 0.000000
# 6 0.000000 0.000000 0.000000 0.000000 0.000000 0.034132
#
#
# Mechanical properties :
#
#
# Convention : Reuss Voigt Hill
#
# Bulk Modulus (GPa) = 57.07905 57.69804 57.38854
# Shear Modulus (GPa) = 18.58425 22.28932 20.43678
#
# Velocity S-wave (km/s) = 3.10427 3.39966 3.25531
# Velocity P-wave (km/s) = 6.51504 6.73263 6.62473
#
# Compressibility (1/GPa) = 0.01751956
#
# Stress axis : x y z
#
# Youngs Moduli (GPa) = 82.19087 47.64905 68.92197
#
# Poissons Ratio (x) = 0.23946 0.11523
# Poissons Ratio (y) = 0.41306 0.57716
# Poissons Ratio (z) = 0.13742 0.39902
#
# Static dielectric constant tensor:
#      x y z
#    x 3.641700 0.000000 0.000000 
#    y 0.000000 3.316260 0.000000 
#    z 0.000000 0.000000 3.653110 
# 
# 
# High freq. dielectric constant tensor:
#      x y z
#    x 1.754790 0.000000 0.000000 
#    y 0.000000 1.726410 0.000000 
#    z 0.000000 0.000000 1.747910 
# 
# From -- ./inp_files/7928.got.cif
#   From: 2010.03.12/outbox.cif.g09.slc.cpg/sg47_4_cif.got.tgz:7928.got - 2010.04.14 03:12:58.
