data_PCOD8198958
_publ_section_title
;
Structure prediction by ZEFSAII (Michael W. Deem and Ramdas Pophale) SiO2 
 PCOD8198958
Probable space group: P M M M
;
_chemical_formula_sum "Si O2"
_cell_formula_units_Z 48
_cell_length_a 29.082875
_cell_length_b 9.934811
_cell_length_c 9.669472
_cell_angle_alpha 90.000000
_cell_angle_beta 90.000000
_cell_angle_gamma 90.000000
_cell_volume 2793.828262
_symmetry_space_group_name_H-M "P M M M"
_symmetry_group_IT_number 47
_symmetry_cell_setting 'orthorhombic'
loop_
_space_group_symop_operation_xyz
x,y,z
-x,-y,z
x,-y,-z
-x,y,-z
-x,-y,-z
x,y,-z
-x,y,z
x,-y,z
loop_
_atom_site_type_symbol
_atom_site_label
_atom_site_fract_x
_atom_site_fract_y
_atom_site_fract_z
Si Si1 0.448691 0.500000 0.837580
Si Si2 0.870264 0.340903 0.652270
Si Si3 0.402778 0.774160 0.160094
Si Si4 0.233084 0.345455 0.663371
Si Si5 0.050752 0.659991 0.154502
Si Si6 0.445812 0.000000 0.343727
Si Si7 0.702138 0.156558 0.159065
O O1 0.500000 0.500000 0.769842
O O2 0.418941 0.372419 0.791540
O O3 0.454982 0.500000 0.000000
O O4 0.877227 0.278285 0.500000
O O5 0.876568 0.500000 0.643667
O O6 0.819120 0.308671 0.706867
O O7 0.909142 0.276222 0.750953
O O8 0.429499 0.871018 0.261293
O O9 0.348744 0.787930 0.182827
O O10 0.415542 0.805484 0.000000
O O11 0.239947 0.325762 0.500000
O O12 0.244427 0.500000 0.704450
O O13 0.265045 0.243183 0.744644
O O14 0.054885 0.500000 0.152747
O O15 0.000000 0.701653 0.210101
O O16 0.057634 0.716383 0.000000
O O17 0.500000 0.000000 0.349504
O O18 0.425587 0.000000 0.500000
O O19 0.704496 0.000000 0.202092
O O20 0.717043 0.175250 0.000000
#
# Coordination Sequence:
#
# PCOD8198958 Si02
#       7
#     4   8   8   8   8   4   8
#     4   9  18  32  55  85 107 129 167 207 244 291
#     4   8  14  25  39  57  85 119 158 202 240 285
#     4  10  20  37  58  79 105 136 169 208 250 294
#     4   9  19  34  51  73 100 132 170 208 252 307
#     4   8  13  20  31  51  82 119 157 196 239 289
#     4  11  23  37  55  81 109 137 171 205 242 295
#     4  10  21  36  53  76 102 129 168 213 253 297
#
# _framework density 17.180727999999998
#
# number of rings (size 3 to 8) (size 9 to 14) (size 15 to 20)
#    0.000    2.833    0.833    2.250    1.167    3.667 
#    0.000    3.750    0.000    1.500    0.000    0.000 
#    0.000    0.667    0.000    7.333    0.000   12.000 
#
# Total GULP energy -594945.806683 kJ/mol
# GULP energy per Si atom -12394.704306 kJ/mol
# Density = 1.714162 g / cm^3
# Si number density = 17.180728 Si / 1000 Ang^3
#
#
#
# Elastic Constant Matrix: (Units=GPa)
#
#
# Indices 1 2 3 4 5 6 
#
# 1 132.7851 66.1691 70.3082 0.0000 0.0000 0.0000
# 2 66.1691 103.6901 52.6757 0.0000 0.0000 0.0000
# 3 70.3082 52.6757 84.5812 0.0000 0.0000 0.0000
# 4 0.0000 0.0000 0.0000 17.3816 0.0000 0.0000
# 5 0.0000 0.0000 0.0000 0.0000 33.0563 0.0000
# 6 0.0000 0.0000 0.0000 0.0000 0.0000 10.2388
#
#
#
# Elastic Compliance Matrix: (Units=1/GPa)
#
#
# Indices 1 2 3 4 5 6 
#
# 1 0.014865 -0.004694 -0.009433 0.000000 0.000000 0.000000
# 2 -0.004694 0.015589 -0.005807 0.000000 0.000000 0.000000
# 3 -0.009433 -0.005807 0.023281 0.000000 0.000000 0.000000
# 4 0.000000 0.000000 0.000000 0.057532 0.000000 0.000000
# 5 0.000000 0.000000 0.000000 0.000000 0.030251 0.000000
# 6 0.000000 0.000000 0.000000 0.000000 0.000000 0.097668
#
#
# Mechanical properties :
#
#
# Convention : Reuss Voigt Hill
#
# Bulk Modulus (GPa) = 72.11378 77.70694 74.91036
# Shear Modulus (GPa) = 17.62570 20.92890 19.27730
#
# Velocity S-wave (km/s) = 3.20644 3.49400 3.35331
# Velocity P-wave (km/s) = 7.46814 7.84887 7.66087
#
# Compressibility (1/GPa) = 0.01386697
#
# Stress axis : x y z
#
# Youngs Moduli (GPa) = 67.27390 64.14584 42.95362
#
# Poissons Ratio (x) = 0.30108 0.40519
# Poissons Ratio (y) = 0.31576 0.24944
# Poissons Ratio (z) = 0.63460 0.37251
#
# Static dielectric constant tensor:
#      x y z
#    x 3.441970 0.000000 0.000000 
#    y 0.000000 3.081420 0.000000 
#    z 0.000000 0.000000 3.356020 
# 
# 
# High freq. dielectric constant tensor:
#      x y z
#    x 1.675040 0.000000 0.000000 
#    y 0.000000 1.627390 0.000000 
#    z 0.000000 0.000000 1.655250 
# 
# From -- ./inp_files/13875.got.cif
#   From: 2010.03.12/outbox.cif.g09.slc.cpg/sg47_7_cif.got.tgz:13875.got - 2010.04.14 03:12:58.
