data_PCOD8198058
_publ_section_title
;
Structure prediction by ZEFSAII (Michael W. Deem and Ramdas Pophale) SiO2 
 PCOD8198058
Probable space group: P M M M
;
_chemical_formula_sum "Si O2"
_cell_formula_units_Z 64
_cell_length_a 14.491525
_cell_length_b 9.686085
_cell_length_c 25.613882
_cell_angle_alpha 90.000000
_cell_angle_beta 90.000000
_cell_angle_gamma 90.000000
_cell_volume 3595.321822
_symmetry_space_group_name_H-M "P M M M"
_symmetry_group_IT_number 47
_symmetry_cell_setting 'orthorhombic'
loop_
_space_group_symop_operation_xyz
x,y,z
-x,-y,z
x,-y,-z
-x,y,-z
-x,-y,-z
x,y,-z
-x,y,z
x,-y,z
loop_
_atom_site_type_symbol
_atom_site_label
_atom_site_fract_x
_atom_site_fract_y
_atom_site_fract_z
Si Si1 0.601833 0.840056 0.290428
Si Si2 0.108279 0.161161 0.355295
Si Si3 0.791294 0.659359 0.559468
Si Si4 0.602107 0.342754 0.608842
Si Si5 0.766548 0.161052 0.940312
Si Si6 0.398568 0.653945 0.061982
Si Si7 0.206950 0.162203 0.749391
Si Si8 0.897283 0.836022 0.849462
O O1 0.500000 0.807983 0.266294
O O2 0.618946 0.755149 0.342402
O O3 0.683554 0.801039 0.250047
O O4 0.609951 0.000000 0.306145
O O5 0.146079 0.244944 0.404468
O O6 0.158138 0.218345 0.303075
O O7 0.000000 0.187828 0.349097
O O8 0.130020 0.000000 0.364356
O O9 0.816057 0.695371 0.500000
O O10 0.813986 0.500000 0.572174
O O11 0.681859 0.688448 0.566947
O O12 0.500000 0.315466 0.584243
O O13 0.608919 0.500000 0.628887
O O14 0.676732 0.238146 0.917607
O O15 0.852190 0.206724 0.904580
O O16 0.744970 0.000000 0.935345
O O17 0.789839 0.202400 0.000000
O O18 0.500000 0.695614 0.083508
O O19 0.372659 0.500000 0.081246
O O20 0.400767 0.657796 0.000000
O O21 0.160592 0.227821 0.801030
O O22 0.190619 0.000000 0.751289
O O23 0.000000 0.773468 0.847937
O O24 0.900673 0.000000 0.844990
#
# Coordination Sequence:
#
# PCOD8198058 Si02
#       8
#     8   8   8   8   8   8   8   8
#     4   9  16  27  47  73  97 120 149 190 239 286
#     4  10  20  34  53  74  93 119 160 207 249 287
#     4  10  21  35  50  71 100 131 161 195 237 286
#     4   9  17  30  49  72  97 126 159 191 226 275
#     4   9  17  28  44  70 101 129 160 202 248 288
#     4   8  14  26  45  67  91 124 164 198 232 283
#     4   9  16  29  49  72  96 122 156 198 241 287
#     4   9  17  29  46  69  97 129 164 202 244 289
#
# _framework density 17.800909999999998
#
# number of rings (size 3 to 8) (size 9 to 14) (size 15 to 20)
#    0.000    2.875    1.250    0.750    0.000    3.000 
#    0.000    5.625    0.000    4.125    0.000    6.125 
#    0.000    0.000    0.000    0.000    0.000    0.000 
#
# Total GULP energy -793220.856432 kJ/mol
# GULP energy per Si atom -12394.075882 kJ/mol
# Density = 1.776039 g / cm^3
# Si number density = 17.800910 Si / 1000 Ang^3
#
#
#
# Elastic Constant Matrix: (Units=GPa)
#
#
# Indices 1 2 3 4 5 6 
#
# 1 147.9399 40.6532 71.2501 0.0000 0.0000 0.0000
# 2 40.6532 38.9571 32.2597 0.0000 0.0000 0.0000
# 3 71.2501 32.2597 101.4985 0.0000 0.0000 0.0000
# 4 0.0000 0.0000 0.0000 7.1758 0.0000 0.0000
# 5 0.0000 0.0000 0.0000 0.0000 28.1106 0.0000
# 6 0.0000 0.0000 0.0000 0.0000 0.0000 19.5721
#
#
#
# Elastic Compliance Matrix: (Units=1/GPa)
#
#
# Indices 1 2 3 4 5 6 
#
# 1 0.011544 -0.007242 -0.005802 0.000000 0.000000 0.000000
# 2 -0.007242 0.039382 -0.007433 0.000000 0.000000 0.000000
# 3 -0.005802 -0.007433 0.016288 0.000000 0.000000 0.000000
# 4 0.000000 0.000000 0.000000 0.139356 0.000000 0.000000
# 5 0.000000 0.000000 0.000000 0.000000 0.035574 0.000000
# 6 0.000000 0.000000 0.000000 0.000000 0.000000 0.051093
#
#
# Mechanical properties :
#
#
# Convention : Reuss Voigt Hill
#
# Bulk Modulus (GPa) = 38.08163 64.08015 51.08089
# Shear Modulus (GPa) = 14.57967 20.58722 17.58345
#
# Velocity S-wave (km/s) = 2.86499 3.40446 3.14631
# Velocity P-wave (km/s) = 5.69067 7.17846 6.47742
#
# Compressibility (1/GPa) = 0.02625938
#
# Stress axis : x y z
#
# Youngs Moduli (GPa) = 86.62664 25.39244 61.39643
#
# Poissons Ratio (x) = 0.18389 0.35621
# Poissons Ratio (y) = 0.62735 0.45637
# Poissons Ratio (z) = 0.50259 0.18874
#
# Static dielectric constant tensor:
#      x y z
#    x 3.680150 0.000000 0.000000 
#    y 0.000000 3.098930 0.000000 
#    z 0.000000 0.000000 3.166860 
# 
# 
# High freq. dielectric constant tensor:
#      x y z
#    x 1.705160 0.000000 0.000000 
#    y 0.000000 1.657250 0.000000 
#    z 0.000000 0.000000 1.665670 
# 
# From -- ./inp_files/7935.got.cif
#   From: 2010.03.12/outbox.cif.g09.slc.cpg/sg47_4_cif.got.tgz:7935.got - 2010.04.14 03:12:58.
