data_PCOD8198257
_publ_section_title
;
Structure prediction by ZEFSAII (Michael W. Deem and Ramdas Pophale) SiO2 
 PCOD8198257
Probable space group: P M M M
;
_chemical_formula_sum "Si O2"
_cell_formula_units_Z 40
_cell_length_a 13.151961
_cell_length_b 18.137978
_cell_length_c 9.048451
_cell_angle_alpha 90.000000
_cell_angle_beta 90.000000
_cell_angle_gamma 90.000000
_cell_volume 2158.507799
_symmetry_space_group_name_H-M "P M M M"
_symmetry_group_IT_number 47
_symmetry_cell_setting 'orthorhombic'
loop_
_space_group_symop_operation_xyz
x,y,z
-x,-y,z
x,-y,-z
-x,y,-z
-x,-y,-z
x,y,-z
-x,y,z
x,-y,z
loop_
_atom_site_type_symbol
_atom_site_label
_atom_site_fract_x
_atom_site_fract_y
_atom_site_fract_z
Si Si1 0.325373 0.334267 0.666578
Si Si2 0.500000 0.086860 0.170252
Si Si3 0.108284 0.317281 0.332744
Si Si4 0.688598 0.159964 0.328876
Si Si5 0.111829 0.167425 0.828082
Si Si6 0.500000 0.582639 0.173897
O O1 0.362639 0.350072 0.500000
O O2 0.210088 0.365965 0.693370
O O3 0.324349 0.247130 0.698310
O O4 0.399547 0.374915 0.777089
O O5 0.599700 0.118681 0.245554
O O6 0.500000 0.000000 0.190301
O O7 0.500000 0.110717 0.000000
O O8 0.118117 0.283616 0.500000
O O9 0.105788 0.253001 0.213503
O O10 0.000000 0.361690 0.319729
O O11 0.682878 0.139382 0.500000
O O12 0.796882 0.130537 0.265264
O O13 0.000000 0.131449 0.794893
O O14 0.138645 0.160039 0.000000
O O15 0.500000 0.500000 0.240028
O O16 0.500000 0.580117 0.000000
#
# Coordination Sequence:
#
# PCOD8198257 Si02
#       6
#     8   4   8   8   8   4
#     4   9  18  32  52  77 100 126 162 201 243 292
#     4  11  24  39  54  74 102 135 170 209 254 302
#     4   8  14  26  45  71 102 129 155 195 245 294
#     4  10  20  34  54  79 105 133 168 208 249 298
#     4   9  16  26  44  73 106 136 166 201 244 293
#     4  11  24  37  48  66  94 129 168 209 252 296
#
# _framework density 18.531320000000001
#
# number of rings (size 3 to 8) (size 9 to 14) (size 15 to 20)
#    0.000    2.600    0.000    3.600    0.000    9.200 
#    0.000    0.000    0.000    1.200    0.000    8.400 
#    0.000    0.000    0.000    0.000    0.000    0.000 
#
# Total GULP energy -495569.735943 kJ/mol
# GULP energy per Si atom -12389.243399 kJ/mol
# Density = 1.848914 g / cm^3
# Si number density = 18.531320 Si / 1000 Ang^3
#
#
#
# Elastic Constant Matrix: (Units=GPa)
#
#
# Indices 1 2 3 4 5 6 
#
# 1 202.2902 43.3597 78.7529 0.0000 0.0000 0.0000
# 2 43.3597 36.3244 36.2533 0.0000 0.0000 0.0000
# 3 78.7529 36.2533 107.5769 0.0000 0.0000 0.0000
# 4 0.0000 0.0000 0.0000 16.3865 0.0000 0.0000
# 5 0.0000 0.0000 0.0000 0.0000 32.7575 0.0000
# 6 0.0000 0.0000 0.0000 0.0000 0.0000 -7.7081
#
#
#
# Elastic Compliance Matrix: (Units=1/GPa)
#
#
# Indices 1 2 3 4 5 6 
#
# 1 0.007524 -0.005250 -0.003739 0.000000 0.000000 0.000000
# 2 -0.005250 0.045145 -0.011370 0.000000 0.000000 0.000000
# 3 -0.003739 -0.011370 0.015865 0.000000 0.000000 0.000000
# 4 0.000000 0.000000 0.000000 0.061026 0.000000 0.000000
# 5 0.000000 0.000000 0.000000 0.000000 0.030527 0.000000
# 6 0.000000 0.000000 0.000000 0.000000 0.000000 -0.129734
#
#
# Mechanical properties :
#
#
# Convention : Reuss Voigt Hill
#
# Bulk Modulus (GPa) = 35.95201 73.65812 54.80507
# Shear Modulus (GPa) = 62.23351 20.80890 41.52121
#
# Velocity S-wave (km/s) = 5.80136 3.35461 4.73863
# Velocity P-wave (km/s) = 8.01980 7.40532 7.71868
#
# Compressibility (1/GPa) = 0.02781485
#
# Stress axis : x y z
#
# Youngs Moduli (GPa) = 132.90250 22.15109 63.03295
#
# Poissons Ratio (x) = 0.11629 0.23568
# Poissons Ratio (y) = 0.69772 0.71671
# Poissons Ratio (z) = 0.49693 0.25187
#
# Static dielectric constant tensor:
#      x y z
#    x 4.077590 0.000000 0.000000 
#    y 0.000000 2.870960 0.000000 
#    z 0.000000 0.000000 3.461560 
# 
# 
# High freq. dielectric constant tensor:
#      x y z
#    x 1.755840 0.000000 0.000000 
#    y 0.000000 1.646140 0.000000 
#    z 0.000000 0.000000 1.727070 
# 
# From -- ./inp_files/5794.got.cif
#   From: 2010.03.12/outbox.cif.g09.slc.cpg/sg47_3_cif.got.tgz:5794.got - 2010.04.14 03:12:58.
