data_PCOD8198743
_publ_section_title
;
Structure prediction by ZEFSAII (Michael W. Deem and Ramdas Pophale) SiO2 
 PCOD8198743
Probable space group: P M M M
;
_chemical_formula_sum "Si O2"
_cell_formula_units_Z 48
_cell_length_a 30.877518
_cell_length_b 9.332937
_cell_length_c 9.038524
_cell_angle_alpha 90.000000
_cell_angle_beta 90.000000
_cell_angle_gamma 90.000000
_cell_volume 2604.703138
_symmetry_space_group_name_H-M "P M M M"
_symmetry_group_IT_number 47
_symmetry_cell_setting 'orthorhombic'
loop_
_space_group_symop_operation_xyz
x,y,z
-x,-y,z
x,-y,-z
-x,y,-z
-x,-y,-z
x,y,-z
-x,y,z
x,-y,z
loop_
_atom_site_type_symbol
_atom_site_label
_atom_site_fract_x
_atom_site_fract_y
_atom_site_fract_z
Si Si1 0.835748 0.832394 0.164965
Si Si2 0.336726 0.331775 0.672364
Si Si3 0.586344 0.833561 0.826116
Si Si4 0.737058 0.834335 0.827803
Si Si5 0.000000 0.670358 0.337778
Si Si6 0.500000 0.170093 0.666590
Si Si7 0.092646 0.340008 0.324206
O O1 0.786623 0.797981 0.211957
O O2 0.868606 0.761236 0.277408
O O3 0.843826 0.000000 0.169672
O O4 0.844325 0.773517 0.000000
O O5 0.343549 0.298424 0.500000
O O6 0.336876 0.500000 0.704917
O O7 0.374377 0.258392 0.765330
O O8 0.291233 0.267404 0.724617
O O9 0.542560 0.774643 0.750936
O O10 0.594507 0.000000 0.787532
O O11 0.581999 0.810207 0.000000
O O12 0.726475 0.000000 0.792908
O O13 0.727474 0.803049 0.000000
O O14 0.045631 0.714064 0.258390
O O15 0.000000 0.500000 0.353945
O O16 0.000000 0.741791 0.500000
O O17 0.500000 0.231645 0.500000
O O18 0.500000 0.000000 0.666266
O O19 0.089171 0.339181 0.500000
O O20 0.102688 0.500000 0.266392
#
# Coordination Sequence:
#
# PCOD8198743 Si02
#       7
#     8   8   8   8   4   4   8
#     4   9  19  35  52  72 101 133 164 202 250 303
#     4  11  24  38  52  76 109 139 169 210 258 305
#     4  10  20  35  57  83 109 139 177 217 255 300
#     4   9  19  37  58  76  96 129 172 211 249 300
#     4   7  12  26  46  67  94 128 164 203 246 291
#     4   9  17  31  54  83 112 141 174 214 258 301
#     4   9  17  30  50  74  98 127 166 209 250 295
#
# _framework density 18.428204000000001
#
# number of rings (size 3 to 8) (size 9 to 14) (size 15 to 20)
#    0.000    2.667    0.000    3.750    0.000    7.667 
#    0.000    6.250    0.000    6.500    0.000    0.000 
#    0.000    0.000    0.000    0.000    0.000    0.000 
#
# Total GULP energy -594992.978925 kJ/mol
# GULP energy per Si atom -12395.687061 kJ/mol
# Density = 1.838626 g / cm^3
# Si number density = 18.428204 Si / 1000 Ang^3
#
#
#
# Elastic Constant Matrix: (Units=GPa)
#
#
# Indices 1 2 3 4 5 6 
#
# 1 142.4099 55.9297 50.8841 0.0000 0.0000 0.0000
# 2 55.9297 58.2408 37.1587 0.0000 0.0000 0.0000
# 3 50.8841 37.1587 71.6351 0.0000 0.0000 0.0000
# 4 0.0000 0.0000 0.0000 23.7533 0.0000 0.0000
# 5 0.0000 0.0000 0.0000 0.0000 24.4493 0.0000
# 6 0.0000 0.0000 0.0000 0.0000 0.0000 44.1510
#
#
#
# Elastic Compliance Matrix: (Units=1/GPa)
#
#
# Indices 1 2 3 4 5 6 
#
# 1 0.011922 -0.009037 -0.003781 0.000000 0.000000 0.000000
# 2 -0.009037 0.032513 -0.010446 0.000000 0.000000 0.000000
# 3 -0.003781 -0.010446 0.022064 0.000000 0.000000 0.000000
# 4 0.000000 0.000000 0.000000 0.042099 0.000000 0.000000
# 5 0.000000 0.000000 0.000000 0.000000 0.040901 0.000000
# 6 0.000000 0.000000 0.000000 0.000000 0.000000 0.022650
#
#
# Mechanical properties :
#
#
# Convention : Reuss Voigt Hill
#
# Bulk Modulus (GPa) = 50.07178 62.24788 56.15983
# Shear Modulus (GPa) = 22.18930 27.02494 24.60712
#
# Velocity S-wave (km/s) = 3.47377 3.83364 3.65814
# Velocity P-wave (km/s) = 6.58177 7.31079 6.95584
#
# Compressibility (1/GPa) = 0.01997133
#
# Stress axis : x y z
#
# Youngs Moduli (GPa) = 83.87897 30.75689 45.32244
#
# Poissons Ratio (x) = 0.27794 0.17136
# Poissons Ratio (y) = 0.75797 0.47346
# Poissons Ratio (z) = 0.31715 0.32130
#
# Static dielectric constant tensor:
#      x y z
#    x 3.662590 0.000000 0.000000 
#    y 0.000000 3.144850 0.000000 
#    z 0.000000 0.000000 3.300590 
# 
# 
# High freq. dielectric constant tensor:
#      x y z
#    x 1.735730 0.000000 0.000000 
#    y 0.000000 1.688890 0.000000 
#    z 0.000000 0.000000 1.704190 
# 
# From -- ./inp_files/13837.got.cif
#   From: 2010.03.12/outbox.cif.g09.slc.cpg/sg47_7_cif.got.tgz:13837.got - 2010.04.14 03:12:58.
