data_PCOD8198864
_publ_section_title
;
Structure prediction by ZEFSAII (Michael W. Deem and Ramdas Pophale) SiO2 
 PCOD8198864
Probable space group: P M M M
;
_chemical_formula_sum "Si O2"
_cell_formula_units_Z 48
_cell_length_a 15.204464
_cell_length_b 19.119854
_cell_length_c 7.845160
_cell_angle_alpha 90.000000
_cell_angle_beta 90.000000
_cell_angle_gamma 90.000000
_cell_volume 2280.643962
_symmetry_space_group_name_H-M "P M M M"
_symmetry_group_IT_number 47
_symmetry_cell_setting 'orthorhombic'
loop_
_space_group_symop_operation_xyz
x,y,z
-x,-y,z
x,-y,-z
-x,y,-z
-x,-y,-z
x,y,-z
-x,y,z
x,-y,z
loop_
_atom_site_type_symbol
_atom_site_label
_atom_site_fract_x
_atom_site_fract_y
_atom_site_fract_z
Si Si1 0.104077 0.830205 0.189022
Si Si2 0.401199 0.681608 0.301959
Si Si3 0.605052 0.078922 0.500000
Si Si4 0.253011 0.578710 0.202131
Si Si5 0.894978 0.920976 0.500000
Si Si6 0.097254 0.673570 0.201872
Si Si7 0.604166 0.169982 0.188252
O O1 0.142423 0.883501 0.329720
O O2 0.128222 0.751891 0.249633
O O3 0.000000 0.837324 0.176759
O O4 0.144069 0.846360 0.000000
O O5 0.402903 0.698687 0.500000
O O6 0.500000 0.665187 0.236043
O O7 0.342483 0.614552 0.262422
O O8 0.361047 0.750628 0.211189
O O9 0.500000 0.078765 0.500000
O O10 0.642587 0.117832 0.331498
O O11 0.641698 0.000000 0.500000
O O12 0.251604 0.500000 0.274347
O O13 0.168199 0.619402 0.278072
O O14 0.249218 0.579061 0.000000
O O15 0.000000 0.917593 0.500000
O O16 0.860138 0.000000 0.500000
O O17 0.000000 0.657633 0.278806
O O18 0.091837 0.666882 0.000000
O O19 0.500000 0.172374 0.209249
O O20 0.631958 0.143131 0.000000
#
# Coordination Sequence:
#
# PCOD8198864 Si02
#       7
#     8   8   4   8   4   8   8
#     4   8  14  26  44  66  96 136 178 216 257 311
#     4  10  20  36  56  75 103 145 189 232 278 331
#     4   9  16  26  42  71 111 146 179 223 274 328
#     4  10  21  35  53  82 113 137 174 228 279 334
#     4   9  16  24  38  67 103 134 171 219 266 314
#     4   8  15  31  54  77 105 143 182 220 267 324
#     4   9  16  28  48  73 102 140 186 229 271 325
#
# _framework density 21.046689000000001
#
# number of rings (size 3 to 8) (size 9 to 14) (size 15 to 20)
#    0.000    3.000    0.833    1.500    0.000    2.667 
#    1.500    6.667    0.000    0.000    0.000    3.500 
#    0.000    4.000    0.000    0.333    0.000    0.000 
#
# Total GULP energy -594973.813160 kJ/mol
# GULP energy per Si atom -12395.287774 kJ/mol
# Density = 2.099879 g / cm^3
# Si number density = 21.046689 Si / 1000 Ang^3
#
#
#
# Elastic Constant Matrix: (Units=GPa)
#
#
# Indices 1 2 3 4 5 6 
#
# 1 72.2912 55.2173 17.6250 0.0000 0.0000 0.0000
# 2 55.2173 186.2749 75.6581 0.0000 0.0000 0.0000
# 3 17.6250 75.6581 110.8999 0.0000 0.0000 0.0000
# 4 0.0000 0.0000 0.0000 26.6148 0.0000 0.0000
# 5 0.0000 0.0000 0.0000 0.0000 4.5881 0.0000
# 6 0.0000 0.0000 0.0000 0.0000 0.0000 -1.7314
#
#
#
# Elastic Compliance Matrix: (Units=1/GPa)
#
#
# Indices 1 2 3 4 5 6 
#
# 1 0.017974 -0.005765 0.001077 0.000000 0.000000 0.000000
# 2 -0.005765 0.009275 -0.005412 0.000000 0.000000 0.000000
# 3 0.001077 -0.005412 0.012538 0.000000 0.000000 0.000000
# 4 0.000000 0.000000 0.000000 0.037573 0.000000 0.000000
# 5 0.000000 0.000000 0.000000 0.000000 0.217954 0.000000
# 6 0.000000 0.000000 0.000000 0.000000 0.000000 -0.577567
#
#
# Mechanical properties :
#
#
# Convention : Reuss Voigt Hill
#
# Bulk Modulus (GPa) = 51.05455 74.05187 62.55321
# Shear Modulus (GPa) = -19.56773 20.62534 0.52880
#
# Velocity S-wave (km/s) = -3.05245 3.13386 0.50179
# Velocity P-wave (km/s) = 3.44777 6.95383 5.48830
#
# Compressibility (1/GPa) = 0.01958689
#
# Stress axis : x y z
#
# Youngs Moduli (GPa) = 55.63549 107.81164 79.75796
#
# Poissons Ratio (x) = 0.62157 -0.08587
# Poissons Ratio (y) = 0.32076 0.43162
# Poissons Ratio (z) = -0.05990 0.58343
#
# Static dielectric constant tensor:
#      x y z
#    x 3.590410 0.000000 0.000000 
#    y 0.000000 3.927460 0.000000 
#    z 0.000000 0.000000 3.910220 
# 
# 
# High freq. dielectric constant tensor:
#      x y z
#    x 1.795750 0.000000 0.000000 
#    y 0.000000 1.815260 0.000000 
#    z 0.000000 0.000000 1.817700 
# 
# From -- ./inp_files/6406.got.cif
#   From: 2010.03.12/outbox.cif.g09.slc.cpg/sg47_4_cif.got.tgz:6406.got - 2010.04.14 03:12:58.
