data_PCOD8198718
_publ_section_title
;
Structure prediction by ZEFSAII (Michael W. Deem and Ramdas Pophale) SiO2 
 PCOD8198718
Probable space group: P M M M
;
_chemical_formula_sum "Si O2"
_cell_formula_units_Z 48
_cell_length_a 34.221559
_cell_length_b 7.668476
_cell_length_c 9.090693
_cell_angle_alpha 90.000000
_cell_angle_beta 90.000000
_cell_angle_gamma 90.000000
_cell_volume 2385.645145
_symmetry_space_group_name_H-M "P M M M"
_symmetry_group_IT_number 47
_symmetry_cell_setting 'orthorhombic'
loop_
_space_group_symop_operation_xyz
x,y,z
-x,-y,z
x,-y,-z
-x,y,-z
-x,-y,-z
x,y,-z
-x,y,z
x,-y,z
loop_
_atom_site_type_symbol
_atom_site_label
_atom_site_fract_x
_atom_site_fract_y
_atom_site_fract_z
Si Si1 0.349155 0.292634 0.835446
Si Si2 0.869571 0.000000 0.174479
Si Si3 0.000000 0.805716 0.326003
Si Si4 0.271731 0.301036 0.670352
Si Si5 0.422825 0.702278 0.662345
Si Si6 0.788158 0.000000 0.329440
Si Si7 0.500000 0.205352 0.165851
Si Si8 0.915977 0.303192 0.671291
O O1 0.351709 0.500000 0.837965
O O2 0.309131 0.232931 0.759384
O O3 0.386171 0.212303 0.748038
O O4 0.350083 0.216246 0.000000
O O5 0.825001 0.000000 0.223996
O O6 0.889816 0.173716 0.234681
O O7 0.872131 0.000000 0.000000
O O8 0.960940 0.707057 0.273561
O O9 0.000000 0.813917 0.500000
O O10 0.000000 0.000000 0.258716
O O11 0.283106 0.288792 0.500000
O O12 0.260219 0.500000 0.713153
O O13 0.235898 0.174680 0.707942
O O14 0.426786 0.788171 0.500000
O O15 0.414210 0.500000 0.643636
O O16 0.462130 0.726030 0.752411
O O17 0.801191 0.000000 0.500000
O O18 0.500000 0.000000 0.166009
O O19 0.500000 0.279462 0.000000
O O20 0.912729 0.250023 0.500000
O O21 0.900911 0.500000 0.696375
#
# Coordination Sequence:
#
# PCOD8198718 Si02
#       8
#     8   4   4   8   8   4   4   8
#     4   9  17  31  54  83 112 141 174 215 266 325
#     4  12  26  41  57  82 123 164 201 249 304 362
#     4   9  15  29  59  93 123 152 195 258 311 352
#     4   9  18  35  59  85 112 141 178 231 290 346
#     4  10  20  35  57  82 106 138 182 225 266 319
#     4  10  22  40  61  85 112 147 198 246 292 350
#     4  11  24  39  52  72 106 143 180 223 272 324
#     4  10  20  37  63  91 119 157 207 257 304 356
#
# _framework density 20.120342000000001
#
# number of rings (size 3 to 8) (size 9 to 14) (size 15 to 20)
#    0.000    2.167    0.833    2.500    0.000    7.333 
#    1.500    2.500    0.000    1.000    0.000    0.000 
#    0.000    0.000    0.000    0.000    0.000    0.000 
#
# Total GULP energy -595184.279627 kJ/mol
# GULP energy per Si atom -12399.672492 kJ/mol
# Density = 2.007455 g / cm^3
# Si number density = 20.120342 Si / 1000 Ang^3
#
#
#
# Elastic Constant Matrix: (Units=GPa)
#
#
# Indices 1 2 3 4 5 6 
#
# 1 160.3249 50.9015 88.1524 0.0000 0.0000 0.0000
# 2 50.9015 86.9778 43.7690 0.0000 0.0000 0.0000
# 3 88.1524 43.7690 145.8167 0.0000 0.0000 0.0000
# 4 0.0000 0.0000 0.0000 13.7416 0.0000 0.0000
# 5 0.0000 0.0000 0.0000 0.0000 -0.6837 0.0000
# 6 0.0000 0.0000 0.0000 0.0000 0.0000 -53.9843
#
#
#
# Elastic Compliance Matrix: (Units=1/GPa)
#
#
# Indices 1 2 3 4 5 6 
#
# 1 0.010107 -0.003345 -0.005106 0.000000 0.000000 0.000000
# 2 -0.003345 0.014650 -0.002375 0.000000 0.000000 0.000000
# 3 -0.005106 -0.002375 0.010658 0.000000 0.000000 0.000000
# 4 0.000000 0.000000 0.000000 0.072772 0.000000 0.000000
# 5 0.000000 0.000000 0.000000 0.000000 -1.462667 0.000000
# 6 0.000000 0.000000 0.000000 0.000000 0.000000 -0.018524
#
#
# Mechanical properties :
#
#
# Convention : Reuss Voigt Hill
#
# Bulk Modulus (GPa) = 72.66392 84.30725 78.48558
# Shear Modulus (GPa) = -3.71260 5.83449 1.06094
#
# Velocity S-wave (km/s) = -1.35985 1.70473 0.72694
# Velocity P-wave (km/s) = 5.80753 6.77254 6.30851
#
# Compressibility (1/GPa) = 0.01376199
#
# Stress axis : x y z
#
# Youngs Moduli (GPa) = 98.94281 68.25864 93.83045
#
# Poissons Ratio (x) = 0.22835 0.47908
# Poissons Ratio (y) = 0.33100 0.22285
# Poissons Ratio (z) = 0.50519 0.16212
#
# Static dielectric constant tensor:
#      x y z
#    x 3.672070 0.000000 0.000000 
#    y 0.000000 3.627310 0.000000 
#    z 0.000000 0.000000 3.722330 
# 
# 
# High freq. dielectric constant tensor:
#      x y z
#    x 1.787100 0.000000 0.000000 
#    y 0.000000 1.780470 0.000000 
#    z 0.000000 0.000000 1.774340 
# 
# From -- ./inp_files/14036.got.cif
#   From: 2010.03.12/outbox.cif.g09.slc.cpg/sg47_8_cif.got.tgz:14036.got - 2010.04.14 03:12:58.
