data_PCOD8198267
_publ_section_title
;
Structure prediction by ZEFSAII (Michael W. Deem and Ramdas Pophale) SiO2 
 PCOD8198267
Probable space group: P M M M
;
_chemical_formula_sum "Si O2"
_cell_formula_units_Z 48
_cell_length_a 8.985235
_cell_length_b 32.565721
_cell_length_c 7.777958
_cell_angle_alpha 90.000000
_cell_angle_beta 90.000000
_cell_angle_gamma 90.000000
_cell_volume 2275.913394
_symmetry_space_group_name_H-M "P M M M"
_symmetry_group_IT_number 47
_symmetry_cell_setting 'orthorhombic'
loop_
_space_group_symop_operation_xyz
x,y,z
-x,-y,z
x,-y,-z
-x,y,-z
-x,-y,-z
x,y,-z
-x,y,z
x,-y,z
loop_
_atom_site_type_symbol
_atom_site_label
_atom_site_fract_x
_atom_site_fract_y
_atom_site_fract_z
Si Si1 0.828833 0.951501 0.500000
Si Si2 0.167694 0.500000 0.204893
Si Si3 0.667964 0.580710 0.796186
Si Si4 0.164080 0.662305 0.699994
Si Si5 0.831025 0.180787 0.201157
Si Si6 0.336571 0.739262 0.302491
Si Si7 0.323991 0.903551 0.801171
O O1 0.749625 0.936348 0.325792
O O2 0.000000 0.936816 0.500000
O O3 0.816242 0.000000 0.500000
O O4 0.250132 0.540346 0.276481
O O5 0.000000 0.500000 0.275963
O O6 0.169778 0.500000 0.000000
O O7 0.500000 0.580492 0.726248
O O8 0.748741 0.620535 0.726679
O O9 0.671491 0.580890 0.000000
O O10 0.145557 0.671016 0.500000
O O11 0.251902 0.700715 0.786059
O O12 0.000000 0.659193 0.785343
O O13 0.759470 0.219736 0.291324
O O14 0.736970 0.140899 0.252717
O O15 0.000000 0.175027 0.266309
O O16 0.825575 0.188565 0.000000
O O17 0.360235 0.728431 0.500000
O O18 0.500000 0.744954 0.215522
O O19 0.500000 0.903962 0.774615
O O20 0.282041 0.913919 0.000000
#
# Coordination Sequence:
#
# PCOD8198267 Si02
#       7
#     4   4   8   8   8   8   8
#     4  11  25  43  65  95 129 169 215 261 313 376
#     4   9  17  31  52  77 104 133 168 214 266 319
#     4  10  20  34  54  79 105 135 172 215 266 325
#     4  10  21  37  55  76 105 141 181 225 274 329
#     4  10  21  37  58  85 117 153 193 238 290 347
#     4  10  21  36  55  79 108 145 187 230 279 335
#     4  10  22  41  65  93 127 166 209 261 317 371
#
# _framework density 21.090434999999999
#
# number of rings (size 3 to 8) (size 9 to 14) (size 15 to 20)
#    0.000    2.000    0.000    3.000    1.167    7.667 
#    0.000    2.083    0.000    2.500    0.000    0.000 
#    0.000    0.000    0.000    0.000    0.000    0.000 
#
# Total GULP energy -595221.726923 kJ/mol
# GULP energy per Si atom -12400.452644 kJ/mol
# Density = 2.104243 g / cm^3
# Si number density = 21.090435 Si / 1000 Ang^3
#
#
#
# Elastic Constant Matrix: (Units=GPa)
#
#
# Indices 1 2 3 4 5 6 
#
# 1 188.4152 77.3594 38.4872 0.0000 0.0000 0.0000
# 2 77.3594 147.2840 35.1039 0.0000 0.0000 0.0000
# 3 38.4872 35.1039 46.1779 0.0000 0.0000 0.0000
# 4 0.0000 0.0000 0.0000 32.0919 0.0000 0.0000
# 5 0.0000 0.0000 0.0000 0.0000 25.1739 0.0000
# 6 0.0000 0.0000 0.0000 0.0000 0.0000 38.1130
#
#
#
# Elastic Compliance Matrix: (Units=1/GPa)
#
#
# Indices 1 2 3 4 5 6 
#
# 1 0.007291 -0.002908 -0.003866 0.000000 0.000000 0.000000
# 2 -0.002908 0.009452 -0.004761 0.000000 0.000000 0.000000
# 3 -0.003866 -0.004761 0.028497 0.000000 0.000000 0.000000
# 4 0.000000 0.000000 0.000000 0.031161 0.000000 0.000000
# 5 0.000000 0.000000 0.000000 0.000000 0.039724 0.000000
# 6 0.000000 0.000000 0.000000 0.000000 0.000000 0.026238
#
#
# Mechanical properties :
#
#
# Convention : Reuss Voigt Hill
#
# Bulk Modulus (GPa) = 45.10823 75.97536 60.54179
# Shear Modulus (GPa) = 28.93124 34.47084 31.70104
#
# Velocity S-wave (km/s) = 3.70776 4.04719 3.88119
# Velocity P-wave (km/s) = 6.30590 7.61193 6.98949
#
# Compressibility (1/GPa) = 0.02216890
#
# Stress axis : x y z
#
# Youngs Moduli (GPa) = 137.15192 105.79838 35.09111
#
# Poissons Ratio (x) = 0.30768 0.13567
# Poissons Ratio (y) = 0.39886 0.16708
# Poissons Ratio (z) = 0.53025 0.50375
#
# Static dielectric constant tensor:
#      x y z
#    x 4.281490 0.000000 0.000000 
#    y 0.000000 3.812220 0.000000 
#    z 0.000000 0.000000 3.569940 
# 
# 
# High freq. dielectric constant tensor:
#      x y z
#    x 1.848720 0.000000 0.000000 
#    y 0.000000 1.831720 0.000000 
#    z 0.000000 0.000000 1.805960 
# 
# From -- ./inp_files/2716.got.cif
#   From: 2010.03.12/outbox.cif.g09.slc.cpg/sg47_2_cif.got.tgz:2716.got - 2010.04.14 03:12:58.
