data_PCOD8198711
_publ_section_title
;
Structure prediction by ZEFSAII (Michael W. Deem and Ramdas Pophale) SiO2 
 PCOD8198711
Probable space group: P M M M
;
_chemical_formula_sum "Si O2"
_cell_formula_units_Z 48
_cell_length_a 9.325016
_cell_length_b 8.131844
_cell_length_c 32.812866
_cell_angle_alpha 90.000000
_cell_angle_beta 90.000000
_cell_angle_gamma 90.000000
_cell_volume 2488.185697
_symmetry_space_group_name_H-M "P M M M"
_symmetry_group_IT_number 47
_symmetry_cell_setting 'orthorhombic'
loop_
_space_group_symop_operation_xyz
x,y,z
-x,-y,z
x,-y,-z
-x,y,-z
-x,-y,-z
x,y,-z
-x,y,z
x,-y,z
loop_
_atom_site_type_symbol
_atom_site_label
_atom_site_fract_x
_atom_site_fract_y
_atom_site_fract_z
Si Si1 0.159971 0.693771 0.179994
Si Si2 0.669496 0.186827 0.340498
Si Si3 0.668727 0.310727 0.901010
Si Si4 0.156043 0.189544 0.500000
Si Si5 0.660690 0.306541 0.255040
Si Si6 0.330328 0.000000 0.045474
Si Si7 0.660761 0.690224 0.425687
O O1 0.148779 0.500000 0.185212
O O2 0.249584 0.737806 0.140001
O O3 0.240786 0.769892 0.219322
O O4 0.000000 0.769863 0.176811
O O5 0.500000 0.209348 0.339019
O O6 0.731865 0.263981 0.298827
O O7 0.727970 0.278466 0.380804
O O8 0.719218 0.000000 0.343370
O O9 0.500000 0.297688 0.892399
O O10 0.706049 0.500000 0.915193
O O11 0.719416 0.171502 0.933293
O O12 0.241379 0.229667 0.459418
O O13 0.000000 0.279677 0.500000
O O14 0.126894 0.000000 0.500000
O O15 0.500000 0.230922 0.251401
O O16 0.651528 0.500000 0.249883
O O17 0.500000 0.000000 0.043631
O O18 0.264580 0.000000 0.000000
O O19 0.500000 0.766509 0.428293
O O20 0.653935 0.500000 0.435006
#
# Coordination Sequence:
#
# PCOD8198711 Si02
#       7
#     8   8   8   4   8   4   8
#     4   9  17  30  49  72  99 132 170 212 256 301
#     4   9  17  30  49  74 102 131 165 207 254 302
#     4   9  17  31  52  76 102 135 173 212 258 311
#     4  11  24  39  54  76 106 137 168 205 254 308
#     4   9  16  28  48  72  98 129 166 208 253 304
#     4   9  18  32  51  79 109 133 167 217 265 310
#     4  10  20  35  57  82 104 130 169 213 254 301
#
# _framework density 19.291163000000001
#
# number of rings (size 3 to 8) (size 9 to 14) (size 15 to 20)
#    0.000    2.667    0.000    2.000    0.000    7.000 
#    1.500    2.917    0.000    4.000    0.000    2.333 
#    0.000    0.000    0.000    0.000    0.000    0.000 
#
# Total GULP energy -594900.024089 kJ/mol
# GULP energy per Si atom -12393.750502 kJ/mol
# Density = 1.924726 g / cm^3
# Si number density = 19.291163 Si / 1000 Ang^3
#
#
#
# Elastic Constant Matrix: (Units=GPa)
#
#
# Indices 1 2 3 4 5 6 
#
# 1 75.4744 24.8879 66.6019 0.0000 0.0000 0.0000
# 2 24.8879 68.1804 50.0159 0.0000 0.0000 0.0000
# 3 66.6019 50.0159 183.8433 0.0000 0.0000 0.0000
# 4 0.0000 0.0000 0.0000 -7.6047 0.0000 0.0000
# 5 0.0000 0.0000 0.0000 0.0000 -0.8407 0.0000
# 6 0.0000 0.0000 0.0000 0.0000 0.0000 9.2757
#
#
#
# Elastic Compliance Matrix: (Units=1/GPa)
#
#
# Indices 1 2 3 4 5 6 
#
# 1 0.019799 -0.002456 -0.006505 0.000000 0.000000 0.000000
# 2 -0.002456 0.018629 -0.004178 0.000000 0.000000 0.000000
# 3 -0.006505 -0.004178 0.008933 0.000000 0.000000 0.000000
# 4 0.000000 0.000000 0.000000 -0.131498 0.000000 0.000000
# 5 0.000000 0.000000 0.000000 0.000000 -1.189533 0.000000
# 6 0.000000 0.000000 0.000000 0.000000 0.000000 0.107809
#
#
# Mechanical properties :
#
#
# Convention : Reuss Voigt Hill
#
# Bulk Modulus (GPa) = 47.43142 67.83436 57.63289
# Shear Modulus (GPa) = -4.41479 12.56557 4.07539
#
# Velocity S-wave (km/s) = -1.51442 2.55495 1.45504
# Velocity P-wave (km/s) = 4.64570 6.62899 5.72390
#
# Compressibility (1/GPa) = 0.02108307
#
# Stress axis : x y z
#
# Youngs Moduli (GPa) = 50.50669 53.68101 111.94816
#
# Poissons Ratio (x) = 0.13182 0.72820
# Poissons Ratio (y) = 0.12402 0.46777
# Poissons Ratio (z) = 0.32853 0.22430
#
# Static dielectric constant tensor:
#      x y z
#    x 3.495940 0.000000 0.000000 
#    y 0.000000 3.416980 0.000000 
#    z 0.000000 0.000000 3.759900 
# 
# 
# High freq. dielectric constant tensor:
#      x y z
#    x 1.714170 0.000000 0.000000 
#    y 0.000000 1.740000 0.000000 
#    z 0.000000 0.000000 1.760770 
# 
# From -- ./inp_files/34112.got.cif
#   From: 2010.03.12/outbox.cif.g09.slc.cpg/sg47_18_cif.got.tgz:34112.got - 2010.04.14 03:12:58.
