data_PCOD8198582
_publ_section_title
;
Structure prediction by ZEFSAII (Michael W. Deem and Ramdas Pophale) SiO2 
 PCOD8198582
Probable space group: P M M M
;
_chemical_formula_sum "Si O2"
_cell_formula_units_Z 44
_cell_length_a 31.835115
_cell_length_b 7.786931
_cell_length_c 9.410111
_cell_angle_alpha 90.000000
_cell_angle_beta 90.000000
_cell_angle_gamma 90.000000
_cell_volume 2332.746228
_symmetry_space_group_name_H-M "P M M M"
_symmetry_group_IT_number 47
_symmetry_cell_setting 'orthorhombic'
loop_
_space_group_symop_operation_xyz
x,y,z
-x,-y,z
x,-y,-z
-x,y,-z
-x,-y,-z
x,y,-z
-x,y,z
x,-y,z
loop_
_atom_site_type_symbol
_atom_site_label
_atom_site_fract_x
_atom_site_fract_y
_atom_site_fract_z
Si Si1 0.000000 0.689341 0.830768
Si Si2 0.909897 0.296164 0.838496
Si Si3 0.547196 0.690295 0.169051
Si Si4 0.301162 0.000000 0.829981
Si Si5 0.602275 0.000000 0.168549
Si Si6 0.168021 0.804814 0.657240
Si Si7 0.742705 0.693615 0.333737
O O1 0.955692 0.778467 0.785423
O O2 0.000000 0.500000 0.763171
O O3 0.000000 0.672876 0.000000
O O4 0.909530 0.500000 0.820943
O O5 0.872665 0.212530 0.752611
O O6 0.902370 0.241503 0.000000
O O7 0.500000 0.734466 0.220834
O O8 0.560305 0.500000 0.223330
O O9 0.579443 0.830606 0.231844
O O10 0.548396 0.693419 0.000000
O O11 0.281863 0.826856 0.764967
O O12 0.349658 0.000000 0.784580
O O13 0.294635 0.000000 0.000000
O O14 0.598156 0.000000 0.000000
O O15 0.154820 0.744804 0.500000
O O16 0.207982 0.695286 0.709756
O O17 0.183597 0.000000 0.658833
O O18 0.737753 0.744623 0.500000
O O19 0.725857 0.500000 0.306021
#
# Coordination Sequence:
#
# PCOD8198582 Si02
#       7
#     4   8   8   4   4   8   8
#     4   7  12  26  46  67  96 132 164 195 236 294
#     4   9  17  30  50  75 100 128 164 204 248 302
#     4   8  13  22  38  60  89 132 183 222 251 299
#     4  11  23  36  53  82 118 147 175 222 280 335
#     4   9  17  27  40  63 100 142 173 207 264 323
#     4  10  20  35  54  74  98 128 165 213 264 311
#     4  10  21  40  63  79  99 140 188 229 271 325
#
# _framework density 18.861889999999999
#
# number of rings (size 3 to 8) (size 9 to 14) (size 15 to 20)
#    0.000    2.818    0.909    2.727    0.000    4.364 
#    0.000    2.727    0.000    4.364    0.000    0.000 
#    0.000    5.818    0.000   16.000    0.000   13.091 
#
# Total GULP energy -545173.757012 kJ/mol
# GULP energy per Si atom -12390.312659 kJ/mol
# Density = 1.881896 g / cm^3
# Si number density = 18.861890 Si / 1000 Ang^3
#
#
#
# Elastic Constant Matrix: (Units=GPa)
#
#
# Indices 1 2 3 4 5 6 
#
# 1 145.2024 69.5656 47.5327 0.0000 0.0000 0.0000
# 2 69.5656 109.4364 36.3970 0.0000 0.0000 0.0000
# 3 47.5327 36.3970 49.7702 0.0000 0.0000 0.0000
# 4 0.0000 0.0000 0.0000 16.0485 0.0000 0.0000
# 5 0.0000 0.0000 0.0000 0.0000 -14.6102 0.0000
# 6 0.0000 0.0000 0.0000 0.0000 0.0000 25.0453
#
#
#
# Elastic Compliance Matrix: (Units=1/GPa)
#
#
# Indices 1 2 3 4 5 6 
#
# 1 0.011740 -0.004934 -0.007604 0.000000 0.000000 0.000000
# 2 -0.004934 0.014148 -0.005634 0.000000 0.000000 0.000000
# 3 -0.007604 -0.005634 0.031475 0.000000 0.000000 0.000000
# 4 0.000000 0.000000 0.000000 0.062311 0.000000 0.000000
# 5 0.000000 0.000000 0.000000 0.000000 -0.068445 0.000000
# 6 0.000000 0.000000 0.000000 0.000000 0.000000 0.039928
#
#
# Mechanical properties :
#
#
# Convention : Reuss Voigt Hill
#
# Bulk Modulus (GPa) = 47.57751 67.93330 57.75540
# Shear Modulus (GPa) = 37.17290 15.35764 26.26527
#
# Velocity S-wave (km/s) = 4.44418 2.85654 3.73568
# Velocity P-wave (km/s) = 7.18423 6.85377 7.02094
#
# Compressibility (1/GPa) = 0.02101834
#
# Stress axis : x y z
#
# Youngs Moduli (GPa) = 85.17970 70.68189 31.77119
#
# Poissons Ratio (x) = 0.34872 0.24159
# Poissons Ratio (y) = 0.42025 0.17901
# Poissons Ratio (z) = 0.64771 0.39825
#
# Static dielectric constant tensor:
#      x y z
#    x 3.681380 0.000000 0.000000 
#    y 0.000000 3.566250 0.000000 
#    z 0.000000 0.000000 3.030910 
# 
# 
# High freq. dielectric constant tensor:
#      x y z
#    x 1.739540 0.000000 0.000000 
#    y 0.000000 1.735930 0.000000 
#    z 0.000000 0.000000 1.679550 
# 
# From -- ./inp_files/13772.got.cif
#   From: 2010.03.12/outbox.cif.g09.slc.cpg/sg47_7_cif.got.tgz:13772.got - 2010.04.14 03:12:58.
