data_PCOD8198837
_publ_section_title
;
Structure prediction by ZEFSAII (Michael W. Deem and Ramdas Pophale) SiO2 
 PCOD8198837
Probable space group: P M M M
;
_chemical_formula_sum "Si O2"
_cell_formula_units_Z 40
_cell_length_a 9.140291
_cell_length_b 27.259825
_cell_length_c 7.965104
_cell_angle_alpha 90.000000
_cell_angle_beta 90.000000
_cell_angle_gamma 90.000000
_cell_volume 1984.607082
_symmetry_space_group_name_H-M "P M M M"
_symmetry_group_IT_number 47
_symmetry_cell_setting 'orthorhombic'
loop_
_space_group_symop_operation_xyz
x,y,z
-x,-y,z
x,-y,-z
-x,y,-z
-x,-y,-z
x,y,-z
-x,y,z
x,-y,z
loop_
_atom_site_type_symbol
_atom_site_label
_atom_site_fract_x
_atom_site_fract_y
_atom_site_fract_z
Si Si1 0.672620 0.605998 0.195095
Si Si2 0.826127 0.945128 0.000000
Si Si3 0.666135 0.789849 0.190968
Si Si4 0.834680 0.301272 0.308942
Si Si5 0.339638 0.500000 0.198689
Si Si6 0.169524 0.881063 0.687791
O O1 0.500000 0.609465 0.233457
O O2 0.759992 0.645671 0.301305
O O3 0.735773 0.551806 0.249991
O O4 0.702991 0.616002 0.000000
O O5 0.770364 0.918294 0.169923
O O6 0.000000 0.947356 0.000000
O O7 0.760334 0.000000 0.000000
O O8 0.500000 0.783713 0.253729
O O9 0.744741 0.737504 0.200016
O O10 0.745421 0.829885 0.305478
O O11 0.672222 0.808379 0.000000
O O12 0.833721 0.283151 0.500000
O O13 0.000000 0.304470 0.239499
O O14 0.500000 0.500000 0.281160
O O15 0.358005 0.500000 0.000000
O O16 0.191628 0.903484 0.500000
O O17 0.000000 0.869562 0.722212
#
# Coordination Sequence:
#
# PCOD8198837 Si02
#       6
#     8   4   8   8   4   8
#     4   9  17  32  55  80 103 131 172 220 270 324
#     4   9  18  34  57  87 123 159 195 238 283 326
#     4  11  23  38  58  83 109 141 183 230 282 339
#     4  11  24  38  51  73 107 144 180 220 271 330
#     4   7  12  26  50  77 102 128 164 215 268 319
#     4  10  20  35  58  87 118 154 194 235 283 336
#
# _framework density 20.155121999999999
#
# number of rings (size 3 to 8) (size 9 to 14) (size 15 to 20)
#    0.000    2.200    1.000    3.600    0.000    8.800 
#    0.000    3.000    0.000    6.000    0.000    1.400 
#    0.000    0.000    0.000    0.000    0.000    0.000 
#
# Total GULP energy -495846.311995 kJ/mol
# GULP energy per Si atom -12396.157800 kJ/mol
# Density = 2.010925 g / cm^3
# Si number density = 20.155122 Si / 1000 Ang^3
#
#
#
# Elastic Constant Matrix: (Units=GPa)
#
#
# Indices 1 2 3 4 5 6 
#
# 1 86.1012 47.5547 30.1040 0.0000 0.0000 0.0000
# 2 47.5547 148.1749 41.2218 0.0000 0.0000 0.0000
# 3 30.1040 41.2218 87.5384 0.0000 0.0000 0.0000
# 4 0.0000 0.0000 0.0000 22.0755 0.0000 0.0000
# 5 0.0000 0.0000 0.0000 0.0000 20.4628 0.0000
# 6 0.0000 0.0000 0.0000 0.0000 0.0000 11.3036
#
#
#
# Elastic Compliance Matrix: (Units=1/GPa)
#
#
# Indices 1 2 3 4 5 6 
#
# 1 0.014904 -0.003863 -0.003306 0.000000 0.000000 0.000000
# 2 -0.003863 0.008768 -0.002800 0.000000 0.000000 0.000000
# 3 -0.003306 -0.002800 0.013879 0.000000 0.000000 0.000000
# 4 0.000000 0.000000 0.000000 0.045299 0.000000 0.000000
# 5 0.000000 0.000000 0.000000 0.000000 0.048869 0.000000
# 6 0.000000 0.000000 0.000000 0.000000 0.000000 0.088467
#
#
# Mechanical properties :
#
#
# Convention : Reuss Voigt Hill
#
# Bulk Modulus (GPa) = 56.78122 62.17505 59.47813
# Shear Modulus (GPa) = 20.32553 24.29732 22.31143
#
# Velocity S-wave (km/s) = 3.17906 3.47582 3.33075
# Velocity P-wave (km/s) = 6.45821 6.85738 6.66079
#
# Compressibility (1/GPa) = 0.01761146
#
# Stress axis : x y z
#
# Youngs Moduli (GPa) = 67.09597 114.05519 72.05098
#
# Poissons Ratio (x) = 0.44065 0.23821
# Poissons Ratio (y) = 0.25922 0.20175
# Poissons Ratio (z) = 0.22183 0.31936
#
# Static dielectric constant tensor:
#      x y z
#    x 3.406170 0.000000 0.000000 
#    y 0.000000 3.760680 0.000000 
#    z 0.000000 0.000000 3.543610 
# 
# 
# High freq. dielectric constant tensor:
#      x y z
#    x 1.755510 0.000000 0.000000 
#    y 0.000000 1.791110 0.000000 
#    z 0.000000 0.000000 1.782540 
# 
# From -- ./inp_files/1845.got.cif
#   From: 2010.03.12/outbox.cif.g09.slc.cpg/sg47_1_cif.got.tgz:1845.got - 2010.04.14 03:12:58.
