data_PCOD8198636
_publ_section_title
;
Structure prediction by ZEFSAII (Michael W. Deem and Ramdas Pophale) SiO2 
 PCOD8198636
Probable space group: P M M M
;
_chemical_formula_sum "Si O2"
_cell_formula_units_Z 64
_cell_length_a 24.018412
_cell_length_b 8.830301
_cell_length_c 15.453510
_cell_angle_alpha 90.000000
_cell_angle_beta 90.000000
_cell_angle_gamma 90.000000
_cell_volume 3277.531961
_symmetry_space_group_name_H-M "P M M M"
_symmetry_group_IT_number 47
_symmetry_cell_setting 'orthorhombic'
loop_
_space_group_symop_operation_xyz
x,y,z
-x,-y,z
x,-y,-z
-x,y,-z
-x,-y,-z
x,y,-z
-x,y,z
x,-y,z
loop_
_atom_site_type_symbol
_atom_site_label
_atom_site_fract_x
_atom_site_fract_y
_atom_site_fract_z
Si Si1 0.143948 0.325832 0.097561
Si Si2 0.253990 0.678313 0.337153
Si Si3 0.743389 0.178679 0.848955
Si Si4 0.359766 0.825722 0.403562
Si Si5 0.062296 0.319668 0.246529
Si Si6 0.563201 0.821193 0.753092
Si Si7 0.632872 0.326499 0.097042
Si Si8 0.134821 0.320165 0.404433
O O1 0.158334 0.500000 0.119772
O O2 0.199431 0.229336 0.107323
O O3 0.096768 0.264181 0.162809
O O4 0.120945 0.309241 0.000000
O O5 0.253344 0.500000 0.319609
O O6 0.261740 0.765492 0.248346
O O7 0.304694 0.723166 0.399025
O O8 0.196905 0.733253 0.381167
O O9 0.692385 0.245234 0.902783
O O10 0.739515 0.000000 0.851274
O O11 0.385163 0.806902 0.500000
O O12 0.404728 0.768813 0.333585
O O13 0.343554 0.000000 0.385529
O O14 0.060258 0.500000 0.248581
O O15 0.091565 0.255938 0.333535
O O16 0.000000 0.252423 0.241245
O O17 0.500000 0.764383 0.744290
O O18 0.589620 0.748086 0.837726
O O19 0.566354 0.000000 0.764300
O O20 0.641612 0.500000 0.124323
O O21 0.608368 0.312780 0.000000
O O22 0.119023 0.257891 0.500000
O O23 0.132404 0.500000 0.404310
#
# Coordination Sequence:
#
# PCOD8198636 Si02
#       8
#     8   8   8   8   8   8   8   8
#     4  10  20  35  55  80 111 146 184 227 278 335
#     4  11  20  34  57  83 115 151 187 232 287 344
#     4  12  23  36  58  86 115 147 184 229 287 348
#     4  10  21  37  58  87 121 155 193 236 283 338
#     4   9  17  30  49  76 110 145 184 230 277 326
#     4  10  22  40  61  86 118 158 200 239 280 329
#     4  11  24  41  62  88 117 151 190 235 289 344
#     4   9  17  29  48  77 111 144 178 221 276 333
#
# _framework density 19.526889000000001
#
# number of rings (size 3 to 8) (size 9 to 14) (size 15 to 20)
#    0.000    1.750    2.500    2.625    0.000    4.750 
#    0.000    5.000    0.000    0.375    0.000    2.625 
#    0.000    1.000    0.000    0.000    0.000    0.000 
#
# Total GULP energy -793699.511225 kJ/mol
# GULP energy per Si atom -12401.554863 kJ/mol
# Density = 1.948244 g / cm^3
# Si number density = 19.526889 Si / 1000 Ang^3
#
#
#
# Elastic Constant Matrix: (Units=GPa)
#
#
# Indices 1 2 3 4 5 6 
#
# 1 158.7310 38.0745 70.2111 0.0000 0.0000 0.0000
# 2 38.0745 1.8006 5.2678 0.0000 0.0000 0.0000
# 3 70.2111 5.2678 140.9359 0.0000 0.0000 0.0000
# 4 0.0000 0.0000 0.0000 22.1882 0.0000 0.0000
# 5 0.0000 0.0000 0.0000 0.0000 17.4889 0.0000
# 6 0.0000 0.0000 0.0000 0.0000 0.0000 7.2826
#
#
#
# Elastic Compliance Matrix: (Units=1/GPa)
#
#
# Indices 1 2 3 4 5 6 
#
# 1 -0.001515 0.033499 -0.000497 0.000000 0.000000 0.000000
# 2 0.033499 -0.116941 -0.012317 0.000000 0.000000 0.000000
# 3 -0.000497 -0.012317 0.007803 0.000000 0.000000 0.000000
# 4 0.000000 0.000000 0.000000 0.045069 0.000000 0.000000
# 5 0.000000 0.000000 0.000000 0.000000 0.057179 0.000000
# 6 0.000000 0.000000 0.000000 0.000000 0.000000 0.137314
#
#
# Mechanical properties :
#
#
# Convention : Reuss Voigt Hill
#
# Bulk Modulus (GPa) = -14.43318 58.73047 22.14864
# Shear Modulus (GPa) = 77.58470 21.91954 49.75212
#
# Velocity S-wave (km/s) = 6.31019 3.35405 5.05313
# Velocity P-wave (km/s) = 6.75898 6.71875 6.73890
#
# Compressibility (1/GPa) = -0.06928481
#
# Stress axis : x y z
#
# Youngs Moduli (GPa) = -659.87976 -8.55130 128.14804
#
# Poissons Ratio (x) = 0.28646 0.06371
# Poissons Ratio (y) = 22.10519 1.57846
# Poissons Ratio (z) = -0.32805 -0.10533
#
# Static dielectric constant tensor:
#      x y z
#    x 3.690240 0.000000 0.000000 
#    y 0.000000 3.289600 0.000000 
#    z 0.000000 0.000000 3.772030 
# 
# 
# High freq. dielectric constant tensor:
#      x y z
#    x 1.756400 0.000000 0.000000 
#    y 0.000000 1.729450 0.000000 
#    z 0.000000 0.000000 1.778850 
# 
# From -- ./inp_files/7812.got.cif
#   From: 2010.03.12/outbox.cif.g09.slc.cpg/sg47_4_cif.got.tgz:7812.got - 2010.04.14 03:12:58.
