data_PCOD8198974
_publ_section_title
;
Structure prediction by ZEFSAII (Michael W. Deem and Ramdas Pophale) SiO2 
 PCOD8198974
Probable space group: P M M M
;
_chemical_formula_sum "Si O2"
_cell_formula_units_Z 44
_cell_length_a 29.736828
_cell_length_b 9.938634
_cell_length_c 7.677445
_cell_angle_alpha 90.000000
_cell_angle_beta 90.000000
_cell_angle_gamma 90.000000
_cell_volume 2269.018581
_symmetry_space_group_name_H-M "P M M M"
_symmetry_group_IT_number 47
_symmetry_cell_setting 'orthorhombic'
loop_
_space_group_symop_operation_xyz
x,y,z
-x,-y,z
x,-y,-z
-x,y,-z
-x,-y,-z
x,y,-z
-x,y,z
x,-y,z
loop_
_atom_site_type_symbol
_atom_site_label
_atom_site_fract_x
_atom_site_fract_y
_atom_site_fract_z
Si Si1 0.080396 0.153737 0.298168
Si Si2 0.447225 0.500000 0.702700
Si Si3 0.449590 0.000000 0.208292
Si Si4 0.698802 0.346341 0.693287
Si Si5 0.606453 0.246782 0.197785
Si Si6 0.848723 0.152606 0.000000
Si Si7 0.763548 0.659072 0.000000
Si Si8 0.000000 0.346611 0.294490
O O1 0.093911 0.179158 0.500000
O O2 0.123063 0.177521 0.175616
O O3 0.043275 0.261224 0.234012
O O4 0.062307 0.000000 0.275850
O O5 0.500000 0.500000 0.736738
O O6 0.434749 0.500000 0.500000
O O7 0.425740 0.373688 0.795989
O O8 0.422460 0.872791 0.281431
O O9 0.500000 0.000000 0.286025
O O10 0.451920 0.000000 0.000000
O O11 0.719607 0.332643 0.500000
O O12 0.685834 0.500000 0.738115
O O13 0.652955 0.261896 0.698829
O O14 0.735743 0.295585 0.829830
O O15 0.619889 0.215597 0.000000
O O16 0.809397 0.260129 0.000000
O O17 0.829859 0.000000 0.000000
O O18 0.774088 0.500000 0.000000
O O19 0.000000 0.500000 0.216334
O O20 0.000000 0.356485 0.500000
#
# Coordination Sequence:
#
# PCOD8198974 Si02
#       8
#     8   4   4   8   8   4   4   4
#     4   9  18  34  56  79 113 159 199 234 279 334
#     4  11  23  35  51  81 115 147 187 230 267 317
#     4   9  20  36  53  79 115 150 181 217 266 325
#     4  10  20  37  60  85 111 139 178 228 278 337
#     4  11  20  35  59  82 109 145 185 224 271 330
#     4  10  22  39  57  84 113 145 189 240 289 339
#     4  10  22  40  61  83 107 141 182 226 290 351
#     4   9  17  30  51  84 121 157 200 245 283 322
#
# _framework density 19.391643999999999
#
# number of rings (size 3 to 8) (size 9 to 14) (size 15 to 20)
#    0.000    2.091    1.818    1.636    0.000    4.364 
#    1.636    3.636    0.000    3.273    0.000    0.000 
#    0.000    0.000    0.000    0.000    0.000    0.000 
#
# Total GULP energy -545556.216944 kJ/mol
# GULP energy per Si atom -12399.004931 kJ/mol
# Density = 1.934751 g / cm^3
# Si number density = 19.391644 Si / 1000 Ang^3
#
#
#
# Elastic Constant Matrix: (Units=GPa)
#
#
# Indices 1 2 3 4 5 6 
#
# 1 136.4376 76.9033 49.8762 0.0000 0.0000 0.0000
# 2 76.9033 132.5087 26.3388 0.0000 0.0000 0.0000
# 3 49.8762 26.3388 93.6560 0.0000 0.0000 0.0000
# 4 0.0000 0.0000 0.0000 -17.8439 0.0000 0.0000
# 5 0.0000 0.0000 0.0000 0.0000 18.2733 0.0000
# 6 0.0000 0.0000 0.0000 0.0000 0.0000 41.5951
#
#
#
# Elastic Compliance Matrix: (Units=1/GPa)
#
#
# Indices 1 2 3 4 5 6 
#
# 1 0.012776 -0.006421 -0.004998 0.000000 0.000000 0.000000
# 2 -0.006421 0.011221 0.000264 0.000000 0.000000 0.000000
# 3 -0.004998 0.000264 0.013265 0.000000 0.000000 0.000000
# 4 0.000000 0.000000 0.000000 -0.056042 0.000000 0.000000
# 5 0.000000 0.000000 0.000000 0.000000 0.054725 0.000000
# 6 0.000000 0.000000 0.000000 0.000000 0.000000 0.024041
#
#
# Mechanical properties :
#
#
# Convention : Reuss Voigt Hill
#
# Bulk Modulus (GPa) = 66.88446 74.31541 70.59994
# Shear Modulus (GPa) = 57.28736 22.37049 39.82892
#
# Velocity S-wave (km/s) = 5.44118 3.40018 4.53694
# Velocity P-wave (km/s) = 8.60474 7.33632 7.99572
#
# Compressibility (1/GPa) = 0.01495116
#
# Stress axis : x y z
#
# Youngs Moduli (GPa) = 78.27404 89.12026 75.38792
#
# Poissons Ratio (x) = 0.57225 0.37678
# Poissons Ratio (y) = 0.50261 -0.01990
# Poissons Ratio (z) = 0.39120 -0.02352
#
# Static dielectric constant tensor:
#      x y z
#    x 3.332320 0.000000 0.000000 
#    y 0.000000 3.631480 0.000000 
#    z 0.000000 0.000000 3.546110 
# 
# 
# High freq. dielectric constant tensor:
#      x y z
#    x 1.740410 0.000000 0.000000 
#    y 0.000000 1.749600 0.000000 
#    z 0.000000 0.000000 1.758820 
# 
# From -- ./inp_files/13788.got.cif
#   From: 2010.03.12/outbox.cif.g09.slc.cpg/sg47_7_cif.got.tgz:13788.got - 2010.04.14 03:12:58.
