data_PCOD8198758
_publ_section_title
;
Structure prediction by ZEFSAII (Michael W. Deem and Ramdas Pophale) SiO2 
 PCOD8198758
Probable space group: P M M M
;
_chemical_formula_sum "Si O2"
_cell_formula_units_Z 48
_cell_length_a 8.067892
_cell_length_b 32.227072
_cell_length_c 9.143731
_cell_angle_alpha 90.000000
_cell_angle_beta 90.000000
_cell_angle_gamma 90.000000
_cell_volume 2377.411539
_symmetry_space_group_name_H-M "P M M M"
_symmetry_group_IT_number 47
_symmetry_cell_setting 'orthorhombic'
loop_
_space_group_symop_operation_xyz
x,y,z
-x,-y,z
x,-y,-z
-x,y,-z
-x,-y,-z
x,y,-z
-x,y,z
x,-y,z
loop_
_atom_site_type_symbol
_atom_site_label
_atom_site_fract_x
_atom_site_fract_y
_atom_site_fract_z
Si Si1 0.691761 0.921535 0.161566
Si Si2 0.807686 0.308511 0.334110
Si Si3 0.184167 0.402351 0.673888
Si Si4 0.500000 0.452916 0.674449
Si Si5 0.690068 0.232203 0.834392
Si Si6 0.698292 0.000000 0.335551
Si Si7 0.810084 0.155478 0.665076
O O1 0.500000 0.931163 0.142468
O O2 0.770454 0.959268 0.254210
O O3 0.709454 0.878019 0.243111
O O4 0.774722 0.919260 0.000000
O O5 0.741907 0.303806 0.500000
O O6 0.778949 0.355279 0.276885
O O7 0.705838 0.278382 0.229114
O O8 0.000000 0.296632 0.327012
O O9 0.180936 0.404299 0.500000
O O10 0.332167 0.431233 0.736036
O O11 0.000000 0.416289 0.731254
O O12 0.500000 0.500000 0.730967
O O13 0.500000 0.450701 0.500000
O O14 0.500000 0.218246 0.830252
O O15 0.794824 0.200611 0.736768
O O16 0.758061 0.231543 0.000000
O O17 0.500000 0.000000 0.338726
O O18 0.768728 0.000000 0.500000
O O19 0.739687 0.157206 0.500000
O O20 0.000000 0.141869 0.664759
#
# Coordination Sequence:
#
# PCOD8198758 Si02
#       7
#     8   8   8   4   8   4   8
#     4  10  20  35  57  84 112 141 176 219 266 317
#     4   9  18  33  53  76 101 134 177 219 262 316
#     4   8  15  27  42  64  96 132 173 221 268 320
#     4   9  16  24  38  64  97 137 181 219 267 328
#     4  11  24  38  53  78 108 136 171 215 263 317
#     4   9  17  31  54  83 112 143 178 218 266 317
#     4  11  24  40  57  78 105 139 179 219 261 314
#
# _framework density 20.190026
#
# number of rings (size 3 to 8) (size 9 to 14) (size 15 to 20)
#    0.000    2.333    0.000    3.750    1.167    9.333 
#    0.000    2.083    0.000    2.500    0.000    0.000 
#    0.000    1.333    0.000    3.667    0.000    3.667 
#
# Total GULP energy -595165.694980 kJ/mol
# GULP energy per Si atom -12399.285312 kJ/mol
# Density = 2.014407 g / cm^3
# Si number density = 20.190026 Si / 1000 Ang^3
#
#
#
# Elastic Constant Matrix: (Units=GPa)
#
#
# Indices 1 2 3 4 5 6 
#
# 1 66.1867 40.3815 25.1145 0.0000 0.0000 0.0000
# 2 40.3815 140.7595 56.2095 0.0000 0.0000 0.0000
# 3 25.1145 56.2095 129.0252 0.0000 0.0000 0.0000
# 4 0.0000 0.0000 0.0000 7.5763 0.0000 0.0000
# 5 0.0000 0.0000 0.0000 0.0000 14.4928 0.0000
# 6 0.0000 0.0000 0.0000 0.0000 0.0000 6.1113
#
#
#
# Elastic Compliance Matrix: (Units=1/GPa)
#
#
# Indices 1 2 3 4 5 6 
#
# 1 0.018572 -0.004703 -0.001566 0.000000 0.000000 0.000000
# 2 -0.004703 0.009791 -0.003350 0.000000 0.000000 0.000000
# 3 -0.001566 -0.003350 0.009515 0.000000 0.000000 0.000000
# 4 0.000000 0.000000 0.000000 0.131990 0.000000 0.000000
# 5 0.000000 0.000000 0.000000 0.000000 0.069000 0.000000
# 6 0.000000 0.000000 0.000000 0.000000 0.000000 0.163631
#
#
# Mechanical properties :
#
#
# Convention : Reuss Voigt Hill
#
# Bulk Modulus (GPa) = 53.64798 64.37581 59.01189
# Shear Modulus (GPa) = 11.68359 19.92048 15.80204
#
# Velocity S-wave (km/s) = 2.40819 3.14451 2.80065
# Velocity P-wave (km/s) = 5.86189 6.71849 6.30475
#
# Compressibility (1/GPa) = 0.01864003
#
# Stress axis : x y z
#
# Youngs Moduli (GPa) = 53.84383 102.13228 105.09925
#
# Poissons Ratio (x) = 0.48028 0.16463
# Poissons Ratio (y) = 0.25320 0.35210
# Poissons Ratio (z) = 0.08434 0.34216
#
# Static dielectric constant tensor:
#      x y z
#    x 3.583090 0.000000 0.000000 
#    y 0.000000 3.643660 0.000000 
#    z 0.000000 0.000000 3.550330 
# 
# 
# High freq. dielectric constant tensor:
#      x y z
#    x 1.777170 0.000000 0.000000 
#    y 0.000000 1.791180 0.000000 
#    z 0.000000 0.000000 1.762560 
# 
# From -- ./inp_files/2572.got.cif
#   From: 2010.03.12/outbox.cif.g09.slc.cpg/sg47_2_cif.got.tgz:2572.got - 2010.04.14 03:12:58.
