data_PCOD8198404
_publ_section_title
;
Structure prediction by ZEFSAII (Michael W. Deem and Ramdas Pophale) SiO2 
 PCOD8198404
Probable space group: P M M M
;
_chemical_formula_sum "Si O2"
_cell_formula_units_Z 48
_cell_length_a 15.256132
_cell_length_b 18.446964
_cell_length_c 9.062795
_cell_angle_alpha 90.000000
_cell_angle_beta 90.000000
_cell_angle_gamma 90.000000
_cell_volume 2550.536214
_symmetry_space_group_name_H-M "P M M M"
_symmetry_group_IT_number 47
_symmetry_cell_setting 'orthorhombic'
loop_
_space_group_symop_operation_xyz
x,y,z
-x,-y,z
x,-y,-z
-x,y,-z
-x,-y,-z
x,y,-z
-x,y,z
x,-y,z
loop_
_atom_site_type_symbol
_atom_site_label
_atom_site_fract_x
_atom_site_fract_y
_atom_site_fract_z
Si Si1 0.399887 0.814993 0.828572
Si Si2 0.661668 0.654808 0.173278
Si Si3 0.500000 0.585366 0.666036
Si Si4 0.824795 0.584810 0.326666
Si Si5 0.096098 0.086132 0.833555
Si Si6 0.266580 0.914899 0.670346
Si Si7 0.000000 0.414213 0.834064
O O1 0.500000 0.811128 0.772186
O O2 0.352967 0.739245 0.795621
O O3 0.350344 0.878323 0.743673
O O4 0.397060 0.834033 0.000000
O O5 0.584800 0.609252 0.245591
O O6 0.751370 0.632257 0.248978
O O7 0.664267 0.637420 0.000000
O O8 0.500000 0.500000 0.655479
O O9 0.500000 0.618302 0.500000
O O10 0.826336 0.600894 0.500000
O O11 0.807806 0.500000 0.295565
O O12 0.915411 0.612082 0.255875
O O13 0.175098 0.116917 0.734473
O O14 0.000000 0.113430 0.777293
O O15 0.096926 0.000000 0.828192
O O16 0.111626 0.113538 0.000000
O O17 0.267120 0.895759 0.500000
O O18 0.274371 0.000000 0.701324
O O19 0.000000 0.500000 0.843271
O O20 0.000000 0.381313 0.000000
#
# Coordination Sequence:
#
# PCOD8198404 Si02
#       7
#     8   8   4   8   8   8   4
#     4  10  22  41  60  78 104 142 187 230 277 332
#     4  11  22  38  58  81 109 144 188 234 278 329
#     4  11  23  37  55  83 116 147 182 225 275 332
#     4  10  20  34  54  83 117 150 185 227 277 332
#     4   8  14  27  50  79 109 142 178 215 260 315
#     4  10  21  35  54  84 116 144 179 225 275 327
#     4   9  17  31  53  81 111 147 190 231 274 323
#
# _framework density 18.819572000000001
#
# number of rings (size 3 to 8) (size 9 to 14) (size 15 to 20)
#    0.000    2.167    0.833    3.000    0.000    8.000 
#    0.000    3.333    1.833    0.000    0.000    0.000 
#    0.000    0.000    0.000    0.000    0.000    0.000 
#
# Total GULP energy -595211.356383 kJ/mol
# GULP energy per Si atom -12400.236591 kJ/mol
# Density = 1.877674 g / cm^3
# Si number density = 18.819572 Si / 1000 Ang^3
#
#
#
# Elastic Constant Matrix: (Units=GPa)
#
#
# Indices 1 2 3 4 5 6 
#
# 1 188.6113 49.3087 90.1145 0.0000 0.0000 0.0000
# 2 49.3087 39.6118 43.8842 0.0000 0.0000 0.0000
# 3 90.1145 43.8842 121.6445 0.0000 0.0000 0.0000
# 4 0.0000 0.0000 0.0000 23.7298 0.0000 0.0000
# 5 0.0000 0.0000 0.0000 0.0000 -135.1688 0.0000
# 6 0.0000 0.0000 0.0000 0.0000 0.0000 772.6429
#
#
#
# Elastic Compliance Matrix: (Units=1/GPa)
#
#
# Indices 1 2 3 4 5 6 
#
# 1 0.009092 -0.006423 -0.004418 0.000000 0.000000 0.000000
# 2 -0.006423 0.046589 -0.012049 0.000000 0.000000 0.000000
# 3 -0.004418 -0.012049 0.015841 0.000000 0.000000 0.000000
# 4 0.000000 0.000000 0.000000 0.042141 0.000000 0.000000
# 5 0.000000 0.000000 0.000000 0.000000 -0.007398 0.000000
# 6 0.000000 0.000000 0.000000 0.000000 0.000000 0.001294
#
#
# Mechanical properties :
#
#
# Convention : Reuss Voigt Hill
#
# Bulk Modulus (GPa) = 38.84886 79.60915 59.22900
# Shear Modulus (GPa) = 30.87947 143.34478 87.11212
#
# Velocity S-wave (km/s) = 4.05509 8.73689 6.81091
# Velocity P-wave (km/s) = 6.52784 12.00711 9.66394
#
# Compressibility (1/GPa) = 0.02574078
#
# Stress axis : x y z
#
# Youngs Moduli (GPa) = 109.98677 21.46430 63.12894
#
# Poissons Ratio (x) = 0.13786 0.27892
# Poissons Ratio (y) = 0.70643 0.76066
# Poissons Ratio (z) = 0.48595 0.25863
#
# Static dielectric constant tensor:
#      x y z
#    x 3.671540 0.000000 0.000000 
#    y 0.000000 3.131610 0.000000 
#    z 0.000000 0.000000 3.628130 
# 
# 
# High freq. dielectric constant tensor:
#      x y z
#    x 1.749770 0.000000 0.000000 
#    y 0.000000 1.697480 0.000000 
#    z 0.000000 0.000000 1.740420 
# 
# From -- ./inp_files/6422.got.cif
#   From: 2010.03.12/outbox.cif.g09.slc.cpg/sg47_4_cif.got.tgz:6422.got - 2010.04.14 03:12:58.
