data_PCOD8198767
_publ_section_title
;
Structure prediction by ZEFSAII (Michael W. Deem and Ramdas Pophale) SiO2 
 PCOD8198767
Probable space group: P M M M
;
_chemical_formula_sum "Si O2"
_cell_formula_units_Z 40
_cell_length_a 8.723919
_cell_length_b 25.680781
_cell_length_c 9.149212
_cell_angle_alpha 90.000000
_cell_angle_beta 90.000000
_cell_angle_gamma 90.000000
_cell_volume 2049.762497
_symmetry_space_group_name_H-M "P M M M"
_symmetry_group_IT_number 47
_symmetry_cell_setting 'orthorhombic'
loop_
_space_group_symop_operation_xyz
x,y,z
-x,-y,z
x,-y,-z
-x,y,-z
-x,-y,-z
x,y,-z
-x,y,z
x,-y,z
loop_
_atom_site_type_symbol
_atom_site_label
_atom_site_fract_x
_atom_site_fract_y
_atom_site_fract_z
Si Si1 0.678178 0.709279 0.169372
Si Si2 0.318278 0.100645 0.164746
Si Si3 0.179185 0.803418 0.668470
Si Si4 0.823798 0.601059 0.830371
Si Si5 0.317180 0.000000 0.665189
Si Si6 0.817633 0.500000 0.664814
O O1 0.500000 0.718400 0.201196
O O2 0.777670 0.747360 0.268508
O O3 0.722945 0.650777 0.213310
O O4 0.717879 0.719849 0.000000
O O5 0.500000 0.098592 0.161177
O O6 0.269208 0.153098 0.243062
O O7 0.253011 0.050934 0.252398
O O8 0.252493 0.099458 0.000000
O O9 0.229278 0.806179 0.500000
O O10 0.000000 0.812924 0.687632
O O11 0.755546 0.551843 0.743388
O O12 0.000000 0.612562 0.788092
O O13 0.808372 0.587606 0.000000
O O14 0.500000 0.000000 0.665127
O O15 0.253394 0.000000 0.500000
O O16 0.756725 0.500000 0.500000
O O17 0.000000 0.500000 0.674136
#
# Coordination Sequence:
#
# PCOD8198767 Si02
#       6
#     8   8   8   8   4   4
#     4  10  21  37  57  81 107 137 176 221 269 321
#     4  10  20  35  57  84 112 143 181 223 265 313
#     4  11  24  39  55  78 108 142 180 222 269 320
#     4   9  17  31  52  76 103 137 175 214 259 312
#     4   9  17  31  54  83 114 147 180 216 262 315
#     4   9  17  29  48  75 104 134 172 217 260 305
#
# _framework density 19.514454000000001
#
# number of rings (size 3 to 8) (size 9 to 14) (size 15 to 20)
#    0.000    2.200    0.000    3.000    0.000    9.600 
#    0.000    3.000    0.000    6.000    0.000    0.000 
#    0.000    0.000    0.000    0.000    0.000    0.000 
#
# Total GULP energy -496135.746647 kJ/mol
# GULP energy per Si atom -12403.393666 kJ/mol
# Density = 1.947004 g / cm^3
# Si number density = 19.514454 Si / 1000 Ang^3
#
#
#
# Elastic Constant Matrix: (Units=GPa)
#
#
# Indices 1 2 3 4 5 6 
#
# 1 17.4803 6.9584 18.3332 0.0000 0.0000 0.0000
# 2 6.9584 131.1712 74.2271 0.0000 0.0000 0.0000
# 3 18.3332 74.2271 136.6344 0.0000 0.0000 0.0000
# 4 0.0000 0.0000 0.0000 21.7874 0.0000 0.0000
# 5 0.0000 0.0000 0.0000 0.0000 21.3564 0.0000
# 6 0.0000 0.0000 0.0000 0.0000 0.0000 -8.4071
#
#
#
# Elastic Compliance Matrix: (Units=1/GPa)
#
#
# Indices 1 2 3 4 5 6 
#
# 1 0.067019 0.002214 -0.010195 0.000000 0.000000 0.000000
# 2 0.002214 0.011081 -0.006317 0.000000 0.000000 0.000000
# 3 -0.010195 -0.006317 0.012118 0.000000 0.000000 0.000000
# 4 0.000000 0.000000 0.000000 0.045898 0.000000 0.000000
# 5 0.000000 0.000000 0.000000 0.000000 0.046824 0.000000
# 6 0.000000 0.000000 0.000000 0.000000 0.000000 -0.118948
#
#
# Mechanical properties :
#
#
# Convention : Reuss Voigt Hill
#
# Bulk Modulus (GPa) = 16.22800 53.81369 35.02084
# Shear Modulus (GPa) = 44.19758 19.33183 31.76471
#
# Velocity S-wave (km/s) = 4.76422 3.15086 4.03892
# Velocity P-wave (km/s) = 6.21270 6.39323 6.30361
#
# Compressibility (1/GPa) = 0.06162190
#
# Stress axis : x y z
#
# Youngs Moduli (GPa) = 14.92125 90.24745 82.51991
#
# Poissons Ratio (x) = -0.19980 0.84130
# Poissons Ratio (y) = -0.03303 0.52125
# Poissons Ratio (z) = 0.15212 0.57006
#
# Static dielectric constant tensor:
#      x y z
#    x 3.258760 0.000000 0.000000 
#    y 0.000000 3.682510 0.000000 
#    z 0.000000 0.000000 3.733890 
# 
# 
# High freq. dielectric constant tensor:
#      x y z
#    x 1.730700 0.000000 0.000000 
#    y 0.000000 1.775990 0.000000 
#    z 0.000000 0.000000 1.766540 
# 
# From -- ./inp_files/1832.got.cif
#   From: 2010.03.12/outbox.cif.g09.slc.cpg/sg47_1_cif.got.tgz:1832.got - 2010.04.14 03:12:58.
