data_PCOD8198277
_publ_section_title
;
Structure prediction by ZEFSAII (Michael W. Deem and Ramdas Pophale) SiO2 
 PCOD8198277
Probable space group: P M M M
;
_chemical_formula_sum "Si O2"
_cell_formula_units_Z 48
_cell_length_a 9.291288
_cell_length_b 31.108664
_cell_length_c 9.081491
_cell_angle_alpha 90.000000
_cell_angle_beta 90.000000
_cell_angle_gamma 90.000000
_cell_volume 2624.910131
_symmetry_space_group_name_H-M "P M M M"
_symmetry_group_IT_number 47
_symmetry_cell_setting 'orthorhombic'
loop_
_space_group_symop_operation_xyz
x,y,z
-x,-y,z
x,-y,-z
-x,y,-z
-x,-y,-z
x,y,-z
-x,y,z
x,-y,z
loop_
_atom_site_type_symbol
_atom_site_label
_atom_site_fract_x
_atom_site_fract_y
_atom_site_fract_z
Si Si1 0.828857 0.500000 0.166262
Si Si2 0.331877 0.660762 0.829427
Si Si3 0.666591 0.747529 0.330250
Si Si4 0.334768 0.000000 0.827335
Si Si5 0.666518 0.092820 0.825339
Si Si6 0.830392 0.415126 0.670366
Si Si7 0.833906 0.168435 0.327526
O O1 0.771340 0.542165 0.249587
O O2 0.000000 0.500000 0.167375
O O3 0.768492 0.500000 0.000000
O O4 0.500000 0.652384 0.803770
O O5 0.287098 0.707226 0.768329
O O6 0.244447 0.625729 0.740330
O O7 0.289567 0.658249 0.000000
O O8 0.700523 0.736444 0.500000
O O9 0.500000 0.759141 0.307802
O O10 0.758042 0.787930 0.273757
O O11 0.272895 0.045800 0.769016
O O12 0.500000 0.000000 0.784149
O O13 0.314524 0.000000 0.000000
O O14 0.500000 0.099094 0.778406
O O15 0.764820 0.128217 0.752319
O O16 0.680547 0.096461 0.000000
O O17 0.788586 0.418538 0.500000
O O18 0.000000 0.410101 0.692744
O O19 0.810407 0.162179 0.500000
O O20 0.000000 0.171403 0.283763
#
# Coordination Sequence:
#
# PCOD8198277 Si02
#       7
#     4   8   8   4   8   8   8
#     4   9  17  31  52  77 106 139 174 214 258 301
#     4  10  21  36  54  78 107 135 165 207 258 307
#     4   9  18  34  54  72  94 130 172 209 247 296
#     4   7  12  26  48  73  98 124 160 207 252 293
#     4   9  17  31  53  77  99 127 166 210 253 298
#     4  10  20  34  54  79 106 138 176 214 252 299
#     4  10  21  35  50  72 104 137 167 203 249 300
#
# _framework density 18.286342000000001
#
# number of rings (size 3 to 8) (size 9 to 14) (size 15 to 20)
#    0.000    2.667    0.000    2.750    0.000    5.667 
#    0.000    4.583    0.000    6.500    0.000    0.000 
#    0.000    0.000    0.000    0.000    0.000    0.000 
#
# Total GULP energy -595049.335938 kJ/mol
# GULP energy per Si atom -12396.861165 kJ/mol
# Density = 1.824472 g / cm^3
# Si number density = 18.286342 Si / 1000 Ang^3
#
#
#
# Elastic Constant Matrix: (Units=GPa)
#
#
# Indices 1 2 3 4 5 6 
#
# 1 63.9656 72.1510 44.5719 0.0000 0.0000 0.0000
# 2 72.1510 186.4141 81.0270 0.0000 0.0000 0.0000
# 3 44.5719 81.0270 94.4013 0.0000 0.0000 0.0000
# 4 0.0000 0.0000 0.0000 39.1746 0.0000 0.0000
# 5 0.0000 0.0000 0.0000 0.0000 25.7756 0.0000
# 6 0.0000 0.0000 0.0000 0.0000 0.0000 48.3038
#
#
#
# Elastic Compliance Matrix: (Units=1/GPa)
#
#
# Indices 1 2 3 4 5 6 
#
# 1 0.030220 -0.008764 -0.006746 0.000000 0.000000 0.000000
# 2 -0.008764 0.011099 -0.005388 0.000000 0.000000 0.000000
# 3 -0.006746 -0.005388 0.018403 0.000000 0.000000 0.000000
# 4 0.000000 0.000000 0.000000 0.025527 0.000000 0.000000
# 5 0.000000 0.000000 0.000000 0.000000 0.038796 0.000000
# 6 0.000000 0.000000 0.000000 0.000000 0.000000 0.020702
#
#
# Mechanical properties :
#
#
# Convention : Reuss Voigt Hill
#
# Bulk Modulus (GPa) = 55.78834 82.25341 69.02087
# Shear Modulus (GPa) = 25.97160 32.45289 29.21224
#
# Velocity S-wave (km/s) = 3.77274 4.21730 4.00120
# Velocity P-wave (km/s) = 7.03935 8.29413 7.69237
#
# Compressibility (1/GPa) = 0.01792489
#
# Stress axis : x y z
#
# Youngs Moduli (GPa) = 33.09088 90.10135 54.33951
#
# Poissons Ratio (x) = 0.78968 0.36656
# Poissons Ratio (y) = 0.29002 0.29279
# Poissons Ratio (z) = 0.22322 0.48547
#
# Static dielectric constant tensor:
#      x y z
#    x 3.177160 0.000000 0.000000 
#    y 0.000000 3.672570 0.000000 
#    z 0.000000 0.000000 3.333080 
# 
# 
# High freq. dielectric constant tensor:
#      x y z
#    x 1.683680 0.000000 0.000000 
#    y 0.000000 1.730100 0.000000 
#    z 0.000000 0.000000 1.702050 
# 
# From -- ./inp_files/2583.got.cif
#   From: 2010.03.12/outbox.cif.g09.slc.cpg/sg47_2_cif.got.tgz:2583.got - 2010.04.14 03:12:58.
