data_PCOD8198061
_publ_section_title
;
Structure prediction by ZEFSAII (Michael W. Deem and Ramdas Pophale) SiO2 
 PCOD8198061
Probable space group: P M M M
;
_chemical_formula_sum "Si O2"
_cell_formula_units_Z 48
_cell_length_a 9.206716
_cell_length_b 31.324889
_cell_length_c 8.878399
_cell_angle_alpha 90.000000
_cell_angle_beta 90.000000
_cell_angle_gamma 90.000000
_cell_volume 2560.524561
_symmetry_space_group_name_H-M "P M M M"
_symmetry_group_IT_number 47
_symmetry_cell_setting 'orthorhombic'
loop_
_space_group_symop_operation_xyz
x,y,z
-x,-y,z
x,-y,-z
-x,y,-z
-x,-y,-z
x,y,-z
-x,y,z
x,-y,z
loop_
_atom_site_type_symbol
_atom_site_label
_atom_site_fract_x
_atom_site_fract_y
_atom_site_fract_z
Si Si1 0.336418 0.282318 0.179575
Si Si2 0.835253 0.799897 0.821161
Si Si3 0.833224 0.950695 0.826195
Si Si4 0.332582 0.122704 0.323843
Si Si5 0.163901 0.636557 0.180427
Si Si6 0.827371 0.545191 0.831130
O O1 0.500000 0.278980 0.241254
O O2 0.246582 0.241966 0.241418
O O3 0.265663 0.325839 0.243286
O O4 0.333643 0.282803 0.000000
O O5 0.756596 0.841776 0.763594
O O6 0.000000 0.798985 0.761062
O O7 0.831960 0.800589 0.000000
O O8 0.727962 0.923553 0.720650
O O9 0.000000 0.939090 0.790225
O O10 0.802886 0.000000 0.790228
O O11 0.799109 0.940540 0.000000
O O12 0.312451 0.129793 0.500000
O O13 0.500000 0.125687 0.275433
O O14 0.223211 0.590301 0.243694
O O15 0.000000 0.645570 0.236441
O O16 0.166450 0.635091 0.000000
O O17 0.779593 0.500000 0.749510
O O18 0.000000 0.547483 0.837092
O O19 0.765075 0.543237 0.000000
#
# Coordination Sequence:
#
# PCOD8198061 Si02
#       6
#     8   8   8   8   8   8
#     4   9  16  25  38  57  81 108 139 180 232 284
#     4  10  20  34  53  74  94 120 159 204 245 287
#     4   9  19  37  60  84 108 135 170 209 244 279
#     4  11  24  38  52  75 107 138 166 198 239 288
#     4   8  12  18  29  45  66  93 129 175 222 268
#     4   7   9  13  22  37  57  84 122 168 215 261
#
# _framework density 18.74616
#
# number of rings (size 3 to 8) (size 9 to 14) (size 15 to 20)
#    0.000    3.000    0.000    4.000    0.000    7.333 
#    0.000    2.500    0.000    0.500    0.000    3.500 
#    0.000    0.000    0.000    0.000    0.000    0.833 
#
# Total GULP energy -594749.921282 kJ/mol
# GULP energy per Si atom -12390.623360 kJ/mol
# Density = 1.870349 g / cm^3
# Si number density = 18.746160 Si / 1000 Ang^3
#
#
#
# Elastic Constant Matrix: (Units=GPa)
#
#
# Indices 1 2 3 4 5 6 
#
# 1 120.9879 71.0728 13.7490 0.0000 0.0000 0.0000
# 2 71.0728 150.8268 9.7072 0.0000 0.0000 0.0000
# 3 13.7490 9.7072 5.9891 0.0000 0.0000 0.0000
# 4 0.0000 0.0000 0.0000 -1.2309 0.0000 0.0000
# 5 0.0000 0.0000 0.0000 0.0000 14.6817 0.0000
# 6 0.0000 0.0000 0.0000 0.0000 0.0000 11.0256
#
#
#
# Elastic Compliance Matrix: (Units=1/GPa)
#
#
# Indices 1 2 3 4 5 6 
#
# 1 0.013927 -0.005030 -0.023819 0.000000 0.000000 0.000000
# 2 -0.005030 0.009219 -0.003396 0.000000 0.000000 0.000000
# 3 -0.023819 -0.003396 0.227152 0.000000 0.000000 0.000000
# 4 0.000000 0.000000 0.000000 -0.812415 0.000000 0.000000
# 5 0.000000 0.000000 0.000000 0.000000 0.068112 0.000000
# 6 0.000000 0.000000 0.000000 0.000000 0.000000 0.090698
#
#
# Mechanical properties :
#
#
# Convention : Reuss Voigt Hill
#
# Bulk Modulus (GPa) = 5.38184 51.87353 28.62769
# Shear Modulus (GPa) = -18.05810 17.11362 -0.47224
#
# Velocity S-wave (km/s) = -3.10707 3.02472 -0.50245
# Velocity P-wave (km/s) = 3.16144 6.31904 3.86882
#
# Compressibility (1/GPa) = 0.18580993
#
# Stress axis : x y z
#
# Youngs Moduli (GPa) = 71.80535 108.47534 4.40233
#
# Poissons Ratio (x) = 0.54558 0.10486
# Poissons Ratio (y) = 0.36115 0.01495
# Poissons Ratio (z) = 1.71031 0.36834
#
# Static dielectric constant tensor:
#      x y z
#    x 3.411800 0.000000 0.000000 
#    y 0.000000 3.943200 0.000000 
#    z 0.000000 0.000000 2.803690 
# 
# 
# High freq. dielectric constant tensor:
#      x y z
#    x 1.712210 0.000000 0.000000 
#    y 0.000000 1.758200 0.000000 
#    z 0.000000 0.000000 1.656770 
# 
# From -- ./inp_files/2455.got.cif
#   From: 2010.03.12/outbox.cif.g09.slc.cpg/sg47_2_cif.got.tgz:2455.got - 2010.04.14 03:12:58.
