data_PCOD8198872
_publ_section_title
;
Structure prediction by ZEFSAII (Michael W. Deem and Ramdas Pophale) SiO2 
 PCOD8198872
Probable space group: P M M M
;
_chemical_formula_sum "Si O2"
_cell_formula_units_Z 32
_cell_length_a 9.369852
_cell_length_b 10.479137
_cell_length_c 17.215671
_cell_angle_alpha 90.000000
_cell_angle_beta 90.000000
_cell_angle_gamma 90.000000
_cell_volume 1690.371663
_symmetry_space_group_name_H-M "P M M M"
_symmetry_group_IT_number 47
_symmetry_cell_setting 'orthorhombic'
loop_
_space_group_symop_operation_xyz
x,y,z
-x,-y,z
x,-y,-z
-x,y,-z
-x,-y,-z
x,y,-z
-x,y,z
x,-y,z
loop_
_atom_site_type_symbol
_atom_site_label
_atom_site_fract_x
_atom_site_fract_y
_atom_site_fract_z
Si Si1 0.332555 0.230996 0.357124
Si Si2 0.164453 0.644012 0.908790
Si Si3 0.153354 0.856781 0.500000
Si Si4 0.668018 0.145847 0.187114
Si Si5 0.333341 0.500000 0.413092
O O1 0.500000 0.208681 0.371441
O O2 0.246904 0.163859 0.424331
O O3 0.284259 0.173576 0.275143
O O4 0.288854 0.379487 0.361409
O O5 0.212026 0.500000 0.883916
O O6 0.256622 0.752912 0.868218
O O7 0.000000 0.664835 0.886187
O O8 0.187044 0.660289 0.000000
O O9 0.000000 0.780148 0.500000
O O10 0.106790 0.000000 0.500000
O O11 0.500000 0.166021 0.177601
O O12 0.711128 0.000000 0.165598
O O13 0.500000 0.500000 0.427878
O O14 0.261445 0.500000 0.500000
#
# Coordination Sequence:
#
# PCOD8198872 Si02
#       5
#     8   8   4   8   4
#     4  10  20  36  57  79 108 145 185 228 278 336
#     4   9  20  40  63  86 114 150 191 231 277 340
#     4  11  23  36  51  74 106 145 188 233 280 327
#     4  10  22  37  56  87 120 150 189 235 283 339
#     4   9  16  30  54  82 103 130 179 233 276 320
#
# _framework density 18.930748999999999
#
# number of rings (size 3 to 8) (size 9 to 14) (size 15 to 20)
#    0.000    2.250    1.250    1.875    1.750    5.000 
#    0.000    5.000    0.000    0.000    0.000    0.000 
#    0.000    0.000    0.000    0.000    0.000    0.000 
#
# Total GULP energy -396600.288633 kJ/mol
# GULP energy per Si atom -12393.759020 kJ/mol
# Density = 1.888766 g / cm^3
# Si number density = 18.930749 Si / 1000 Ang^3
#
#
#
# Elastic Constant Matrix: (Units=GPa)
#
#
# Indices 1 2 3 4 5 6 
#
# 1 59.0578 52.8626 47.2499 0.0000 0.0000 0.0000
# 2 52.8626 158.1083 66.8270 0.0000 0.0000 0.0000
# 3 47.2499 66.8270 90.7418 0.0000 0.0000 0.0000
# 4 0.0000 0.0000 0.0000 28.8902 0.0000 0.0000
# 5 0.0000 0.0000 0.0000 0.0000 -43.5120 0.0000
# 6 0.0000 0.0000 0.0000 0.0000 0.0000 29.4273
#
#
#
# Elastic Compliance Matrix: (Units=1/GPa)
#
#
# Indices 1 2 3 4 5 6 
#
# 1 0.031789 -0.005274 -0.012669 0.000000 0.000000 0.000000
# 2 -0.005274 0.010058 -0.004661 0.000000 0.000000 0.000000
# 3 -0.012669 -0.004661 0.021050 0.000000 0.000000 0.000000
# 4 0.000000 0.000000 0.000000 0.034614 0.000000 0.000000
# 5 0.000000 0.000000 0.000000 0.000000 -0.022982 0.000000
# 6 0.000000 0.000000 0.000000 0.000000 0.000000 0.033982
#
#
# Mechanical properties :
#
#
# Convention : Reuss Voigt Hill
#
# Bulk Modulus (GPa) = 56.53172 71.30967 63.92070
# Shear Modulus (GPa) = 31.32537 12.35899 21.84218
#
# Velocity S-wave (km/s) = 4.07226 2.55787 3.40044
# Velocity P-wave (km/s) = 7.21375 6.81719 7.01827
#
# Compressibility (1/GPa) = 0.01768918
#
# Stress axis : x y z
#
# Youngs Moduli (GPa) = 31.45743 99.42138 47.50625
#
# Poissons Ratio (x) = 0.52433 0.60185
# Poissons Ratio (y) = 0.16590 0.22144
# Poissons Ratio (z) = 0.39853 0.46343
#
# Static dielectric constant tensor:
#      x y z
#    x 3.305510 0.000000 0.000000 
#    y 0.000000 3.999350 0.000000 
#    z 0.000000 0.000000 3.326610 
# 
# 
# High freq. dielectric constant tensor:
#      x y z
#    x 1.719890 0.000000 0.000000 
#    y 0.000000 1.750260 0.000000 
#    z 0.000000 0.000000 1.732280 
# 
# From -- ./inp_files/5230.got.cif
#   From: 2010.03.12/outbox.cif.g09.slc.cpg/sg47_3_cif.got.tgz:5230.got - 2010.04.14 03:12:58.
