data_PCOD8198005
_publ_section_title
;
Structure prediction by ZEFSAII (Michael W. Deem and Ramdas Pophale) SiO2 
 PCOD8198005
Probable space group: P M M M
;
_chemical_formula_sum "Si O2"
_cell_formula_units_Z 36
_cell_length_a 7.845242
_cell_length_b 24.587544
_cell_length_c 9.821174
_cell_angle_alpha 90.000000
_cell_angle_beta 90.000000
_cell_angle_gamma 90.000000
_cell_volume 1894.457646
_symmetry_space_group_name_H-M "P M M M"
_symmetry_group_IT_number 47
_symmetry_cell_setting 'orthorhombic'
loop_
_space_group_symop_operation_xyz
x,y,z
-x,-y,z
x,-y,-z
-x,y,-z
-x,-y,-z
x,y,-z
-x,y,z
x,-y,z
loop_
_atom_site_type_symbol
_atom_site_label
_atom_site_fract_x
_atom_site_fract_y
_atom_site_fract_z
Si Si1 0.309405 0.134614 0.843493
Si Si2 0.702707 0.560228 0.152691
Si Si3 0.804239 0.772728 0.655343
Si Si4 0.298329 0.345947 0.654283
Si Si5 0.000000 0.060559 0.161375
O O1 0.500000 0.109587 0.830960
O O2 0.304051 0.188945 0.753787
O O3 0.171004 0.091269 0.788550
O O4 0.268833 0.150184 0.000000
O O5 0.500000 0.561437 0.158398
O O6 0.766765 0.500000 0.196641
O O7 0.778535 0.605608 0.253717
O O8 0.765895 0.573252 0.000000
O O9 0.737725 0.778986 0.500000
O O10 0.781898 0.710722 0.704024
O O11 0.000000 0.789987 0.666873
O O12 0.243222 0.358544 0.500000
O O13 0.500000 0.341573 0.668870
O O14 0.000000 0.000000 0.225231
O O15 0.000000 0.056489 0.000000
#
# Coordination Sequence:
#
# PCOD8198005 Si02
#       5
#     8   8   8   8   4
#     4  10  20  34  55  82 109 140 179 220 263 312
#     4   8  14  25  41  62  89 120 155 199 252 308
#     4  10  20  34  52  73 101 138 175 214 265 319
#     4   9  17  28  43  66  93 120 157 205 254 308
#     4   9  18  34  55  81 115 147 176 217 262 305
#
# _framework density 19.002801000000002
#
# number of rings (size 3 to 8) (size 9 to 14) (size 15 to 20)
#    0.000    2.778    1.111    1.333    0.000    3.111 
#    0.000    6.667    0.000    2.000    0.000    6.222 
#    0.000    0.000    0.000    0.000    0.000    0.000 
#
# Total GULP energy -446314.167650 kJ/mol
# GULP energy per Si atom -12397.615768 kJ/mol
# Density = 1.895955 g / cm^3
# Si number density = 19.002801 Si / 1000 Ang^3
#
#
#
# Elastic Constant Matrix: (Units=GPa)
#
#
# Indices 1 2 3 4 5 6 
#
# 1 73.5711 45.3526 25.7837 0.0000 0.0000 0.0000
# 2 45.3526 146.5677 73.3303 0.0000 0.0000 0.0000
# 3 25.7837 73.3303 73.8075 0.0000 0.0000 0.0000
# 4 0.0000 0.0000 0.0000 19.1017 0.0000 0.0000
# 5 0.0000 0.0000 0.0000 0.0000 13.8359 0.0000
# 6 0.0000 0.0000 0.0000 0.0000 0.0000 23.5273
#
#
#
# Elastic Compliance Matrix: (Units=1/GPa)
#
#
# Indices 1 2 3 4 5 6 
#
# 1 0.016869 -0.004517 -0.001406 0.000000 0.000000 0.000000
# 2 -0.004517 0.014776 -0.013102 0.000000 0.000000 0.000000
# 3 -0.001406 -0.013102 0.027057 0.000000 0.000000 0.000000
# 4 0.000000 0.000000 0.000000 0.052351 0.000000 0.000000
# 5 0.000000 0.000000 0.000000 0.000000 0.072276 0.000000
# 6 0.000000 0.000000 0.000000 0.000000 0.000000 0.042504
#
#
# Mechanical properties :
#
#
# Convention : Reuss Voigt Hill
#
# Bulk Modulus (GPa) = 48.41880 64.76438 56.59159
# Shear Modulus (GPa) = 18.46610 21.25830 19.86220
#
# Velocity S-wave (km/s) = 3.12068 3.34832 3.23650
# Velocity P-wave (km/s) = 6.20645 7.00741 6.61906
#
# Compressibility (1/GPa) = 0.02065313
#
# Stress axis : x y z
#
# Youngs Moduli (GPa) = 59.27984 67.67886 36.95850
#
# Poissons Ratio (x) = 0.30568 0.05195
# Poissons Ratio (y) = 0.26774 0.48424
# Poissons Ratio (z) = 0.08333 0.88675
#
# Static dielectric constant tensor:
#      x y z
#    x 3.324330 0.000000 0.000000 
#    y 0.000000 3.604790 0.000000 
#    z 0.000000 0.000000 3.451410 
# 
# 
# High freq. dielectric constant tensor:
#      x y z
#    x 1.728980 0.000000 0.000000 
#    y 0.000000 1.733550 0.000000 
#    z 0.000000 0.000000 1.718970 
# 
# From -- ./inp_files/1445.got.cif
#   From: 2010.03.12/outbox.cif.g09.slc.cpg/sg47_1_cif.got.tgz:1445.got - 2010.04.14 03:12:58.
