data_PCOD8198345
_publ_section_title
;
Structure prediction by ZEFSAII (Michael W. Deem and Ramdas Pophale) SiO2 
 PCOD8198345
Probable space group: P M M M
;
_chemical_formula_sum "Si O2"
_cell_formula_units_Z 48
_cell_length_a 9.039699
_cell_length_b 8.744926
_cell_length_c 30.654103
_cell_angle_alpha 90.000000
_cell_angle_beta 90.000000
_cell_angle_gamma 90.000000
_cell_volume 2423.252787
_symmetry_space_group_name_H-M "P M M M"
_symmetry_group_IT_number 47
_symmetry_cell_setting 'orthorhombic'
loop_
_space_group_symop_operation_xyz
x,y,z
-x,-y,z
x,-y,-z
-x,y,-z
-x,-y,-z
x,y,-z
-x,y,z
x,-y,z
loop_
_atom_site_type_symbol
_atom_site_label
_atom_site_fract_x
_atom_site_fract_y
_atom_site_fract_z
Si Si1 0.672590 0.177433 0.837868
Si Si2 0.324445 0.672475 0.587989
Si Si3 0.171870 0.322483 0.241788
Si Si4 0.829780 0.321160 0.081381
Si Si5 0.169795 0.176350 0.332278
Si Si6 0.676189 0.827524 0.500000
Si Si7 0.333646 0.819566 0.000000
O O1 0.500000 0.214532 0.841306
O O2 0.729396 0.221285 0.790165
O O3 0.758304 0.279519 0.872670
O O4 0.704686 0.000000 0.846972
O O5 0.500000 0.675492 0.588185
O O6 0.264402 0.500000 0.593105
O O7 0.269236 0.776542 0.627232
O O8 0.263187 0.740867 0.542675
O O9 0.207212 0.500000 0.234389
O O10 0.216364 0.277179 0.290753
O O11 0.000000 0.285823 0.232971
O O12 0.813214 0.500000 0.072973
O O13 0.749049 0.233641 0.042957
O O14 0.000000 0.270529 0.082034
O O15 0.000000 0.206776 0.344699
O O16 0.198383 0.000000 0.320810
O O17 0.500000 0.827746 0.500000
O O18 0.738024 0.000000 0.500000
O O19 0.500000 0.752732 0.000000
O O20 0.337867 0.000000 0.000000
#
# Coordination Sequence:
#
# PCOD8198345 Si02
#       7
#     8   8   8   8   8   4   4
#     4  11  24  40  59  86 118 151 189 233 281 333
#     4  10  20  34  54  80 109 142 181 225 274 329
#     4  10  21  38  60  84 110 144 186 229 276 333
#     4  11  24  41  62  89 119 153 195 238 282 337
#     4  10  21  37  57  81 110 145 184 227 277 331
#     4   9  17  31  52  77 106 141 180 224 274 327
#     4  11  24  41  62  90 122 155 194 239 286 336
#
# _framework density 19.808085999999999
#
# number of rings (size 3 to 8) (size 9 to 14) (size 15 to 20)
#    0.000    1.667    0.000    4.250    0.000   13.000 
#    0.000    0.417    0.000    2.500    0.000    0.000 
#    0.000    0.000    0.000    0.000    0.000    0.000 
#
# Total GULP energy -595481.974791 kJ/mol
# GULP energy per Si atom -12405.874475 kJ/mol
# Density = 1.976300 g / cm^3
# Si number density = 19.808086 Si / 1000 Ang^3
#
#
#
# Elastic Constant Matrix: (Units=GPa)
#
#
# Indices 1 2 3 4 5 6 
#
# 1 83.8346 39.3088 46.1596 0.0000 0.0000 0.0000
# 2 39.3088 70.8699 25.1544 0.0000 0.0000 0.0000
# 3 46.1596 25.1544 117.1798 0.0000 0.0000 0.0000
# 4 0.0000 0.0000 0.0000 44.1892 0.0000 0.0000
# 5 0.0000 0.0000 0.0000 0.0000 32.4597 0.0000
# 6 0.0000 0.0000 0.0000 0.0000 0.0000 28.3391
#
#
#
# Elastic Compliance Matrix: (Units=1/GPa)
#
#
# Indices 1 2 3 4 5 6 
#
# 1 0.019066 -0.008562 -0.005673 0.000000 0.000000 0.000000
# 2 -0.008562 0.019119 -0.000731 0.000000 0.000000 0.000000
# 3 -0.005673 -0.000731 0.010925 0.000000 0.000000 0.000000
# 4 0.000000 0.000000 0.000000 0.022630 0.000000 0.000000
# 5 0.000000 0.000000 0.000000 0.000000 0.030807 0.000000
# 6 0.000000 0.000000 0.000000 0.000000 0.000000 0.035287
#
#
# Mechanical properties :
#
#
# Convention : Reuss Voigt Hill
#
# Bulk Modulus (GPa) = 52.14125 54.79221 53.46673
# Shear Modulus (GPa) = 28.70931 31.74838 30.22885
#
# Velocity S-wave (km/s) = 3.81119 4.00784 3.91075
# Velocity P-wave (km/s) = 6.76367 7.00990 6.88789
#
# Compressibility (1/GPa) = 0.01917867
#
# Stress axis : x y z
#
# Youngs Moduli (GPa) = 52.44904 52.30424 91.52902
#
# Poissons Ratio (x) = 0.44782 0.51921
# Poissons Ratio (y) = 0.44906 0.06695
# Poissons Ratio (z) = 0.29752 0.03826
#
# Static dielectric constant tensor:
#      x y z
#    x 3.552810 0.000000 0.000000 
#    y 0.000000 3.768070 0.000000 
#    z 0.000000 0.000000 3.648130 
# 
# 
# High freq. dielectric constant tensor:
#      x y z
#    x 1.761570 0.000000 0.000000 
#    y 0.000000 1.787840 0.000000 
#    z 0.000000 0.000000 1.787400 
# 
# From -- ./inp_files/34043.got.cif
#   From: 2010.03.12/outbox.cif.g09.slc.cpg/sg47_18_cif.got.tgz:34043.got - 2010.04.14 03:12:58.
