data_PCOD8198412
_publ_section_title
;
Structure prediction by ZEFSAII (Michael W. Deem and Ramdas Pophale) SiO2 
 PCOD8198412
Probable space group: P M M M
;
_chemical_formula_sum "Si O2"
_cell_formula_units_Z 52
_cell_length_a 11.902676
_cell_length_b 7.993205
_cell_length_c 29.891630
_cell_angle_alpha 90.000000
_cell_angle_beta 90.000000
_cell_angle_gamma 90.000000
_cell_volume 2843.905500
_symmetry_space_group_name_H-M "P M M M"
_symmetry_group_IT_number 47
_symmetry_cell_setting 'orthorhombic'
loop_
_space_group_symop_operation_xyz
x,y,z
-x,-y,z
x,-y,-z
-x,y,-z
-x,-y,-z
x,y,-z
-x,y,z
x,-y,z
loop_
_atom_site_type_symbol
_atom_site_label
_atom_site_fract_x
_atom_site_fract_y
_atom_site_fract_z
Si Si1 0.261277 0.807324 0.949635
Si Si2 0.126822 0.309292 0.132132
Si Si3 0.500000 0.799485 0.180339
Si Si4 0.865905 0.000000 0.550654
Si Si5 0.871832 0.199045 0.296893
Si Si6 0.500000 0.306648 0.920219
Si Si7 0.133498 0.313483 0.607122
Si Si8 0.265151 0.191526 0.786128
O O1 0.185769 0.700369 0.916005
O O2 0.392490 0.781944 0.941117
O O3 0.231230 0.000000 0.942062
O O4 0.231835 0.750521 0.000000
O O5 0.127916 0.500000 0.148174
O O6 0.193699 0.203221 0.168590
O O7 0.000000 0.240148 0.128622
O O8 0.500000 0.710747 0.132848
O O9 0.389968 0.733860 0.206828
O O10 0.500000 0.000000 0.173608
O O11 0.818600 0.831380 0.574449
O O12 0.821299 0.000000 0.500000
O O13 0.000000 0.000000 0.552301
O O14 0.824533 0.279433 0.342477
O O15 0.798183 0.275034 0.256052
O O16 0.000000 0.254116 0.287959
O O17 0.864185 0.000000 0.301083
O O18 0.500000 0.500000 0.933682
O O19 0.173548 0.500000 0.591932
O O20 0.000000 0.303009 0.606376
O O21 0.279332 0.000000 0.773718
#
# Coordination Sequence:
#
# PCOD8198412 Si02
#       8
#     8   8   4   4   8   4   8   8
#     4  11  24  41  61  82 103 131 168 207 248 300
#     4  11  24  39  55  78 108 136 165 207 255 304
#     4  10  20  35  55  80 108 135 166 205 251 304
#     4   9  16  26  40  60  92 133 177 223 262 304
#     4   9  16  28  46  68  96 132 174 215 256 304
#     4  12  23  37  60  85 108 132 160 200 251 305
#     4   9  16  26  41  62  91 129 172 218 264 307
#     4  10  20  34  55  78 103 137 172 209 254 306
#
# _framework density 18.284714000000001
#
# number of rings (size 3 to 8) (size 9 to 14) (size 15 to 20)
#    0.000    1.923    2.308    2.308    0.000    5.231 
#    0.000    4.615    0.000    0.000    0.000    0.000 
#    0.000    0.000    0.000    1.385    0.000    2.615 
#
# Total GULP energy -644738.255082 kJ/mol
# GULP energy per Si atom -12398.812598 kJ/mol
# Density = 1.824310 g / cm^3
# Si number density = 18.284714 Si / 1000 Ang^3
#
#
#
# Elastic Constant Matrix: (Units=GPa)
#
#
# Indices 1 2 3 4 5 6 
#
# 1 90.7877 10.4277 39.7505 0.0000 0.0000 0.0000
# 2 10.4277 58.7411 38.7255 0.0000 0.0000 0.0000
# 3 39.7505 38.7255 137.8585 0.0000 0.0000 0.0000
# 4 0.0000 0.0000 0.0000 12.9617 0.0000 0.0000
# 5 0.0000 0.0000 0.0000 0.0000 11.8813 0.0000
# 6 0.0000 0.0000 0.0000 0.0000 0.0000 13.4838
#
#
#
# Elastic Compliance Matrix: (Units=1/GPa)
#
#
# Indices 1 2 3 4 5 6 
#
# 1 0.012608 0.000195 -0.003690 0.000000 0.000000 0.000000
# 2 0.000195 0.020896 -0.005926 0.000000 0.000000 0.000000
# 3 -0.003690 -0.005926 0.009982 0.000000 0.000000 0.000000
# 4 0.000000 0.000000 0.000000 0.077150 0.000000 0.000000
# 5 0.000000 0.000000 0.000000 0.000000 0.084166 0.000000
# 6 0.000000 0.000000 0.000000 0.000000 0.000000 0.074163
#
#
# Mechanical properties :
#
#
# Convention : Reuss Voigt Hill
#
# Bulk Modulus (GPa) = 40.57854 51.68829 46.13341
# Shear Modulus (GPa) = 16.33864 20.89761 18.61813
#
# Velocity S-wave (km/s) = 2.99250 3.38435 3.19444
# Velocity P-wave (km/s) = 5.84644 6.60316 6.23629
#
# Compressibility (1/GPa) = 0.02464357
#
# Stress axis : x y z
#
# Youngs Moduli (GPa) = 79.31452 47.85590 100.17561
#
# Poissons Ratio (x) = -0.00931 0.36966
# Poissons Ratio (y) = -0.01543 0.59364
# Poissons Ratio (z) = 0.29268 0.28359
#
# Static dielectric constant tensor:
#      x y z
#    x 3.226710 0.000000 0.000000 
#    y 0.000000 3.352560 0.000000 
#    z 0.000000 0.000000 3.458870 
# 
# 
# High freq. dielectric constant tensor:
#      x y z
#    x 1.669940 0.000000 0.000000 
#    y 0.000000 1.710870 0.000000 
#    z 0.000000 0.000000 1.704130 
# 
# From -- ./inp_files/33673.got.cif
#   From: 2010.03.12/outbox.cif.g09.slc.cpg/sg47_17_cif.got.tgz:33673.got - 2010.04.14 03:12:58.
