data_PCOD8198101
_publ_section_title
;
Structure prediction by ZEFSAII (Michael W. Deem and Ramdas Pophale) SiO2 
 PCOD8198101
Probable space group: P M M M
;
_chemical_formula_sum "Si O2"
_cell_formula_units_Z 44
_cell_length_a 8.113813
_cell_length_b 30.543800
_cell_length_c 9.163322
_cell_angle_alpha 90.000000
_cell_angle_beta 90.000000
_cell_angle_gamma 90.000000
_cell_volume 2270.915683
_symmetry_space_group_name_H-M "P M M M"
_symmetry_group_IT_number 47
_symmetry_cell_setting 'orthorhombic'
loop_
_space_group_symop_operation_xyz
x,y,z
-x,-y,z
x,-y,-z
-x,y,-z
-x,-y,-z
x,y,-z
-x,y,z
x,-y,z
loop_
_atom_site_type_symbol
_atom_site_label
_atom_site_fract_x
_atom_site_fract_y
_atom_site_fract_z
Si Si1 0.690465 0.136690 0.665756
Si Si2 0.313262 0.394925 0.670283
Si Si3 0.193389 0.688539 0.170175
Si Si4 0.000000 0.451030 0.673074
Si Si5 0.806143 0.953072 0.666971
Si Si6 0.808344 0.772876 0.662812
O O1 0.757375 0.133069 0.500000
O O2 0.500000 0.145530 0.673174
O O3 0.732321 0.090341 0.746066
O O4 0.774174 0.179610 0.737446
O O5 0.285660 0.385320 0.500000
O O6 0.500000 0.413696 0.697032
O O7 0.296883 0.349839 0.756229
O O8 0.169309 0.427698 0.727338
O O9 0.261871 0.734117 0.236491
O O10 0.000000 0.681457 0.202103
O O11 0.231595 0.689054 0.000000
O O12 0.000000 0.500000 0.738721
O O13 0.000000 0.452835 0.500000
O O14 0.745044 0.953707 0.500000
O O15 0.000000 0.949383 0.676417
O O16 0.749482 0.000000 0.738210
O O17 0.727758 0.770858 0.500000
O O18 0.000000 0.765519 0.649057
#
# Coordination Sequence:
#
# PCOD8198101 Si02
#       6
#     8   8   8   4   8   8
#     4   9  16  24  35  54  81 112 148 191 236 284
#     4  10  20  34  56  84 112 145 182 218 260 311
#     4  10  20  34  53  76 103 136 174 217 264 311
#     4   9  18  34  57  85 117 147 177 221 266 303
#     4   8  13  21  33  49  72 105 143 181 225 281
#     4   9  17  29  46  66  91 126 164 202 246 299
#
# _framework density 19.375444999999999
#
# number of rings (size 3 to 8) (size 9 to 14) (size 15 to 20)
#    0.000    2.818    0.909    1.636    0.000    4.727 
#    0.000    5.455    0.000    1.091    0.000    1.273 
#    0.000    0.727    0.000    8.364    0.000   10.727 
#
# Total GULP energy -545109.460644 kJ/mol
# GULP energy per Si atom -12388.851378 kJ/mol
# Density = 1.933135 g / cm^3
# Si number density = 19.375445 Si / 1000 Ang^3
#
#
#
# Elastic Constant Matrix: (Units=GPa)
#
#
# Indices 1 2 3 4 5 6 
#
# 1 77.4030 58.5155 23.3733 0.0000 0.0000 0.0000
# 2 58.5155 185.4031 36.9601 0.0000 0.0000 0.0000
# 3 23.3733 36.9601 38.4649 0.0000 0.0000 0.0000
# 4 0.0000 0.0000 0.0000 0.5692 0.0000 0.0000
# 5 0.0000 0.0000 0.0000 0.0000 11.1493 0.0000
# 6 0.0000 0.0000 0.0000 0.0000 0.0000 17.7336
#
#
#
# Elastic Compliance Matrix: (Units=1/GPa)
#
#
# Indices 1 2 3 4 5 6 
#
# 1 0.018340 -0.004412 -0.006905 0.000000 0.000000 0.000000
# 2 -0.004412 0.007733 -0.004750 0.000000 0.000000 0.000000
# 3 -0.006905 -0.004750 0.034757 0.000000 0.000000 0.000000
# 4 0.000000 0.000000 0.000000 1.756949 0.000000 0.000000
# 5 0.000000 0.000000 0.000000 0.000000 0.089692 0.000000
# 6 0.000000 0.000000 0.000000 0.000000 0.000000 0.056390
#
#
# Mechanical properties :
#
#
# Convention : Reuss Voigt Hill
#
# Bulk Modulus (GPa) = 34.84650 59.88542 47.36596
# Shear Modulus (GPa) = 2.49307 18.05188 10.27247
#
# Velocity S-wave (km/s) = 1.13557 3.05567 2.30506
# Velocity P-wave (km/s) = 4.44334 6.58972 5.61995
#
# Compressibility (1/GPa) = 0.02869728
#
# Stress axis : x y z
#
# Youngs Moduli (GPa) = 54.52650 129.31812 28.77087
#
# Poissons Ratio (x) = 0.57052 0.19866
# Poissons Ratio (y) = 0.24056 0.13665
# Poissons Ratio (z) = 0.37651 0.61420
#
# Static dielectric constant tensor:
#      x y z
#    x 3.427230 0.000000 0.000000 
#    y 0.000000 3.962250 0.000000 
#    z 0.000000 0.000000 3.009350 
# 
# 
# High freq. dielectric constant tensor:
#      x y z
#    x 1.748330 0.000000 0.000000 
#    y 0.000000 1.774260 0.000000 
#    z 0.000000 0.000000 1.677270 
# 
# From -- ./inp_files/2208.got.cif
#   From: 2010.03.12/outbox.cif.g09.slc.cpg/sg47_2_cif.got.tgz:2208.got - 2010.04.14 03:12:58.
