data_PCOD8198641
_publ_section_title
;
Structure prediction by ZEFSAII (Michael W. Deem and Ramdas Pophale) SiO2 
 PCOD8198641
Probable space group: P M M M
;
_chemical_formula_sum "Si O2"
_cell_formula_units_Z 64
_cell_length_a 9.580885
_cell_length_b 25.382104
_cell_length_c 14.447250
_cell_angle_alpha 90.000000
_cell_angle_beta 90.000000
_cell_angle_gamma 90.000000
_cell_volume 3513.325878
_symmetry_space_group_name_H-M "P M M M"
_symmetry_group_IT_number 47
_symmetry_cell_setting 'orthorhombic'
loop_
_space_group_symop_operation_xyz
x,y,z
-x,-y,z
x,-y,-z
-x,y,-z
-x,-y,-z
x,y,-z
-x,y,z
x,-y,z
loop_
_atom_site_type_symbol
_atom_site_label
_atom_site_fract_x
_atom_site_fract_y
_atom_site_fract_z
Si Si1 0.334444 0.940892 0.597525
Si Si2 0.338532 0.440235 0.207815
Si Si3 0.662114 0.062218 0.797577
Si Si4 0.837030 0.647927 0.891604
Si Si5 0.159732 0.855217 0.106962
Si Si6 0.163429 0.753098 0.207087
Si Si7 0.161374 0.288555 0.602027
Si Si8 0.659513 0.391240 0.602365
O O1 0.286294 0.912289 0.500000
O O2 0.500000 0.943186 0.600862
O O3 0.286611 0.916025 0.695603
O O4 0.275373 0.000000 0.594049
O O5 0.500000 0.427984 0.186076
O O6 0.300488 0.500000 0.181547
O O7 0.244495 0.402588 0.145728
O O8 0.308283 0.433469 0.317725
O O9 0.500000 0.074750 0.814630
O O10 0.752412 0.092242 0.873681
O O11 0.689752 0.000000 0.806391
O O12 0.777160 0.700269 0.841213
O O13 0.000000 0.639650 0.869588
O O14 0.809219 0.654146 0.000000
O O15 0.227441 0.806118 0.163184
O O16 0.000000 0.865929 0.136255
O O17 0.170759 0.840663 0.000000
O O18 0.198121 0.753126 0.317154
O O19 0.000000 0.754482 0.186151
O O20 0.196077 0.264667 0.500000
O O21 0.246406 0.340913 0.621306
O O22 0.000000 0.304639 0.608997
O O23 0.691264 0.415431 0.500000
O O24 0.500000 0.372106 0.607590
#
# Coordination Sequence:
#
# PCOD8198641 Si02
#       8
#     8   8   8   8   8   8   8   8
#     4   7  10  20  42  70  96 124 160 197 233 281
#     4  10  21  35  50  72 104 138 169 205 253 306
#     4   9  18  33  53  77 105 136 169 208 254 299
#     4  10  20  35  56  77  95 124 170 218 260 302
#     4  10  21  36  53  73  99 134 174 213 254 301
#     4   9  17  33  55  76  99 128 163 205 251 300
#     4   9  16  28  51  79 102 127 161 201 249 304
#     4   9  17  30  49  73 101 133 168 204 243 293
#
# _framework density 18.216356999999999
#
# number of rings (size 3 to 8) (size 9 to 14) (size 15 to 20)
#    0.000    2.875    1.250    1.500    0.000    3.250 
#    0.000    5.625    0.000    2.625    0.000    4.375 
#    0.000    0.000    0.000    0.000    0.000    0.000 
#
# Total GULP energy -792975.652057 kJ/mol
# GULP energy per Si atom -12390.244563 kJ/mol
# Density = 1.817490 g / cm^3
# Si number density = 18.216357 Si / 1000 Ang^3
#
#
#
# Elastic Constant Matrix: (Units=GPa)
#
#
# Indices 1 2 3 4 5 6 
#
# 1 44.8929 39.0549 36.9813 0.0000 0.0000 0.0000
# 2 39.0549 90.0599 53.1004 0.0000 0.0000 0.0000
# 3 36.9813 53.1004 111.0639 0.0000 0.0000 0.0000
# 4 0.0000 0.0000 0.0000 27.7383 0.0000 0.0000
# 5 0.0000 0.0000 0.0000 0.0000 23.5112 0.0000
# 6 0.0000 0.0000 0.0000 0.0000 0.0000 -54.2834
#
#
#
# Elastic Compliance Matrix: (Units=1/GPa)
#
#
# Indices 1 2 3 4 5 6 
#
# 1 0.039193 -0.012953 -0.006857 0.000000 0.000000 0.000000
# 2 -0.012953 0.019744 -0.005127 0.000000 0.000000 0.000000
# 3 -0.006857 -0.005127 0.013738 0.000000 0.000000 0.000000
# 4 0.000000 0.000000 0.000000 0.036051 0.000000 0.000000
# 5 0.000000 0.000000 0.000000 0.000000 0.042533 0.000000
# 6 0.000000 0.000000 0.000000 0.000000 0.000000 -0.018422
#
#
# Mechanical properties :
#
#
# Convention : Reuss Voigt Hill
#
# Bulk Modulus (GPa) = 43.85805 56.03221 49.94513
# Shear Modulus (GPa) = 26.27291 7.18521 16.72906
#
# Velocity S-wave (km/s) = 3.80184 1.98820 3.03372
# Velocity P-wave (km/s) = 6.58790 6.00805 6.30465
#
# Compressibility (1/GPa) = 0.02280083
#
# Stress axis : x y z
#
# Youngs Moduli (GPa) = 25.51507 50.64957 72.79027
#
# Poissons Ratio (x) = 0.65606 0.49913
# Poissons Ratio (y) = 0.33050 0.37316
# Poissons Ratio (z) = 0.17496 0.25966
#
# Static dielectric constant tensor:
#      x y z
#    x 3.084760 0.000000 0.000000 
#    y 0.000000 3.139710 0.000000 
#    z 0.000000 0.000000 3.769200 
# 
# 
# High freq. dielectric constant tensor:
#      x y z
#    x 1.673930 0.000000 0.000000 
#    y 0.000000 1.677750 0.000000 
#    z 0.000000 0.000000 1.728980 
# 
# From -- ./inp_files/21925.got.cif
#   From: 2010.03.12/outbox.cif.g09.slc.cpg/sg47_11_cif.got.tgz:21925.got - 2010.04.14 03:12:58.
