data_PCOD8198079
_publ_section_title
;
Structure prediction by ZEFSAII (Michael W. Deem and Ramdas Pophale) SiO2 
 PCOD8198079
Probable space group: P M M M
;
_chemical_formula_sum "Si O2"
_cell_formula_units_Z 36
_cell_length_a 16.154309
_cell_length_b 13.508880
_cell_length_c 9.055475
_cell_angle_alpha 90.000000
_cell_angle_beta 90.000000
_cell_angle_gamma 90.000000
_cell_volume 1976.145718
_symmetry_space_group_name_H-M "P M M M"
_symmetry_group_IT_number 47
_symmetry_cell_setting 'orthorhombic'
loop_
_space_group_symop_operation_xyz
x,y,z
-x,-y,z
x,-y,-z
-x,y,-z
-x,-y,-z
x,y,-z
-x,y,z
x,-y,z
loop_
_atom_site_type_symbol
_atom_site_label
_atom_site_fract_x
_atom_site_fract_y
_atom_site_fract_z
Si Si1 0.742788 0.610370 0.829413
Si Si2 0.000000 0.114695 0.675230
Si Si3 0.839522 0.198209 0.826289
Si Si4 0.592157 0.699636 0.327338
Si Si5 0.689942 0.889830 0.668567
O O1 0.776871 0.500000 0.796391
O O2 0.812336 0.689854 0.781244
O O3 0.656409 0.624352 0.745266
O O4 0.722008 0.625798 0.000000
O O5 0.078611 0.171589 0.738438
O O6 0.000000 0.122755 0.500000
O O7 0.000000 0.000000 0.726031
O O8 0.767391 0.123714 0.777262
O O9 0.855899 0.187313 0.000000
O O10 0.593079 0.678516 0.500000
O O11 0.500000 0.682206 0.263101
O O12 0.617574 0.812898 0.291980
O O13 0.720696 0.873907 0.500000
O O14 0.653996 0.000000 0.690945
#
# Coordination Sequence:
#
# PCOD8198079 Si02
#       5
#     8   4   8   8   8
#     4   9  19  36  55  73  96 129 166 203 247 296
#     4  11  23  37  54  77 106 136 161 189 232 287
#     4  10  20  34  53  76 100 127 163 205 244 285
#     4   9  18  31  47  71 101 130 165 209 250 290
#     4   9  17  30  48  69  97 134 169 201 244 296
#
# _framework density 18.217281
#
# number of rings (size 3 to 8) (size 9 to 14) (size 15 to 20)
#    0.000    2.556    0.000    1.667    0.000    6.667 
#    0.000    5.000    0.000    3.333    0.000    6.222 
#    0.000    0.000    0.000    0.000    0.000    0.000 
#
# Total GULP energy -446362.443993 kJ/mol
# GULP energy per Si atom -12398.956778 kJ/mol
# Density = 1.817582 g / cm^3
# Si number density = 18.217281 Si / 1000 Ang^3
#
#
#
# Elastic Constant Matrix: (Units=GPa)
#
#
# Indices 1 2 3 4 5 6 
#
# 1 120.2389 45.9926 42.4220 0.0000 0.0000 0.0000
# 2 45.9926 114.5027 31.8625 0.0000 0.0000 0.0000
# 3 42.4220 31.8625 53.0969 0.0000 0.0000 0.0000
# 4 0.0000 0.0000 0.0000 25.3353 0.0000 0.0000
# 5 0.0000 0.0000 0.0000 0.0000 17.6302 0.0000
# 6 0.0000 0.0000 0.0000 0.0000 0.0000 14.5136
#
#
#
# Elastic Compliance Matrix: (Units=1/GPa)
#
#
# Indices 1 2 3 4 5 6 
#
# 1 0.012206 -0.002628 -0.008175 0.000000 0.000000 0.000000
# 2 -0.002628 0.011050 -0.004531 0.000000 0.000000 0.000000
# 3 -0.008175 -0.004531 0.028084 0.000000 0.000000 0.000000
# 4 0.000000 0.000000 0.000000 0.039471 0.000000 0.000000
# 5 0.000000 0.000000 0.000000 0.000000 0.056721 0.000000
# 6 0.000000 0.000000 0.000000 0.000000 0.000000 0.068901
#
#
# Mechanical properties :
#
#
# Convention : Reuss Voigt Hill
#
# Bulk Modulus (GPa) = 48.37572 58.71031 53.54301
# Shear Modulus (GPa) = 19.68562 22.66658 21.17610
#
# Velocity S-wave (km/s) = 3.29082 3.53120 3.41312
# Velocity P-wave (km/s) = 6.40717 6.99454 6.70729
#
# Compressibility (1/GPa) = 0.02067153
#
# Stress axis : x y z
#
# Youngs Moduli (GPa) = 81.92427 90.49844 35.60716
#
# Poissons Ratio (x) = 0.23783 0.29110
# Poissons Ratio (y) = 0.21530 0.16134
# Poissons Ratio (z) = 0.66976 0.41006
#
# Static dielectric constant tensor:
#      x y z
#    x 3.409030 0.000000 0.000000 
#    y 0.000000 3.511440 0.000000 
#    z 0.000000 0.000000 3.363500 
# 
# 
# High freq. dielectric constant tensor:
#      x y z
#    x 1.692440 0.000000 0.000000 
#    y 0.000000 1.711140 0.000000 
#    z 0.000000 0.000000 1.704540 
# 
# From -- ./inp_files/5485.got.cif
#   From: 2010.03.12/outbox.cif.g09.slc.cpg/sg47_3_cif.got.tgz:5485.got - 2010.04.14 03:12:58.
