data_PCOD8198198
_publ_section_title
;
Structure prediction by ZEFSAII (Michael W. Deem and Ramdas Pophale) SiO2 
 PCOD8198198
Probable space group: P M M M
;
_chemical_formula_sum "Si O2"
_cell_formula_units_Z 40
_cell_length_a 8.030137
_cell_length_b 8.125323
_cell_length_c 29.297696
_cell_angle_alpha 90.000000
_cell_angle_beta 90.000000
_cell_angle_gamma 90.000000
_cell_volume 1911.600156
_symmetry_space_group_name_H-M "P M M M"
_symmetry_group_IT_number 47
_symmetry_cell_setting 'orthorhombic'
loop_
_space_group_symop_operation_xyz
x,y,z
-x,-y,z
x,-y,-z
-x,y,-z
-x,-y,-z
x,y,-z
-x,y,z
x,-y,z
loop_
_atom_site_type_symbol
_atom_site_label
_atom_site_fract_x
_atom_site_fract_y
_atom_site_fract_z
Si Si1 0.801673 0.500000 0.551736
Si Si2 0.801243 0.813194 0.391622
Si Si3 0.180308 0.190413 0.707864
Si Si4 0.500000 0.807615 0.949390
Si Si5 0.185190 0.694733 0.107872
Si Si6 0.311018 0.683823 0.798296
O O1 0.736887 0.500000 0.500000
O O2 0.733493 0.330020 0.574645
O O3 0.000000 0.500000 0.554332
O O4 0.741173 0.755098 0.340829
O O5 0.000000 0.817783 0.392325
O O6 0.735852 0.000000 0.404243
O O7 0.298692 0.220417 0.750809
O O8 0.000000 0.276637 0.716397
O O9 0.149219 0.000000 0.702586
O O10 0.670819 0.758463 0.924866
O O11 0.500000 0.000000 0.953470
O O12 0.500000 0.727514 0.000000
O O13 0.202601 0.500000 0.109876
O O14 0.207837 0.763650 0.159681
O O15 0.000000 0.747736 0.090512
O O16 0.500000 0.686938 0.815110
O O17 0.247747 0.500000 0.788593
#
# Coordination Sequence:
#
# PCOD8198198 Si02
#       6
#     4   8   8   4   8   8
#     4   9  16  24  38  62  89 127 175 217 273 340
#     4   8  15  27  40  59  91 127 168 221 271 328
#     4   9  18  31  47  70 100 137 180 219 266 333
#     4  11  25  43  63  89 123 161 199 247 303 354
#     4  10  21  40  65  90 118 155 200 247 297 355
#     4  10  20  34  53  79 111 144 180 226 279 337
#
# _framework density 20.924876999999999
#
# number of rings (size 3 to 8) (size 9 to 14) (size 15 to 20)
#    0.000    2.600    1.000    2.100    1.400    4.400 
#    0.000    4.000    0.000    0.000    0.000    0.000 
#    0.000    1.600    0.000    4.400    0.000    4.400 
#
# Total GULP energy -495528.024689 kJ/mol
# GULP energy per Si atom -12388.200617 kJ/mol
# Density = 2.087725 g / cm^3
# Si number density = 20.924877 Si / 1000 Ang^3
#
#
#
# Elastic Constant Matrix: (Units=GPa)
#
#
# Indices 1 2 3 4 5 6 
#
# 1 85.2291 23.4046 52.1471 0.0000 0.0000 0.0000
# 2 23.4046 76.1665 59.4182 0.0000 0.0000 0.0000
# 3 52.1471 59.4182 180.7119 0.0000 0.0000 0.0000
# 4 0.0000 0.0000 0.0000 63.2313 0.0000 0.0000
# 5 0.0000 0.0000 0.0000 0.0000 17.9876 0.0000
# 6 0.0000 0.0000 0.0000 0.0000 0.0000 13.4324
#
#
#
# Elastic Compliance Matrix: (Units=1/GPa)
#
#
# Indices 1 2 3 4 5 6 
#
# 1 0.014391 -0.001590 -0.003630 0.000000 0.000000 0.000000
# 2 -0.001590 0.017834 -0.005405 0.000000 0.000000 0.000000
# 3 -0.003630 -0.005405 0.008358 0.000000 0.000000 0.000000
# 4 0.000000 0.000000 0.000000 0.015815 0.000000 0.000000
# 5 0.000000 0.000000 0.000000 0.000000 0.055594 0.000000
# 6 0.000000 0.000000 0.000000 0.000000 0.000000 0.074447
#
#
# Mechanical properties :
#
#
# Convention : Reuss Voigt Hill
#
# Bulk Modulus (GPa) = 51.72510 68.00524 59.86517
# Shear Modulus (GPa) = 23.34993 32.73944 28.04468
#
# Velocity S-wave (km/s) = 3.34412 3.95982 3.66492
# Velocity P-wave (km/s) = 6.29952 7.31281 6.82499
#
# Compressibility (1/GPa) = 0.01933297
#
# Stress axis : x y z
#
# Youngs Moduli (GPa) = 69.48962 56.07162 119.64234
#
# Poissons Ratio (x) = 0.08918 0.43427
# Poissons Ratio (y) = 0.11052 0.64667
# Poissons Ratio (z) = 0.25223 0.30307
#
# Static dielectric constant tensor:
#      x y z
#    x 3.472320 0.000000 0.000000 
#    y 0.000000 3.776120 0.000000 
#    z 0.000000 0.000000 4.058580 
# 
# 
# High freq. dielectric constant tensor:
#      x y z
#    x 1.791050 0.000000 0.000000 
#    y 0.000000 1.807110 0.000000 
#    z 0.000000 0.000000 1.821270 
# 
# From -- ./inp_files/33106.got.cif
#   From: 2010.03.12/outbox.cif.g09.slc.cpg/sg47_17_cif.got.tgz:33106.got - 2010.04.14 03:12:58.
