data_PCOD8198945
_publ_section_title
;
Structure prediction by ZEFSAII (Michael W. Deem and Ramdas Pophale) SiO2 
 PCOD8198945
Probable space group: P M M M
;
_chemical_formula_sum "Si O2"
_cell_formula_units_Z 30
_cell_length_a 11.507571
_cell_length_b 13.555861
_cell_length_c 10.340269
_cell_angle_alpha 90.000000
_cell_angle_beta 90.000000
_cell_angle_gamma 90.000000
_cell_volume 1613.030603
_symmetry_space_group_name_H-M "P M M M"
_symmetry_group_IT_number 47
_symmetry_cell_setting 'orthorhombic'
loop_
_space_group_symop_operation_xyz
x,y,z
-x,-y,z
x,-y,-z
-x,y,-z
-x,-y,-z
x,y,-z
-x,y,z
x,-y,z
loop_
_atom_site_type_symbol
_atom_site_label
_atom_site_fract_x
_atom_site_fract_y
_atom_site_fract_z
Si Si1 0.638061 0.109273 0.500000
Si Si2 0.233772 0.882393 0.000000
Si Si3 0.000000 0.759342 0.000000
Si Si4 0.000000 0.612038 0.238893
Si Si5 0.753116 0.387479 0.648057
Si Si6 0.637335 0.789570 0.239757
O O1 0.500000 0.108204 0.500000
O O2 0.683777 0.162183 0.628108
O O3 0.690154 0.000000 0.500000
O O4 0.305400 0.848746 0.124104
O O5 0.109759 0.830775 0.000000
O O6 0.218802 0.000000 0.000000
O O7 0.000000 0.689643 0.876262
O O8 0.889315 0.630311 0.329449
O O9 0.000000 0.500000 0.183263
O O10 0.722581 0.359459 0.500000
O O11 0.718610 0.500000 0.676096
O O12 0.678264 0.323965 0.750648
O O13 0.500000 0.795080 0.221902
#
# Coordination Sequence:
#
# PCOD8198945 Si02
#       6
#     4   4   2   4   8   8
#     4   9  18  34  57  82 109 148 201 248 283 334
#     4  12  26  43  62  85 118 158 201 248 301 353
#     4  12  22  40  64  86 112 150 198 250 302 350
#     4  10  20  37  62  88 115 152 200 245 294 355
#     4  10  20  36  61  91 122 156 194 242 299 357
#     4  11  22  38  60  87 120 159 199 241 294 353
#
# _framework density 18.598531000000001
#
# number of rings (size 3 to 8) (size 9 to 14) (size 15 to 20)
#    0.000    1.467    4.000    2.000    0.000    4.267 
#    0.000    2.000    0.000    1.600    0.000    5.600 
#    0.000    0.000    0.000    0.000    0.000    0.000 
#
# Total GULP energy -372021.021405 kJ/mol
# GULP energy per Si atom -12400.700714 kJ/mol
# Density = 1.855620 g / cm^3
# Si number density = 18.598531 Si / 1000 Ang^3
#
#
#
# Elastic Constant Matrix: (Units=GPa)
#
#
# Indices 1 2 3 4 5 6 
#
# 1 95.7291 50.5293 40.2556 0.0000 0.0000 0.0000
# 2 50.5293 137.6580 62.3975 0.0000 0.0000 0.0000
# 3 40.2556 62.3975 116.2254 0.0000 0.0000 0.0000
# 4 0.0000 0.0000 0.0000 30.2602 0.0000 0.0000
# 5 0.0000 0.0000 0.0000 0.0000 29.9229 0.0000
# 6 0.0000 0.0000 0.0000 0.0000 0.0000 25.8549
#
#
#
# Elastic Compliance Matrix: (Units=1/GPa)
#
#
# Indices 1 2 3 4 5 6 
#
# 1 0.013558 -0.003764 -0.002675 0.000000 0.000000 0.000000
# 2 -0.003764 0.010646 -0.004412 0.000000 0.000000 0.000000
# 3 -0.002675 -0.004412 0.011899 0.000000 0.000000 0.000000
# 4 0.000000 0.000000 0.000000 0.033047 0.000000 0.000000
# 5 0.000000 0.000000 0.000000 0.000000 0.033419 0.000000
# 6 0.000000 0.000000 0.000000 0.000000 0.000000 0.038677
#
#
# Mechanical properties :
#
#
# Convention : Reuss Voigt Hill
#
# Bulk Modulus (GPa) = 69.43942 72.88636 71.16289
# Shear Modulus (GPa) = 29.80665 30.30292 30.05479
#
# Velocity S-wave (km/s) = 4.00763 4.04086 4.02428
# Velocity P-wave (km/s) = 7.67019 7.81318 7.74202
#
# Compressibility (1/GPa) = 0.01440104
#
# Stress axis : x y z
#
# Youngs Moduli (GPa) = 73.75798 93.93445 84.04087
#
# Poissons Ratio (x) = 0.35357 0.22482
# Poissons Ratio (y) = 0.27763 0.37076
# Poissons Ratio (z) = 0.19731 0.41440
#
# Static dielectric constant tensor:
#      x y z
#    x 3.292350 0.000000 0.000000 
#    y 0.000000 3.618410 0.000000 
#    z 0.000000 0.000000 3.514230 
# 
# 
# High freq. dielectric constant tensor:
#      x y z
#    x 1.713150 0.000000 0.000000 
#    y 0.000000 1.736080 0.000000 
#    z 0.000000 0.000000 1.725480 
# 
# From -- ./inp_files/14663.got.cif
#   From: 2010.03.12/outbox.cif.g09.slc.cpg/sg47_8_cif.got.tgz:14663.got - 2010.04.14 03:12:58.
