data_PCOD8198273
_publ_section_title
;
Structure prediction by ZEFSAII (Michael W. Deem and Ramdas Pophale) SiO2 
 PCOD8198273
Probable space group: P M M M
;
_chemical_formula_sum "Si O2"
_cell_formula_units_Z 64
_cell_length_a 18.608821
_cell_length_b 20.692314
_cell_length_c 8.916138
_cell_angle_alpha 90.000000
_cell_angle_beta 90.000000
_cell_angle_gamma 90.000000
_cell_volume 3433.244240
_symmetry_space_group_name_H-M "P M M M"
_symmetry_group_IT_number 47
_symmetry_cell_setting 'orthorhombic'
loop_
_space_group_symop_operation_xyz
x,y,z
-x,-y,z
x,-y,-z
-x,y,-z
-x,-y,-z
x,y,-z
-x,y,z
x,-y,z
loop_
_atom_site_type_symbol
_atom_site_label
_atom_site_fract_x
_atom_site_fract_y
_atom_site_fract_z
Si Si1 0.418203 0.424769 0.327439
Si Si2 0.085306 0.071004 0.330988
Si Si3 0.915231 0.800932 0.173062
Si Si4 0.414618 0.931897 0.167878
Si Si5 0.677928 0.322175 0.822669
Si Si6 0.419375 0.205930 0.179526
Si Si7 0.832371 0.315365 0.676295
Si Si8 0.916157 0.573804 0.171241
O O1 0.404264 0.406213 0.500000
O O2 0.500000 0.407353 0.282280
O O3 0.403838 0.500000 0.301257
O O4 0.362995 0.387308 0.222117
O O5 0.112745 0.083718 0.500000
O O6 0.113610 0.128496 0.224567
O O7 0.000000 0.070781 0.328322
O O8 0.112842 0.000000 0.275437
O O9 0.875991 0.746213 0.266825
O O10 0.000000 0.794098 0.201768
O O11 0.895562 0.792000 0.000000
O O12 0.500000 0.928510 0.160578
O O13 0.389996 0.863895 0.243261
O O14 0.390994 0.000000 0.250059
O O15 0.383388 0.934850 0.000000
O O16 0.632564 0.261511 0.760282
O O17 0.755024 0.318384 0.749672
O O18 0.686506 0.320254 0.000000
O O19 0.500000 0.220341 0.238397
O O20 0.419799 0.203301 0.000000
O O21 0.823888 0.310105 0.500000
O O22 0.873541 0.381078 0.715599
O O23 0.892899 0.500000 0.200784
O O24 0.000000 0.582755 0.202503
O O25 0.898366 0.593487 0.000000
#
# Coordination Sequence:
#
# PCOD8198273 Si02
#       8
#     8   8   8   8   8   8   8   8
#     4   9  19  37  59  81 106 135 167 207 255 307
#     4   8  14  26  46  74 107 139 171 210 258 313
#     4  10  20  34  54  79 106 136 173 220 270 317
#     4   7   9  15  31  58  92 125 153 186 235 293
#     4  11  22  35  52  74 103 138 174 215 260 304
#     4   8  14  25  43  69  98 127 162 204 249 297
#     4  12  25  38  53  74 104 142 180 217 258 309
#     4   9  19  38  63  87 109 132 160 200 252 308
#
# _framework density 18.641259999999999
#
# number of rings (size 3 to 8) (size 9 to 14) (size 15 to 20)
#    0.000    2.750    0.000    4.875    0.000    4.500 
#    0.000    2.500    0.000    0.750    0.000    1.750 
#    0.000    1.500    0.000   14.125    0.000   11.500 
#
# Total GULP energy -793092.793242 kJ/mol
# GULP energy per Si atom -12392.074894 kJ/mol
# Density = 1.859883 g / cm^3
# Si number density = 18.641260 Si / 1000 Ang^3
#
#
#
# Elastic Constant Matrix: (Units=GPa)
#
#
# Indices 1 2 3 4 5 6 
#
# 1 67.2628 53.7679 35.7339 0.0000 0.0000 0.0000
# 2 53.7679 138.2300 46.8588 0.0000 0.0000 0.0000
# 3 35.7339 46.8588 75.4578 0.0000 0.0000 0.0000
# 4 0.0000 0.0000 0.0000 26.6869 0.0000 0.0000
# 5 0.0000 0.0000 0.0000 0.0000-1921.8737 0.0000
# 6 0.0000 0.0000 0.0000 0.0000 0.0000 4.4735
#
#
#
# Elastic Compliance Matrix: (Units=1/GPa)
#
#
# Indices 1 2 3 4 5 6 
#
# 1 0.024270 -0.007023 -0.007132 0.000000 0.000000 0.000000
# 2 -0.007023 0.011195 -0.003627 0.000000 0.000000 0.000000
# 3 -0.007132 -0.003627 0.018882 0.000000 0.000000 0.000000
# 4 0.000000 0.000000 0.000000 0.037472 0.000000 0.000000
# 5 0.000000 0.000000 0.000000 0.000000 -0.000520 0.000000
# 6 0.000000 0.000000 0.000000 0.000000 0.000000 0.223539
#
#
# Mechanical properties :
#
#
# Convention : Reuss Voigt Hill
#
# Bulk Modulus (GPa) = 53.23587 61.51910 57.37749
# Shear Modulus (GPa) = 14.01890 -368.50333 -177.24222
#
# Velocity S-wave (km/s) = 2.74530 -14.07518 -9.76151
# Velocity P-wave (km/s) = 6.21844 15.20113 9.80830
#
# Compressibility (1/GPa) = 0.01878433
#
# Stress axis : x y z
#
# Youngs Moduli (GPa) = 41.20359 89.32334 52.96020
#
# Poissons Ratio (x) = 0.62727 0.37773
# Poissons Ratio (y) = 0.28935 0.19207
# Poissons Ratio (z) = 0.29388 0.32394
#
# Static dielectric constant tensor:
#      x y z
#    x 3.154230 0.000000 0.000000 
#    y 0.000000 3.961960 0.000000 
#    z 0.000000 0.000000 3.180690 
# 
# 
# High freq. dielectric constant tensor:
#      x y z
#    x 1.689450 0.000000 0.000000 
#    y 0.000000 1.750630 0.000000 
#    z 0.000000 0.000000 1.694420 
# 
# From -- ./inp_files/10007.got.cif
#   From: 2010.03.12/outbox.cif.g09.slc.cpg/sg47_6_cif.got.tgz:10007.got - 2010.04.14 03:12:58.
