data_PCOD8198788
_publ_section_title
;
Structure prediction by ZEFSAII (Michael W. Deem and Ramdas Pophale) SiO2 
 PCOD8198788
Probable space group: P M M M
;
_chemical_formula_sum "Si O2"
_cell_formula_units_Z 48
_cell_length_a 8.807209
_cell_length_b 30.780312
_cell_length_c 9.111642
_cell_angle_alpha 90.000000
_cell_angle_beta 90.000000
_cell_angle_gamma 90.000000
_cell_volume 2470.062646
_symmetry_space_group_name_H-M "P M M M"
_symmetry_group_IT_number 47
_symmetry_cell_setting 'orthorhombic'
loop_
_space_group_symop_operation_xyz
x,y,z
-x,-y,z
x,-y,-z
-x,y,-z
-x,-y,-z
x,y,-z
-x,y,z
x,-y,z
loop_
_atom_site_type_symbol
_atom_site_label
_atom_site_fract_x
_atom_site_fract_y
_atom_site_fract_z
Si Si1 0.324044 0.746940 0.827937
Si Si2 0.674126 0.084674 0.329438
Si Si3 0.829016 0.500000 0.174394
Si Si4 0.176183 0.666983 0.670665
Si Si5 0.176166 0.174384 0.329197
Si Si6 0.321332 0.587577 0.167066
Si Si7 0.319398 0.000000 0.165405
O O1 0.500000 0.738007 0.793107
O O2 0.221912 0.710992 0.750628
O O3 0.277608 0.793694 0.767194
O O4 0.291591 0.745362 0.000000
O O5 0.686633 0.073731 0.500000
O O6 0.500000 0.094465 0.284900
O O7 0.776084 0.125775 0.286075
O O8 0.742025 0.043299 0.244014
O O9 0.747815 0.456705 0.233824
O O10 0.000000 0.500000 0.233434
O O11 0.819986 0.500000 0.000000
O O12 0.213154 0.672406 0.500000
O O13 0.271639 0.627237 0.732952
O O14 0.000000 0.657724 0.699180
O O15 0.209710 0.183446 0.500000
O O16 0.000000 0.181286 0.292053
O O17 0.500000 0.582919 0.171992
O O18 0.265107 0.595639 0.000000
O O19 0.500000 0.000000 0.174920
O O20 0.259027 0.000000 0.000000
#
# Coordination Sequence:
#
# PCOD8198788 Si02
#       7
#     8   8   4   8   8   8   4
#     4  11  24  40  59  84 111 141 180 224 270 323
#     4   9  17  31  52  76 103 138 178 218 264 319
#     4   9  17  31  54  83 114 149 186 226 276 329
#     4  11  24  40  58  82 112 146 184 226 273 325
#     4  10  21  37  57  82 111 143 180 222 270 324
#     4  10  20  35  57  85 115 147 186 230 274 324
#     4   9  17  29  48  75 104 134 174 225 272 313
#
# _framework density 19.432704999999999
#
# number of rings (size 3 to 8) (size 9 to 14) (size 15 to 20)
#    0.000    2.000    0.000    3.500    0.000   11.333 
#    0.000    2.500    0.000    5.000    0.000    0.000 
#    0.000    0.000    0.000    0.000    0.000    0.000 
#
# Total GULP energy -595404.186809 kJ/mol
# GULP energy per Si atom -12404.253892 kJ/mol
# Density = 1.938848 g / cm^3
# Si number density = 19.432705 Si / 1000 Ang^3
#
#
#
# Elastic Constant Matrix: (Units=GPa)
#
#
# Indices 1 2 3 4 5 6 
#
# 1 61.6057 27.7584 34.5275 0.0000 0.0000 0.0000
# 2 27.7584 127.4388 51.3120 0.0000 0.0000 0.0000
# 3 34.5275 51.3120 78.5791 0.0000 0.0000 0.0000
# 4 0.0000 0.0000 0.0000 35.6407 0.0000 0.0000
# 5 0.0000 0.0000 0.0000 0.0000 24.2386 0.0000
# 6 0.0000 0.0000 0.0000 0.0000 0.0000 24.5378
#
#
#
# Elastic Compliance Matrix: (Units=1/GPa)
#
#
# Indices 1 2 3 4 5 6 
#
# 1 0.021671 -0.001202 -0.008737 0.000000 0.000000 0.000000
# 2 -0.001202 0.010713 -0.006467 0.000000 0.000000 0.000000
# 3 -0.008737 -0.006467 0.020788 0.000000 0.000000 0.000000
# 4 0.000000 0.000000 0.000000 0.028058 0.000000 0.000000
# 5 0.000000 0.000000 0.000000 0.000000 0.041256 0.000000
# 6 0.000000 0.000000 0.000000 0.000000 0.000000 0.040753
#
#
# Mechanical properties :
#
#
# Convention : Reuss Voigt Hill
#
# Bulk Modulus (GPa) = 49.11909 54.97994 52.04951
# Shear Modulus (GPa) = 24.65023 27.15181 25.90102
#
# Velocity S-wave (km/s) = 3.56545 3.74200 3.65479
# Velocity P-wave (km/s) = 6.50241 6.85740 6.68226
#
# Compressibility (1/GPa) = 0.02035868
#
# Stress axis : x y z
#
# Youngs Moduli (GPa) = 46.14523 93.34710 48.10481
#
# Poissons Ratio (x) = 0.11225 0.42029
# Poissons Ratio (y) = 0.05549 0.31109
# Poissons Ratio (z) = 0.40316 0.60368
#
# Static dielectric constant tensor:
#      x y z
#    x 3.514410 0.000000 0.000000 
#    y 0.000000 3.714660 0.000000 
#    z 0.000000 0.000000 3.491980 
# 
# 
# High freq. dielectric constant tensor:
#      x y z
#    x 1.754610 0.000000 0.000000 
#    y 0.000000 1.773370 0.000000 
#    z 0.000000 0.000000 1.744680 
# 
# From -- ./inp_files/2549.got.cif
#   From: 2010.03.12/outbox.cif.g09.slc.cpg/sg47_2_cif.got.tgz:2549.got - 2010.04.14 03:12:58.
