data_PCOD8198436
_publ_section_title
;
Structure prediction by ZEFSAII (Michael W. Deem and Ramdas Pophale) SiO2 
 PCOD8198436
Probable space group: P M M M
;
_chemical_formula_sum "Si O2"
_cell_formula_units_Z 44
_cell_length_a 27.995164
_cell_length_b 9.078724
_cell_length_c 9.256955
_cell_angle_alpha 90.000000
_cell_angle_beta 90.000000
_cell_angle_gamma 90.000000
_cell_volume 2352.751083
_symmetry_space_group_name_H-M "P M M M"
_symmetry_group_IT_number 47
_symmetry_cell_setting 'orthorhombic'
loop_
_space_group_symop_operation_xyz
x,y,z
-x,-y,z
x,-y,-z
-x,y,-z
-x,-y,-z
x,y,-z
-x,y,z
x,-y,z
loop_
_atom_site_type_symbol
_atom_site_label
_atom_site_fract_x
_atom_site_fract_y
_atom_site_fract_z
Si Si1 0.055355 0.330663 0.334138
Si Si2 0.500000 0.826364 0.335131
Si Si3 0.583098 0.669795 0.169281
Si Si4 0.310366 0.325124 0.159850
Si Si5 0.779560 0.325035 0.664471
Si Si6 0.864536 0.828057 0.168316
O O1 0.069407 0.299380 0.500000
O O2 0.066745 0.500000 0.296122
O O3 0.084898 0.224510 0.230475
O O4 0.000000 0.295720 0.307974
O O5 0.500000 0.772660 0.500000
O O6 0.547308 0.768070 0.259295
O O7 0.500000 0.000000 0.322434
O O8 0.575496 0.500000 0.212351
O O9 0.636694 0.723919 0.209239
O O10 0.573366 0.691663 0.000000
O O11 0.309627 0.500000 0.152227
O O12 0.270651 0.266423 0.271078
O O13 0.298895 0.261757 0.000000
O O14 0.782804 0.270991 0.500000
O O15 0.783118 0.500000 0.675705
O O16 0.822457 0.257753 0.753833
O O17 0.858633 0.000000 0.198204
O O18 0.862753 0.790180 0.000000
#
# Coordination Sequence:
#
# PCOD8198436 Si02
#       6
#     8   4   8   8   8   8
#     4   9  19  37  60  84 108 135 171 215 262 314
#     4  11  24  37  48  70 106 143 178 215 256 306
#     4   9  18  34  57  82 104 130 170 216 260 311
#     4   8  15  30  53  80 107 133 165 210 261 310
#     4  10  20  34  55  82 108 136 173 215 259 310
#     4  11  24  38  52  75 108 144 181 219 258 304
#
# _framework density 18.701512000000001
#
# number of rings (size 3 to 8) (size 9 to 14) (size 15 to 20)
#    0.000    2.455    0.000    3.818    0.000    8.727 
#    0.000    5.455    0.000    1.091    0.000    0.000 
#    0.000    0.000    0.000    0.000    0.000    0.000 
#
# Total GULP energy -545616.646270 kJ/mol
# GULP energy per Si atom -12400.378324 kJ/mol
# Density = 1.865895 g / cm^3
# Si number density = 18.701512 Si / 1000 Ang^3
#
#
#
# Elastic Constant Matrix: (Units=GPa)
#
#
# Indices 1 2 3 4 5 6 
#
# 1 127.4459 31.9031 70.4608 0.0000 0.0000 0.0000
# 2 31.9031 35.1087 38.1566 0.0000 0.0000 0.0000
# 3 70.4608 38.1566 110.8926 0.0000 0.0000 0.0000
# 4 0.0000 0.0000 0.0000 27.5162 0.0000 0.0000
# 5 0.0000 0.0000 0.0000 0.0000 176.7043 0.0000
# 6 0.0000 0.0000 0.0000 0.0000 0.0000 -6.9959
#
#
#
# Elastic Compliance Matrix: (Units=1/GPa)
#
#
# Indices 1 2 3 4 5 6 
#
# 1 0.012499 -0.004355 -0.006443 0.000000 0.000000 0.000000
# 2 -0.004355 0.047014 -0.013410 0.000000 0.000000 0.000000
# 3 -0.006443 -0.013410 0.017726 0.000000 0.000000 0.000000
# 4 0.000000 0.000000 0.000000 0.036342 0.000000 0.000000
# 5 0.000000 0.000000 0.000000 0.000000 0.005659 0.000000
# 6 0.000000 0.000000 0.000000 0.000000 0.000000 -0.142940
#
#
# Mechanical properties :
#
#
# Convention : Reuss Voigt Hill
#
# Bulk Modulus (GPa) = 34.69466 61.60979 48.15223
# Shear Modulus (GPa) = 145.66956 48.30670 96.98813
#
# Velocity S-wave (km/s) = 8.83521 5.08787 7.20928
# Velocity P-wave (km/s) = 11.07580 8.21770 9.75202
#
# Compressibility (1/GPa) = 0.02882288
#
# Stress axis : x y z
#
# Youngs Moduli (GPa) = 80.00683 21.27016 56.41476
#
# Poissons Ratio (x) = 0.09263 0.36349
# Poissons Ratio (y) = 0.34844 0.75651
# Poissons Ratio (z) = 0.51550 0.28523
#
# Static dielectric constant tensor:
#      x y z
#    x 3.655730 0.000000 0.000000 
#    y 0.000000 3.168300 0.000000 
#    z 0.000000 0.000000 3.595130 
# 
# 
# High freq. dielectric constant tensor:
#      x y z
#    x 1.743590 0.000000 0.000000 
#    y 0.000000 1.698910 0.000000 
#    z 0.000000 0.000000 1.729140 
# 
# From -- ./inp_files/13571.got.cif
#   From: 2010.03.12/outbox.cif.g09.slc.cpg/sg47_7_cif.got.tgz:13571.got - 2010.04.14 03:12:58.
