data_PCOD8198643
_publ_section_title
;
Structure prediction by ZEFSAII (Michael W. Deem and Ramdas Pophale) SiO2 
 PCOD8198643
Probable space group: P M M M
;
_chemical_formula_sum "Si O2"
_cell_formula_units_Z 64
_cell_length_a 15.395211
_cell_length_b 23.692253
_cell_length_c 9.335018
_cell_angle_alpha 90.000000
_cell_angle_beta 90.000000
_cell_angle_gamma 90.000000
_cell_volume 3404.921995
_symmetry_space_group_name_H-M "P M M M"
_symmetry_group_IT_number 47
_symmetry_cell_setting 'orthorhombic'
loop_
_space_group_symop_operation_xyz
x,y,z
-x,-y,z
x,-y,-z
-x,y,-z
-x,-y,-z
x,y,-z
-x,y,z
x,-y,z
loop_
_atom_site_type_symbol
_atom_site_label
_atom_site_fract_x
_atom_site_fract_y
_atom_site_fract_z
Si Si1 0.403907 0.167779 0.836034
Si Si2 0.599387 0.433933 0.664328
Si Si3 0.750000 0.372612 0.171058
Si Si4 0.099387 0.433933 0.664328
Si Si5 0.648811 0.063218 0.665360
Si Si6 0.148811 0.936782 0.665360
Si Si7 0.903907 0.167779 0.163966
Si Si8 0.250000 0.755255 0.170146
O O1 0.500000 0.194468 0.821435
O O2 0.404264 0.108189 0.756033
O O3 0.335204 0.212255 0.770669
O O4 0.379769 0.155297 0.000000
O O5 0.621167 0.418387 0.500000
O O6 0.500000 0.417223 0.700351
O O7 0.613630 0.500000 0.689234
O O8 0.662976 0.401200 0.770084
O O9 0.837024 0.401200 0.229916
O O10 0.750000 0.308352 0.227664
O O11 0.750000 0.377318 0.000000
O O12 0.121167 0.418387 0.500000
O O13 0.113630 0.500000 0.689234
O O14 0.000000 0.417223 0.700351
O O15 0.626566 0.072809 0.500000
O O16 0.750000 0.072296 0.694785
O O17 0.620998 0.000000 0.711420
O O18 0.126566 0.927191 0.500000
O O19 0.095736 0.891811 0.756032
O O20 0.120998 0.000000 0.711420
O O21 0.835204 0.212255 0.229331
O O22 0.000000 0.194468 0.178565
O O23 0.879768 0.155297 0.000000
O O24 0.250000 0.753563 0.000000
#
# Coordination Sequence:
#
# PCOD8198643 Si02
#       8
#     8   8   8   8   8   8   8   8
#     4  10  20  35  56  77  98 132 178 219 256 307
#     4   9  19  37  59  82 112 150 186 220 265 323
#     4  11  22  34  55  85 113 144 184 229 276 323
#     4   9  19  37  59  82 112 150 186 220 265 323
#     4   9  18  33  53  77 105 135 165 204 262 324
#     4   9  18  33  53  77 105 135 165 204 262 324
#     4  10  20  35  56  77  98 132 178 219 256 307
#     4   9  20  38  53  72 106 143 176 215 266 311
#
# _framework density 18.796319
#
# number of rings (size 3 to 8) (size 9 to 14) (size 15 to 20)
#    0.000    2.500    1.250    2.250    0.000    5.000 
#    0.000   10.000    0.000    0.000    0.000    0.000 
#    0.000    0.000    0.000    0.000    0.000    0.000 
#
# Total GULP energy -793539.135478 kJ/mol
# GULP energy per Si atom -12399.048992 kJ/mol
# Density = 1.875354 g / cm^3
# Si number density = 18.796319 Si / 1000 Ang^3
#
#
#
# Elastic Constant Matrix: (Units=GPa)
#
#
# Indices 1 2 3 4 5 6 
#
# 1 129.7719 72.1661 49.7161 0.0000 0.0000 0.0000
# 2 72.1661 119.7002 50.2883 0.0000 0.0000 0.0000
# 3 49.7161 50.2883 65.1288 0.0000 0.0000 0.0000
# 4 0.0000 0.0000 0.0000 -5.8448 0.0000 0.0000
# 5 0.0000 0.0000 0.0000 0.0000 27.1287 0.0000
# 6 0.0000 0.0000 0.0000 0.0000 0.0000 9.6026
#
#
#
# Elastic Compliance Matrix: (Units=1/GPa)
#
#
# Indices 1 2 3 4 5 6 
#
# 1 0.012868 -0.005375 -0.005673 0.000000 0.000000 0.000000
# 2 -0.005375 0.014610 -0.007178 0.000000 0.000000 0.000000
# 3 -0.005673 -0.007178 0.025227 0.000000 0.000000 0.000000
# 4 0.000000 0.000000 0.000000 -0.171094 0.000000 0.000000
# 5 0.000000 0.000000 0.000000 0.000000 0.036861 0.000000
# 6 0.000000 0.000000 0.000000 0.000000 0.000000 0.104139
#
#
# Mechanical properties :
#
#
# Convention : Reuss Voigt Hill
#
# Bulk Modulus (GPa) = 61.52415 73.21577 67.36996
# Shear Modulus (GPa) = 77.54145 15.67265 46.60705
#
# Velocity S-wave (km/s) = 6.42986 2.89072 4.98494
# Velocity P-wave (km/s) = 9.37695 7.08367 8.30980
#
# Compressibility (1/GPa) = 0.01625378
#
# Stress axis : x y z
#
# Youngs Moduli (GPa) = 77.71228 68.44447 39.63979
#
# Poissons Ratio (x) = 0.36787 0.22487
# Poissons Ratio (y) = 0.41769 0.28455
# Poissons Ratio (z) = 0.44084 0.49132
#
# Static dielectric constant tensor:
#      x y z
#    x 3.524960 0.000000 0.000000 
#    y 0.000000 3.494750 0.000000 
#    z 0.000000 0.000000 3.234020 
# 
# 
# High freq. dielectric constant tensor:
#      x y z
#    x 1.742490 0.000000 0.000000 
#    y 0.000000 1.723530 0.000000 
#    z 0.000000 0.000000 1.710330 
# 
# From -- ./inp_files/7943.got.cif
#   From: 2010.03.12/outbox.cif.g09.slc.cpg/sg47_4_cif.got.tgz:7943.got - 2010.04.14 03:12:58.
