data_PCOD8198729
_publ_section_title
;
Structure prediction by ZEFSAII (Michael W. Deem and Ramdas Pophale) SiO2 
 PCOD8198729
Probable space group: P M M M
;
_chemical_formula_sum "Si O2"
_cell_formula_units_Z 48
_cell_length_a 9.000021
_cell_length_b 8.987056
_cell_length_c 31.107521
_cell_angle_alpha 90.000000
_cell_angle_beta 90.000000
_cell_angle_gamma 90.000000
_cell_volume 2516.091170
_symmetry_space_group_name_H-M "P M M M"
_symmetry_group_IT_number 47
_symmetry_cell_setting 'orthorhombic'
loop_
_space_group_symop_operation_xyz
x,y,z
-x,-y,z
x,-y,-z
-x,y,-z
-x,-y,-z
x,y,-z
-x,y,z
x,-y,z
loop_
_atom_site_type_symbol
_atom_site_label
_atom_site_fract_x
_atom_site_fract_y
_atom_site_fract_z
Si Si1 0.326694 0.327090 0.665064
Si Si2 0.171896 0.824857 0.586056
Si Si3 0.175218 0.828114 0.255987
Si Si4 0.823594 0.332598 0.500000
Si Si5 0.827876 0.174440 0.914843
Si Si6 0.176790 0.668077 0.000000
Si Si7 0.667042 0.823204 0.169827
O O1 0.500000 0.295999 0.671756
O O2 0.292840 0.500000 0.657230
O O3 0.270555 0.234986 0.624561
O O4 0.240635 0.273602 0.706926
O O5 0.233630 0.751834 0.542320
O O6 0.000000 0.782562 0.594418
O O7 0.192274 0.000000 0.582077
O O8 0.241132 0.768707 0.211110
O O9 0.000000 0.808305 0.254453
O O10 0.219217 0.000000 0.264407
O O11 0.759920 0.500000 0.500000
O O12 0.000000 0.332288 0.500000
O O13 0.761560 0.251886 0.957346
O O14 0.741900 0.239284 0.873518
O O15 0.000000 0.213162 0.908189
O O16 0.802463 0.000000 0.920464
O O17 0.234464 0.500000 0.000000
O O18 0.000000 0.678790 0.000000
O O19 0.500000 0.761156 0.173200
O O20 0.669454 0.000000 0.168087
#
# Coordination Sequence:
#
# PCOD8198729 Si02
#       7
#     8   8   8   4   8   4   8
#     4  11  24  39  54  76 108 144 180 219 265 316
#     4  10  20  35  57  84 111 141 181 226 268 313
#     4  10  20  35  57  83 107 134 172 216 261 312
#     4   9  17  31  54  83 114 147 180 218 266 315
#     4   9  16  28  48  72  96 125 165 210 251 295
#     4   9  17  29  46  69  96 126 162 205 252 300
#     4   9  17  30  50  76 104 133 166 207 255 305
#
# _framework density 19.077210000000001
#
# number of rings (size 3 to 8) (size 9 to 14) (size 15 to 20)
#    0.000    2.333    0.000    3.000    0.000    9.333 
#    0.000    1.667    0.000    8.500    0.000    0.000 
#    0.000    0.000    0.000    0.000    0.000    0.000 
#
# Total GULP energy -595299.502858 kJ/mol
# GULP energy per Si atom -12402.072976 kJ/mol
# Density = 1.903379 g / cm^3
# Si number density = 19.077210 Si / 1000 Ang^3
#
#
#
# Elastic Constant Matrix: (Units=GPa)
#
#
# Indices 1 2 3 4 5 6 
#
# 1 73.6876 31.4385 50.3085 0.0000 0.0000 0.0000
# 2 31.4385 66.1884 46.4981 0.0000 0.0000 0.0000
# 3 50.3085 46.4981 171.1826 0.0000 0.0000 0.0000
# 4 0.0000 0.0000 0.0000 -1.6055 0.0000 0.0000
# 5 0.0000 0.0000 0.0000 0.0000 -7.7885 0.0000
# 6 0.0000 0.0000 0.0000 0.0000 0.0000 20.2347
#
#
#
# Elastic Compliance Matrix: (Units=1/GPa)
#
#
# Indices 1 2 3 4 5 6 
#
# 1 0.018866 -0.006261 -0.003844 0.000000 0.000000 0.000000
# 2 -0.006261 0.020749 -0.003796 0.000000 0.000000 0.000000
# 3 -0.003844 -0.003796 0.008003 0.000000 0.000000 0.000000
# 4 0.000000 0.000000 0.000000 -0.622868 0.000000 0.000000
# 5 0.000000 0.000000 0.000000 0.000000 -0.128394 0.000000
# 6 0.000000 0.000000 0.000000 0.000000 0.000000 0.049420
#
#
# Mechanical properties :
#
#
# Convention : Reuss Voigt Hill
#
# Bulk Modulus (GPa) = 50.46378 63.06097 56.76237
# Shear Modulus (GPa) = -8.06689 14.35571 3.14441
#
# Velocity S-wave (km/s) = -2.05857 2.74616 1.28524
# Velocity P-wave (km/s) = 4.56722 6.57135 5.65872
#
# Compressibility (1/GPa) = 0.01981619
#
# Stress axis : x y z
#
# Youngs Moduli (GPa) = 53.00452 48.19531 124.96053
#
# Poissons Ratio (x) = 0.30174 0.48035
# Poissons Ratio (y) = 0.33185 0.47436
# Poissons Ratio (z) = 0.20375 0.18295
#
# Static dielectric constant tensor:
#      x y z
#    x 3.382160 0.000000 0.000000 
#    y 0.000000 3.363160 0.000000 
#    z 0.000000 0.000000 3.819840 
# 
# 
# High freq. dielectric constant tensor:
#      x y z
#    x 1.724790 0.000000 0.000000 
#    y 0.000000 1.724530 0.000000 
#    z 0.000000 0.000000 1.761920 
# 
# From -- ./inp_files/2533.got.cif
#   From: 2010.03.12/outbox.cif.g09.slc.cpg/sg47_2_cif.got.tgz:2533.got - 2010.04.14 03:12:58.
