data_PCOD8198283
_publ_section_title
;
Structure prediction by ZEFSAII (Michael W. Deem and Ramdas Pophale) SiO2 
 PCOD8198283
Probable space group: P M M M
;
_chemical_formula_sum "Si O2"
_cell_formula_units_Z 52
_cell_length_a 8.936719
_cell_length_b 19.606802
_cell_length_c 15.755995
_cell_angle_alpha 90.000000
_cell_angle_beta 90.000000
_cell_angle_gamma 90.000000
_cell_volume 2760.773006
_symmetry_space_group_name_H-M "P M M M"
_symmetry_group_IT_number 47
_symmetry_cell_setting 'orthorhombic'
loop_
_space_group_symop_operation_xyz
x,y,z
-x,-y,z
x,-y,-z
-x,y,-z
-x,-y,-z
x,y,-z
-x,y,z
x,-y,z
loop_
_atom_site_type_symbol
_atom_site_label
_atom_site_fract_x
_atom_site_fract_y
_atom_site_fract_z
Si Si1 0.174555 0.577180 0.148462
Si Si2 0.326311 0.707193 0.094612
Si Si3 0.178012 0.075096 0.181324
Si Si4 0.161631 0.919919 0.000000
Si Si5 0.176055 0.785255 0.249424
Si Si6 0.670133 0.424576 0.676971
Si Si7 0.326664 0.286635 0.594679
O O1 0.213800 0.500000 0.120113
O O2 0.267524 0.629460 0.091307
O O3 0.216879 0.588901 0.246398
O O4 0.000000 0.592328 0.137376
O O5 0.500000 0.707141 0.118485
O O6 0.240801 0.748875 0.166516
O O7 0.299868 0.738505 0.000000
O O8 0.247189 0.097210 0.088635
O O9 0.221368 0.134270 0.247681
O O10 0.000000 0.070941 0.170157
O O11 0.238101 0.000000 0.210679
O O12 0.000000 0.882067 0.000000
O O13 0.134326 0.000000 0.000000
O O14 0.235787 0.756531 0.337366
O O15 0.000000 0.774624 0.246763
O O16 0.500000 0.418210 0.711460
O O17 0.696849 0.500000 0.637440
O O18 0.701239 0.367591 0.606102
O O19 0.272344 0.267219 0.500000
O O20 0.500000 0.268757 0.606712
#
# Coordination Sequence:
#
# PCOD8198283 Si02
#       7
#     8   8   8   4   8   8   8
#     4  10  20  34  54  79 107 139 179 231 284 324
#     4  11  24  39  54  75 108 151 193 227 265 322
#     4   8  15  28  48  77 111 143 176 217 267 322
#     4   7  10  20  40  68 103 137 166 201 248 307
#     4  11  22  35  57  85 112 142 178 227 280 326
#     4   9  17  31  53  78 105 139 177 218 268 327
#     4  10  21  37  57  80 109 146 184 224 273 331
#
# _framework density 18.835305000000002
#
# number of rings (size 3 to 8) (size 9 to 14) (size 15 to 20)
#    0.000    2.385    1.538    2.308    1.077    3.077 
#    0.000    3.077    0.000    2.308    0.000    7.538 
#    0.000    0.000    0.000    0.000    0.000    0.000 
#
# Total GULP energy -644354.796163 kJ/mol
# GULP energy per Si atom -12391.438388 kJ/mol
# Density = 1.879244 g / cm^3
# Si number density = 18.835305 Si / 1000 Ang^3
#
#
#
# Elastic Constant Matrix: (Units=GPa)
#
#
# Indices 1 2 3 4 5 6 
#
# 1 66.8517 41.3672 49.1009 0.0000 0.0000 0.0000
# 2 41.3672 122.7216 71.4301 0.0000 0.0000 0.0000
# 3 49.1009 71.4301 123.0036 0.0000 0.0000 0.0000
# 4 0.0000 0.0000 0.0000 19.6737 0.0000 0.0000
# 5 0.0000 0.0000 0.0000 0.0000 9.7537 0.0000
# 6 0.0000 0.0000 0.0000 0.0000 0.0000 10.0063
#
#
#
# Elastic Compliance Matrix: (Units=1/GPa)
#
#
# Indices 1 2 3 4 5 6 
#
# 1 0.022115 -0.003499 -0.006796 0.000000 0.000000 0.000000
# 2 -0.003499 0.012863 -0.006073 0.000000 0.000000 0.000000
# 3 -0.006796 -0.006073 0.014369 0.000000 0.000000 0.000000
# 4 0.000000 0.000000 0.000000 0.050829 0.000000 0.000000
# 5 0.000000 0.000000 0.000000 0.000000 0.102525 0.000000
# 6 0.000000 0.000000 0.000000 0.000000 0.000000 0.099937
#
#
# Mechanical properties :
#
#
# Convention : Reuss Voigt Hill
#
# Bulk Modulus (GPa) = 60.19964 70.70813 65.45389
# Shear Modulus (GPa) = 14.66659 17.93200 16.29930
#
# Velocity S-wave (km/s) = 2.79350 3.08887 2.94489
# Velocity P-wave (km/s) = 6.51424 7.09529 6.81096
#
# Compressibility (1/GPa) = 0.01661140
#
# Stress axis : x y z
#
# Youngs Moduli (GPa) = 45.21787 77.74460 69.59283
#
# Poissons Ratio (x) = 0.27202 0.47296
# Poissons Ratio (y) = 0.15821 0.42262
# Poissons Ratio (z) = 0.30730 0.47213
#
# Static dielectric constant tensor:
#      x y z
#    x 3.246610 0.000000 0.000000 
#    y 0.000000 3.708790 0.000000 
#    z 0.000000 0.000000 3.365070 
# 
# 
# High freq. dielectric constant tensor:
#      x y z
#    x 1.709040 0.000000 0.000000 
#    y 0.000000 1.733800 0.000000 
#    z 0.000000 0.000000 1.710710 
# 
# From -- ./inp_files/21454.got.cif
#   From: 2010.03.12/outbox.cif.g09.slc.cpg/sg47_11_cif.got.tgz:21454.got - 2010.04.14 03:12:58.
