data_PCOD8198238
_publ_section_title
;
Structure prediction by ZEFSAII (Michael W. Deem and Ramdas Pophale) SiO2 
 PCOD8198238
Probable space group: P M M M
;
_chemical_formula_sum "Si O2"
_cell_formula_units_Z 44
_cell_length_a 28.616690
_cell_length_b 8.977140
_cell_length_c 9.416693
_cell_angle_alpha 90.000000
_cell_angle_beta 90.000000
_cell_angle_gamma 90.000000
_cell_volume 2419.111071
_symmetry_space_group_name_H-M "P M M M"
_symmetry_group_IT_number 47
_symmetry_cell_setting 'orthorhombic'
loop_
_space_group_symop_operation_xyz
x,y,z
-x,-y,z
x,-y,-z
-x,y,-z
-x,-y,-z
x,y,-z
-x,y,z
x,-y,z
loop_
_atom_site_type_symbol
_atom_site_label
_atom_site_fract_x
_atom_site_fract_y
_atom_site_fract_z
Si Si1 0.862483 0.821991 0.159623
Si Si2 0.417881 0.326259 0.665518
Si Si3 0.500000 0.824004 0.835926
Si Si4 0.948325 0.822868 0.340625
Si Si5 0.776387 0.177434 0.658583
Si Si6 0.325629 0.834765 0.331633
O O1 0.908914 0.758096 0.235918
O O2 0.816663 0.759010 0.239266
O O3 0.862495 0.000000 0.161894
O O4 0.861950 0.760318 0.000000
O O5 0.425978 0.286894 0.500000
O O6 0.424233 0.500000 0.693322
O O7 0.454409 0.238236 0.759812
O O8 0.366204 0.277875 0.716544
O O9 0.500000 0.000000 0.820618
O O10 0.500000 0.773935 0.000000
O O11 0.938269 0.765048 0.500000
O O12 0.000000 0.769768 0.290667
O O13 0.946311 0.000000 0.339715
O O14 0.784584 0.241735 0.500000
O O15 0.725245 0.224764 0.719833
O O16 0.778353 0.000000 0.652589
O O17 0.323177 0.845566 0.500000
O O18 0.336160 0.000000 0.269381
#
# Coordination Sequence:
#
# PCOD8198238 Si02
#       6
#     8   8   4   8   8   8
#     4   9  15  20  27  42  64  88 117 160 212 257
#     4  10  20  34  54  79 103 127 157 193 235 282
#     4  11  24  39  54  74 100 131 166 199 232 272
#     4   8  13  20  28  37  52  80 120 162 202 249
#     4   8  13  22  36  51  68  95 131 168 206 250
#     4   8  14  26  45  67  89 115 149 187 224 264
#
# _framework density 18.188499
#
# number of rings (size 3 to 8) (size 9 to 14) (size 15 to 20)
#    0.000    3.182    0.000    3.273    0.000    5.455 
#    0.000    2.727    0.000    3.273    0.000    0.000 
#    0.000    0.000    0.000    0.000    0.000    0.909 
#
# Total GULP energy -545311.583304 kJ/mol
# GULP energy per Si atom -12393.445075 kJ/mol
# Density = 1.814710 g / cm^3
# Si number density = 18.188499 Si / 1000 Ang^3
#
#
#
# Elastic Constant Matrix: (Units=GPa)
#
#
# Indices 1 2 3 4 5 6 
#
# 1 187.3073 30.5685 88.5284 0.0000 0.0000 0.0000
# 2 30.5685 32.2022 25.7888 0.0000 0.0000 0.0000
# 3 88.5284 25.7888 107.3089 0.0000 0.0000 0.0000
# 4 0.0000 0.0000 0.0000 9.8168 0.0000 0.0000
# 5 0.0000 0.0000 0.0000 0.0000 6.0824 0.0000
# 6 0.0000 0.0000 0.0000 0.0000 0.0000 -1.3654
#
#
#
# Elastic Compliance Matrix: (Units=1/GPa)
#
#
# Indices 1 2 3 4 5 6 
#
# 1 0.009013 -0.003221 -0.006662 0.000000 0.000000 0.000000
# 2 -0.003221 0.039606 -0.006861 0.000000 0.000000 0.000000
# 3 -0.006662 -0.006861 0.016463 0.000000 0.000000 0.000000
# 4 0.000000 0.000000 0.000000 0.101866 0.000000 0.000000
# 5 0.000000 0.000000 0.000000 0.000000 0.164410 0.000000
# 6 0.000000 0.000000 0.000000 0.000000 0.000000 -0.732377
#
#
# Mechanical properties :
#
#
# Convention : Reuss Voigt Hill
#
# Bulk Modulus (GPa) = 31.65023 68.50998 50.08011
# Shear Modulus (GPa) = -14.00556 15.03561 0.51502
#
# Velocity S-wave (km/s) = -2.77794 2.87828 0.53270
# Velocity P-wave (km/s) = 2.67390 6.98530 5.28886
#
# Compressibility (1/GPa) = 0.03159534
#
# Stress axis : x y z
#
# Youngs Moduli (GPa) = 110.95153 25.24884 60.74078
#
# Poissons Ratio (x) = 0.08132 0.40463
# Poissons Ratio (y) = 0.35736 0.41674
# Poissons Ratio (z) = 0.73910 0.17323
#
# Static dielectric constant tensor:
#      x y z
#    x 3.899200 0.000000 0.000000 
#    y 0.000000 2.775590 0.000000 
#    z 0.000000 0.000000 3.304730 
# 
# 
# High freq. dielectric constant tensor:
#      x y z
#    x 1.728270 0.000000 0.000000 
#    y 0.000000 1.639370 0.000000 
#    z 0.000000 0.000000 1.680880 
# 
# From -- ./inp_files/13602.got.cif
#   From: 2010.03.12/outbox.cif.g09.slc.cpg/sg47_7_cif.got.tgz:13602.got - 2010.04.14 03:12:58.
