data_PCOD8198991
_publ_section_title
;
Structure prediction by ZEFSAII (Michael W. Deem and Ramdas Pophale) SiO2 
 PCOD8198991
Probable space group: P M M M
;
_chemical_formula_sum "Si O2"
_cell_formula_units_Z 36
_cell_length_a 7.921173
_cell_length_b 9.340475
_cell_length_c 24.083408
_cell_angle_alpha 90.000000
_cell_angle_beta 90.000000
_cell_angle_gamma 90.000000
_cell_volume 1781.871592
_symmetry_space_group_name_H-M "P M M M"
_symmetry_group_IT_number 47
_symmetry_cell_setting 'orthorhombic'
loop_
_space_group_symop_operation_xyz
x,y,z
-x,-y,z
x,-y,-z
-x,y,-z
-x,-y,-z
x,y,-z
-x,y,z
x,-y,z
loop_
_atom_site_type_symbol
_atom_site_label
_atom_site_fract_x
_atom_site_fract_y
_atom_site_fract_z
Si Si1 0.808035 0.160082 0.163745
Si Si2 0.697227 0.663103 0.062748
Si Si3 0.809267 0.332228 0.618794
Si Si4 0.690826 0.659136 0.263532
Si Si5 0.500000 0.164779 0.434381
O O1 0.797615 0.236710 0.104491
O O2 0.702327 0.237661 0.211130
O O3 0.000000 0.159285 0.183599
O O4 0.736582 0.000000 0.157140
O O5 0.500000 0.677717 0.075061
O O6 0.755619 0.500000 0.071705
O O7 0.738907 0.711822 0.000000
O O8 0.767376 0.500000 0.610285
O O9 0.804012 0.292992 0.684298
O O10 0.671524 0.239972 0.586164
O O11 0.000000 0.297255 0.597677
O O12 0.500000 0.661114 0.285666
O O13 0.743359 0.500000 0.243519
O O14 0.500000 0.174200 0.500000
O O15 0.500000 0.000000 0.413869
#
# Coordination Sequence:
#
# PCOD8198991 Si02
#       5
#     8   8   8   8   4
#     4  11  24  37  50  77 116 152 187 230 284 348
#     4   9  19  37  59  80 102 134 182 237 290 346
#     4  10  21  40  67  96 125 161 209 263 314 363
#     4  10  20  37  62  88 115 149 192 243 297 353
#     4  11  25  43  63  91 131 175 212 251 304 367
#
# _framework density 20.203475999999998
#
# number of rings (size 3 to 8) (size 9 to 14) (size 15 to 20)
#    0.000    1.889    1.111    3.000    0.000    9.778 
#    0.000    5.556    0.000    0.000    0.000    0.000 
#    0.000    0.000    0.000    0.000    0.000    0.000 
#
# Total GULP energy -446418.227376 kJ/mol
# GULP energy per Si atom -12400.506316 kJ/mol
# Density = 2.015749 g / cm^3
# Si number density = 20.203476 Si / 1000 Ang^3
#
#
#
# Elastic Constant Matrix: (Units=GPa)
#
#
# Indices 1 2 3 4 5 6 
#
# 1 99.2379 48.8652 39.4303 0.0000 0.0000 0.0000
# 2 48.8652 120.0356 63.1807 0.0000 0.0000 0.0000
# 3 39.4303 63.1807 96.7068 0.0000 0.0000 0.0000
# 4 0.0000 0.0000 0.0000 -22.2136 0.0000 0.0000
# 5 0.0000 0.0000 0.0000 0.0000 22.4444 0.0000
# 6 0.0000 0.0000 0.0000 0.0000 0.0000 15.0850
#
#
#
# Elastic Compliance Matrix: (Units=1/GPa)
#
#
# Indices 1 2 3 4 5 6 
#
# 1 0.013092 -0.003841 -0.002829 0.000000 0.000000 0.000000
# 2 -0.003841 0.013824 -0.007465 0.000000 0.000000 0.000000
# 3 -0.002829 -0.007465 0.016371 0.000000 0.000000 0.000000
# 4 0.000000 0.000000 0.000000 -0.045017 0.000000 0.000000
# 5 0.000000 0.000000 0.000000 0.000000 0.044555 0.000000
# 6 0.000000 0.000000 0.000000 0.000000 0.000000 0.066291
#
#
# Mechanical properties :
#
#
# Convention : Reuss Voigt Hill
#
# Bulk Modulus (GPa) = 66.59030 68.77030 67.68030
# Shear Modulus (GPa) = 35.11470 14.03009 24.57240
#
# Velocity S-wave (km/s) = 4.17352 2.63808 3.49126
# Velocity P-wave (km/s) = 7.50038 6.58726 7.05860
#
# Compressibility (1/GPa) = 0.01501720
#
# Stress axis : x y z
#
# Youngs Moduli (GPa) = 76.38304 72.33921 61.08270
#
# Poissons Ratio (x) = 0.27783 0.17279
# Poissons Ratio (y) = 0.29336 0.45601
# Poissons Ratio (z) = 0.21607 0.54004
#
# Static dielectric constant tensor:
#      x y z
#    x 3.697290 0.000000 0.000000 
#    y 0.000000 3.715280 0.000000 
#    z 0.000000 0.000000 3.522990 
# 
# 
# High freq. dielectric constant tensor:
#      x y z
#    x 1.794000 0.000000 0.000000 
#    y 0.000000 1.781590 0.000000 
#    z 0.000000 0.000000 1.787230 
# 
# From -- ./inp_files/1431.got.cif
#   From: 2010.03.12/outbox.cif.g09.slc.cpg/sg47_1_cif.got.tgz:1431.got - 2010.04.14 03:12:58.
