data_PCOD8198717
_publ_section_title
;
Structure prediction by ZEFSAII (Michael W. Deem and Ramdas Pophale) SiO2 
 PCOD8198717
Probable space group: P M M M
;
_chemical_formula_sum "Si O2"
_cell_formula_units_Z 48
_cell_length_a 34.262489
_cell_length_b 7.695347
_cell_length_c 9.159761
_cell_angle_alpha 90.000000
_cell_angle_beta 90.000000
_cell_angle_gamma 90.000000
_cell_volume 2415.078541
_symmetry_space_group_name_H-M "P M M M"
_symmetry_group_IT_number 47
_symmetry_cell_setting 'orthorhombic'
loop_
_space_group_symop_operation_xyz
x,y,z
-x,-y,z
x,-y,-z
-x,y,-z
-x,-y,-z
x,y,-z
-x,y,z
x,-y,z
loop_
_atom_site_type_symbol
_atom_site_label
_atom_site_fract_x
_atom_site_fract_y
_atom_site_fract_z
Si Si1 0.350027 0.293686 0.836355
Si Si2 0.867574 0.000000 0.171610
Si Si3 0.000000 0.799612 0.327973
Si Si4 0.272566 0.301018 0.670070
Si Si5 0.423273 0.701842 0.661864
Si Si6 0.785930 0.000000 0.329804
Si Si7 0.500000 0.204711 0.165156
Si Si8 0.923714 0.305171 0.832865
O O1 0.353167 0.500000 0.841136
O O2 0.310309 0.236815 0.757863
O O3 0.386807 0.213588 0.748372
O O4 0.350449 0.216781 0.000000
O O5 0.826046 0.000000 0.245586
O O6 0.891111 0.829219 0.223311
O O7 0.860805 0.000000 0.000000
O O8 0.037912 0.707671 0.264219
O O9 0.000000 0.774034 0.500000
O O10 0.000000 0.000000 0.281432
O O11 0.282774 0.283348 0.500000
O O12 0.261037 0.500000 0.709440
O O13 0.237367 0.174234 0.714694
O O14 0.426977 0.786576 0.500000
O O15 0.414963 0.500000 0.643316
O O16 0.462365 0.727159 0.752126
O O17 0.795234 0.000000 0.500000
O O18 0.500000 0.000000 0.164506
O O19 0.500000 0.278278 0.000000
O O20 0.906654 0.500000 0.818168
O O21 0.935037 0.262271 0.000000
#
# Coordination Sequence:
#
# PCOD8198717 Si02
#       8
#     8   4   4   8   8   4   4   8
#     4   9  17  31  54  83 110 136 171 217 267 318
#     4  10  22  39  57  80 113 148 187 239 286 332
#     4  11  22  35  56  87 121 154 191 240 293 341
#     4   9  18  35  57  80 109 143 179 223 275 333
#     4  10  20  35  57  82 106 138 180 220 263 322
#     4  10  22  38  57  83 112 145 188 230 278 342
#     4  11  24  39  52  72 106 143 180 223 268 314
#     4  10  21  38  60  84 112 153 200 240 286 344
#
# _framework density 19.875129000000001
#
# number of rings (size 3 to 8) (size 9 to 14) (size 15 to 20)
#    0.000    2.167    0.833    2.000    0.000    8.333 
#    1.500    0.000    0.000    0.000    0.000    0.000 
#    0.000    0.000    0.000    0.000    0.000    0.000 
#
# Total GULP energy -595260.377145 kJ/mol
# GULP energy per Si atom -12401.257857 kJ/mol
# Density = 1.982989 g / cm^3
# Si number density = 19.875129 Si / 1000 Ang^3
#
#
#
# Elastic Constant Matrix: (Units=GPa)
#
#
# Indices 1 2 3 4 5 6 
#
# 1 181.5704 55.5512 81.5138 0.0000 0.0000 0.0000
# 2 55.5512 91.7713 35.7668 0.0000 0.0000 0.0000
# 3 81.5138 35.7668 118.6635 0.0000 0.0000 0.0000
# 4 0.0000 0.0000 0.0000 16.2898 0.0000 0.0000
# 5 0.0000 0.0000 0.0000 0.0000 45.2397 0.0000
# 6 0.0000 0.0000 0.0000 0.0000 0.0000 24.0106
#
#
#
# Elastic Compliance Matrix: (Units=1/GPa)
#
#
# Indices 1 2 3 4 5 6 
#
# 1 0.008793 -0.003364 -0.005026 0.000000 0.000000 0.000000
# 2 -0.003364 0.013634 -0.001799 0.000000 0.000000 0.000000
# 3 -0.005026 -0.001799 0.012422 0.000000 0.000000 0.000000
# 4 0.000000 0.000000 0.000000 0.061388 0.000000 0.000000
# 5 0.000000 0.000000 0.000000 0.000000 0.022105 0.000000
# 6 0.000000 0.000000 0.000000 0.000000 0.000000 0.041648
#
#
# Mechanical properties :
#
#
# Convention : Reuss Voigt Hill
#
# Bulk Modulus (GPa) = 69.10216 81.96321 75.53268
# Shear Modulus (GPa) = 26.99904 31.71958 29.35931
#
# Velocity S-wave (km/s) = 3.68969 3.99926 3.84759
# Velocity P-wave (km/s) = 7.27979 7.91543 7.60426
#
# Compressibility (1/GPa) = 0.01447133
#
# Stress axis : x y z
#
# Youngs Moduli (GPa) = 113.72430 73.34698 80.50103
#
# Poissons Ratio (x) = 0.24672 0.40464
# Poissons Ratio (y) = 0.38254 0.14480
# Poissons Ratio (z) = 0.57163 0.13193
#
# Static dielectric constant tensor:
#      x y z
#    x 3.511670 0.000000 0.000000 
#    y 0.000000 3.674480 0.000000 
#    z 0.000000 0.000000 3.796020 
# 
# 
# High freq. dielectric constant tensor:
#      x y z
#    x 1.769750 0.000000 0.000000 
#    y 0.000000 1.772100 0.000000 
#    z 0.000000 0.000000 1.779620 
# 
# From -- ./inp_files/14037.got.cif
#   From: 2010.03.12/outbox.cif.g09.slc.cpg/sg47_8_cif.got.tgz:14037.got - 2010.04.14 03:12:58.
