data_PCOD8198949
_publ_section_title
;
Structure prediction by ZEFSAII (Michael W. Deem and Ramdas Pophale) SiO2 
 PCOD8198949
Probable space group: P M M M
;
_chemical_formula_sum "Si O2"
_cell_formula_units_Z 32
_cell_length_a 7.742340
_cell_length_b 22.342088
_cell_length_c 9.309767
_cell_angle_alpha 90.000000
_cell_angle_beta 90.000000
_cell_angle_gamma 90.000000
_cell_volume 1610.403883
_symmetry_space_group_name_H-M "P M M M"
_symmetry_group_IT_number 47
_symmetry_cell_setting 'orthorhombic'
loop_
_space_group_symop_operation_xyz
x,y,z
-x,-y,z
x,-y,-z
-x,y,-z
-x,-y,-z
x,y,-z
-x,y,z
x,-y,z
loop_
_atom_site_type_symbol
_atom_site_label
_atom_site_fract_x
_atom_site_fract_y
_atom_site_fract_z
Si Si1 0.693252 0.867953 0.667201
Si Si2 0.793823 0.500000 0.838728
Si Si3 0.809032 0.258974 0.330139
Si Si4 0.206337 0.611818 0.660849
Si Si5 0.000000 0.929444 0.165861
O O1 0.745284 0.874326 0.500000
O O2 0.500000 0.892715 0.694593
O O3 0.693262 0.797890 0.713474
O O4 0.827187 0.905125 0.760567
O O5 0.720329 0.440800 0.761013
O O6 0.000000 0.500000 0.834297
O O7 0.722913 0.500000 0.000000
O O8 0.822919 0.264995 0.500000
O O9 0.732153 0.323063 0.276874
O O10 0.000000 0.247558 0.265242
O O11 0.277388 0.600804 0.500000
O O12 0.000000 0.611674 0.658889
O O13 0.000000 0.000000 0.184005
O O14 0.000000 0.909965 0.000000
#
# Coordination Sequence:
#
# PCOD8198949 Si02
#       5
#     8   4   8   8   4
#     4  10  20  36  62  92 118 146 185 236 288 335
#     4   9  15  21  29  49  86 123 160 217 273 310
#     4   8  13  25  47  73 102 134 171 219 274 330
#     4   8  13  21  36  56  82 124 170 208 256 323
#     4  11  25  43  61  83 117 160 195 226 269 325
#
# _framework density 19.870792999999999
#
# number of rings (size 3 to 8) (size 9 to 14) (size 15 to 20)
#    0.000    3.000    1.250    2.250    0.000    3.500 
#    0.000    3.750    0.000    0.000    0.000    0.875 
#    0.000    7.000    0.000    0.000    0.000    0.000 
#
# Total GULP energy -396523.495234 kJ/mol
# GULP energy per Si atom -12391.359226 kJ/mol
# Density = 1.982557 g / cm^3
# Si number density = 19.870793 Si / 1000 Ang^3
#
#
#
# Elastic Constant Matrix: (Units=GPa)
#
#
# Indices 1 2 3 4 5 6 
#
# 1 78.9955 45.8302 42.6910 0.0000 0.0000 0.0000
# 2 45.8302 131.1242 68.7615 0.0000 0.0000 0.0000
# 3 42.6910 68.7615 103.6582 0.0000 0.0000 0.0000
# 4 0.0000 0.0000 0.0000 5.8453 0.0000 0.0000
# 5 0.0000 0.0000 0.0000 0.0000 9.3605 0.0000
# 6 0.0000 0.0000 0.0000 0.0000 0.0000 -0.3401
#
#
#
# Elastic Compliance Matrix: (Units=1/GPa)
#
#
# Indices 1 2 3 4 5 6 
#
# 1 0.017293 -0.003541 -0.004773 0.000000 0.000000 0.000000
# 2 -0.003541 0.012420 -0.006780 0.000000 0.000000 0.000000
# 3 -0.004773 -0.006780 0.016110 0.000000 0.000000 0.000000
# 4 0.000000 0.000000 0.000000 0.171078 0.000000 0.000000
# 5 0.000000 0.000000 0.000000 0.000000 0.106832 0.000000
# 6 0.000000 0.000000 0.000000 0.000000 0.000000 -2.940734
#
#
# Mechanical properties :
#
#
# Convention : Reuss Voigt Hill
#
# Bulk Modulus (GPa) = 63.96174 69.81592 66.88883
# Shear Modulus (GPa) = -1.93678 13.40616 5.73469
#
# Velocity S-wave (km/s) = -0.98833 2.60025 1.70066
# Velocity P-wave (km/s) = 5.56384 6.65029 6.13117
#
# Compressibility (1/GPa) = 0.01563435
#
# Stress axis : x y z
#
# Youngs Moduli (GPa) = 57.82745 80.51831 62.07217
#
# Poissons Ratio (x) = 0.28514 0.29626
# Poissons Ratio (y) = 0.20478 0.42085
# Poissons Ratio (z) = 0.27600 0.54592
#
# Static dielectric constant tensor:
#      x y z
#    x 3.229380 0.000000 0.000000 
#    y 0.000000 3.984590 0.000000 
#    z 0.000000 0.000000 3.360160 
# 
# 
# High freq. dielectric constant tensor:
#      x y z
#    x 1.746590 0.000000 0.000000 
#    y 0.000000 1.789290 0.000000 
#    z 0.000000 0.000000 1.730470 
# 
# From -- ./inp_files/1289.got.cif
#   From: 2010.03.12/outbox.cif.g09.slc.cpg/sg47_1_cif.got.tgz:1289.got - 2010.04.14 03:12:58.
