data_PCOD8198794
_publ_section_title
;
Structure prediction by ZEFSAII (Michael W. Deem and Ramdas Pophale) SiO2 
 PCOD8198794
Probable space group: P M M M
;
_chemical_formula_sum "Si O2"
_cell_formula_units_Z 52
_cell_length_a 14.686608
_cell_length_b 8.758036
_cell_length_c 20.627722
_cell_angle_alpha 90.000000
_cell_angle_beta 90.000000
_cell_angle_gamma 90.000000
_cell_volume 2653.258102
_symmetry_space_group_name_H-M "P M M M"
_symmetry_group_IT_number 47
_symmetry_cell_setting 'orthorhombic'
loop_
_space_group_symop_operation_xyz
x,y,z
-x,-y,z
x,-y,-z
-x,y,-z
-x,-y,-z
x,y,-z
-x,y,z
x,-y,z
loop_
_atom_site_type_symbol
_atom_site_label
_atom_site_fract_x
_atom_site_fract_y
_atom_site_fract_z
Si Si1 0.817162 0.820781 0.072197
Si Si2 0.237361 0.675479 0.803735
Si Si3 0.599828 0.676153 0.606184
Si Si4 0.894120 0.680689 0.311434
Si Si5 0.399331 0.172601 0.258526
Si Si6 0.000000 0.332448 0.923671
Si Si7 0.780913 0.176134 0.571530
O O1 0.750543 0.765629 0.128312
O O2 0.913115 0.760598 0.099070
O O3 0.819470 0.000000 0.067468
O O4 0.793343 0.754926 0.000000
O O5 0.220711 0.500000 0.820159
O O6 0.158707 0.734523 0.754047
O O7 0.335227 0.701033 0.772774
O O8 0.500000 0.688866 0.570857
O O9 0.616776 0.500000 0.626583
O O10 0.596819 0.788823 0.666522
O O11 0.685057 0.733722 0.564383
O O12 0.884645 0.500000 0.319206
O O13 0.848153 0.755384 0.374475
O O14 0.000000 0.730946 0.306444
O O15 0.500000 0.186022 0.227600
O O16 0.361467 0.000000 0.249400
O O17 0.000000 0.500000 0.890499
O O18 0.000000 0.349653 0.000000
O O19 0.826881 0.190126 0.500000
O O20 0.762375 0.000000 0.589198
#
# Coordination Sequence:
#
# PCOD8198794 Si02
#       7
#     8   8   8   8   8   4   8
#     4  10  21  36  54  80 116 156 197 239 287 346
#     4  11  22  36  60  89 117 151 192 240 289 341
#     4  10  20  35  57  85 116 149 187 233 287 346
#     4  10  23  42  61  84 114 149 194 243 289 340
#     4  10  20  35  58  87 118 151 187 231 286 346
#     4   9  17  31  51  75 107 147 190 235 282 335
#     4  11  24  40  59  84 115 152 194 240 291 347
#
# _framework density 19.598544
#
# number of rings (size 3 to 8) (size 9 to 14) (size 15 to 20)
#    0.000    1.769    1.538    2.538    1.077    6.462 
#    0.000    3.077    0.000    0.462    0.000    3.231 
#    0.000    0.000    0.000    0.000    0.000    0.000 
#
# Total GULP energy -644389.019274 kJ/mol
# GULP energy per Si atom -12392.096525 kJ/mol
# Density = 1.955394 g / cm^3
# Si number density = 19.598544 Si / 1000 Ang^3
#
#
#
# Elastic Constant Matrix: (Units=GPa)
#
#
# Indices 1 2 3 4 5 6 
#
# 1 100.9329 31.4213 42.7024 0.0000 0.0000 0.0000
# 2 31.4213 72.7509 34.4326 0.0000 0.0000 0.0000
# 3 42.7024 34.4326 111.5552 0.0000 0.0000 0.0000
# 4 0.0000 0.0000 0.0000 29.1224 0.0000 0.0000
# 5 0.0000 0.0000 0.0000 0.0000 13.9377 0.0000
# 6 0.0000 0.0000 0.0000 0.0000 0.0000 30.6678
#
#
#
# Elastic Compliance Matrix: (Units=1/GPa)
#
#
# Indices 1 2 3 4 5 6 
#
# 1 0.012621 -0.003706 -0.003687 0.000000 0.000000 0.000000
# 2 -0.003706 0.017185 -0.003886 0.000000 0.000000 0.000000
# 3 -0.003687 -0.003886 0.011575 0.000000 0.000000 0.000000
# 4 0.000000 0.000000 0.000000 0.034338 0.000000 0.000000
# 5 0.000000 0.000000 0.000000 0.000000 0.071748 0.000000
# 6 0.000000 0.000000 0.000000 0.000000 0.000000 0.032608
#
#
# Mechanical properties :
#
#
# Convention : Reuss Voigt Hill
#
# Bulk Modulus (GPa) = 53.12566 55.81685 54.47126
# Shear Modulus (GPa) = 23.93400 26.52441 25.22921
#
# Velocity S-wave (km/s) = 3.49838 3.68283 3.59179
# Velocity P-wave (km/s) = 6.59424 6.82834 6.71231
#
# Compressibility (1/GPa) = 0.01882329
#
# Stress axis : x y z
#
# Youngs Moduli (GPa) = 79.23078 58.18939 86.39241
#
# Poissons Ratio (x) = 0.21565 0.31857
# Poissons Ratio (y) = 0.29362 0.33570
# Poissons Ratio (z) = 0.29216 0.22611
#
# Static dielectric constant tensor:
#      x y z
#    x 3.724160 0.000000 0.000000 
#    y 0.000000 3.578700 0.000000 
#    z 0.000000 0.000000 3.495710 
# 
# 
# High freq. dielectric constant tensor:
#      x y z
#    x 1.753380 0.000000 0.000000 
#    y 0.000000 1.770610 0.000000 
#    z 0.000000 0.000000 1.754760 
# 
# From -- ./inp_files/29593.got.cif
#   From: 2010.03.12/outbox.cif.g09.slc.cpg/sg47_15_cif.got.tgz:29593.got - 2010.04.14 03:12:58.
