data_PCOD8198831
_publ_section_title
;
Structure prediction by ZEFSAII (Michael W. Deem and Ramdas Pophale) SiO2 
 PCOD8198831
Probable space group: P M M M
;
_chemical_formula_sum "Si O2"
_cell_formula_units_Z 40
_cell_length_a 7.983024
_cell_length_b 27.423067
_cell_length_c 9.138709
_cell_angle_alpha 90.000000
_cell_angle_beta 90.000000
_cell_angle_gamma 90.000000
_cell_volume 2000.637054
_symmetry_space_group_name_H-M "P M M M"
_symmetry_group_IT_number 47
_symmetry_cell_setting 'orthorhombic'
loop_
_space_group_symop_operation_xyz
x,y,z
-x,-y,z
x,-y,-z
-x,y,-z
-x,-y,-z
x,y,-z
-x,y,z
x,-y,z
loop_
_atom_site_type_symbol
_atom_site_label
_atom_site_fract_x
_atom_site_fract_y
_atom_site_fract_z
Si Si1 0.304364 0.397754 0.163522
Si Si2 0.807812 0.790512 0.167247
Si Si3 0.301365 0.695981 0.332336
Si Si4 0.196118 0.500000 0.833487
Si Si5 0.312364 0.881873 0.669760
Si Si6 0.000000 0.945470 0.673810
O O1 0.500000 0.390614 0.150842
O O2 0.232189 0.354540 0.263976
O O3 0.264585 0.450132 0.239540
O O4 0.223446 0.394987 0.000000
O O5 0.786066 0.739316 0.246351
O O6 0.695067 0.831275 0.243937
O O7 0.000000 0.807087 0.178283
O O8 0.749183 0.785000 0.000000
O O9 0.244102 0.697837 0.500000
O O10 0.500000 0.700806 0.317070
O O11 0.000000 0.500000 0.820645
O O12 0.261911 0.500000 0.000000
O O13 0.279180 0.870278 0.500000
O O14 0.500000 0.904073 0.692054
O O15 0.169801 0.918842 0.729233
O O16 0.000000 0.947742 0.500000
O O17 0.000000 0.000000 0.739787
#
# Coordination Sequence:
#
# PCOD8198831 Si02
#       6
#     8   8   8   4   8   4
#     4   9  17  31  51  73  99 133 173 216 265 322
#     4  11  23  37  55  80 110 146 187 230 279 335
#     4  10  21  36  54  78 107 139 177 222 275 333
#     4   9  17  29  48  73  98 126 166 217 266 315
#     4  10  20  35  58  86 116 153 194 235 283 336
#     4   9  18  34  57  87 123 157 191 236 283 328
#
# _framework density 19.993632999999999
#
# number of rings (size 3 to 8) (size 9 to 14) (size 15 to 20)
#    0.000    2.200    1.000    2.100    0.000    7.600 
#    0.000    4.500    0.000    4.200    0.000    1.400 
#    0.000    0.000    0.000    0.000    0.000    0.000 
#
# Total GULP energy -495951.272886 kJ/mol
# GULP energy per Si atom -12398.781822 kJ/mol
# Density = 1.994813 g / cm^3
# Si number density = 19.993633 Si / 1000 Ang^3
#
#
#
# Elastic Constant Matrix: (Units=GPa)
#
#
# Indices 1 2 3 4 5 6 
#
# 1 81.1861 48.1592 31.1646 0.0000 0.0000 0.0000
# 2 48.1592 161.8486 52.4248 0.0000 0.0000 0.0000
# 3 31.1646 52.4248 90.6671 0.0000 0.0000 0.0000
# 4 0.0000 0.0000 0.0000 34.3374 0.0000 0.0000
# 5 0.0000 0.0000 0.0000 0.0000 18.5088 0.0000
# 6 0.0000 0.0000 0.0000 0.0000 0.0000 30.9675
#
#
#
# Elastic Compliance Matrix: (Units=1/GPa)
#
#
# Indices 1 2 3 4 5 6 
#
# 1 0.015731 -0.003605 -0.003323 0.000000 0.000000 0.000000
# 2 -0.003605 0.008428 -0.003634 0.000000 0.000000 0.000000
# 3 -0.003323 -0.003634 0.014273 0.000000 0.000000 0.000000
# 4 0.000000 0.000000 0.000000 0.029123 0.000000 0.000000
# 5 0.000000 0.000000 0.000000 0.000000 0.054028 0.000000
# 6 0.000000 0.000000 0.000000 0.000000 0.000000 0.032292
#
#
# Mechanical properties :
#
#
# Convention : Reuss Voigt Hill
#
# Bulk Modulus (GPa) = 57.77465 66.35544 62.06504
# Shear Modulus (GPa) = 27.65958 30.22627 28.94292
#
# Velocity S-wave (km/s) = 3.72347 3.89240 3.80887
# Velocity P-wave (km/s) = 6.88803 7.31173 7.10304
#
# Compressibility (1/GPa) = 0.01730863
#
# Stress axis : x y z
#
# Youngs Moduli (GPa) = 63.56799 118.64624 70.06217
#
# Poissons Ratio (x) = 0.42767 0.23282
# Poissons Ratio (y) = 0.22913 0.25464
# Poissons Ratio (z) = 0.21124 0.43121
#
# Static dielectric constant tensor:
#      x y z
#    x 3.564010 0.000000 0.000000 
#    y 0.000000 3.806780 0.000000 
#    z 0.000000 0.000000 3.521960 
# 
# 
# High freq. dielectric constant tensor:
#      x y z
#    x 1.779290 0.000000 0.000000 
#    y 0.000000 1.785460 0.000000 
#    z 0.000000 0.000000 1.749670 
# 
# From -- ./inp_files/1869.got.cif
#   From: 2010.03.12/outbox.cif.g09.slc.cpg/sg47_1_cif.got.tgz:1869.got - 2010.04.14 03:12:58.
