data_PCOD8198012
_publ_section_title
;
Structure prediction by ZEFSAII (Michael W. Deem and Ramdas Pophale) SiO2 
 PCOD8198012
Probable space group: P M M M
;
_chemical_formula_sum "Si O2"
_cell_formula_units_Z 52
_cell_length_a 17.724567
_cell_length_b 18.069040
_cell_length_c 8.895702
_cell_angle_alpha 90.000000
_cell_angle_beta 90.000000
_cell_angle_gamma 90.000000
_cell_volume 2848.990097
_symmetry_space_group_name_H-M "P M M M"
_symmetry_group_IT_number 47
_symmetry_cell_setting 'orthorhombic'
loop_
_space_group_symop_operation_xyz
x,y,z
-x,-y,z
x,-y,-z
-x,y,-z
-x,-y,-z
x,y,-z
-x,y,z
x,-y,z
loop_
_atom_site_type_symbol
_atom_site_label
_atom_site_fract_x
_atom_site_fract_y
_atom_site_fract_z
Si Si1 0.089502 0.000000 0.327767
Si Si2 0.332916 0.780602 0.172777
Si Si3 0.734583 0.582191 0.675395
Si Si4 0.584638 0.366892 0.171867
Si Si5 0.416979 0.079875 0.177468
Si Si6 0.811409 0.727936 0.324679
Si Si7 0.088450 0.848579 0.825620
O O1 0.120428 0.924170 0.250958
O O2 0.115961 0.000000 0.500000
O O3 0.000000 0.000000 0.311570
O O4 0.399266 0.720485 0.184086
O O5 0.363390 0.857023 0.239651
O O6 0.267056 0.766585 0.289746
O O7 0.303047 0.785476 0.000000
O O8 0.722932 0.595096 0.500000
O O9 0.765764 0.500000 0.712200
O O10 0.651110 0.589330 0.745003
O O11 0.797345 0.642331 0.732000
O O12 0.500000 0.382476 0.237809
O O13 0.586621 0.393118 0.000000
O O14 0.500000 0.086899 0.249378
O O15 0.381791 0.000000 0.218753
O O16 0.424280 0.089734 0.000000
O O17 0.831180 0.730794 0.500000
O O18 0.876691 0.772302 0.238374
O O19 0.000000 0.841801 0.796262
O O20 0.108612 0.854521 0.000000
#
# Coordination Sequence:
#
# PCOD8198012 Si02
#       7
#     4   8   8   8   8   8   8
#     4   9  17  31  53  81 111 139 166 197 236 281
#     4   9  16  28  45  64  91 125 161 202 249 299
#     4   9  19  35  52  70  95 129 168 210 257 309
#     4   9  17  28  44  68  95 124 161 206 256 308
#     4   8  13  22  39  63  87 114 155 204 246 283
#     4  10  20  34  52  73  98 129 166 206 250 302
#     4  10  20  35  56  81 108 137 169 204 242 290
#
# _framework density 18.252082000000001
#
# number of rings (size 3 to 8) (size 9 to 14) (size 15 to 20)
#    0.000    2.846    0.000    2.077    0.000    5.231 
#    1.385    1.538    0.000    1.846    0.000    4.308 
#    0.000    0.000    0.000    0.000    0.000    0.000 
#
# Total GULP energy -644254.506078 kJ/mol
# GULP energy per Si atom -12389.509732 kJ/mol
# Density = 1.821054 g / cm^3
# Si number density = 18.252082 Si / 1000 Ang^3
#
#
#
# Elastic Constant Matrix: (Units=GPa)
#
#
# Indices 1 2 3 4 5 6 
#
# 1 52.3292 46.9407 30.1935 0.0000 0.0000 0.0000
# 2 46.9407 156.3826 44.5320 0.0000 0.0000 0.0000
# 3 30.1935 44.5320 59.9123 0.0000 0.0000 0.0000
# 4 0.0000 0.0000 0.0000 22.6384 0.0000 0.0000
# 5 0.0000 0.0000 0.0000 0.0000 21.6733 0.0000
# 6 0.0000 0.0000 0.0000 0.0000 0.0000 20.8989
#
#
#
# Elastic Compliance Matrix: (Units=1/GPa)
#
#
# Indices 1 2 3 4 5 6 
#
# 1 0.031013 -0.006163 -0.011049 0.000000 0.000000 0.000000
# 2 -0.006163 0.009336 -0.003834 0.000000 0.000000 0.000000
# 3 -0.011049 -0.003834 0.025109 0.000000 0.000000 0.000000
# 4 0.000000 0.000000 0.000000 0.044173 0.000000 0.000000
# 5 0.000000 0.000000 0.000000 0.000000 0.046140 0.000000
# 6 0.000000 0.000000 0.000000 0.000000 0.000000 0.047849
#
#
# Mechanical properties :
#
#
# Convention : Reuss Voigt Hill
#
# Bulk Modulus (GPa) = 42.79422 56.88405 49.83913
# Shear Modulus (GPa) = 19.72398 22.83933 21.28165
#
# Velocity S-wave (km/s) = 3.29088 3.54125 3.41836
# Velocity P-wave (km/s) = 6.15930 6.92488 6.55328
#
# Compressibility (1/GPa) = 0.02336764
#
# Stress axis : x y z
#
# Youngs Moduli (GPa) = 32.24460 107.11126 39.82703
#
# Poissons Ratio (x) = 0.66010 0.44003
# Poissons Ratio (y) = 0.19872 0.15268
# Poissons Ratio (z) = 0.35626 0.41062
#
# Static dielectric constant tensor:
#      x y z
#    x 3.196870 0.000000 0.000000 
#    y 0.000000 3.767270 0.000000 
#    z 0.000000 0.000000 3.180950 
# 
# 
# High freq. dielectric constant tensor:
#      x y z
#    x 1.676990 0.000000 0.000000 
#    y 0.000000 1.719680 0.000000 
#    z 0.000000 0.000000 1.687920 
# 
# From -- ./inp_files/9580.got.cif
#   From: 2010.03.12/outbox.cif.g09.slc.cpg/sg47_5_cif.got.tgz:9580.got - 2010.04.14 03:12:58.
