data_PCOD8198961
_publ_section_title
;
Structure prediction by ZEFSAII (Michael W. Deem and Ramdas Pophale) SiO2 
 PCOD8198961
Probable space group: P M M M
;
_chemical_formula_sum "Si O2"
_cell_formula_units_Z 52
_cell_length_a 9.186304
_cell_length_b 18.800853
_cell_length_c 15.854071
_cell_angle_alpha 90.000000
_cell_angle_beta 90.000000
_cell_angle_gamma 90.000000
_cell_volume 2738.162169
_symmetry_space_group_name_H-M "P M M M"
_symmetry_group_IT_number 47
_symmetry_cell_setting 'orthorhombic'
loop_
_space_group_symop_operation_xyz
x,y,z
-x,-y,z
x,-y,-z
-x,y,-z
-x,-y,-z
x,y,-z
-x,y,z
x,-y,z
loop_
_atom_site_type_symbol
_atom_site_label
_atom_site_fract_x
_atom_site_fract_y
_atom_site_fract_z
Si Si1 0.170417 0.849827 0.341902
Si Si2 0.162819 0.699472 0.594839
Si Si3 0.670010 0.418815 0.325684
Si Si4 0.169251 0.917076 0.834061
Si Si5 0.334307 0.084556 0.000000
Si Si6 0.333217 0.915973 0.500000
Si Si7 0.162443 0.584260 0.159206
Si Si8 0.336361 0.414954 0.000000
O O1 0.201866 0.765226 0.344415
O O2 0.222637 0.876906 0.250326
O O3 0.257820 0.888635 0.415230
O O4 0.000000 0.866076 0.355995
O O5 0.173217 0.729123 0.500000
O O6 0.275590 0.634109 0.601943
O O7 0.000000 0.670947 0.614106
O O8 0.500000 0.410335 0.309425
O O9 0.708237 0.500000 0.350622
O O10 0.754244 0.393055 0.242928
O O11 0.000000 0.902959 0.851374
O O12 0.201608 0.000000 0.820065
O O13 0.255968 0.886833 0.915205
O O14 0.500000 0.111733 0.000000
O O15 0.324390 0.000000 0.000000
O O16 0.500000 0.889732 0.500000
O O17 0.322079 0.000000 0.500000
O O18 0.154547 0.500000 0.151573
O O19 0.000000 0.616834 0.159769
O O20 0.252019 0.615527 0.080876
O O21 0.339195 0.500000 0.000000
O O22 0.500000 0.384854 0.000000
#
# Coordination Sequence:
#
# PCOD8198961 Si02
#       8
#     8   8   8   8   4   4   8   4
#     4  10  20  37  58  80 108 146 189 230 274 326
#     4  10  21  38  58  79 104 135 175 223 273 330
#     4  10  21  36  54  77 104 134 172 220 274 332
#     4   9  17  30  52  81 110 144 188 232 270 313
#     4   9  17  29  47  74 111 150 184 225 275 321
#     4  11  23  35  51  81 118 151 184 225 269 316
#     4   9  16  27  45  70  99 130 165 205 251 305
#     4   9  15  23  39  66 101 136 165 197 245 307
#
# _framework density 18.990841
#
# number of rings (size 3 to 8) (size 9 to 14) (size 15 to 20)
#    0.000    2.385    0.769    2.077    0.000    7.692 
#    0.000    3.077    0.000    0.923    0.000    4.308 
#    0.000    0.000    0.000    0.000    0.000    0.000 
#
# Total GULP energy -644782.060463 kJ/mol
# GULP energy per Si atom -12399.655009 kJ/mol
# Density = 1.894762 g / cm^3
# Si number density = 18.990841 Si / 1000 Ang^3
#
#
#
# Elastic Constant Matrix: (Units=GPa)
#
#
# Indices 1 2 3 4 5 6 
#
# 1 117.1508 41.5341 65.2328 0.0000 0.0000 0.0000
# 2 41.5341 63.0163 46.4076 0.0000 0.0000 0.0000
# 3 65.2328 46.4076 140.9640 0.0000 0.0000 0.0000
# 4 0.0000 0.0000 0.0000 16.8919 0.0000 0.0000
# 5 0.0000 0.0000 0.0000 0.0000 23.1158 0.0000
# 6 0.0000 0.0000 0.0000 0.0000 0.0000 20.3593
#
#
#
# Elastic Compliance Matrix: (Units=1/GPa)
#
#
# Indices 1 2 3 4 5 6 
#
# 1 0.012733 -0.005350 -0.004131 0.000000 0.000000 0.000000
# 2 -0.005350 0.023196 -0.005161 0.000000 0.000000 0.000000
# 3 -0.004131 -0.005161 0.010705 0.000000 0.000000 0.000000
# 4 0.000000 0.000000 0.000000 0.059200 0.000000 0.000000
# 5 0.000000 0.000000 0.000000 0.000000 0.043261 0.000000
# 6 0.000000 0.000000 0.000000 0.000000 0.000000 0.049118
#
#
# Mechanical properties :
#
#
# Convention : Reuss Voigt Hill
#
# Bulk Modulus (GPa) = 57.63717 69.72001 63.67859
# Shear Modulus (GPa) = 21.43365 23.27050 22.35207
#
# Velocity S-wave (km/s) = 3.36315 3.50430 3.43445
# Velocity P-wave (km/s) = 6.74514 7.29148 7.02362
#
# Compressibility (1/GPa) = 0.01734991
#
# Stress axis : x y z
#
# Youngs Moduli (GPa) = 78.53547 43.11162 93.41757
#
# Poissons Ratio (x) = 0.23065 0.38591
# Poissons Ratio (y) = 0.42018 0.48208
# Poissons Ratio (z) = 0.32443 0.22248
#
# Static dielectric constant tensor:
#      x y z
#    x 3.574460 0.000000 0.000000 
#    y 0.000000 3.092970 0.000000 
#    z 0.000000 0.000000 3.586430 
# 
# 
# High freq. dielectric constant tensor:
#      x y z
#    x 1.742320 0.000000 0.000000 
#    y 0.000000 1.699020 0.000000 
#    z 0.000000 0.000000 1.746260 
# 
# From -- ./inp_files/21551.got.cif
#   From: 2010.03.12/outbox.cif.g09.slc.cpg/sg47_11_cif.got.tgz:21551.got - 2010.04.14 03:12:58.
