data_PCOD8198107
_publ_section_title
;
Structure prediction by ZEFSAII (Michael W. Deem and Ramdas Pophale) SiO2 
 PCOD8198107
Probable space group: P M M M
;
_chemical_formula_sum "Si O2"
_cell_formula_units_Z 44
_cell_length_a 19.836897
_cell_length_b 7.912875
_cell_length_c 14.792858
_cell_angle_alpha 90.000000
_cell_angle_beta 90.000000
_cell_angle_gamma 90.000000
_cell_volume 2321.988860
_symmetry_space_group_name_H-M "P M M M"
_symmetry_group_IT_number 47
_symmetry_cell_setting 'orthorhombic'
loop_
_space_group_symop_operation_xyz
x,y,z
-x,-y,z
x,-y,-z
-x,y,-z
-x,-y,-z
x,y,-z
-x,y,z
x,-y,z
loop_
_atom_site_type_symbol
_atom_site_label
_atom_site_fract_x
_atom_site_fract_y
_atom_site_fract_z
Si Si1 0.074517 0.308321 0.215723
Si Si2 0.657465 0.193258 0.102579
Si Si3 0.196177 0.694492 0.104023
Si Si4 0.419938 0.000000 0.603247
Si Si5 0.421549 0.690522 0.271949
Si Si6 0.920364 0.188954 0.596460
O O1 0.067385 0.500000 0.183888
O O2 0.132305 0.220895 0.155385
O O3 0.100814 0.304359 0.319336
O O4 0.000000 0.220791 0.205186
O O5 0.736136 0.205446 0.128683
O O6 0.614221 0.296954 0.174648
O O7 0.634337 0.000000 0.107194
O O8 0.646305 0.264572 0.000000
O O9 0.206879 0.500000 0.133186
O O10 0.178300 0.711592 0.000000
O O11 0.394498 0.169015 0.656350
O O12 0.500000 0.000000 0.598608
O O13 0.391191 0.000000 0.500000
O O14 0.500000 0.722620 0.254449
O O15 0.408965 0.500000 0.310043
O O16 0.891632 0.258690 0.500000
O O17 0.000000 0.185344 0.589537
O O18 0.892726 0.000000 0.613199
#
# Coordination Sequence:
#
# PCOD8198107 Si02
#       6
#     8   8   8   4   8   8
#     4   9  17  28  44  68  94 121 157 203 255 305
#     4  10  20  34  53  76 104 139 178 221 270 324
#     4   9  18  32  48  67  94 129 168 207 251 311
#     4   9  18  34  55  81 115 149 183 226 270 312
#     4  10  20  34  55  84 115 147 184 223 267 318
#     4   8  14  25  41  61  85 113 145 183 232 291
#
# _framework density 18.949273999999999
#
# number of rings (size 3 to 8) (size 9 to 14) (size 15 to 20)
#    0.000    2.818    0.909    1.091    0.000    3.273 
#    0.000    7.273    0.000    1.091    0.000    7.636 
#    0.000    0.000    0.000    0.000    0.000    0.000 
#
# Total GULP energy -545147.068097 kJ/mol
# GULP energy per Si atom -12389.706093 kJ/mol
# Density = 1.890614 g / cm^3
# Si number density = 18.949274 Si / 1000 Ang^3
#
#
#
# Elastic Constant Matrix: (Units=GPa)
#
#
# Indices 1 2 3 4 5 6 
#
# 1 57.2136 21.4295 50.7119 0.0000 0.0000 0.0000
# 2 21.4295 73.8199 39.1880 0.0000 0.0000 0.0000
# 3 50.7119 39.1880 117.0276 0.0000 0.0000 0.0000
# 4 0.0000 0.0000 0.0000 18.8716 0.0000 0.0000
# 5 0.0000 0.0000 0.0000 0.0000 8.2764 0.0000
# 6 0.0000 0.0000 0.0000 0.0000 0.0000 16.0722
#
#
#
# Elastic Compliance Matrix: (Units=1/GPa)
#
#
# Indices 1 2 3 4 5 6 
#
# 1 0.028643 -0.002099 -0.011709 0.000000 0.000000 0.000000
# 2 -0.002099 0.016629 -0.004659 0.000000 0.000000 0.000000
# 3 -0.011709 -0.004659 0.015179 0.000000 0.000000 0.000000
# 4 0.000000 0.000000 0.000000 0.052990 0.000000 0.000000
# 5 0.000000 0.000000 0.000000 0.000000 0.120826 0.000000
# 6 0.000000 0.000000 0.000000 0.000000 0.000000 0.062219
#
#
# Mechanical properties :
#
#
# Convention : Reuss Voigt Hill
#
# Bulk Modulus (GPa) = 42.52220 52.30220 47.41220
# Shear Modulus (GPa) = 14.65166 17.75949 16.20557
#
# Velocity S-wave (km/s) = 2.78367 3.06471 2.92757
# Velocity P-wave (km/s) = 5.72892 6.33911 6.04172
#
# Compressibility (1/GPa) = 0.02351713
#
# Stress axis : x y z
#
# Youngs Moduli (GPa) = 34.91254 60.13590 65.88065
#
# Poissons Ratio (x) = 0.12623 0.77140
# Poissons Ratio (y) = 0.07328 0.30693
# Poissons Ratio (z) = 0.40879 0.28016
#
# Static dielectric constant tensor:
#      x y z
#    x 3.278510 0.000000 0.000000 
#    y 0.000000 3.426200 0.000000 
#    z 0.000000 0.000000 3.920070 
# 
# 
# High freq. dielectric constant tensor:
#      x y z
#    x 1.698090 0.000000 0.000000 
#    y 0.000000 1.726910 0.000000 
#    z 0.000000 0.000000 1.737110 
# 
# From -- ./inp_files/24323.got.cif
#   From: 2010.03.12/outbox.cif.g09.slc.cpg/sg47_13_cif.got.tgz:24323.got - 2010.04.14 03:12:58.
