data_PCOD8198381
_publ_section_title
;
Structure prediction by ZEFSAII (Michael W. Deem and Ramdas Pophale) SiO2 
 PCOD8198381
Probable space group: P M M M
;
_chemical_formula_sum "Si O2"
_cell_formula_units_Z 64
_cell_length_a 8.983207
_cell_length_b 14.361266
_cell_length_c 25.608754
_cell_angle_alpha 90.000000
_cell_angle_beta 90.000000
_cell_angle_gamma 90.000000
_cell_volume 3303.791122
_symmetry_space_group_name_H-M "P M M M"
_symmetry_group_IT_number 47
_symmetry_cell_setting 'orthorhombic'
loop_
_space_group_symop_operation_xyz
x,y,z
-x,-y,z
x,-y,-z
-x,y,-z
-x,-y,-z
x,y,-z
-x,y,z
x,-y,z
loop_
_atom_site_type_symbol
_atom_site_label
_atom_site_fract_x
_atom_site_fract_y
_atom_site_fract_z
Si Si1 0.170679 0.269982 0.558308
Si Si2 0.323423 0.717853 0.749403
Si Si3 0.833974 0.098117 0.061941
Si Si4 0.174630 0.607080 0.655770
Si Si5 0.329367 0.393707 0.150213
Si Si6 0.822535 0.702185 0.058906
Si Si7 0.825873 0.894850 0.284297
Si Si8 0.328373 0.104869 0.606205
O O1 0.195118 0.310299 0.500000
O O2 0.216311 0.349745 0.599442
O O3 0.272513 0.178100 0.563482
O O4 0.000000 0.239900 0.566960
O O5 0.500000 0.719723 0.745284
O O6 0.261365 0.663656 0.699621
O O7 0.268558 0.667264 0.801896
O O8 0.259905 0.822707 0.752886
O O9 0.758189 0.196157 0.078618
O O10 0.000000 0.094708 0.085487
O O11 0.752266 0.000000 0.079165
O O12 0.844694 0.101710 0.000000
O O13 0.227177 0.500000 0.655988
O O14 0.000000 0.615231 0.667218
O O15 0.500000 0.370215 0.138200
O O16 0.307113 0.500000 0.166815
O O17 0.237497 0.375772 0.097610
O O18 0.000000 0.704408 0.060379
O O19 0.768105 0.679310 0.000000
O O20 0.770322 0.879221 0.342785
O O21 0.000000 0.872949 0.282704
O O22 0.791327 0.000000 0.265221
O O23 0.500000 0.123749 0.620533
O O24 0.307446 0.000000 0.584386
#
# Coordination Sequence:
#
# PCOD8198381 Si02
#       8
#     8   8   8   8   8   8   8   8
#     4  10  21  36  54  79 113 151 189 232 283 338
#     4  11  22  38  61  85 111 144 184 232 281 331
#     4   7  10  20  42  72 104 136 169 207 254 308
#     4  10  21  37  58  83 109 142 186 233 285 342
#     4  10  23  41  57  77 108 147 188 228 276 332
#     4   9  18  33  55  84 114 144 183 231 278 323
#     4  10  20  35  58  87 117 147 180 221 272 334
#     4  10  20  34  54  81 112 148 188 228 274 329
#
# _framework density 19.371683999999998
#
# number of rings (size 3 to 8) (size 9 to 14) (size 15 to 20)
#    0.000    2.375    1.250    2.625    0.000    4.750 
#    0.000    4.375    0.000    2.625    0.000    3.500 
#    0.000    0.000    0.000    0.000    0.000    0.000 
#
# Total GULP energy -793264.415041 kJ/mol
# GULP energy per Si atom -12394.756485 kJ/mol
# Density = 1.932759 g / cm^3
# Si number density = 19.371684 Si / 1000 Ang^3
#
#
#
# Elastic Constant Matrix: (Units=GPa)
#
#
# Indices 1 2 3 4 5 6 
#
# 1 53.6801 40.7888 36.7898 0.0000 0.0000 0.0000
# 2 40.7888 119.8849 55.2183 0.0000 0.0000 0.0000
# 3 36.7898 55.2183 107.1017 0.0000 0.0000 0.0000
# 4 0.0000 0.0000 0.0000 28.1308 0.0000 0.0000
# 5 0.0000 0.0000 0.0000 0.0000 -1.5434 0.0000
# 6 0.0000 0.0000 0.0000 0.0000 0.0000 27.1123
#
#
#
# Elastic Compliance Matrix: (Units=1/GPa)
#
#
# Indices 1 2 3 4 5 6 
#
# 1 0.027906 -0.006661 -0.006152 0.000000 0.000000 0.000000
# 2 -0.006661 0.012529 -0.004171 0.000000 0.000000 0.000000
# 3 -0.006152 -0.004171 0.013601 0.000000 0.000000 0.000000
# 4 0.000000 0.000000 0.000000 0.035548 0.000000 0.000000
# 5 0.000000 0.000000 0.000000 0.000000 -0.647901 0.000000
# 6 0.000000 0.000000 0.000000 0.000000 0.000000 0.036884
#
#
# Mechanical properties :
#
#
# Convention : Reuss Voigt Hill
#
# Bulk Modulus (GPa) = 49.83170 60.69561 55.26366
# Shear Modulus (GPa) = -10.39988 20.59792 5.09902
#
# Velocity S-wave (km/s) = -2.31954 3.26437 1.62417
# Velocity P-wave (km/s) = 4.31349 6.75339 5.66632
#
# Compressibility (1/GPa) = 0.02006755
#
# Stress axis : x y z
#
# Youngs Moduli (GPa) = 35.83401 79.81440 73.52575
#
# Poissons Ratio (x) = 0.53167 0.45230
# Poissons Ratio (y) = 0.23870 0.30671
# Poissons Ratio (z) = 0.22044 0.33294
#
# Static dielectric constant tensor:
#      x y z
#    x 3.341260 0.000000 0.000000 
#    y 0.000000 3.946600 0.000000 
#    z 0.000000 0.000000 3.326170 
# 
# 
# High freq. dielectric constant tensor:
#      x y z
#    x 1.733200 0.000000 0.000000 
#    y 0.000000 1.770410 0.000000 
#    z 0.000000 0.000000 1.733580 
# 
# From -- ./inp_files/21895.got.cif
#   From: 2010.03.12/outbox.cif.g09.slc.cpg/sg47_11_cif.got.tgz:21895.got - 2010.04.14 03:12:58.
