data_PCOD8198375
_publ_section_title
;
Structure prediction by ZEFSAII (Michael W. Deem and Ramdas Pophale) SiO2 
 PCOD8198375
Probable space group: P M M M
;
_chemical_formula_sum "Si O2"
_cell_formula_units_Z 48
_cell_length_a 30.961256
_cell_length_b 9.099395
_cell_length_c 8.911229
_cell_angle_alpha 90.000000
_cell_angle_beta 90.000000
_cell_angle_gamma 90.000000
_cell_volume 2510.548944
_symmetry_space_group_name_H-M "P M M M"
_symmetry_group_IT_number 47
_symmetry_cell_setting 'orthorhombic'
loop_
_space_group_symop_operation_xyz
x,y,z
-x,-y,z
x,-y,-z
-x,y,-z
-x,-y,-z
x,y,-z
-x,y,z
x,-y,z
loop_
_atom_site_type_symbol
_atom_site_label
_atom_site_fract_x
_atom_site_fract_y
_atom_site_fract_z
Si Si1 0.920848 0.169794 0.824082
Si Si2 0.831808 0.169415 0.324884
Si Si3 0.000000 0.673554 0.328364
Si Si4 0.419979 0.671197 0.824009
Si Si5 0.667505 0.325348 0.669115
Si Si6 0.500000 0.173443 0.326863
Si Si7 0.246667 0.674616 0.829702
O O1 0.875183 0.220940 0.757737
O O2 0.957680 0.266739 0.751341
O O3 0.929965 0.000000 0.785698
O O4 0.920311 0.198738 0.000000
O O5 0.838112 0.197852 0.500000
O O6 0.792918 0.266781 0.265980
O O7 0.821680 0.000000 0.289025
O O8 0.000000 0.500000 0.314283
O O9 0.000000 0.726201 0.500000
O O10 0.427540 0.500000 0.788374
O O11 0.375333 0.729206 0.753512
O O12 0.458015 0.762988 0.751775
O O13 0.418544 0.700959 0.000000
O O14 0.667711 0.262512 0.500000
O O15 0.668728 0.500000 0.667585
O O16 0.709153 0.264217 0.757063
O O17 0.500000 0.221009 0.500000
O O18 0.500000 0.000000 0.307077
O O19 0.245690 0.500000 0.824437
O O20 0.243721 0.732450 0.000000
#
# Coordination Sequence:
#
# PCOD8198375 Si02
#       7
#     8   8   4   8   8   4   8
#     4  10  21  38  60  83 107 140 182 224 268 320
#     4  10  21  37  57  81 109 143 183 225 268 316
#     4  11  24  39  56  82 114 145 178 219 268 320
#     4  10  20  35  57  83 108 137 177 222 266 317
#     4   9  17  31  53  80 109 141 177 219 266 315
#     4  11  24  39  54  76 108 143 178 219 268 320
#     4  10  20  34  54  81 112 145 180 220 268 319
#
# _framework density 19.119323999999999
#
# number of rings (size 3 to 8) (size 9 to 14) (size 15 to 20)
#    0.000    2.000    0.000    3.500    0.000   10.000 
#    0.000    0.833    0.000    5.000    0.000    0.000 
#    0.000    0.000    0.000    0.000    0.000    0.000 
#
# Total GULP energy -595397.448171 kJ/mol
# GULP energy per Si atom -12404.113504 kJ/mol
# Density = 1.907581 g / cm^3
# Si number density = 19.119324 Si / 1000 Ang^3
#
#
#
# Elastic Constant Matrix: (Units=GPa)
#
#
# Indices 1 2 3 4 5 6 
#
# 1 166.1085 41.8866 67.4320 0.0000 0.0000 0.0000
# 2 41.8866 36.5219 38.2678 0.0000 0.0000 0.0000
# 3 67.4320 38.2678 119.9448 0.0000 0.0000 0.0000
# 4 0.0000 0.0000 0.0000 26.8807 0.0000 0.0000
# 5 0.0000 0.0000 0.0000 0.0000 44.7220 0.0000
# 6 0.0000 0.0000 0.0000 0.0000 0.0000 -76.0924
#
#
#
# Elastic Compliance Matrix: (Units=1/GPa)
#
#
# Indices 1 2 3 4 5 6 
#
# 1 0.008999 -0.007540 -0.002653 0.000000 0.000000 0.000000
# 2 -0.007540 0.047449 -0.010899 0.000000 0.000000 0.000000
# 3 -0.002653 -0.010899 0.013306 0.000000 0.000000 0.000000
# 4 0.000000 0.000000 0.000000 0.037201 0.000000 0.000000
# 5 0.000000 0.000000 0.000000 0.000000 0.022360 0.000000
# 6 0.000000 0.000000 0.000000 0.000000 0.000000 -0.013142
#
#
# Mechanical properties :
#
#
# Convention : Reuss Voigt Hill
#
# Bulk Modulus (GPa) = 36.27381 68.63867 52.45624
# Shear Modulus (GPa) = 29.84204 10.76798 20.30501
#
# Velocity S-wave (km/s) = 3.95502 2.37576 3.26239
# Velocity P-wave (km/s) = 6.31425 6.59573 6.45653
#
# Compressibility (1/GPa) = 0.02756810
#
# Stress axis : x y z
#
# Youngs Moduli (GPa) = 111.12745 21.07524 75.15315
#
# Poissons Ratio (x) = 0.15892 0.19940
# Poissons Ratio (y) = 0.83794 0.81911
# Poissons Ratio (z) = 0.29485 0.22970
#
# Static dielectric constant tensor:
#      x y z
#    x 3.675400 0.000000 0.000000 
#    y 0.000000 3.234790 0.000000 
#    z 0.000000 0.000000 3.771750 
# 
# 
# High freq. dielectric constant tensor:
#      x y z
#    x 1.762230 0.000000 0.000000 
#    y 0.000000 1.714830 0.000000 
#    z 0.000000 0.000000 1.765470 
# 
# From -- ./inp_files/2775.got.cif
#   From: 2010.03.12/outbox.cif.g09.slc.cpg/sg47_2_cif.got.tgz:2775.got - 2010.04.14 03:12:58.
