data_PCOD8198589
_publ_section_title
;
Structure prediction by ZEFSAII (Michael W. Deem and Ramdas Pophale) SiO2 
 PCOD8198589
Probable space group: P M M M
;
_chemical_formula_sum "Si O2"
_cell_formula_units_Z 52
_cell_length_a 7.972112
_cell_length_b 12.257368
_cell_length_c 26.923714
_cell_angle_alpha 90.000000
_cell_angle_beta 90.000000
_cell_angle_gamma 90.000000
_cell_volume 2630.907537
_symmetry_space_group_name_H-M "P M M M"
_symmetry_group_IT_number 47
_symmetry_cell_setting 'orthorhombic'
loop_
_space_group_symop_operation_xyz
x,y,z
-x,-y,z
x,-y,-z
-x,y,-z
-x,-y,-z
x,y,-z
-x,y,z
x,-y,z
loop_
_atom_site_type_symbol
_atom_site_label
_atom_site_fract_x
_atom_site_fract_y
_atom_site_fract_z
Si Si1 0.309481 0.619885 0.085338
Si Si2 0.195972 0.627727 0.374761
Si Si3 0.807650 0.622751 0.807088
Si Si4 0.199308 0.000000 0.864702
Si Si5 0.500000 0.371997 0.445189
Si Si6 0.190729 0.160613 0.053396
Si Si7 0.693649 0.000000 0.249216
Si Si8 0.805038 0.233733 0.719575
O O1 0.500000 0.633159 0.067726
O O2 0.239800 0.500000 0.071023
O O3 0.303229 0.636108 0.144242
O O4 0.199874 0.709290 0.057534
O O5 0.217682 0.500000 0.359809
O O6 0.325611 0.661422 0.418188
O O7 0.256900 0.707569 0.330485
O O8 0.000000 0.649161 0.390063
O O9 0.798074 0.500000 0.785743
O O10 0.725736 0.704471 0.766929
O O11 0.000000 0.653586 0.820404
O O12 0.267374 0.102818 0.897500
O O13 0.276970 0.000000 0.810002
O O14 0.000000 0.000000 0.856500
O O15 0.500000 0.500000 0.450976
O O16 0.500000 0.317196 0.500000
O O17 0.000000 0.122897 0.051516
O O18 0.273065 0.125694 0.000000
O O19 0.768256 0.894692 0.277118
O O20 0.500000 0.000000 0.260081
O O21 0.000000 0.255738 0.722780
#
# Coordination Sequence:
#
# PCOD8198589 Si02
#       8
#     8   8   8   4   4   8   4   8
#     4  10  21  35  49  71 104 135 163 198 247 309
#     4   9  18  33  55  84 117 154 195 239 285 333
#     4   9  17  31  53  77 100 131 170 212 259 313
#     4  10  21  40  60  76 100 128 161 211 266 319
#     4   9  18  32  52  83 123 163 199 236 281 332
#     4  10  21  37  58  79  95 120 162 210 259 310
#     4  12  26  37  51  77 108 143 179 216 263 322
#     4  10  20  35  54  76 106 142 182 226 273 325
#
# _framework density 19.765042000000001
#
# number of rings (size 3 to 8) (size 9 to 14) (size 15 to 20)
#    0.000    2.231    0.000    2.769    1.077    9.538 
#    0.000    3.077    0.000    1.385    0.000    1.077 
#    0.000    2.462    0.000    0.000    0.000    0.000 
#
# Total GULP energy -644328.445119 kJ/mol
# GULP energy per Si atom -12390.931637 kJ/mol
# Density = 1.972006 g / cm^3
# Si number density = 19.765042 Si / 1000 Ang^3
#
#
#
# Elastic Constant Matrix: (Units=GPa)
#
#
# Indices 1 2 3 4 5 6 
#
# 1 43.8173 10.2633 23.5132 0.0000 0.0000 0.0000
# 2 10.2633 113.0096 46.5126 0.0000 0.0000 0.0000
# 3 23.5132 46.5126 109.4846 0.0000 0.0000 0.0000
# 4 0.0000 0.0000 0.0000 18.2432 0.0000 0.0000
# 5 0.0000 0.0000 0.0000 0.0000 -18.5085 0.0000
# 6 0.0000 0.0000 0.0000 0.0000 0.0000 10.8896
#
#
#
# Elastic Compliance Matrix: (Units=1/GPa)
#
#
# Indices 1 2 3 4 5 6 
#
# 1 0.025795 -0.000076 -0.005508 0.000000 0.000000 0.000000
# 2 -0.000076 0.010724 -0.004540 0.000000 0.000000 0.000000
# 3 -0.005508 -0.004540 0.012245 0.000000 0.000000 0.000000
# 4 0.000000 0.000000 0.000000 0.054815 0.000000 0.000000
# 5 0.000000 0.000000 0.000000 0.000000 -0.054029 0.000000
# 6 0.000000 0.000000 0.000000 0.000000 0.000000 0.091830
#
#
# Mechanical properties :
#
#
# Convention : Reuss Voigt Hill
#
# Bulk Modulus (GPa) = 35.06523 47.43220 41.24871
# Shear Modulus (GPa) = 29.21699 14.52635 21.87167
#
# Velocity S-wave (km/s) = 3.84893 2.71394 3.33014
# Velocity P-wave (km/s) = 6.12633 5.81986 5.97506
#
# Compressibility (1/GPa) = 0.02851828
#
# Stress axis : x y z
#
# Youngs Moduli (GPa) = 38.76669 93.24759 81.66500
#
# Poissons Ratio (x) = 0.00707 0.44978
# Poissons Ratio (y) = 0.00294 0.37073
# Poissons Ratio (z) = 0.21351 0.42331
#
# Static dielectric constant tensor:
#      x y z
#    x 3.414660 0.000000 0.000000 
#    y 0.000000 3.552510 0.000000 
#    z 0.000000 0.000000 3.696300 
# 
# 
# High freq. dielectric constant tensor:
#      x y z
#    x 1.757450 0.000000 0.000000 
#    y 0.000000 1.765010 0.000000 
#    z 0.000000 0.000000 1.751240 
# 
# From -- ./inp_files/33345.got.cif
#   From: 2010.03.12/outbox.cif.g09.slc.cpg/sg47_17_cif.got.tgz:33345.got - 2010.04.14 03:12:58.
