data_PCOD8198561
_publ_section_title
;
Structure prediction by ZEFSAII (Michael W. Deem and Ramdas Pophale) SiO2 
 PCOD8198561
Probable space group: P M M M
;
_chemical_formula_sum "Si O2"
_cell_formula_units_Z 36
_cell_length_a 15.969044
_cell_length_b 13.768191
_cell_length_c 9.872941
_cell_angle_alpha 90.000000
_cell_angle_beta 90.000000
_cell_angle_gamma 90.000000
_cell_volume 2170.712671
_symmetry_space_group_name_H-M "P M M M"
_symmetry_group_IT_number 47
_symmetry_cell_setting 'orthorhombic'
loop_
_space_group_symop_operation_xyz
x,y,z
-x,-y,z
x,-y,-z
-x,y,-z
-x,-y,-z
x,y,-z
-x,y,z
x,-y,z
loop_
_atom_site_type_symbol
_atom_site_label
_atom_site_fract_x
_atom_site_fract_y
_atom_site_fract_z
Si Si1 0.905624 0.613937 0.000000
Si Si2 0.346111 0.386624 0.658146
Si Si3 0.904918 0.604784 0.500000
Si Si4 0.174987 0.295712 0.742882
Si Si5 0.500000 0.614621 0.154978
Si Si6 0.095933 0.110149 0.841048
O O1 0.850539 0.645915 0.874660
O O2 0.915168 0.500000 0.000000
O O3 0.000000 0.660313 0.000000
O O4 0.370112 0.369870 0.500000
O O5 0.324390 0.500000 0.682183
O O6 0.269432 0.317898 0.699190
O O7 0.419909 0.351624 0.757959
O O8 0.855262 0.500000 0.500000
O O9 0.886766 0.668610 0.628772
O O10 0.000000 0.576888 0.500000
O O11 0.160040 0.180543 0.762456
O O12 0.500000 0.500000 0.144185
O O13 0.500000 0.657766 0.000000
O O14 0.000000 0.130359 0.797147
O O15 0.121057 0.000000 0.804925
O O16 0.105473 0.129767 0.000000
#
# Coordination Sequence:
#
# PCOD8198561 Si02
#       6
#     4   8   4   8   4   8
#     4  11  22  32  45  70 104 140 180 222 259 303
#     4  10  20  35  52  73 106 145 177 207 255 320
#     4  11  22  34  47  68 106 148 178 208 251 311
#     4  12  21  33  52  75 102 139 184 221 264 311
#     4   9  19  33  53  79 104 133 172 219 261 302
#     4   9  18  34  54  74  98 133 180 233 283 319
#
# _framework density 16.584415
#
# number of rings (size 3 to 8) (size 9 to 14) (size 15 to 20)
#    0.000    1.667    2.222    5.000    1.556    3.111 
#    0.000    0.556    0.000    2.000    0.000    0.778 
#    0.000    4.444    0.000    0.000    0.000    0.000 
#
# Total GULP energy -446245.186630 kJ/mol
# GULP energy per Si atom -12395.699629 kJ/mol
# Density = 1.654667 g / cm^3
# Si number density = 16.584415 Si / 1000 Ang^3
#
#
#
# Elastic Constant Matrix: (Units=GPa)
#
#
# Indices 1 2 3 4 5 6 
#
# 1 95.4091 40.7333 45.7796 0.0000 0.0000 0.0000
# 2 40.7333 102.6086 40.5904 0.0000 0.0000 0.0000
# 3 45.7796 40.5904 124.7209 0.0000 0.0000 0.0000
# 4 0.0000 0.0000 0.0000 16.0500 0.0000 0.0000
# 5 0.0000 0.0000 0.0000 0.0000 29.4944 0.0000
# 6 0.0000 0.0000 0.0000 0.0000 0.0000 15.6939
#
#
#
# Elastic Compliance Matrix: (Units=1/GPa)
#
#
# Indices 1 2 3 4 5 6 
#
# 1 0.014057 -0.004062 -0.003838 0.000000 0.000000 0.000000
# 2 -0.004062 0.012360 -0.002531 0.000000 0.000000 0.000000
# 3 -0.003838 -0.002531 0.010250 0.000000 0.000000 0.000000
# 4 0.000000 0.000000 0.000000 0.062305 0.000000 0.000000
# 5 0.000000 0.000000 0.000000 0.000000 0.033905 0.000000
# 6 0.000000 0.000000 0.000000 0.000000 0.000000 0.063719
#
#
# Mechanical properties :
#
#
# Convention : Reuss Voigt Hill
#
# Bulk Modulus (GPa) = 63.27296 64.10504 63.68900
# Shear Modulus (GPa) = 22.44904 25.29000 23.86952
#
# Velocity S-wave (km/s) = 3.68315 3.90927 3.79789
# Velocity P-wave (km/s) = 7.50482 7.68858 7.59725
#
# Compressibility (1/GPa) = 0.01580454
#
# Stress axis : x y z
#
# Youngs Moduli (GPa) = 71.13981 80.90779 97.55723
#
# Poissons Ratio (x) = 0.32866 0.37439
# Poissons Ratio (y) = 0.28898 0.24696
# Poissons Ratio (z) = 0.27301 0.20481
#
# Static dielectric constant tensor:
#      x y z
#    x 3.041850 0.000000 0.000000 
#    y 0.000000 3.015050 0.000000 
#    z 0.000000 0.000000 3.347240 
# 
# 
# High freq. dielectric constant tensor:
#      x y z
#    x 1.625460 0.000000 0.000000 
#    y 0.000000 1.613200 0.000000 
#    z 0.000000 0.000000 1.650500 
# 
# From -- ./inp_files/5616.got.cif
#   From: 2010.03.12/outbox.cif.g09.slc.cpg/sg47_3_cif.got.tgz:5616.got - 2010.04.14 03:12:58.
