data_PCOD8198355
_publ_section_title
;
Structure prediction by ZEFSAII (Michael W. Deem and Ramdas Pophale) SiO2 
 PCOD8198355
Probable space group: P M M M
;
_chemical_formula_sum "Si O2"
_cell_formula_units_Z 48
_cell_length_a 8.086292
_cell_length_b 9.241527
_cell_length_c 32.176425
_cell_angle_alpha 90.000000
_cell_angle_beta 90.000000
_cell_angle_gamma 90.000000
_cell_volume 2404.534132
_symmetry_space_group_name_H-M "P M M M"
_symmetry_group_IT_number 47
_symmetry_cell_setting 'orthorhombic'
loop_
_space_group_symop_operation_xyz
x,y,z
-x,-y,z
x,-y,-z
-x,y,-z
-x,-y,-z
x,y,-z
-x,y,z
x,-y,z
loop_
_atom_site_type_symbol
_atom_site_label
_atom_site_fract_x
_atom_site_fract_y
_atom_site_fract_z
Si Si1 0.310341 0.839133 0.576446
Si Si2 0.809944 0.335487 0.651604
Si Si3 0.500000 0.328448 0.953555
Si Si4 0.186855 0.331587 0.900013
Si Si5 0.693058 0.665110 0.259547
Si Si6 0.307558 0.169504 0.821924
Si Si7 0.189579 0.657312 0.500000
O O1 0.500000 0.850665 0.564535
O O2 0.293189 0.766901 0.621464
O O3 0.225893 0.744808 0.541391
O O4 0.231267 0.000000 0.577367
O O5 0.744352 0.500000 0.647197
O O6 0.787258 0.283574 0.699027
O O7 0.000000 0.324762 0.638673
O O8 0.500000 0.500000 0.955554
O O9 0.330600 0.274837 0.931232
O O10 0.500000 0.262805 0.000000
O O11 0.216663 0.500000 0.890232
O O12 0.199835 0.243251 0.857570
O O13 0.000000 0.307736 0.918293
O O14 0.500000 0.683431 0.268121
O O15 0.738341 0.500000 0.248111
O O16 0.752278 0.766519 0.221984
O O17 0.500000 0.205872 0.829581
O O18 0.272621 0.000000 0.822044
O O19 0.282178 0.500000 0.500000
O O20 0.000000 0.622752 0.500000
#
# Coordination Sequence:
#
# PCOD8198355 Si02
#       7
#     8   8   4   8   8   8   4
#     4  11  24  40  59  84 113 145 183 226 272 326
#     4  10  21  37  57  82 112 146 185 228 275 330
#     4   9  18  34  57  85 117 149 185 237 293 342
#     4  10  20  34  56  84 113 149 191 234 285 345
#     4   9  18  33  54  79 110 150 192 233 278 331
#     4  10  20  34  54  80 112 150 190 235 286 338
#     4  11  24  41  62  88 114 141 178 223 272 328
#
# _framework density 19.962288000000001
#
# number of rings (size 3 to 8) (size 9 to 14) (size 15 to 20)
#    0.000    2.000    0.833    2.500    0.000    8.667 
#    0.000    5.000    0.000    1.000    0.000    1.167 
#    0.000    0.000    0.000    0.000    0.000    0.000 
#
# Total GULP energy -595232.524555 kJ/mol
# GULP energy per Si atom -12400.677595 kJ/mol
# Density = 1.991685 g / cm^3
# Si number density = 19.962288 Si / 1000 Ang^3
#
#
#
# Elastic Constant Matrix: (Units=GPa)
#
#
# Indices 1 2 3 4 5 6 
#
# 1 84.0401 34.8660 44.8055 0.0000 0.0000 0.0000
# 2 34.8660 104.6628 65.2900 0.0000 0.0000 0.0000
# 3 44.8055 65.2900 136.5919 0.0000 0.0000 0.0000
# 4 0.0000 0.0000 0.0000 -4.2807 0.0000 0.0000
# 5 0.0000 0.0000 0.0000 0.0000 174.6861 0.0000
# 6 0.0000 0.0000 0.0000 0.0000 0.0000 23.3139
#
#
#
# Elastic Compliance Matrix: (Units=1/GPa)
#
#
# Indices 1 2 3 4 5 6 
#
# 1 0.014952 -0.002738 -0.003596 0.000000 0.000000 0.000000
# 2 -0.002738 0.014115 -0.005849 0.000000 0.000000 0.000000
# 3 -0.003596 -0.005849 0.011296 0.000000 0.000000 0.000000
# 4 0.000000 0.000000 0.000000 -0.233609 0.000000 0.000000
# 5 0.000000 0.000000 0.000000 0.000000 0.005725 0.000000
# 6 0.000000 0.000000 0.000000 0.000000 0.000000 0.042893
#
#
# Mechanical properties :
#
#
# Convention : Reuss Voigt Hill
#
# Bulk Modulus (GPa) = 62.50651 68.35753 65.43202
# Shear Modulus (GPa) = -43.50480 50.76609 3.63064
#
# Velocity S-wave (km/s) = -4.67341 5.04839 1.35007
# Velocity P-wave (km/s) = 1.50306 8.26434 5.93963
#
# Compressibility (1/GPa) = 0.01599833
#
# Stress axis : x y z
#
# Youngs Moduli (GPa) = 66.88030 70.84607 88.52371
#
# Poissons Ratio (x) = 0.19395 0.31834
# Poissons Ratio (y) = 0.18310 0.51777
# Poissons Ratio (z) = 0.24051 0.41437
#
# Static dielectric constant tensor:
#      x y z
#    x 3.625930 0.000000 0.000000 
#    y 0.000000 3.671580 0.000000 
#    z 0.000000 0.000000 3.668430 
# 
# 
# High freq. dielectric constant tensor:
#      x y z
#    x 1.778060 0.000000 0.000000 
#    y 0.000000 1.767330 0.000000 
#    z 0.000000 0.000000 1.779280 
# 
# From -- ./inp_files/34172.got.cif
#   From: 2010.03.12/outbox.cif.g09.slc.cpg/sg47_18_cif.got.tgz:34172.got - 2010.04.14 03:12:58.
