data_PCOD8198547
_publ_section_title
;
Structure prediction by ZEFSAII (Michael W. Deem and Ramdas Pophale) SiO2 
 PCOD8198547
Probable space group: P M M M
;
_chemical_formula_sum "Si O2"
_cell_formula_units_Z 56
_cell_length_a 20.921947
_cell_length_b 14.212972
_cell_length_c 8.997303
_cell_angle_alpha 90.000000
_cell_angle_beta 90.000000
_cell_angle_gamma 90.000000
_cell_volume 2675.465434
_symmetry_space_group_name_H-M "P M M M"
_symmetry_group_IT_number 47
_symmetry_cell_setting 'orthorhombic'
loop_
_space_group_symop_operation_xyz
x,y,z
-x,-y,z
x,-y,-z
-x,y,-z
-x,-y,-z
x,y,-z
-x,y,z
x,-y,z
loop_
_atom_site_type_symbol
_atom_site_label
_atom_site_fract_x
_atom_site_fract_y
_atom_site_fract_z
Si Si1 0.684425 0.609586 0.173849
Si Si2 0.928030 0.285258 0.172630
Si Si3 0.746152 0.105055 0.667488
Si Si4 0.925754 0.102056 0.662791
Si Si5 0.383403 0.106893 0.173495
Si Si6 0.804956 0.702067 0.329687
Si Si7 0.571917 0.717296 0.670663
O O1 0.686105 0.500000 0.210136
O O2 0.745676 0.657012 0.246481
O O3 0.619105 0.650722 0.238711
O O4 0.685939 0.630866 0.000000
O O5 0.914842 0.175709 0.204868
O O6 0.871691 0.338748 0.262303
O O7 0.000000 0.315318 0.224976
O O8 0.919835 0.306464 0.000000
O O9 0.718322 0.113577 0.500000
O O10 0.689796 0.126927 0.782450
O O11 0.801650 0.183243 0.690632
O O12 0.774114 0.000000 0.694873
O O13 0.897562 0.135804 0.500000
O O14 0.000000 0.089042 0.639733
O O15 0.895760 0.000000 0.705151
O O16 0.428361 0.176902 0.264754
O O17 0.402956 0.000000 0.213091
O O18 0.391349 0.127240 0.000000
O O19 0.801461 0.671258 0.500000
O O20 0.594221 0.719582 0.500000
O O21 0.500000 0.677339 0.685404
#
# Coordination Sequence:
#
# PCOD8198547 Si02
#       7
#     8   8   8   8   8   8   8
#     4  11  25  45  69  95 123 156 196 246 306 370
#     4  10  21  35  52  78 114 155 197 244 300 360
#     4   9  18  33  54  82 117 157 202 250 301 358
#     4   8  14  26  44  66  97 141 192 242 289 341
#     4  10  20  34  56  87 124 167 212 257 303 351
#     4  11  22  37  62  91 120 159 202 248 302 360
#     4  11  24  41  63  93 129 169 210 252 300 353
#
# _framework density 20.930938000000001
#
# number of rings (size 3 to 8) (size 9 to 14) (size 15 to 20)
#    0.000    2.000    1.429    2.571    0.000    6.000 
#    0.000    5.714    0.000    0.429    0.000    3.000 
#    0.000    0.000    0.000    0.000    0.000    0.000 
#
# Total GULP energy -694088.239122 kJ/mol
# GULP energy per Si atom -12394.432841 kJ/mol
# Density = 2.088330 g / cm^3
# Si number density = 20.930938 Si / 1000 Ang^3
#
#
#
# Elastic Constant Matrix: (Units=GPa)
#
#
# Indices 1 2 3 4 5 6 
#
# 1 133.5327 44.9029 55.4312 0.0000 0.0000 0.0000
# 2 44.9029 73.6557 51.1123 0.0000 0.0000 0.0000
# 3 55.4312 51.1123 105.6128 0.0000 0.0000 0.0000
# 4 0.0000 0.0000 0.0000 22.0295 0.0000 0.0000
# 5 0.0000 0.0000 0.0000 0.0000 34.0654 0.0000
# 6 0.0000 0.0000 0.0000 0.0000 0.0000 1.6263
#
#
#
# Elastic Compliance Matrix: (Units=1/GPa)
#
#
# Indices 1 2 3 4 5 6 
#
# 1 0.010229 -0.003780 -0.003540 0.000000 0.000000 0.000000
# 2 -0.003780 0.021838 -0.008585 0.000000 0.000000 0.000000
# 3 -0.003540 -0.008585 0.015481 0.000000 0.000000 0.000000
# 4 0.000000 0.000000 0.000000 0.045394 0.000000 0.000000
# 5 0.000000 0.000000 0.000000 0.000000 0.029355 0.000000
# 6 0.000000 0.000000 0.000000 0.000000 0.000000 0.614892
#
#
# Mechanical properties :
#
#
# Convention : Reuss Voigt Hill
#
# Bulk Modulus (GPa) = 63.53288 68.41044 65.97166
# Shear Modulus (GPa) = 6.45790 22.30124 14.37957
#
# Velocity S-wave (km/s) = 1.75842 3.26769 2.62391
# Velocity P-wave (km/s) = 5.87726 6.85507 6.38491
#
# Compressibility (1/GPa) = 0.01573988
#
# Stress axis : x y z
#
# Youngs Moduli (GPa) = 97.76001 45.79077 64.59495
#
# Poissons Ratio (x) = 0.17308 0.22863
# Poissons Ratio (y) = 0.36952 0.55455
# Poissons Ratio (z) = 0.34602 0.39312
#
# Static dielectric constant tensor:
#      x y z
#    x 3.831140 0.000000 0.000000 
#    y 0.000000 3.708650 0.000000 
#    z 0.000000 0.000000 3.791600 
# 
# 
# High freq. dielectric constant tensor:
#      x y z
#    x 1.831370 0.000000 0.000000 
#    y 0.000000 1.791130 0.000000 
#    z 0.000000 0.000000 1.820330 
# 
# From -- ./inp_files/11191.got.cif
#   From: 2010.03.12/outbox.cif.g09.slc.cpg/sg47_6_cif.got.tgz:11191.got - 2010.04.14 03:12:58.
