data_PCOD8198400
_publ_section_title
;
Structure prediction by ZEFSAII (Michael W. Deem and Ramdas Pophale) SiO2 
 PCOD8198400
Probable space group: P M M M
;
_chemical_formula_sum "Si O2"
_cell_formula_units_Z 48
_cell_length_a 20.816111
_cell_length_b 9.007796
_cell_length_c 13.916673
_cell_angle_alpha 90.000000
_cell_angle_beta 90.000000
_cell_angle_gamma 90.000000
_cell_volume 2609.477520
_symmetry_space_group_name_H-M "P M M M"
_symmetry_group_IT_number 47
_symmetry_cell_setting 'orthorhombic'
loop_
_space_group_symop_operation_xyz
x,y,z
-x,-y,z
x,-y,-z
-x,y,-z
-x,-y,-z
x,y,-z
-x,y,z
x,-y,z
loop_
_atom_site_type_symbol
_atom_site_label
_atom_site_fract_x
_atom_site_fract_y
_atom_site_fract_z
Si Si1 0.929747 0.666059 0.386043
Si Si2 0.628460 0.826550 0.887457
Si Si3 0.196443 0.827158 0.388416
Si Si4 0.000000 0.169980 0.114545
Si Si5 0.744961 0.324943 0.779610
Si Si6 0.500000 0.667535 0.885898
Si Si7 0.873110 0.673911 0.890663
O O1 0.932167 0.661935 0.500000
O O2 0.913918 0.500000 0.347104
O O3 0.874256 0.777222 0.351892
O O4 0.000000 0.718700 0.347486
O O5 0.686232 0.751637 0.831831
O O6 0.562769 0.753733 0.848739
O O7 0.626081 0.000000 0.864475
O O8 0.638006 0.795574 0.000000
O O9 0.206846 0.788650 0.500000
O O10 0.250050 0.736859 0.329028
O O11 0.204079 0.000000 0.367694
O O12 0.064371 0.247569 0.156105
O O13 0.000000 0.000000 0.146683
O O14 0.000000 0.189781 0.000000
O O15 0.733750 0.500000 0.779035
O O16 0.809796 0.277734 0.834020
O O17 0.500000 0.500000 0.844895
O O18 0.500000 0.666080 0.000000
O O19 0.885267 0.500000 0.884611
O O20 0.863026 0.726603 0.000000
#
# Coordination Sequence:
#
# PCOD8198400 Si02
#       7
#     8   8   8   4   8   4   8
#     4   8  14  27  48  70  90 116 154 202 258 319
#     4  10  20  34  54  82 117 151 179 212 256 305
#     4  10  21  36  52  71  98 131 169 217 272 326
#     4   9  17  29  47  69  92 123 164 209 255 302
#     4  11  22  35  53  77 103 136 177 219 262 313
#     4   9  17  31  53  81 114 151 186 215 245 293
#     4   9  18  33  51  70  95 128 166 208 254 305
#
# _framework density 18.394485
#
# number of rings (size 3 to 8) (size 9 to 14) (size 15 to 20)
#    0.000    2.500    0.000    3.000    0.000    6.333 
#    1.500    3.333    0.000    0.000    0.000    0.583 
#    0.000    4.667    0.000    0.000    0.000    0.000 
#
# Total GULP energy -595206.056121 kJ/mol
# GULP energy per Si atom -12400.126169 kJ/mol
# Density = 1.835262 g / cm^3
# Si number density = 18.394485 Si / 1000 Ang^3
#
#
#
# Elastic Constant Matrix: (Units=GPa)
#
#
# Indices 1 2 3 4 5 6 
#
# 1 155.4969 83.8058 53.9805 0.0000 0.0000 0.0000
# 2 83.8058 108.8770 42.6604 0.0000 0.0000 0.0000
# 3 53.9805 42.6604 54.1038 0.0000 0.0000 0.0000
# 4 0.0000 0.0000 0.0000 21.1138 0.0000 0.0000
# 5 0.0000 0.0000 0.0000 0.0000 15.4715 0.0000
# 6 0.0000 0.0000 0.0000 0.0000 0.0000 33.1914
#
#
#
# Elastic Compliance Matrix: (Units=1/GPa)
#
#
# Indices 1 2 3 4 5 6 
#
# 1 0.012653 -0.006936 -0.007155 0.000000 0.000000 0.000000
# 2 -0.006936 0.017093 -0.006558 0.000000 0.000000 0.000000
# 3 -0.007155 -0.006558 0.030793 0.000000 0.000000 0.000000
# 4 0.000000 0.000000 0.000000 0.047362 0.000000 0.000000
# 5 0.000000 0.000000 0.000000 0.000000 0.064635 0.000000
# 6 0.000000 0.000000 0.000000 0.000000 0.000000 0.030128
#
#
# Mechanical properties :
#
#
# Convention : Reuss Voigt Hill
#
# Bulk Modulus (GPa) = 51.97229 75.48568 63.72899
# Shear Modulus (GPa) = 19.97002 23.15739 21.56371
#
# Velocity S-wave (km/s) = 3.29850 3.55199 3.42759
# Velocity P-wave (km/s) = 6.54388 7.61239 7.09827
#
# Compressibility (1/GPa) = 0.01924102
#
# Stress axis : x y z
#
# Youngs Moduli (GPa) = 79.03228 58.50443 32.47528
#
# Poissons Ratio (x) = 0.40577 0.23237
# Poissons Ratio (y) = 0.54815 0.21296
# Poissons Ratio (z) = 0.56551 0.38364
#
# Static dielectric constant tensor:
#      x y z
#    x 3.463680 0.000000 0.000000 
#    y 0.000000 3.422540 0.000000 
#    z 0.000000 0.000000 3.257480 
# 
# 
# High freq. dielectric constant tensor:
#      x y z
#    x 1.701540 0.000000 0.000000 
#    y 0.000000 1.719140 0.000000 
#    z 0.000000 0.000000 1.695290 
# 
# From -- ./inp_files/9149.got.cif
#   From: 2010.03.12/outbox.cif.g09.slc.cpg/sg47_5_cif.got.tgz:9149.got - 2010.04.14 03:12:58.
