data_PCOD8198241
_publ_section_title
;
Structure prediction by ZEFSAII (Michael W. Deem and Ramdas Pophale) SiO2 
 PCOD8198241
Probable space group: P M M M
;
_chemical_formula_sum "Si O2"
_cell_formula_units_Z 40
_cell_length_a 9.373398
_cell_length_b 26.020261
_cell_length_c 9.085689
_cell_angle_alpha 90.000000
_cell_angle_beta 90.000000
_cell_angle_gamma 90.000000
_cell_volume 2215.983760
_symmetry_space_group_name_H-M "P M M M"
_symmetry_group_IT_number 47
_symmetry_cell_setting 'orthorhombic'
loop_
_space_group_symop_operation_xyz
x,y,z
-x,-y,z
x,-y,-z
-x,y,-z
-x,-y,-z
x,y,-z
-x,y,z
x,-y,z
loop_
_atom_site_type_symbol
_atom_site_label
_atom_site_fract_x
_atom_site_fract_y
_atom_site_fract_z
Si Si1 0.158778 0.302963 0.675242
Si Si2 0.333452 0.000000 0.326481
Si Si3 0.334478 0.600808 0.327970
Si Si4 0.330154 0.500000 0.833546
Si Si5 0.830762 0.191050 0.663551
Si Si6 0.833097 0.909634 0.171743
O O1 0.154143 0.304304 0.500000
O O2 0.257656 0.348560 0.736251
O O3 0.222215 0.246969 0.722108
O O4 0.000000 0.311051 0.739822
O O5 0.260121 0.950053 0.259733
O O6 0.500000 0.000000 0.285400
O O7 0.308828 0.000000 0.500000
O O8 0.305212 0.593346 0.500000
O O9 0.500000 0.607938 0.293274
O O10 0.271020 0.550790 0.246968
O O11 0.500000 0.500000 0.824410
O O12 0.274349 0.500000 0.000000
O O13 0.769024 0.179054 0.500000
O O14 0.782826 0.146811 0.776173
O O15 0.000000 0.194100 0.653104
O O16 0.000000 0.918934 0.206305
O O17 0.801370 0.915395 0.000000
#
# Coordination Sequence:
#
# PCOD8198241 Si02
#       6
#     8   4   8   4   8   8
#     4   8  14  26  45  68  93 121 152 186 227 273
#     4  11  24  39  54  74 100 131 166 203 246 292
#     4   9  16  27  45  67  87 110 147 193 232 266
#     4   9  17  29  44  61  84 116 150 183 224 276
#     4   8  14  27  48  71  95 125 159 193 229 272
#     4  10  20  34  54  79 103 129 164 202 239 284
#
# _framework density 18.050673
#
# number of rings (size 3 to 8) (size 9 to 14) (size 15 to 20)
#    0.000    3.000    0.000    2.700    0.000    4.400 
#    0.000    2.500    0.000    8.400    0.000    0.000 
#    0.000    0.000    0.000    0.000    0.000    0.000 
#
# Total GULP energy -495819.554668 kJ/mol
# GULP energy per Si atom -12395.488867 kJ/mol
# Density = 1.800959 g / cm^3
# Si number density = 18.050673 Si / 1000 Ang^3
#
#
#
# Elastic Constant Matrix: (Units=GPa)
#
#
# Indices 1 2 3 4 5 6 
#
# 1 55.8806 63.9699 39.6589 0.0000 0.0000 0.0000
# 2 63.9699 196.5658 65.5418 0.0000 0.0000 0.0000
# 3 39.6589 65.5418 73.8942 0.0000 0.0000 0.0000
# 4 0.0000 0.0000 0.0000 3.4534 0.0000 0.0000
# 5 0.0000 0.0000 0.0000 0.0000 14.9423 0.0000
# 6 0.0000 0.0000 0.0000 0.0000 0.0000 -1.0399
#
#
#
# Elastic Compliance Matrix: (Units=1/GPa)
#
#
# Indices 1 2 3 4 5 6 
#
# 1 0.034957 -0.007271 -0.012312 0.000000 0.000000 0.000000
# 2 -0.007271 0.008736 -0.003846 0.000000 0.000000 0.000000
# 3 -0.012312 -0.003846 0.023552 0.000000 0.000000 0.000000
# 4 0.000000 0.000000 0.000000 0.289568 0.000000 0.000000
# 5 0.000000 0.000000 0.000000 0.000000 0.066924 0.000000
# 6 0.000000 0.000000 0.000000 0.000000 0.000000 -0.961589
#
#
# Mechanical properties :
#
#
# Convention : Reuss Voigt Hill
#
# Bulk Modulus (GPa) = 49.05232 73.85352 61.45292
# Shear Modulus (GPa) = -10.32636 13.94916 1.81140
#
# Velocity S-wave (km/s) = -2.39441 2.78290 1.00284
# Velocity P-wave (km/s) = 4.42601 7.16446 5.95479
#
# Compressibility (1/GPa) = 0.02038640
#
# Stress axis : x y z
#
# Youngs Moduli (GPa) = 28.60666 114.46744 42.45870
#
# Poissons Ratio (x) = 0.83229 0.52276
# Poissons Ratio (y) = 0.20800 0.16331
# Poissons Ratio (z) = 0.35221 0.44028
#
# Static dielectric constant tensor:
#      x y z
#    x 3.085580 0.000000 0.000000 
#    y 0.000000 3.878740 0.000000 
#    z 0.000000 0.000000 3.160110 
# 
# 
# High freq. dielectric constant tensor:
#      x y z
#    x 1.658310 0.000000 0.000000 
#    y 0.000000 1.721410 0.000000 
#    z 0.000000 0.000000 1.676860 
# 
# From -- ./inp_files/1753.got.cif
#   From: 2010.03.12/outbox.cif.g09.slc.cpg/sg47_1_cif.got.tgz:1753.got - 2010.04.14 03:12:58.
