data_PCOD8198744
_publ_section_title
;
Structure prediction by ZEFSAII (Michael W. Deem and Ramdas Pophale) SiO2 
 PCOD8198744
Probable space group: P M M M
;
_chemical_formula_sum "Si O2"
_cell_formula_units_Z 44
_cell_length_a 9.293952
_cell_length_b 28.109336
_cell_length_c 9.079978
_cell_angle_alpha 90.000000
_cell_angle_beta 90.000000
_cell_angle_gamma 90.000000
_cell_volume 2372.115374
_symmetry_space_group_name_H-M "P M M M"
_symmetry_group_IT_number 47
_symmetry_cell_setting 'orthorhombic'
loop_
_space_group_symop_operation_xyz
x,y,z
-x,-y,z
x,-y,-z
-x,y,-z
-x,-y,-z
x,y,-z
-x,y,z
x,-y,z
loop_
_atom_site_type_symbol
_atom_site_label
_atom_site_fract_x
_atom_site_fract_y
_atom_site_fract_z
Si Si1 0.830848 0.820731 0.171538
Si Si2 0.332451 0.905384 0.326994
Si Si3 0.668358 0.260951 0.329622
Si Si4 0.670748 0.000000 0.834101
Si Si5 0.830279 0.447304 0.165875
Si Si6 0.658435 0.631651 0.326785
O O1 0.759248 0.862298 0.264995
O O2 0.764296 0.771082 0.223623
O O3 0.000000 0.820202 0.202643
O O4 0.796558 0.828397 0.000000
O O5 0.306710 0.910181 0.500000
O O6 0.500000 0.896353 0.291017
O O7 0.274229 0.953363 0.250753
O O8 0.706771 0.250639 0.500000
O O9 0.500000 0.250634 0.303079
O O10 0.707380 0.315029 0.285458
O O11 0.500000 0.000000 0.835778
O O12 0.733036 0.000000 0.000000
O O13 0.781140 0.500000 0.219210
O O14 0.768525 0.406819 0.268607
O O15 0.000000 0.443601 0.173472
O O16 0.775855 0.438868 0.000000
O O17 0.651902 0.626943 0.500000
O O18 0.500000 0.621736 0.260358
#
# Coordination Sequence:
#
# PCOD8198744 Si02
#       6
#     8   8   8   4   8   8
#     4  11  24  38  52  76 109 141 175 216 261 309
#     4  10  20  35  57  83 109 139 177 219 261 307
#     4   9  19  37  58  78 102 134 172 213 259 312
#     4   9  17  31  54  83 112 141 174 214 260 309
#     4   9  19  35  52  72 102 139 176 213 254 303
#     4   9  19  35  54  78 106 133 166 212 262 310
#
# _framework density 18.548846999999999
#
# number of rings (size 3 to 8) (size 9 to 14) (size 15 to 20)
#    0.000    2.455    0.000    3.545    0.000    9.091 
#    0.000    8.636    0.000    2.727    0.000    0.000 
#    0.000    0.000    0.000    0.000    0.000    0.000 
#
# Total GULP energy -545590.760604 kJ/mol
# GULP energy per Si atom -12399.790014 kJ/mol
# Density = 1.850663 g / cm^3
# Si number density = 18.548847 Si / 1000 Ang^3
#
#
#
# Elastic Constant Matrix: (Units=GPa)
#
#
# Indices 1 2 3 4 5 6 
#
# 1 59.3663 52.0664 38.6198 0.0000 0.0000 0.0000
# 2 52.0664 144.2977 58.4901 0.0000 0.0000 0.0000
# 3 38.6198 58.4901 78.1844 0.0000 0.0000 0.0000
# 4 0.0000 0.0000 0.0000 4.1928 0.0000 0.0000
# 5 0.0000 0.0000 0.0000 0.0000 28.9298 0.0000
# 6 0.0000 0.0000 0.0000 0.0000 0.0000 -113.6383
#
#
#
# Elastic Compliance Matrix: (Units=1/GPa)
#
#
# Indices 1 2 3 4 5 6 
#
# 1 0.028614 -0.006596 -0.009200 0.000000 0.000000 0.000000
# 2 -0.006596 0.011466 -0.005320 0.000000 0.000000 0.000000
# 3 -0.009200 -0.005320 0.021315 0.000000 0.000000 0.000000
# 4 0.000000 0.000000 0.000000 0.238505 0.000000 0.000000
# 5 0.000000 0.000000 0.000000 0.000000 0.034566 0.000000
# 6 0.000000 0.000000 0.000000 0.000000 0.000000 -0.008800
#
#
# Mechanical properties :
#
#
# Convention : Reuss Voigt Hill
#
# Bulk Modulus (GPa) = 52.18172 64.46678 58.32425
# Shear Modulus (GPa) = 13.35876 -7.25834 3.05021
#
# Velocity S-wave (km/s) = 2.68655 -1.98030 1.28374
# Velocity P-wave (km/s) = 6.14952 5.44075 5.80596
#
# Compressibility (1/GPa) = 0.01916380
#
# Stress axis : x y z
#
# Youngs Moduli (GPa) = 34.94796 87.21087 46.91597
#
# Poissons Ratio (x) = 0.57520 0.43162
# Poissons Ratio (y) = 0.23050 0.24960
# Poissons Ratio (z) = 0.32152 0.46398
#
# Static dielectric constant tensor:
#      x y z
#    x 3.402790 0.000000 0.000000 
#    y 0.000000 3.605920 0.000000 
#    z 0.000000 0.000000 3.430010 
# 
# 
# High freq. dielectric constant tensor:
#      x y z
#    x 1.702390 0.000000 0.000000 
#    y 0.000000 1.735680 0.000000 
#    z 0.000000 0.000000 1.721210 
# 
# From -- ./inp_files/2257.got.cif
#   From: 2010.03.12/outbox.cif.g09.slc.cpg/sg47_2_cif.got.tgz:2257.got - 2010.04.14 03:12:58.
