data_PCOD8198440
_publ_section_title
;
Structure prediction by ZEFSAII (Michael W. Deem and Ramdas Pophale) SiO2 
 PCOD8198440
Probable space group: P M M M
;
_chemical_formula_sum "Si O2"
_cell_formula_units_Z 64
_cell_length_a 9.196327
_cell_length_b 14.406804
_cell_length_c 25.520566
_cell_angle_alpha 90.000000
_cell_angle_beta 90.000000
_cell_angle_gamma 90.000000
_cell_volume 3381.211638
_symmetry_space_group_name_H-M "P M M M"
_symmetry_group_IT_number 47
_symmetry_cell_setting 'orthorhombic'
loop_
_space_group_symop_operation_xyz
x,y,z
-x,-y,z
x,-y,-z
-x,y,-z
-x,-y,-z
x,y,-z
-x,y,z
x,-y,z
loop_
_atom_site_type_symbol
_atom_site_label
_atom_site_fract_x
_atom_site_fract_y
_atom_site_fract_z
Si Si1 0.332046 0.223219 0.941524
Si Si2 0.670017 0.605182 0.721922
Si Si3 0.834026 0.396617 0.614952
Si Si4 0.827442 0.778846 0.756944
Si Si5 0.667886 0.892844 0.843606
Si Si6 0.836577 0.601022 0.062301
Si Si7 0.826970 0.895664 0.343638
Si Si8 0.828707 0.784677 0.557394
O O1 0.500000 0.247038 0.945107
O O2 0.301749 0.136399 0.903726
O O3 0.259552 0.314807 0.915897
O O4 0.271461 0.199822 0.000000
O O5 0.500000 0.628362 0.722869
O O6 0.700089 0.500000 0.741610
O O7 0.727229 0.617798 0.663233
O O8 0.754950 0.676999 0.759144
O O9 0.817363 0.500000 0.591099
O O10 0.792161 0.322495 0.570561
O O11 0.000000 0.379402 0.634603
O O12 0.774326 0.836134 0.806597
O O13 0.774434 0.832681 0.704711
O O14 0.000000 0.768474 0.759107
O O15 0.500000 0.873731 0.828500
O O16 0.708080 0.000000 0.838217
O O17 0.778482 0.500000 0.081856
O O18 0.000000 0.615667 0.082768
O O19 0.832088 0.602882 0.000000
O O20 0.764239 0.852379 0.397777
O O21 0.000000 0.897246 0.344964
O O22 0.765170 0.000000 0.337218
O O23 0.761179 0.807733 0.500000
O O24 0.000000 0.799573 0.554954
#
# Coordination Sequence:
#
# PCOD8198440 Si02
#       8
#     8   8   8   8   8   8   8   8
#     4   9  18  33  54  80 109 143 182 221 263 313
#     4  10  20  34  55  82 109 138 173 214 265 325
#     4   9  16  28  47  72 103 137 174 216 264 319
#     4  11  21  36  58  81 107 138 176 223 270 320
#     4  10  22  39  57  80 111 144 180 224 272 320
#     4   8  14  26  46  73 105 140 176 214 258 308
#     4   9  17  29  46  71 101 132 169 216 268 315
#     4   9  16  26  42  69 104 138 174 217 266 319
#
# _framework density 18.928127
#
# number of rings (size 3 to 8) (size 9 to 14) (size 15 to 20)
#    0.000    2.625    1.250    1.500    0.000    3.000 
#    0.000    5.625    0.000    1.125    0.000    4.375 
#    0.000    1.000    0.000    0.000    0.000    0.000 
#
# Total GULP energy -793330.690584 kJ/mol
# GULP energy per Si atom -12395.792040 kJ/mol
# Density = 1.888505 g / cm^3
# Si number density = 18.928127 Si / 1000 Ang^3
#
#
#
# Elastic Constant Matrix: (Units=GPa)
#
#
# Indices 1 2 3 4 5 6 
#
# 1 58.7887 46.3432 35.3356 0.0000 0.0000 0.0000
# 2 46.3432 130.5736 53.7195 0.0000 0.0000 0.0000
# 3 35.3356 53.7195 90.3428 0.0000 0.0000 0.0000
# 4 0.0000 0.0000 0.0000 28.2220 0.0000 0.0000
# 5 0.0000 0.0000 0.0000 0.0000 18.1188 0.0000
# 6 0.0000 0.0000 0.0000 0.0000 0.0000 22.1172
#
#
#
# Elastic Compliance Matrix: (Units=1/GPa)
#
#
# Indices 1 2 3 4 5 6 
#
# 1 0.026000 -0.006678 -0.006199 0.000000 0.000000 0.000000
# 2 -0.006678 0.011854 -0.004437 0.000000 0.000000 0.000000
# 3 -0.006199 -0.004437 0.016132 0.000000 0.000000 0.000000
# 4 0.000000 0.000000 0.000000 0.035433 0.000000 0.000000
# 5 0.000000 0.000000 0.000000 0.000000 0.055191 0.000000
# 6 0.000000 0.000000 0.000000 0.000000 0.000000 0.045214
#
#
# Mechanical properties :
#
#
# Convention : Reuss Voigt Hill
#
# Bulk Modulus (GPa) = 51.65476 61.16684 56.41080
# Shear Modulus (GPa) = 21.65416 23.31206 22.48311
#
# Velocity S-wave (km/s) = 3.38601 3.51324 3.45021
# Velocity P-wave (km/s) = 6.52962 6.98875 6.76308
#
# Compressibility (1/GPa) = 0.01935930
#
# Stress axis : x y z
#
# Youngs Moduli (GPa) = 38.46174 84.36055 61.99040
#
# Poissons Ratio (x) = 0.56334 0.38425
# Poissons Ratio (y) = 0.25684 0.27503
# Poissons Ratio (z) = 0.23841 0.37428
#
# Static dielectric constant tensor:
#      x y z
#    x 3.232810 0.000000 0.000000 
#    y 0.000000 3.837180 0.000000 
#    z 0.000000 0.000000 3.410860 
# 
# 
# High freq. dielectric constant tensor:
#      x y z
#    x 1.701850 0.000000 0.000000 
#    y 0.000000 1.748560 0.000000 
#    z 0.000000 0.000000 1.717690 
# 
# From -- ./inp_files/32103.got.cif
#   From: 2010.03.12/outbox.cif.g09.slc.cpg/sg47_17_cif.got.tgz:32103.got - 2010.04.14 03:12:58.
