data_PCOD8198292
_publ_section_title
;
Structure prediction by ZEFSAII (Michael W. Deem and Ramdas Pophale) SiO2 
 PCOD8198292
Probable space group: P M M M
;
_chemical_formula_sum "Si O2"
_cell_formula_units_Z 44
_cell_length_a 28.614141
_cell_length_b 8.968455
_cell_length_c 9.429566
_cell_angle_alpha 90.000000
_cell_angle_beta 90.000000
_cell_angle_gamma 90.000000
_cell_volume 2419.858942
_symmetry_space_group_name_H-M "P M M M"
_symmetry_group_IT_number 47
_symmetry_cell_setting 'orthorhombic'
loop_
_space_group_symop_operation_xyz
x,y,z
-x,-y,z
x,-y,-z
-x,y,-z
-x,-y,-z
x,y,-z
-x,y,z
x,-y,z
loop_
_atom_site_type_symbol
_atom_site_label
_atom_site_fract_x
_atom_site_fract_y
_atom_site_fract_z
Si Si1 0.177551 0.167203 0.331840
Si Si2 0.448658 0.822737 0.840419
Si Si3 0.731178 0.668282 0.669121
Si Si4 0.000000 0.824301 0.834213
Si Si5 0.082882 0.324517 0.664766
Si Si6 0.638046 0.825594 0.335619
O O1 0.181148 0.161587 0.500000
O O2 0.224285 0.242778 0.269116
O O3 0.133253 0.265217 0.285752
O O4 0.172733 0.000000 0.270104
O O5 0.500000 0.767142 0.788368
O O6 0.407707 0.758487 0.741351
O O7 0.447686 0.000000 0.834767
O O8 0.439692 0.766613 0.000000
O O9 0.732131 0.672488 0.500000
O O10 0.733383 0.500000 0.726133
O O11 0.683853 0.744419 0.725654
O O12 0.954661 0.755596 0.761918
O O13 0.000000 0.000000 0.808790
O O14 0.000000 0.783685 0.000000
O O15 0.073127 0.286064 0.500000
O O16 0.080701 0.500000 0.690893
O O17 0.631186 0.790899 0.500000
O O18 0.644520 0.000000 0.306196
#
# Coordination Sequence:
#
# PCOD8198292 Si02
#       6
#     8   8   8   4   8   8
#     4   9  16  27  46  72 100 128 158 195 238 281
#     4   8  14  25  41  61  85 113 145 182 225 271
#     4   9  16  26  41  63  93 125 153 184 227 278
#     4  11  24  39  54  74 102 137 174 209 248 294
#     4  10  20  34  54  80 106 132 166 207 249 293
#     4   9  16  25  40  64  90 114 144 184 226 267
#
# _framework density 18.182879
#
# number of rings (size 3 to 8) (size 9 to 14) (size 15 to 20)
#    0.000    2.818    0.000    2.727    0.000    7.636 
#    0.000    1.818    0.000    2.182    0.000    6.364 
#    0.000    0.000    0.000    0.000    0.000    0.000 
#
# Total GULP energy -545485.891180 kJ/mol
# GULP energy per Si atom -12397.406618 kJ/mol
# Density = 1.814149 g / cm^3
# Si number density = 18.182879 Si / 1000 Ang^3
#
#
#
# Elastic Constant Matrix: (Units=GPa)
#
#
# Indices 1 2 3 4 5 6 
#
# 1 198.6185 71.1956 64.1726 0.0000 0.0000 0.0000
# 2 71.1956 94.5549 39.8417 0.0000 0.0000 0.0000
# 3 64.1726 39.8417 50.4193 0.0000 0.0000 0.0000
# 4 0.0000 0.0000 0.0000 12.9272 0.0000 0.0000
# 5 0.0000 0.0000 0.0000 0.0000 -0.0490 0.0000
# 6 0.0000 0.0000 0.0000 0.0000 0.0000 5.2034
#
#
#
# Elastic Compliance Matrix: (Units=1/GPa)
#
#
# Indices 1 2 3 4 5 6 
#
# 1 0.009067 -0.002945 -0.009213 0.000000 0.000000 0.000000
# 2 -0.002945 0.016812 -0.009536 0.000000 0.000000 0.000000
# 3 -0.009213 -0.009536 0.039096 0.000000 0.000000 0.000000
# 4 0.000000 0.000000 0.000000 0.077356 0.000000 0.000000
# 5 0.000000 0.000000 0.000000 0.000000-20.396356 0.000000
# 6 0.000000 0.000000 0.000000 0.000000 0.000000 0.192181
#
#
# Mechanical properties :
#
#
# Convention : Reuss Voigt Hill
#
# Bulk Modulus (GPa) = 46.32770 77.11248 61.72009
# Shear Modulus (GPa) = -0.24986 14.84184 7.29599
#
# Velocity S-wave (km/s) = -0.37110 2.86011 2.00531
# Velocity P-wave (km/s) = 5.03492 7.30811 6.27530
#
# Compressibility (1/GPa) = 0.02158536
#
# Stress axis : x y z
#
# Youngs Moduli (GPa) = 110.28712 59.48293 25.57818
#
# Poissons Ratio (x) = 0.17518 0.23566
# Poissons Ratio (y) = 0.32480 0.24392
# Poissons Ratio (z) = 1.01612 0.56724
#
# Static dielectric constant tensor:
#      x y z
#    x 3.769610 0.000000 0.000000 
#    y 0.000000 3.298170 0.000000 
#    z 0.000000 0.000000 2.997140 
# 
# 
# High freq. dielectric constant tensor:
#      x y z
#    x 1.726400 0.000000 0.000000 
#    y 0.000000 1.694200 0.000000 
#    z 0.000000 0.000000 1.652940 
# 
# From -- ./inp_files/13624.got.cif
#   From: 2010.03.12/outbox.cif.g09.slc.cpg/sg47_7_cif.got.tgz:13624.got - 2010.04.14 03:12:58.
