data_PCOD8198245
_publ_section_title
;
Structure prediction by ZEFSAII (Michael W. Deem and Ramdas Pophale) SiO2 
 PCOD8198245
Probable space group: P M M M
;
_chemical_formula_sum "Si O2"
_cell_formula_units_Z 40
_cell_length_a 9.682619
_cell_length_b 25.951936
_cell_length_c 8.925882
_cell_angle_alpha 90.000000
_cell_angle_beta 90.000000
_cell_angle_gamma 90.000000
_cell_volume 2242.919806
_symmetry_space_group_name_H-M "P M M M"
_symmetry_group_IT_number 47
_symmetry_cell_setting 'orthorhombic'
loop_
_space_group_symop_operation_xyz
x,y,z
-x,-y,z
x,-y,-z
-x,y,-z
-x,-y,-z
x,y,-z
-x,y,z
x,-y,z
loop_
_atom_site_type_symbol
_atom_site_label
_atom_site_fract_x
_atom_site_fract_y
_atom_site_fract_z
Si Si1 0.835966 0.500000 0.668622
Si Si2 0.159491 0.396575 0.176146
Si Si3 0.660253 0.690508 0.674665
Si Si4 0.163922 0.000000 0.164025
Si Si5 0.340418 0.203474 0.173198
Si Si6 0.844975 0.889598 0.820840
O O1 0.777884 0.500000 0.500000
O O2 0.781475 0.449069 0.751766
O O3 0.000000 0.500000 0.671727
O O4 0.248270 0.349590 0.235639
O O5 0.000000 0.387471 0.220852
O O6 0.177596 0.401325 0.000000
O O7 0.693322 0.685896 0.500000
O O8 0.500000 0.679497 0.709654
O O9 0.702014 0.747114 0.730288
O O10 0.204946 0.945770 0.245076
O O11 0.000000 0.000000 0.145576
O O12 0.233773 0.000000 0.000000
O O13 0.500000 0.189667 0.193717
O O14 0.255193 0.155156 0.238005
O O15 0.304265 0.214733 0.000000
O O16 0.000000 0.876771 0.765985
O O17 0.840797 0.892961 0.000000
#
# Coordination Sequence:
#
# PCOD8198245 Si02
#       6
#     4   8   8   4   8   8
#     4   9  17  31  52  77 106 137 164 194 236 283
#     4  10  20  34  54  79 104 130 162 200 241 286
#     4  10  21  36  52  70  95 129 166 203 245 291
#     4   7  10  18  33  55  84 115 144 178 224 275
#     4   9  17  29  44  63  89 119 150 189 238 286
#     4   8  13  22  38  60  86 116 149 184 225 277
#
# _framework density 17.833895999999999
#
# number of rings (size 3 to 8) (size 9 to 14) (size 15 to 20)
#    0.000    3.000    0.000    2.700    0.000    4.400 
#    0.000    3.000    0.000    6.000    0.000    0.700 
#    0.000    5.600    0.000    0.000    0.000    0.000 
#
# Total GULP energy -495772.280672 kJ/mol
# GULP energy per Si atom -12394.307017 kJ/mol
# Density = 1.779331 g / cm^3
# Si number density = 17.833896 Si / 1000 Ang^3
#
#
#
# Elastic Constant Matrix: (Units=GPa)
#
#
# Indices 1 2 3 4 5 6 
#
# 1 57.4102 66.6701 26.6833 0.0000 0.0000 0.0000
# 2 66.6701 160.8202 42.0379 0.0000 0.0000 0.0000
# 3 26.6833 42.0379 55.2401 0.0000 0.0000 0.0000
# 4 0.0000 0.0000 0.0000 -0.0872 0.0000 0.0000
# 5 0.0000 0.0000 0.0000 0.0000 17.3232 0.0000
# 6 0.0000 0.0000 0.0000 0.0000 0.0000 -4.2518
#
#
#
# Elastic Compliance Matrix: (Units=1/GPa)
#
#
# Indices 1 2 3 4 5 6 
#
# 1 0.035926 -0.012929 -0.007514 0.000000 0.000000 0.000000
# 2 -0.012929 0.012415 -0.003203 0.000000 0.000000 0.000000
# 3 -0.007514 -0.003203 0.024170 0.000000 0.000000 0.000000
# 4 0.000000 0.000000 0.000000-11.471155 0.000000 0.000000
# 5 0.000000 0.000000 0.000000 0.000000 0.057726 0.000000
# 6 0.000000 0.000000 0.000000 0.000000 0.000000 -0.235194
#
#
# Mechanical properties :
#
#
# Convention : Reuss Voigt Hill
#
# Bulk Modulus (GPa) = 39.65405 60.47253 50.06329
# Shear Modulus (GPa) = -0.43401 11.80212 5.68406
#
# Velocity S-wave (km/s) = -0.49385 2.57530 1.78722
# Velocity P-wave (km/s) = 4.68597 6.54410 5.69138
#
# Compressibility (1/GPa) = 0.02521811
#
# Stress axis : x y z
#
# Youngs Moduli (GPa) = 27.83519 80.54592 41.37381
#
# Poissons Ratio (x) = 1.04140 0.31090
# Poissons Ratio (y) = 0.35989 0.13251
# Poissons Ratio (z) = 0.20917 0.25797
#
# Static dielectric constant tensor:
#      x y z
#    x 3.128190 0.000000 0.000000 
#    y 0.000000 3.696320 0.000000 
#    z 0.000000 0.000000 3.063630 
# 
# 
# High freq. dielectric constant tensor:
#      x y z
#    x 1.662960 0.000000 0.000000 
#    y 0.000000 1.710740 0.000000 
#    z 0.000000 0.000000 1.660680 
# 
# From -- ./inp_files/1885.got.cif
#   From: 2010.03.12/outbox.cif.g09.slc.cpg/sg47_1_cif.got.tgz:1885.got - 2010.04.14 03:12:58.
