data_PCOD8198988
_publ_section_title
;
Structure prediction by ZEFSAII (Michael W. Deem and Ramdas Pophale) SiO2 
 PCOD8198988
Probable space group: P M M M
;
_chemical_formula_sum "Si O2"
_cell_formula_units_Z 48
_cell_length_a 29.625495
_cell_length_b 8.717128
_cell_length_c 10.083770
_cell_angle_alpha 90.000000
_cell_angle_beta 90.000000
_cell_angle_gamma 90.000000
_cell_volume 2604.125858
_symmetry_space_group_name_H-M "P M M M"
_symmetry_group_IT_number 47
_symmetry_cell_setting 'orthorhombic'
loop_
_space_group_symop_operation_xyz
x,y,z
-x,-y,z
x,-y,-z
-x,y,-z
-x,-y,-z
x,y,-z
-x,y,z
x,-y,z
loop_
_atom_site_type_symbol
_atom_site_label
_atom_site_fract_x
_atom_site_fract_y
_atom_site_fract_z
Si Si1 0.050944 0.318704 0.500000
Si Si2 0.099020 0.819685 0.749944
Si Si3 0.187136 0.677455 0.154275
Si Si4 0.645768 0.679831 0.343094
Si Si5 0.547629 0.681884 0.648698
Si Si6 0.281847 0.179069 0.151053
Si Si7 0.053420 0.674135 0.000000
O O1 0.049388 0.500000 0.500000
O O2 0.077814 0.262423 0.374280
O O3 0.000000 0.252182 0.500000
O O4 0.151419 0.773981 0.761221
O O5 0.094919 0.000000 0.733398
O O6 0.070660 0.764675 0.874309
O O7 0.182121 0.500000 0.190647
O O8 0.237001 0.731083 0.193332
O O9 0.177457 0.708830 0.000000
O O10 0.651692 0.715589 0.500000
O O11 0.653517 0.500000 0.316857
O O12 0.595723 0.734324 0.290537
O O13 0.679870 0.776629 0.255165
O O14 0.545787 0.746271 0.500000
O O15 0.500000 0.735252 0.720657
O O16 0.548910 0.500000 0.644480
O O17 0.271740 0.000000 0.161643
O O18 0.296085 0.223116 0.000000
O O19 0.072704 0.500000 0.000000
O O20 0.000000 0.671555 0.000000
#
# Coordination Sequence:
#
# PCOD8198988 Si02
#       7
#     4   8   8   8   8   8   4
#     4  11  25  45  65  85 117 159 195 227 270 329
#     4  12  24  39  62  90 120 149 184 232 282 330
#     4  10  20  37  62  86 110 141 182 228 276 330
#     4   9  17  30  50  78 108 136 174 222 272 326
#     4   7  10  19  39  68 100 132 167 213 267 318
#     4  10  21  36  54  76 105 141 182 224 270 323
#     4  11  23  39  61  89 119 153 193 231 270 321
#
# _framework density 18.432289999999998
#
# number of rings (size 3 to 8) (size 9 to 14) (size 15 to 20)
#    0.000    2.167    0.833    5.000    0.000    5.333 
#    1.500    0.000    0.000    1.000    0.000    5.833 
#    0.000    0.000    0.000    0.000    0.000    0.000 
#
# Total GULP energy -594859.304621 kJ/mol
# GULP energy per Si atom -12392.902180 kJ/mol
# Density = 1.839034 g / cm^3
# Si number density = 18.432290 Si / 1000 Ang^3
#
#
#
# Elastic Constant Matrix: (Units=GPa)
#
#
# Indices 1 2 3 4 5 6 
#
# 1 131.1071 25.5666 46.8265 0.0000 0.0000 0.0000
# 2 25.5666 53.4548 16.0630 0.0000 0.0000 0.0000
# 3 46.8265 16.0630 81.6952 0.0000 0.0000 0.0000
# 4 0.0000 0.0000 0.0000 25.8158 0.0000 0.0000
# 5 0.0000 0.0000 0.0000 0.0000 26.1932 0.0000
# 6 0.0000 0.0000 0.0000 0.0000 0.0000 2.0749
#
#
#
# Elastic Compliance Matrix: (Units=1/GPa)
#
#
# Indices 1 2 3 4 5 6 
#
# 1 0.010107 -0.003287 -0.005147 0.000000 0.000000 0.000000
# 2 -0.003287 0.020951 -0.002235 0.000000 0.000000 0.000000
# 3 -0.005147 -0.002235 0.015630 0.000000 0.000000 0.000000
# 4 0.000000 0.000000 0.000000 0.038736 0.000000 0.000000
# 5 0.000000 0.000000 0.000000 0.000000 0.038178 0.000000
# 6 0.000000 0.000000 0.000000 0.000000 0.000000 0.481956
#
#
# Mechanical properties :
#
#
# Convention : Reuss Voigt Hill
#
# Bulk Modulus (GPa) = 39.44816 49.24103 44.34459
# Shear Modulus (GPa) = 7.86972 22.67019 15.26996
#
# Velocity S-wave (km/s) = 2.06853 3.51082 2.88138
# Velocity P-wave (km/s) = 5.21087 6.57321 5.93128
#
# Compressibility (1/GPa) = 0.02534973
#
# Stress axis : x y z
#
# Youngs Moduli (GPa) = 98.94573 47.72965 63.97927
#
# Poissons Ratio (x) = 0.15690 0.32927
# Poissons Ratio (y) = 0.32526 0.14301
# Poissons Ratio (z) = 0.50923 0.10669
#
# Static dielectric constant tensor:
#      x y z
#    x 3.862880 0.000000 0.000000 
#    y 0.000000 3.308280 0.000000 
#    z 0.000000 0.000000 3.151310 
# 
# 
# High freq. dielectric constant tensor:
#      x y z
#    x 1.739580 0.000000 0.000000 
#    y 0.000000 1.706470 0.000000 
#    z 0.000000 0.000000 1.685070 
# 
# From -- ./inp_files/13951.got.cif
#   From: 2010.03.12/outbox.cif.g09.slc.cpg/sg47_7_cif.got.tgz:13951.got - 2010.04.14 03:12:58.
