data_PCOD8198124
_publ_section_title
;
Structure prediction by ZEFSAII (Michael W. Deem and Ramdas Pophale) SiO2 
 PCOD8198124
Probable space group: P M M M
;
_chemical_formula_sum "Si O2"
_cell_formula_units_Z 44
_cell_length_a 15.618178
_cell_length_b 17.101447
_cell_length_c 9.017505
_cell_angle_alpha 90.000000
_cell_angle_beta 90.000000
_cell_angle_gamma 90.000000
_cell_volume 2408.516460
_symmetry_space_group_name_H-M "P M M M"
_symmetry_group_IT_number 47
_symmetry_cell_setting 'orthorhombic'
loop_
_space_group_symop_operation_xyz
x,y,z
-x,-y,z
x,-y,-z
-x,y,-z
-x,-y,-z
x,y,-z
-x,y,z
x,-y,z
loop_
_atom_site_type_symbol
_atom_site_label
_atom_site_fract_x
_atom_site_fract_y
_atom_site_fract_z
Si Si1 0.161727 0.500000 0.175587
Si Si2 0.094237 0.336493 0.176524
Si Si3 0.358243 0.500000 0.176313
Si Si4 0.742513 0.755129 0.827346
Si Si5 0.500000 0.907240 0.336114
Si Si6 0.596145 0.342230 0.328396
Si Si7 0.667763 0.086779 0.170785
O O1 0.115629 0.422781 0.239306
O O2 0.259602 0.500000 0.226208
O O3 0.155319 0.500000 0.000000
O O4 0.166331 0.275886 0.233646
O O5 0.000000 0.311255 0.235058
O O6 0.094531 0.337991 0.000000
O O7 0.402853 0.575946 0.242760
O O8 0.369045 0.500000 0.000000
O O9 0.664282 0.717267 0.739848
O O10 0.742584 0.849380 0.803830
O O11 0.731097 0.732768 0.000000
O O12 0.500000 0.870186 0.500000
O O13 0.414929 0.879245 0.253884
O O14 0.500000 0.000000 0.341734
O O15 0.618911 0.356291 0.500000
O O16 0.500000 0.307005 0.311481
O O17 0.696325 0.000000 0.227942
O O18 0.642124 0.081200 0.000000
#
# Coordination Sequence:
#
# PCOD8198124 Si02
#       7
#     4   8   4   8   4   8   8
#     4   9  15  26  47  75 101 124 157 203 252 298
#     4   9  16  28  49  77 104 127 161 212 261 304
#     4  11  20  35  57  77 101 136 183 220 245 294
#     4  10  20  34  53  77 101 132 176 217 255 307
#     4   9  17  29  47  71  97 126 165 208 249 301
#     4  11  24  38  51  72 105 143 177 212 259 304
#     4   9  18  32  49  70 100 136 171 210 257 305
#
# _framework density 18.268507
#
# number of rings (size 3 to 8) (size 9 to 14) (size 15 to 20)
#    0.000    2.273    1.818    1.636    1.273    5.455 
#    0.000    0.000    0.000    1.091    0.000    5.091 
#    0.000    0.000    0.000    6.182    0.000    6.545 
#
# Total GULP energy -545409.969186 kJ/mol
# GULP energy per Si atom -12395.681118 kJ/mol
# Density = 1.822693 g / cm^3
# Si number density = 18.268507 Si / 1000 Ang^3
#
#
#
# Elastic Constant Matrix: (Units=GPa)
#
#
# Indices 1 2 3 4 5 6 
#
# 1 147.3667 68.8982 33.4287 0.0000 0.0000 0.0000
# 2 68.8982 115.7659 28.3406 0.0000 0.0000 0.0000
# 3 33.4287 28.3406 54.8468 0.0000 0.0000 0.0000
# 4 0.0000 0.0000 0.0000 13.6129 0.0000 0.0000
# 5 0.0000 0.0000 0.0000 0.0000 6.3122 0.0000
# 6 0.0000 0.0000 0.0000 0.0000 0.0000 13.7699
#
#
#
# Elastic Compliance Matrix: (Units=1/GPa)
#
#
# Indices 1 2 3 4 5 6 
#
# 1 0.009937 -0.005073 -0.003435 0.000000 0.000000 0.000000
# 2 -0.005073 0.012479 -0.003356 0.000000 0.000000 0.000000
# 3 -0.003435 -0.003356 0.022060 0.000000 0.000000 0.000000
# 4 0.000000 0.000000 0.000000 0.073460 0.000000 0.000000
# 5 0.000000 0.000000 0.000000 0.000000 0.158424 0.000000
# 6 0.000000 0.000000 0.000000 0.000000 0.000000 0.072622
#
#
# Mechanical properties :
#
#
# Convention : Reuss Voigt Hill
#
# Bulk Modulus (GPa) = 48.19812 64.36826 56.28319
# Shear Modulus (GPa) = 13.17084 19.22647 16.19866
#
# Velocity S-wave (km/s) = 2.68798 3.24765 2.98098
# Velocity P-wave (km/s) = 6.00617 7.02666 6.53636
#
# Compressibility (1/GPa) = 0.02074770
#
# Stress axis : x y z
#
# Youngs Moduli (GPa) = 100.63661 80.13520 45.32991
#
# Poissons Ratio (x) = 0.40652 0.15571
# Poissons Ratio (y) = 0.51052 0.15214
# Poissons Ratio (z) = 0.34569 0.26895
#
# Static dielectric constant tensor:
#      x y z
#    x 3.488680 0.000000 0.000000 
#    y 0.000000 3.534480 0.000000 
#    z 0.000000 0.000000 3.169640 
# 
# 
# High freq. dielectric constant tensor:
#      x y z
#    x 1.695660 0.000000 0.000000 
#    y 0.000000 1.709740 0.000000 
#    z 0.000000 0.000000 1.678880 
# 
# From -- ./inp_files/6240.got.cif
#   From: 2010.03.12/outbox.cif.g09.slc.cpg/sg47_4_cif.got.tgz:6240.got - 2010.04.14 03:12:58.
