data_PCOD8198456
_publ_section_title
;
Structure prediction by ZEFSAII (Michael W. Deem and Ramdas Pophale) SiO2 
 PCOD8198456
Probable space group: P M M M
;
_chemical_formula_sum "Si O2"
_cell_formula_units_Z 44
_cell_length_a 28.402401
_cell_length_b 9.096825
_cell_length_c 9.048651
_cell_angle_alpha 90.000000
_cell_angle_beta 90.000000
_cell_angle_gamma 90.000000
_cell_volume 2337.915083
_symmetry_space_group_name_H-M "P M M M"
_symmetry_group_IT_number 47
_symmetry_cell_setting 'orthorhombic'
loop_
_space_group_symop_operation_xyz
x,y,z
-x,-y,z
x,-y,-z
-x,y,-z
-x,-y,-z
x,y,-z
-x,y,z
x,-y,z
loop_
_atom_site_type_symbol
_atom_site_label
_atom_site_fract_x
_atom_site_fract_y
_atom_site_fract_z
Si Si1 0.328150 0.172715 0.828526
Si Si2 0.764172 0.174348 0.335857
Si Si3 0.133233 0.837059 0.325276
Si Si4 0.586951 0.672289 0.326684
Si Si5 0.500000 0.171783 0.825824
Si Si6 0.947804 0.326456 0.165953
O O1 0.276070 0.223362 0.778649
O O2 0.363942 0.265807 0.731230
O O3 0.336364 0.000000 0.798873
O O4 0.334884 0.210974 0.000000
O O5 0.752960 0.238000 0.500000
O O6 0.815489 0.228587 0.277757
O O7 0.766731 0.000000 0.346785
O O8 0.132210 0.845148 0.500000
O O9 0.091432 0.734338 0.273742
O O10 0.125940 0.000000 0.257925
O O11 0.582419 0.704148 0.500000
O O12 0.583586 0.500000 0.292174
O O13 0.545802 0.755127 0.242306
O O14 0.500000 0.000000 0.787351
O O15 0.500000 0.198920 0.000000
O O16 0.945541 0.500000 0.172665
O O17 0.000000 0.273305 0.215883
O O18 0.937743 0.270986 0.000000
#
# Coordination Sequence:
#
# PCOD8198456 Si02
#       6
#     8   8   8   8   4   8
#     4  10  20  34  55  83 110 138 177 220 260 307
#     4   8  15  30  51  74 103 138 172 209 256 307
#     4   9  18  32  51  77 105 131 165 211 260 310
#     4  11  24  40  58  82 112 146 183 220 261 310
#     4  11  24  41  62  88 114 141 178 221 264 314
#     4   9  19  35  51  68  95 132 172 212 255 307
#
# _framework density 18.820188000000002
#
# number of rings (size 3 to 8) (size 9 to 14) (size 15 to 20)
#    0.000    2.455    0.000    3.818    0.000    8.727 
#    0.000    5.455    0.000    1.091    0.000    0.000 
#    0.000    0.000    0.000    0.000    0.000    0.000 
#
# Total GULP energy -545487.629567 kJ/mol
# GULP energy per Si atom -12397.446127 kJ/mol
# Density = 1.877735 g / cm^3
# Si number density = 18.820188 Si / 1000 Ang^3
#
#
#
# Elastic Constant Matrix: (Units=GPa)
#
#
# Indices 1 2 3 4 5 6 
#
# 1 160.6136 56.0291 57.2299 0.0000 0.0000 0.0000
# 2 56.0291 66.2132 47.3248 0.0000 0.0000 0.0000
# 3 57.2299 47.3248 74.1470 0.0000 0.0000 0.0000
# 4 0.0000 0.0000 0.0000 27.1361 0.0000 0.0000
# 5 0.0000 0.0000 0.0000 0.0000 47.3656 0.0000
# 6 0.0000 0.0000 0.0000 0.0000 0.0000 157.2512
#
#
#
# Elastic Compliance Matrix: (Units=1/GPa)
#
#
# Indices 1 2 3 4 5 6 
#
# 1 0.009445 -0.005115 -0.004025 0.000000 0.000000 0.000000
# 2 -0.005115 0.030542 -0.015546 0.000000 0.000000 0.000000
# 3 -0.004025 -0.015546 0.026515 0.000000 0.000000 0.000000
# 4 0.000000 0.000000 0.000000 0.036851 0.000000 0.000000
# 5 0.000000 0.000000 0.000000 0.000000 0.021112 0.000000
# 6 0.000000 0.000000 0.000000 0.000000 0.000000 0.006359
#
#
# Mechanical properties :
#
#
# Convention : Reuss Voigt Hill
#
# Bulk Modulus (GPa) = 58.37472 69.12683 63.75078
# Shear Modulus (GPa) = 26.89512 55.70991 41.30251
#
# Velocity S-wave (km/s) = 3.78439 5.44660 4.68972
# Velocity P-wave (km/s) = 7.08378 8.73864 7.95436
#
# Compressibility (1/GPa) = 0.01713070
#
# Stress axis : x y z
#
# Youngs Moduli (GPa) = 105.87884 32.74160 37.71381
#
# Poissons Ratio (x) = 0.16748 0.15180
# Poissons Ratio (y) = 0.54160 0.58628
# Poissons Ratio (z) = 0.42617 0.50899
#
# Static dielectric constant tensor:
#      x y z
#    x 3.901880 0.000000 0.000000 
#    y 0.000000 3.277780 0.000000 
#    z 0.000000 0.000000 3.461460 
# 
# 
# High freq. dielectric constant tensor:
#      x y z
#    x 1.751320 0.000000 0.000000 
#    y 0.000000 1.706460 0.000000 
#    z 0.000000 0.000000 1.730180 
# 
# From -- ./inp_files/13560.got.cif
#   From: 2010.03.12/outbox.cif.g09.slc.cpg/sg47_7_cif.got.tgz:13560.got - 2010.04.14 03:12:58.
