data_PCOD8198898
_publ_section_title
;
Structure prediction by ZEFSAII (Michael W. Deem and Ramdas Pophale) SiO2 
 PCOD8198898
Probable space group: P M M M
;
_chemical_formula_sum "Si O2"
_cell_formula_units_Z 64
_cell_length_a 19.387701
_cell_length_b 19.269452
_cell_length_c 8.999999
_cell_angle_alpha 90.000000
_cell_angle_beta 90.000000
_cell_angle_gamma 90.000000
_cell_volume 3362.312991
_symmetry_space_group_name_H-M "P M M M"
_symmetry_group_IT_number 47
_symmetry_cell_setting 'orthorhombic'
loop_
_space_group_symop_operation_xyz
x,y,z
-x,-y,z
x,-y,-z
-x,y,-z
-x,-y,-z
x,y,-z
-x,y,z
x,-y,z
loop_
_atom_site_type_symbol
_atom_site_label
_atom_site_fract_x
_atom_site_fract_y
_atom_site_fract_z
Si Si1 0.335409 0.698988 0.322930
Si Si2 0.188469 0.154340 0.670836
Si Si3 0.576510 0.424482 0.676292
Si Si4 0.921186 0.579149 0.175497
Si Si5 0.075796 0.081566 0.836720
Si Si6 0.820263 0.689954 0.673343
Si Si7 0.686975 0.920224 0.175101
Si Si8 0.579752 0.832869 0.675977
O O1 0.335091 0.699806 0.500000
O O2 0.375262 0.633662 0.253476
O O3 0.257875 0.689238 0.264362
O O4 0.374972 0.767510 0.266895
O O5 0.211284 0.149045 0.500000
O O6 0.126044 0.103420 0.705690
O O7 0.157875 0.230735 0.706007
O O8 0.254992 0.132426 0.764873
O O9 0.573673 0.416188 0.500000
O O10 0.500000 0.415243 0.741605
O O11 0.606187 0.500000 0.719765
O O12 0.902090 0.500000 0.224118
O O13 0.869087 0.634637 0.246126
O O14 0.000000 0.595568 0.225508
O O15 0.914970 0.585980 0.000000
O O16 0.000000 0.113228 0.807235
O O17 0.071010 0.000000 0.835458
O O18 0.102666 0.106301 0.000000
O O19 0.823341 0.671500 0.500000
O O20 0.613194 0.900517 0.247179
O O21 0.704879 0.000000 0.217245
O O22 0.681993 0.911122 0.000000
O O23 0.584293 0.841373 0.500000
O O24 0.500000 0.824448 0.725768
#
# Coordination Sequence:
#
# PCOD8198898 Si02
#       8
#     8   8   8   8   8   8   8   8
#     4   9  16  30  48  72 108 145 179 219 269 325
#     4  11  22  37  56  82 115 147 183 233 285 336
#     4   8  13  21  37  65  99 135 174 211 250 303
#     4   9  20  40  62  83 111 149 193 237 277 323
#     4   9  19  36  56  79 109 145 185 226 270 329
#     4  10  21  35  54  82 115 144 178 226 276 326
#     4  11  24  40  58  80 108 145 188 236 291 347
#     4  10  20  36  59  83 109 145 187 233 287 343
#
# _framework density 19.034514999999999
#
# number of rings (size 3 to 8) (size 9 to 14) (size 15 to 20)
#    0.000    2.375    1.250    2.625    0.000    7.500 
#    0.000    6.250    0.000    0.000    0.000    0.000 
#    0.000    0.000    0.000    6.625    0.000    5.750 
#
# Total GULP energy -793171.952513 kJ/mol
# GULP energy per Si atom -12393.311758 kJ/mol
# Density = 1.899119 g / cm^3
# Si number density = 19.034515 Si / 1000 Ang^3
#
#
#
# Elastic Constant Matrix: (Units=GPa)
#
#
# Indices 1 2 3 4 5 6 
#
# 1 129.4949 62.8122 40.1238 0.0000 0.0000 0.0000
# 2 62.8122 99.8206 41.9174 0.0000 0.0000 0.0000
# 3 40.1238 41.9174 46.4566 0.0000 0.0000 0.0000
# 4 0.0000 0.0000 0.0000 24.9735 0.0000 0.0000
# 5 0.0000 0.0000 0.0000 0.0000 24.4689 0.0000
# 6 0.0000 0.0000 0.0000 0.0000 0.0000 42.9278
#
#
#
# Elastic Compliance Matrix: (Units=1/GPa)
#
#
# Indices 1 2 3 4 5 6 
#
# 1 0.011987 -0.005145 -0.005711 0.000000 0.000000 0.000000
# 2 -0.005145 0.018337 -0.012102 0.000000 0.000000 0.000000
# 3 -0.005711 -0.012102 0.037378 0.000000 0.000000 0.000000
# 4 0.000000 0.000000 0.000000 0.040042 0.000000 0.000000
# 5 0.000000 0.000000 0.000000 0.000000 0.040868 0.000000
# 6 0.000000 0.000000 0.000000 0.000000 0.000000 0.023295
#
#
# Mechanical properties :
#
#
# Convention : Reuss Voigt Hill
#
# Bulk Modulus (GPa) = 45.90056 62.83099 54.36578
# Shear Modulus (GPa) = 22.21366 27.20195 24.70781
#
# Velocity S-wave (km/s) = 3.41987 3.78443 3.60676
# Velocity P-wave (km/s) = 6.30562 7.22333 6.78002
#
# Compressibility (1/GPa) = 0.02178623
#
# Stress axis : x y z
#
# Youngs Moduli (GPa) = 83.42063 54.53349 26.75384
#
# Poissons Ratio (x) = 0.28056 0.15280
# Poissons Ratio (y) = 0.42918 0.32378
# Poissons Ratio (z) = 0.47644 0.65997
#
# Static dielectric constant tensor:
#      x y z
#    x 3.688620 0.000000 0.000000 
#    y 0.000000 3.672960 0.000000 
#    z 0.000000 0.000000 3.143970 
# 
# 
# High freq. dielectric constant tensor:
#      x y z
#    x 1.747270 0.000000 0.000000 
#    y 0.000000 1.746450 0.000000 
#    z 0.000000 0.000000 1.704340 
# 
# From -- ./inp_files/11644.got.cif
#   From: 2010.03.12/outbox.cif.g09.slc.cpg/sg47_6_cif.got.tgz:11644.got - 2010.04.14 03:12:58.
