data_PCOD8198567
_publ_section_title
;
Structure prediction by ZEFSAII (Michael W. Deem and Ramdas Pophale) SiO2 
 PCOD8198567
Probable space group: P M M M
;
_chemical_formula_sum "Si O2"
_cell_formula_units_Z 48
_cell_length_a 16.311585
_cell_length_b 8.676911
_cell_length_c 18.497640
_cell_angle_alpha 90.000000
_cell_angle_beta 90.000000
_cell_angle_gamma 90.000000
_cell_volume 2618.048149
_symmetry_space_group_name_H-M "P M M M"
_symmetry_group_IT_number 47
_symmetry_cell_setting 'orthorhombic'
loop_
_space_group_symop_operation_xyz
x,y,z
-x,-y,z
x,-y,-z
-x,y,-z
-x,-y,-z
x,y,-z
-x,y,z
x,-y,z
loop_
_atom_site_type_symbol
_atom_site_label
_atom_site_fract_x
_atom_site_fract_y
_atom_site_fract_z
Si Si1 0.668019 0.319122 0.916583
Si Si2 0.500000 0.182286 0.582939
Si Si3 0.175531 0.681958 0.421640
Si Si4 0.248430 0.819349 0.787034
Si Si5 0.092586 0.318105 0.279464
Si Si6 0.660545 0.317970 0.654903
Si Si7 0.500000 0.172252 0.914500
O O1 0.676447 0.500000 0.904819
O O2 0.735290 0.230159 0.869479
O O3 0.579177 0.265448 0.888233
O O4 0.682078 0.273233 0.000000
O O5 0.500000 0.245535 0.500000
O O6 0.578647 0.239390 0.626663
O O7 0.500000 0.000000 0.582281
O O8 0.154814 0.756112 0.500000
O O9 0.173073 0.500000 0.427968
O O10 0.109309 0.735672 0.362195
O O11 0.266462 0.733755 0.398449
O O12 0.154818 0.770346 0.772403
O O13 0.314410 0.735963 0.735245
O O14 0.258184 0.000000 0.776867
O O15 0.108599 0.500000 0.271711
O O16 0.000000 0.273559 0.258306
O O17 0.647383 0.500000 0.656177
O O18 0.500000 0.000000 0.880828
O O19 0.500000 0.161779 0.000000
#
# Coordination Sequence:
#
# PCOD8198567 Si02
#       7
#     8   4   8   8   8   8   4
#     4  10  20  35  56  81 109 141 177 215 257 309
#     4  11  23  36  51  76 110 143 179 227 279 322
#     4   8  14  26  47  75 102 127 162 211 259 300
#     4  11  22  36  55  78 106 138 173 216 268 319
#     4   9  18  33  53  77 105 137 173 212 256 312
#     4  10  20  35  53  73 100 138 185 225 260 309
#     4   9  17  30  49  76 109 139 167 201 242 288
#
# _framework density 18.33427
#
# number of rings (size 3 to 8) (size 9 to 14) (size 15 to 20)
#    0.000    2.333    0.000    4.500    0.000    4.667 
#    0.000    5.000    0.000    5.000    0.000    8.167 
#    0.000    0.000    0.000    0.000    0.000    0.000 
#
# Total GULP energy -595115.194756 kJ/mol
# GULP energy per Si atom -12398.233224 kJ/mol
# Density = 1.829254 g / cm^3
# Si number density = 18.334270 Si / 1000 Ang^3
#
#
#
# Elastic Constant Matrix: (Units=GPa)
#
#
# Indices 1 2 3 4 5 6 
#
# 1 111.9936 33.8914 54.8772 0.0000 0.0000 0.0000
# 2 33.8914 65.8780 28.1502 0.0000 0.0000 0.0000
# 3 54.8772 28.1502 96.1342 0.0000 0.0000 0.0000
# 4 0.0000 0.0000 0.0000 21.1067 0.0000 0.0000
# 5 0.0000 0.0000 0.0000 0.0000 20.0448 0.0000
# 6 0.0000 0.0000 0.0000 0.0000 0.0000 20.1081
#
#
#
# Elastic Compliance Matrix: (Units=1/GPa)
#
#
# Indices 1 2 3 4 5 6 
#
# 1 0.013306 -0.004114 -0.006391 0.000000 0.000000 0.000000
# 2 -0.004114 0.018623 -0.003104 0.000000 0.000000 0.000000
# 3 -0.006391 -0.003104 0.014959 0.000000 0.000000 0.000000
# 4 0.000000 0.000000 0.000000 0.047378 0.000000 0.000000
# 5 0.000000 0.000000 0.000000 0.000000 0.049888 0.000000
# 6 0.000000 0.000000 0.000000 0.000000 0.000000 0.049731
#
#
# Mechanical properties :
#
#
# Convention : Reuss Voigt Hill
#
# Bulk Modulus (GPa) = 50.84236 56.42705 53.63470
# Shear Modulus (GPa) = 21.96254 22.72441 22.34347
#
# Velocity S-wave (km/s) = 3.46482 3.52440 3.49474
# Velocity P-wave (km/s) = 6.61798 6.88517 6.75289
#
# Compressibility (1/GPa) = 0.01966864
#
# Stress axis : x y z
#
# Youngs Moduli (GPa) = 75.15647 53.69755 66.84865
#
# Poissons Ratio (x) = 0.22093 0.42720
# Poissons Ratio (y) = 0.30922 0.20753
# Poissons Ratio (z) = 0.48029 0.16670
#
# Static dielectric constant tensor:
#      x y z
#    x 3.349650 0.000000 0.000000 
#    y 0.000000 3.272090 0.000000 
#    z 0.000000 0.000000 3.482550 
# 
# 
# High freq. dielectric constant tensor:
#      x y z
#    x 1.703200 0.000000 0.000000 
#    y 0.000000 1.702920 0.000000 
#    z 0.000000 0.000000 1.704070 
# 
# From -- ./inp_files/27995.got.cif
#   From: 2010.03.12/outbox.cif.g09.slc.cpg/sg47_14_cif.got.tgz:27995.got - 2010.04.14 03:12:58.
