data_PCOD8198234
_publ_section_title
;
Structure prediction by ZEFSAII (Michael W. Deem and Ramdas Pophale) SiO2 
 PCOD8198234
Probable space group: P M M M
;
_chemical_formula_sum "Si O2"
_cell_formula_units_Z 52
_cell_length_a 8.935229
_cell_length_b 30.321786
_cell_length_c 10.568628
_cell_angle_alpha 90.000000
_cell_angle_beta 90.000000
_cell_angle_gamma 90.000000
_cell_volume 2863.380595
_symmetry_space_group_name_H-M "P M M M"
_symmetry_group_IT_number 47
_symmetry_cell_setting 'orthorhombic'
loop_
_space_group_symop_operation_xyz
x,y,z
-x,-y,z
x,-y,-z
-x,y,-z
-x,-y,-z
x,y,-z
-x,y,z
x,-y,z
loop_
_atom_site_type_symbol
_atom_site_label
_atom_site_fract_x
_atom_site_fract_y
_atom_site_fract_z
Si Si1 0.164215 0.549944 0.500000
Si Si2 0.674720 0.754406 0.356598
Si Si3 0.676407 0.176184 0.144626
Si Si4 0.322997 0.420630 0.256150
Si Si5 0.833013 0.913686 0.149856
Si Si6 0.668364 0.000000 0.151148
Si Si7 0.161780 0.500000 0.141004
Si Si8 0.825875 0.338597 0.354088
O O1 0.118748 0.500000 0.500000
O O2 0.273415 0.558972 0.613535
O O3 0.000000 0.575630 0.500000
O O4 0.708121 0.772021 0.500000
O O5 0.500000 0.744524 0.340899
O O6 0.730225 0.788076 0.248061
O O7 0.762399 0.709689 0.331542
O O8 0.500000 0.170119 0.149315
O O9 0.747414 0.130418 0.189961
O O10 0.726173 0.188938 0.000000
O O11 0.500000 0.417317 0.239190
O O12 0.256454 0.455012 0.156107
O O13 0.253209 0.371308 0.253246
O O14 0.749699 0.956535 0.205591
O O15 0.000000 0.912158 0.206273
O O16 0.837752 0.917516 0.000000
O O17 0.500000 0.000000 0.202863
O O18 0.670449 0.000000 0.000000
O O19 0.000000 0.500000 0.218734
O O20 0.109683 0.500000 0.000000
O O21 0.794620 0.354188 0.500000
O O22 0.000000 0.337450 0.323460
#
# Coordination Sequence:
#
# PCOD8198234 Si02
#       8
#     4   8   8   8   8   4   4   8
#     4  11  21  33  53  81 112 136 160 198 246 297
#     4   9  18  33  52  74 101 131 168 213 259 307
#     4   9  17  30  48  70  97 130 166 205 251 302
#     4  12  23  35  57  83 108 134 166 208 252 299
#     4   9  16  25  39  62  93 127 163 205 250 297
#     4   9  15  23  37  59  90 127 164 203 250 302
#     4  11  25  44  61  76 103 143 179 211 250 299
#     4  10  20  34  54  78 106 135 165 207 256 305
#
# _framework density 18.160352
#
# number of rings (size 3 to 8) (size 9 to 14) (size 15 to 20)
#    0.000    2.077    1.538    3.000    0.000    4.923 
#    0.000    0.769    0.000    2.769    0.000    0.538 
#    0.000    4.308    0.000    0.000    0.000    0.000 
#
# Total GULP energy -644350.997643 kJ/mol
# GULP energy per Si atom -12391.365339 kJ/mol
# Density = 1.811902 g / cm^3
# Si number density = 18.160352 Si / 1000 Ang^3
#
#
#
# Elastic Constant Matrix: (Units=GPa)
#
#
# Indices 1 2 3 4 5 6 
#
# 1 108.7890 73.5009 31.6472 0.0000 0.0000 0.0000
# 2 73.5009 149.8123 51.0582 0.0000 0.0000 0.0000
# 3 31.6472 51.0582 61.1126 0.0000 0.0000 0.0000
# 4 0.0000 0.0000 0.0000 21.3478 0.0000 0.0000
# 5 0.0000 0.0000 0.0000 0.0000 12.0692 0.0000
# 6 0.0000 0.0000 0.0000 0.0000 0.0000 24.7327
#
#
#
# Elastic Compliance Matrix: (Units=1/GPa)
#
#
# Indices 1 2 3 4 5 6 
#
# 1 0.013941 -0.006123 -0.002104 0.000000 0.000000 0.000000
# 2 -0.006123 0.012021 -0.006873 0.000000 0.000000 0.000000
# 3 -0.002104 -0.006873 0.023195 0.000000 0.000000 0.000000
# 4 0.000000 0.000000 0.000000 0.046843 0.000000 0.000000
# 5 0.000000 0.000000 0.000000 0.000000 0.082855 0.000000
# 6 0.000000 0.000000 0.000000 0.000000 0.000000 0.040432
#
#
# Mechanical properties :
#
#
# Convention : Reuss Voigt Hill
#
# Bulk Modulus (GPa) = 52.74799 70.23629 61.49214
# Shear Modulus (GPa) = 19.54605 22.53045 21.03825
#
# Velocity S-wave (km/s) = 3.28427 3.52609 3.40733
# Velocity P-wave (km/s) = 6.59474 7.43891 7.02951
#
# Compressibility (1/GPa) = 0.01895807
#
# Stress axis : x y z
#
# Youngs Moduli (GPa) = 71.73241 83.18603 43.11281
#
# Poissons Ratio (x) = 0.50931 0.09071
# Poissons Ratio (y) = 0.43918 0.29631
# Poissons Ratio (z) = 0.15092 0.57173
#
# Static dielectric constant tensor:
#      x y z
#    x 3.425030 0.000000 0.000000 
#    y 0.000000 3.562630 0.000000 
#    z 0.000000 0.000000 3.078670 
# 
# 
# High freq. dielectric constant tensor:
#      x y z
#    x 1.716890 0.000000 0.000000 
#    y 0.000000 1.712390 0.000000 
#    z 0.000000 0.000000 1.655560 
# 
# From -- ./inp_files/15685.got.cif
#   From: 2010.03.12/outbox.cif.g09.slc.cpg/sg47_8_cif.got.tgz:15685.got - 2010.04.14 03:12:58.
