data_PCOD8198981
_publ_section_title
;
Structure prediction by ZEFSAII (Michael W. Deem and Ramdas Pophale) SiO2 
 PCOD8198981
Probable space group: P M M M
;
_chemical_formula_sum "Si O2"
_cell_formula_units_Z 44
_cell_length_a 15.466600
_cell_length_b 16.991447
_cell_length_c 8.960241
_cell_angle_alpha 90.000000
_cell_angle_beta 90.000000
_cell_angle_gamma 90.000000
_cell_volume 2354.750566
_symmetry_space_group_name_H-M "P M M M"
_symmetry_group_IT_number 47
_symmetry_cell_setting 'orthorhombic'
loop_
_space_group_symop_operation_xyz
x,y,z
-x,-y,z
x,-y,-z
-x,y,-z
-x,-y,-z
x,y,-z
-x,y,z
x,-y,z
loop_
_atom_site_type_symbol
_atom_site_label
_atom_site_fract_x
_atom_site_fract_y
_atom_site_fract_z
Si Si1 0.403908 0.157326 0.827571
Si Si2 0.840894 0.000000 0.323574
Si Si3 0.500000 0.592536 0.661616
Si Si4 0.354306 0.000000 0.323013
Si Si5 0.313645 0.589074 0.678194
Si Si6 0.754328 0.735320 0.176188
Si Si7 0.901404 0.167354 0.673550
O O1 0.500000 0.194918 0.805676
O O2 0.402156 0.076967 0.735651
O O3 0.330234 0.216641 0.768055
O O4 0.386549 0.137286 0.000000
O O5 0.889956 0.922020 0.267203
O O6 0.840491 0.000000 0.500000
O O7 0.743594 0.000000 0.261260
O O8 0.500000 0.500000 0.633499
O O9 0.500000 0.634893 0.500000
O O10 0.409471 0.612915 0.744021
O O11 0.357949 0.000000 0.500000
O O12 0.313180 0.597048 0.500000
O O13 0.288799 0.500000 0.724854
O O14 0.245897 0.648517 0.751741
O O15 0.841445 0.776372 0.229952
O O16 0.755841 0.726951 0.000000
O O17 0.874818 0.173741 0.500000
O O18 0.000000 0.193471 0.698420
#
# Coordination Sequence:
#
# PCOD8198981 Si02
#       7
#     8   4   4   4   8   8   8
#     4  10  22  38  52  70 106 155 194 222 262 317
#     4   9  17  32  55  82 108 133 170 222 273 321
#     4   7  12  26  49  77 105 134 171 216 263 309
#     4  11  20  33  55  79 105 138 185 238 275 310
#     4   9  18  34  56  80 108 143 182 223 271 325
#     4  11  23  36  54  80 112 146 182 226 270 319
#     4  10  20  37  61  84 108 140 177 221 277 333
#
# _framework density 18.685631000000001
#
# number of rings (size 3 to 8) (size 9 to 14) (size 15 to 20)
#    0.000    2.273    1.818    2.455    1.273    4.000 
#    0.000    0.455    0.000    3.273    0.000    3.818 
#    0.000    0.000    0.000    0.000    0.000    0.000 
#
# Total GULP energy -545428.134106 kJ/mol
# GULP energy per Si atom -12396.093957 kJ/mol
# Density = 1.864310 g / cm^3
# Si number density = 18.685631 Si / 1000 Ang^3
#
#
#
# Elastic Constant Matrix: (Units=GPa)
#
#
# Indices 1 2 3 4 5 6 
#
# 1 100.8289 50.8111 27.8330 0.0000 0.0000 0.0000
# 2 50.8111 121.6585 37.5763 0.0000 0.0000 0.0000
# 3 27.8330 37.5763 45.7601 0.0000 0.0000 0.0000
# 4 0.0000 0.0000 0.0000 21.3321 0.0000 0.0000
# 5 0.0000 0.0000 0.0000 0.0000 22.8551 0.0000
# 6 0.0000 0.0000 0.0000 0.0000 0.0000 9.7407
#
#
#
# Elastic Compliance Matrix: (Units=1/GPa)
#
#
# Indices 1 2 3 4 5 6 
#
# 1 0.013281 -0.004089 -0.004721 0.000000 0.000000 0.000000
# 2 -0.004089 0.012272 -0.007590 0.000000 0.000000 0.000000
# 3 -0.004721 -0.007590 0.030957 0.000000 0.000000 0.000000
# 4 0.000000 0.000000 0.000000 0.046878 0.000000 0.000000
# 5 0.000000 0.000000 0.000000 0.000000 0.043754 0.000000
# 6 0.000000 0.000000 0.000000 0.000000 0.000000 0.102662
#
#
# Mechanical properties :
#
#
# Convention : Reuss Voigt Hill
#
# Bulk Modulus (GPa) = 42.17446 55.63203 48.90324
# Shear Modulus (GPa) = 17.21133 20.92073 19.06603
#
# Velocity S-wave (km/s) = 3.03825 3.34970 3.19777
# Velocity P-wave (km/s) = 5.90995 6.69312 6.31369
#
# Compressibility (1/GPa) = 0.02371103
#
# Stress axis : x y z
#
# Youngs Moduli (GPa) = 75.29287 81.48740 32.30297
#
# Poissons Ratio (x) = 0.33321 0.15249
# Poissons Ratio (y) = 0.30788 0.24518
# Poissons Ratio (z) = 0.35542 0.61849
#
# Static dielectric constant tensor:
#      x y z
#    x 3.468510 0.000000 0.000000 
#    y 0.000000 3.373900 0.000000 
#    z 0.000000 0.000000 3.137410 
# 
# 
# High freq. dielectric constant tensor:
#      x y z
#    x 1.718740 0.000000 0.000000 
#    y 0.000000 1.718430 0.000000 
#    z 0.000000 0.000000 1.701190 
# 
# From -- ./inp_files/6292.got.cif
#   From: 2010.03.12/outbox.cif.g09.slc.cpg/sg47_4_cif.got.tgz:6292.got - 2010.04.14 03:12:58.
