data_PCOD8198068
_publ_section_title
;
Structure prediction by ZEFSAII (Michael W. Deem and Ramdas Pophale) SiO2 
 PCOD8198068
Probable space group: P M M M
;
_chemical_formula_sum "Si O2"
_cell_formula_units_Z 52
_cell_length_a 18.674721
_cell_length_b 9.117674
_cell_length_c 16.146450
_cell_angle_alpha 90.000000
_cell_angle_beta 90.000000
_cell_angle_gamma 90.000000
_cell_volume 2749.256334
_symmetry_space_group_name_H-M "P M M M"
_symmetry_group_IT_number 47
_symmetry_cell_setting 'orthorhombic'
loop_
_space_group_symop_operation_xyz
x,y,z
-x,-y,z
x,-y,-z
-x,y,-z
-x,-y,-z
x,y,-z
-x,y,z
x,-y,z
loop_
_atom_site_type_symbol
_atom_site_label
_atom_site_fract_x
_atom_site_fract_y
_atom_site_fract_z
Si Si1 0.317641 0.328105 0.404908
Si Si2 0.078637 0.828504 0.213337
Si Si3 0.169096 0.172798 0.632486
Si Si4 0.580220 0.325827 0.255854
Si Si5 0.336731 0.673578 0.094059
Si Si6 0.084014 0.663887 0.500000
Si Si7 0.805277 0.163222 0.903838
O O1 0.343355 0.296063 0.500000
O O2 0.302937 0.500000 0.393387
O O3 0.245388 0.242040 0.386640
O O4 0.375418 0.272265 0.336801
O O5 0.140558 0.783925 0.277587
O O6 0.117227 0.781055 0.128193
O O7 0.000000 0.751030 0.222916
O O8 0.064170 0.000000 0.218897
O O9 0.107861 0.243896 0.577987
O O10 0.174220 0.000000 0.616243
O O11 0.500000 0.263070 0.265089
O O12 0.579741 0.500000 0.254623
O O13 0.610254 0.268873 0.166631
O O14 0.334919 0.500000 0.093285
O O15 0.258811 0.729355 0.121202
O O16 0.357944 0.729209 0.000000
O O17 0.118173 0.500000 0.500000
O O18 0.000000 0.651204 0.500000
O O19 0.788410 0.000000 0.867796
O O20 0.813962 0.156093 0.000000
#
# Coordination Sequence:
#
# PCOD8198068 Si02
#       7
#     8   8   8   8   8   4   8
#     4  10  20  34  53  75 101 133 170 214 259 304
#     4   9  18  31  47  71 101 130 166 212 255 296
#     4  11  21  34  54  76 100 134 172 210 253 306
#     4   9  18  32  51  77 105 133 170 213 255 305
#     4   9  17  30  50  75 102 132 165 206 255 303
#     4  11  23  37  53  75 104 133 164 209 259 304
#     4   9  17  30  50  74  99 131 170 209 249 296
#
# _framework density 18.914204999999999
#
# number of rings (size 3 to 8) (size 9 to 14) (size 15 to 20)
#    0.000    2.385    0.769    2.077    0.000    2.154 
#    0.000    5.385    0.000    4.154    0.000    5.385 
#    0.000    0.000    0.000    0.000    0.000    0.000 
#
# Total GULP energy -644223.941022 kJ/mol
# GULP energy per Si atom -12388.921943 kJ/mol
# Density = 1.887116 g / cm^3
# Si number density = 18.914205 Si / 1000 Ang^3
#
#
#
# Elastic Constant Matrix: (Units=GPa)
#
#
# Indices 1 2 3 4 5 6 
#
# 1 130.1266 26.6857 84.3283 0.0000 0.0000 0.0000
# 2 26.6857 33.4571 25.9457 0.0000 0.0000 0.0000
# 3 84.3283 25.9457 92.4981 0.0000 0.0000 0.0000
# 4 0.0000 0.0000 0.0000 19.4263 0.0000 0.0000
# 5 0.0000 0.0000 0.0000 0.0000 40.9809 0.0000
# 6 0.0000 0.0000 0.0000 0.0000 0.0000 9.8110
#
#
#
# Elastic Compliance Matrix: (Units=1/GPa)
#
#
# Indices 1 2 3 4 5 6 
#
# 1 0.018905 -0.002189 -0.016621 0.000000 0.000000 0.000000
# 2 -0.002189 0.038452 -0.008790 0.000000 0.000000 0.000000
# 3 -0.016621 -0.008790 0.028430 0.000000 0.000000 0.000000
# 4 0.000000 0.000000 0.000000 0.051477 0.000000 0.000000
# 5 0.000000 0.000000 0.000000 0.000000 0.024402 0.000000
# 6 0.000000 0.000000 0.000000 0.000000 0.000000 0.101927
#
#
# Mechanical properties :
#
#
# Convention : Reuss Voigt Hill
#
# Bulk Modulus (GPa) = 32.69479 58.88903 45.79191
# Shear Modulus (GPa) = 15.19813 21.98510 18.59161
#
# Velocity S-wave (km/s) = 2.83774 3.41304 3.13860
# Velocity P-wave (km/s) = 5.29720 6.83624 6.11533
#
# Compressibility (1/GPa) = 0.03058591
#
# Stress axis : x y z
#
# Youngs Moduli (GPa) = 52.89539 26.00669 35.17426
#
# Poissons Ratio (x) = 0.05694 0.58464
# Poissons Ratio (y) = 0.11580 0.30917
# Poissons Ratio (z) = 0.87919 0.22859
#
# Static dielectric constant tensor:
#      x y z
#    x 3.602620 0.000000 0.000000 
#    y 0.000000 3.389940 0.000000 
#    z 0.000000 0.000000 3.842010 
# 
# 
# High freq. dielectric constant tensor:
#      x y z
#    x 1.735060 0.000000 0.000000 
#    y 0.000000 1.697740 0.000000 
#    z 0.000000 0.000000 1.752340 
# 
# From -- ./inp_files/28496.got.cif
#   From: 2010.03.12/outbox.cif.g09.slc.cpg/sg47_15_cif.got.tgz:28496.got - 2010.04.14 03:12:58.
