data_PCOD8198723
_publ_section_title
;
Structure prediction by ZEFSAII (Michael W. Deem and Ramdas Pophale) SiO2 
 PCOD8198723
Probable space group: P M M M
;
_chemical_formula_sum "Si O2"
_cell_formula_units_Z 52
_cell_length_a 13.757448
_cell_length_b 23.702521
_cell_length_c 7.897961
_cell_angle_alpha 90.000000
_cell_angle_beta 90.000000
_cell_angle_gamma 90.000000
_cell_volume 2575.416091
_symmetry_space_group_name_H-M "P M M M"
_symmetry_group_IT_number 47
_symmetry_cell_setting 'orthorhombic'
loop_
_space_group_symop_operation_xyz
x,y,z
-x,-y,z
x,-y,-z
-x,y,-z
-x,-y,-z
x,y,-z
-x,y,z
x,-y,z
loop_
_atom_site_type_symbol
_atom_site_label
_atom_site_fract_x
_atom_site_fract_y
_atom_site_fract_z
Si Si1 0.291381 0.233203 0.302282
Si Si2 0.208976 0.938593 0.802791
Si Si3 0.891374 0.566913 0.500000
Si Si4 0.240983 0.565266 0.808867
Si Si5 0.388180 0.653496 0.299110
Si Si6 0.391468 0.121263 0.298755
Si Si7 0.891505 0.827166 0.200816
O O1 0.309283 0.235595 0.500000
O O2 0.330874 0.291803 0.226168
O O3 0.352602 0.181024 0.225491
O O4 0.177317 0.224004 0.261479
O O5 0.323216 0.928440 0.769959
O O6 0.146393 0.887199 0.722275
O O7 0.180774 0.000000 0.723958
O O8 0.187562 0.940714 0.000000
O O9 0.897435 0.500000 0.500000
O O10 0.836893 0.587922 0.329414
O O11 0.000000 0.592802 0.500000
O O12 0.264844 0.500000 0.774290
O O13 0.341506 0.598693 0.787204
O O14 0.199809 0.573709 0.000000
O O15 0.378431 0.648224 0.500000
O O16 0.500000 0.657679 0.243004
O O17 0.388813 0.121762 0.500000
O O18 0.500000 0.110894 0.230422
O O19 0.000000 0.815927 0.269758
O O20 0.890066 0.829900 0.000000
#
# Coordination Sequence:
#
# PCOD8198723 Si02
#       7
#     8   8   4   8   8   8   8
#     4   9  18  33  53  76 101 130 171 220 264 315
#     4   9  18  31  46  67  95 126 163 208 255 306
#     4   9  18  36  61  85 113 151 194 238 284 333
#     4  10  21  37  58  87 122 156 194 240 288 340
#     4  10  20  35  57  82 110 148 190 231 278 334
#     4   9  17  30  48  69  95 128 165 206 255 309
#     4   9  18  33  52  72  96 129 167 210 263 319
#
# _framework density 20.190912999999998
#
# number of rings (size 3 to 8) (size 9 to 14) (size 15 to 20)
#    0.000    2.692    0.769    0.462    0.000    4.923 
#    0.000    6.923    0.000    2.769    0.000    4.308 
#    0.000    0.000    0.000    0.000    0.000    0.000 
#
# Total GULP energy -644596.394973 kJ/mol
# GULP energy per Si atom -12396.084519 kJ/mol
# Density = 2.014496 g / cm^3
# Si number density = 20.190913 Si / 1000 Ang^3
#
#
#
# Elastic Constant Matrix: (Units=GPa)
#
#
# Indices 1 2 3 4 5 6 
#
# 1 145.2068 59.4207 25.5827 0.0000 0.0000 0.0000
# 2 59.4207 98.6858 24.9814 0.0000 0.0000 0.0000
# 3 25.5827 24.9814 54.9021 0.0000 0.0000 0.0000
# 4 0.0000 0.0000 0.0000 19.7783 0.0000 0.0000
# 5 0.0000 0.0000 0.0000 0.0000 23.1702 0.0000
# 6 0.0000 0.0000 0.0000 0.0000 0.0000 23.8470
#
#
#
# Elastic Compliance Matrix: (Units=1/GPa)
#
#
# Indices 1 2 3 4 5 6 
#
# 1 0.009333 -0.005107 -0.002025 0.000000 0.000000 0.000000
# 2 -0.005107 0.014247 -0.004103 0.000000 0.000000 0.000000
# 3 -0.002025 -0.004103 0.021025 0.000000 0.000000 0.000000
# 4 0.000000 0.000000 0.000000 0.050560 0.000000 0.000000
# 5 0.000000 0.000000 0.000000 0.000000 0.043159 0.000000
# 6 0.000000 0.000000 0.000000 0.000000 0.000000 0.041934
#
#
# Mechanical properties :
#
#
# Convention : Reuss Voigt Hill
#
# Bulk Modulus (GPa) = 45.17797 57.64047 51.40922
# Shear Modulus (GPa) = 23.79739 25.94644 24.87192
#
# Velocity S-wave (km/s) = 3.43683 3.58866 3.51356
# Velocity P-wave (km/s) = 6.17843 6.76616 6.47897
#
# Compressibility (1/GPa) = 0.02213468
#
# Stress axis : x y z
#
# Youngs Moduli (GPa) = 107.14122 70.19068 47.56292
#
# Poissons Ratio (x) = 0.35848 0.09633
# Poissons Ratio (y) = 0.54719 0.19514
# Poissons Ratio (z) = 0.21699 0.28798
#
# Static dielectric constant tensor:
#      x y z
#    x 3.797250 0.000000 0.000000 
#    y 0.000000 3.770840 0.000000 
#    z 0.000000 0.000000 3.469740 
# 
# 
# High freq. dielectric constant tensor:
#      x y z
#    x 1.782420 0.000000 0.000000 
#    y 0.000000 1.778060 0.000000 
#    z 0.000000 0.000000 1.772180 
# 
# From -- ./inp_files/6974.got.cif
#   From: 2010.03.12/outbox.cif.g09.slc.cpg/sg47_4_cif.got.tgz:6974.got - 2010.04.14 03:12:58.
