data_PCOD8198969
_publ_section_title
;
Structure prediction by ZEFSAII (Michael W. Deem and Ramdas Pophale) SiO2 
 PCOD8198969
Probable space group: P M M M
;
_chemical_formula_sum "Si O2"
_cell_formula_units_Z 48
_cell_length_a 16.793363
_cell_length_b 15.793574
_cell_length_c 8.789905
_cell_angle_alpha 90.000000
_cell_angle_beta 90.000000
_cell_angle_gamma 90.000000
_cell_volume 2331.322078
_symmetry_space_group_name_H-M "P M M M"
_symmetry_group_IT_number 47
_symmetry_cell_setting 'orthorhombic'
loop_
_space_group_symop_operation_xyz
x,y,z
-x,-y,z
x,-y,-z
-x,y,-z
-x,-y,-z
x,y,-z
-x,y,z
x,-y,z
loop_
_atom_site_type_symbol
_atom_site_label
_atom_site_fract_x
_atom_site_fract_y
_atom_site_fract_z
Si Si1 0.819352 0.334114 0.678802
Si Si2 0.090462 0.500000 0.319106
Si Si3 0.500000 0.156179 0.321372
Si Si4 0.821428 0.840380 0.178886
Si Si5 0.906053 0.000000 0.674848
Si Si6 0.331835 0.902541 0.674950
Si Si7 0.500000 0.664511 0.824125
Si Si8 0.349161 0.403541 0.328180
O O1 0.834209 0.323574 0.500000
O O2 0.866829 0.415366 0.743430
O O3 0.852387 0.250426 0.762018
O O4 0.725598 0.344943 0.715116
O O5 0.096137 0.500000 0.500000
O O6 0.000000 0.500000 0.260952
O O7 0.500000 0.142928 0.500000
O O8 0.420326 0.111838 0.256885
O O9 0.500000 0.253719 0.280556
O O10 0.729126 0.848566 0.225581
O O11 0.873001 0.915253 0.249777
O O12 0.830640 0.845072 0.000000
O O13 0.878955 0.000000 0.500000
O O14 0.000000 0.000000 0.694144
O O15 0.326818 0.871603 0.500000
O O16 0.307882 0.000000 0.689009
O O17 0.421492 0.610654 0.787288
O O18 0.500000 0.689820 0.000000
O O19 0.378074 0.383423 0.500000
O O20 0.319854 0.500000 0.316164
#
# Coordination Sequence:
#
# PCOD8198969 Si02
#       8
#     8   4   4   8   4   8   4   8
#     4  10  20  38  64  93 124 162 209 256 300 358
#     4   9  18  36  65  98 125 150 194 257 309 351
#     4  10  21  37  57  84 115 157 210 262 307 352
#     4  12  25  40  62  95 133 170 203 245 309 379
#     4  11  25  47  73  96 119 156 209 263 310 361
#     4  10  20  37  62  88 118 158 209 261 305 357
#     4  12  25  36  49  78 117 156 199 253 312 373
#     4  10  20  37  60  83 111 155 209 260 305 354
#
# _framework density 20.589175999999998
#
# number of rings (size 3 to 8) (size 9 to 14) (size 15 to 20)
#    0.000    1.500    1.667    4.000    0.000    9.000 
#    0.000    2.083    0.000    2.000    0.000    0.000 
#    0.000    0.000    0.000    0.000    0.000    0.000 
#
# Total GULP energy -595365.409998 kJ/mol
# GULP energy per Si atom -12403.446042 kJ/mol
# Density = 2.054231 g / cm^3
# Si number density = 20.589176 Si / 1000 Ang^3
#
#
#
# Elastic Constant Matrix: (Units=GPa)
#
#
# Indices 1 2 3 4 5 6 
#
# 1 105.1168 53.5504 47.2454 0.0000 0.0000 0.0000
# 2 53.5504 153.5598 49.3712 0.0000 0.0000 0.0000
# 3 47.2454 49.3712 81.2182 0.0000 0.0000 0.0000
# 4 0.0000 0.0000 0.0000 9.2812 0.0000 0.0000
# 5 0.0000 0.0000 0.0000 0.0000 1.0263 0.0000
# 6 0.0000 0.0000 0.0000 0.0000 0.0000 19.5486
#
#
#
# Elastic Compliance Matrix: (Units=1/GPa)
#
#
# Indices 1 2 3 4 5 6 
#
# 1 0.013766 -0.002767 -0.006326 0.000000 0.000000 0.000000
# 2 -0.002767 0.008650 -0.003649 0.000000 0.000000 0.000000
# 3 -0.006326 -0.003649 0.018210 0.000000 0.000000 0.000000
# 4 0.000000 0.000000 0.000000 0.107745 0.000000 0.000000
# 5 0.000000 0.000000 0.000000 0.000000 0.974338 0.000000
# 6 0.000000 0.000000 0.000000 0.000000 0.000000 0.051154
#
#
# Mechanical properties :
#
#
# Convention : Reuss Voigt Hill
#
# Bulk Modulus (GPa) = 66.03490 71.13656 68.58573
# Shear Modulus (GPa) = 4.15147 18.61976 11.38561
#
# Velocity S-wave (km/s) = 1.42152 3.01050 2.35413
# Velocity P-wave (km/s) = 5.90225 6.83444 6.38538
#
# Compressibility (1/GPa) = 0.01514351
#
# Stress axis : x y z
#
# Youngs Moduli (GPa) = 72.64320 115.60591 54.91351
#
# Poissons Ratio (x) = 0.31984 0.34738
# Poissons Ratio (y) = 0.20098 0.20037
# Poissons Ratio (z) = 0.45954 0.42183
#
# Static dielectric constant tensor:
#      x y z
#    x 3.836880 0.000000 0.000000 
#    y 0.000000 3.829350 0.000000 
#    z 0.000000 0.000000 3.422570 
# 
# 
# High freq. dielectric constant tensor:
#      x y z
#    x 1.808250 0.000000 0.000000 
#    y 0.000000 1.820500 0.000000 
#    z 0.000000 0.000000 1.773640 
# 
# From -- ./inp_files/9303.got.cif
#   From: 2010.03.12/outbox.cif.g09.slc.cpg/sg47_5_cif.got.tgz:9303.got - 2010.04.14 03:12:58.
