data_PCOD8198312
_publ_section_title
;
Structure prediction by ZEFSAII (Michael W. Deem and Ramdas Pophale) SiO2 
 PCOD8198312
Probable space group: P M M M
;
_chemical_formula_sum "Si O2"
_cell_formula_units_Z 48
_cell_length_a 9.334056
_cell_length_b 8.122236
_cell_length_c 32.418925
_cell_angle_alpha 90.000000
_cell_angle_beta 90.000000
_cell_angle_gamma 90.000000
_cell_volume 2457.789112
_symmetry_space_group_name_H-M "P M M M"
_symmetry_group_IT_number 47
_symmetry_cell_setting 'orthorhombic'
loop_
_space_group_symop_operation_xyz
x,y,z
-x,-y,z
x,-y,-z
-x,y,-z
-x,-y,-z
x,y,-z
-x,y,z
x,-y,z
loop_
_atom_site_type_symbol
_atom_site_label
_atom_site_fract_x
_atom_site_fract_y
_atom_site_fract_z
Si Si1 0.163686 0.190568 0.086988
Si Si2 0.670802 0.500000 0.453127
Si Si3 0.661574 0.809119 0.310373
Si Si4 0.329755 0.816768 0.596228
Si Si5 0.841622 0.308786 0.763576
Si Si6 0.341481 0.691219 0.161916
Si Si7 0.830088 0.315138 0.000000
O O1 0.261191 0.288069 0.118795
O O2 0.000000 0.254261 0.090872
O O3 0.173642 0.000000 0.097444
O O4 0.224594 0.222762 0.041005
O O5 0.500000 0.500000 0.450490
O O6 0.725197 0.500000 0.500000
O O7 0.731246 0.667638 0.431891
O O8 0.500000 0.740046 0.305438
O O9 0.717428 0.780773 0.356880
O O10 0.766301 0.712464 0.280331
O O11 0.664895 0.000000 0.298860
O O12 0.500000 0.820627 0.593793
O O13 0.273253 0.000000 0.582362
O O14 0.858709 0.500000 0.772789
O O15 0.748525 0.226775 0.800505
O O16 0.000000 0.226758 0.762862
O O17 0.500000 0.772979 0.160149
O O18 0.359221 0.500000 0.171007
O O19 0.769474 0.500000 0.000000
O O20 0.000000 0.312511 0.000000
#
# Coordination Sequence:
#
# PCOD8198312 Si02
#       7
#     8   4   8   8   8   8   4
#     4  10  20  34  54  80 108 137 170 210 256 304
#     4   9  16  24  38  64  95 133 177 213 257 314
#     4   9  18  32  50  72  98 132 173 212 255 309
#     4   8  15  27  41  62  94 130 170 215 260 310
#     4  10  21  35  52  76 103 131 167 211 258 308
#     4  10  21  37  55  75 101 136 176 213 254 306
#     4   9  17  31  54  81 106 135 170 208 252 301
#
# _framework density 19.529748999999999
#
# number of rings (size 3 to 8) (size 9 to 14) (size 15 to 20)
#    0.000    2.667    0.000    2.750    1.167    5.333 
#    0.000    2.083    0.000    2.500    0.000    0.000 
#    0.000    1.333    0.000    3.667    0.000    3.667 
#
# Total GULP energy -595010.989939 kJ/mol
# GULP energy per Si atom -12396.062290 kJ/mol
# Density = 1.948530 g / cm^3
# Si number density = 19.529749 Si / 1000 Ang^3
#
#
#
# Elastic Constant Matrix: (Units=GPa)
#
#
# Indices 1 2 3 4 5 6 
#
# 1 90.4875 23.0529 55.1756 0.0000 0.0000 0.0000
# 2 23.0529 65.3704 43.8022 0.0000 0.0000 0.0000
# 3 55.1756 43.8022 147.0626 0.0000 0.0000 0.0000
# 4 0.0000 0.0000 0.0000 16.1803 0.0000 0.0000
# 5 0.0000 0.0000 0.0000 0.0000 11.1824 0.0000
# 6 0.0000 0.0000 0.0000 0.0000 0.0000 14.0442
#
#
#
# Elastic Compliance Matrix: (Units=1/GPa)
#
#
# Indices 1 2 3 4 5 6 
#
# 1 0.014503 -0.001835 -0.004895 0.000000 0.000000 0.000000
# 2 -0.001835 0.019344 -0.005073 0.000000 0.000000 0.000000
# 3 -0.004895 -0.005073 0.010147 0.000000 0.000000 0.000000
# 4 0.000000 0.000000 0.000000 0.061804 0.000000 0.000000
# 5 0.000000 0.000000 0.000000 0.000000 0.089427 0.000000
# 6 0.000000 0.000000 0.000000 0.000000 0.000000 0.071204
#
#
# Mechanical properties :
#
#
# Convention : Reuss Voigt Hill
#
# Bulk Modulus (GPa) = 49.04627 60.77576 54.91102
# Shear Modulus (GPa) = 16.84464 20.34069 18.59266
#
# Velocity S-wave (km/s) = 2.94004 3.23077 3.08883
# Velocity P-wave (km/s) = 6.05750 6.71597 6.39521
#
# Compressibility (1/GPa) = 0.02038891
#
# Stress axis : x y z
#
# Youngs Moduli (GPa) = 68.94914 51.69622 98.54760
#
# Poissons Ratio (x) = 0.09485 0.48239
# Poissons Ratio (y) = 0.12650 0.49995
# Poissons Ratio (z) = 0.33751 0.26226
#
# Static dielectric constant tensor:
#      x y z
#    x 3.378780 0.000000 0.000000 
#    y 0.000000 3.544840 0.000000 
#    z 0.000000 0.000000 3.632660 
# 
# 
# High freq. dielectric constant tensor:
#      x y z
#    x 1.717640 0.000000 0.000000 
#    y 0.000000 1.753720 0.000000 
#    z 0.000000 0.000000 1.766270 
# 
# From -- ./inp_files/34150.got.cif
#   From: 2010.03.12/outbox.cif.g09.slc.cpg/sg47_18_cif.got.tgz:34150.got - 2010.04.14 03:12:58.
