data_PCOD8198121
_publ_section_title
;
Structure prediction by ZEFSAII (Michael W. Deem and Ramdas Pophale) SiO2 
 PCOD8198121
Probable space group: P M M M
;
_chemical_formula_sum "Si O2"
_cell_formula_units_Z 44
_cell_length_a 8.960992
_cell_length_b 9.011427
_cell_length_c 28.918234
_cell_angle_alpha 90.000000
_cell_angle_beta 90.000000
_cell_angle_gamma 90.000000
_cell_volume 2335.185720
_symmetry_space_group_name_H-M "P M M M"
_symmetry_group_IT_number 47
_symmetry_cell_setting 'orthorhombic'
loop_
_space_group_symop_operation_xyz
x,y,z
-x,-y,z
x,-y,-z
-x,y,-z
-x,-y,-z
x,y,-z
-x,y,z
x,-y,z
loop_
_atom_site_type_symbol
_atom_site_label
_atom_site_fract_x
_atom_site_fract_y
_atom_site_fract_z
Si Si1 0.678261 0.169625 0.851334
Si Si2 0.333287 0.824004 0.951108
Si Si3 0.321851 0.832520 0.500000
Si Si4 0.322406 0.667149 0.590492
Si Si5 0.825388 0.670731 0.767433
Si Si6 0.672402 0.825882 0.317094
O O1 0.500000 0.180716 0.850113
O O2 0.740464 0.224127 0.902116
O O3 0.747238 0.279841 0.814432
O O4 0.727503 0.000000 0.840756
O O5 0.500000 0.758530 0.952756
O O6 0.342206 0.000000 0.949430
O O7 0.252030 0.774573 0.000000
O O8 0.500000 0.830411 0.500000
O O9 0.258757 0.750358 0.545404
O O10 0.261331 0.000000 0.500000
O O11 0.500000 0.668664 0.588951
O O12 0.260167 0.500000 0.590749
O O13 0.265880 0.749519 0.636440
O O14 0.785045 0.500000 0.757609
O O15 0.768053 0.769776 0.725555
O O16 0.000000 0.695819 0.773030
O O17 0.500000 0.784590 0.308211
O O18 0.694104 0.000000 0.322905
#
# Coordination Sequence:
#
# PCOD8198121 Si02
#       6
#     8   8   4   8   8   8
#     4   9  17  30  51  78 102 125 158 199 242 289
#     4   7  10  19  39  69 101 126 149 185 234 283
#     4   9  15  23  37  61  96 133 166 201 240 281
#     4   9  16  26  42  66  97 131 163 196 239 290
#     4  11  24  38  50  67  94 129 167 204 244 292
#     4  10  20  34  53  76  99 124 159 203 249 296
#
# _framework density 18.842186000000002
#
# number of rings (size 3 to 8) (size 9 to 14) (size 15 to 20)
#    0.000    2.818    0.000    4.091    0.000    8.364 
#    0.000    0.000    0.000    1.091    0.000    7.000 
#    0.000    5.091    0.000    0.000    0.000    0.000 
#
# Total GULP energy -545209.679073 kJ/mol
# GULP energy per Si atom -12391.129070 kJ/mol
# Density = 1.879930 g / cm^3
# Si number density = 18.842186 Si / 1000 Ang^3
#
#
#
# Elastic Constant Matrix: (Units=GPa)
#
#
# Indices 1 2 3 4 5 6 
#
# 1 25.2520 19.6255 24.4533 0.0000 0.0000 0.0000
# 2 19.6255 90.1807 54.6768 0.0000 0.0000 0.0000
# 3 24.4533 54.6768 180.0119 0.0000 0.0000 0.0000
# 4 0.0000 0.0000 0.0000 13.3908 0.0000 0.0000
# 5 0.0000 0.0000 0.0000 0.0000 -5.7884 0.0000
# 6 0.0000 0.0000 0.0000 0.0000 0.0000 17.3625
#
#
#
# Elastic Compliance Matrix: (Units=1/GPa)
#
#
# Indices 1 2 3 4 5 6 
#
# 1 0.050232 -0.008328 -0.004294 0.000000 0.000000 0.000000
# 2 -0.008328 0.014973 -0.003416 0.000000 0.000000 0.000000
# 3 -0.004294 -0.003416 0.007176 0.000000 0.000000 0.000000
# 4 0.000000 0.000000 0.000000 0.074678 0.000000 0.000000
# 5 0.000000 0.000000 0.000000 0.000000 -0.172760 0.000000
# 6 0.000000 0.000000 0.000000 0.000000 0.000000 0.057595
#
#
# Mechanical properties :
#
#
# Convention : Reuss Voigt Hill
#
# Bulk Modulus (GPa) = 24.81191 54.77287 39.79239
# Shear Modulus (GPa) = 64.59526 18.10560 41.35043
#
# Velocity S-wave (km/s) = 5.86146 3.10321 4.68970
# Velocity P-wave (km/s) = 7.68152 6.47860 7.10556
#
# Compressibility (1/GPa) = 0.04030322
#
# Stress axis : x y z
#
# Youngs Moduli (GPa) = 19.90778 66.78832 139.34918
#
# Poissons Ratio (x) = 0.55622 0.59836
# Poissons Ratio (y) = 0.16580 0.47608
# Poissons Ratio (z) = 0.08548 0.22818
#
# Static dielectric constant tensor:
#      x y z
#    x 2.886980 0.000000 0.000000 
#    y 0.000000 3.378850 0.000000 
#    z 0.000000 0.000000 4.007540 
# 
# 
# High freq. dielectric constant tensor:
#      x y z
#    x 1.666090 0.000000 0.000000 
#    y 0.000000 1.719200 0.000000 
#    z 0.000000 0.000000 1.763380 
# 
# From -- ./inp_files/2311.got.cif
#   From: 2010.03.12/outbox.cif.g09.slc.cpg/sg47_2_cif.got.tgz:2311.got - 2010.04.14 03:12:58.
