data_PCOD8198964
_publ_section_title
;
Structure prediction by ZEFSAII (Michael W. Deem and Ramdas Pophale) SiO2 
 PCOD8198964
Probable space group: P M M M
;
_chemical_formula_sum "Si O2"
_cell_formula_units_Z 48
_cell_length_a 28.864695
_cell_length_b 9.648126
_cell_length_c 9.645984
_cell_angle_alpha 90.000000
_cell_angle_beta 90.000000
_cell_angle_gamma 90.000000
_cell_volume 2686.312151
_symmetry_space_group_name_H-M "P M M M"
_symmetry_group_IT_number 47
_symmetry_cell_setting 'orthorhombic'
loop_
_space_group_symop_operation_xyz
x,y,z
-x,-y,z
x,-y,-z
-x,y,-z
-x,-y,-z
x,y,-z
-x,y,z
x,-y,z
loop_
_atom_site_type_symbol
_atom_site_label
_atom_site_fract_x
_atom_site_fract_y
_atom_site_fract_z
Si Si1 0.551045 0.655315 0.335455
Si Si2 0.948389 0.338373 0.000000
Si Si3 0.364858 0.839043 0.340163
Si Si4 0.945762 0.846362 0.500000
Si Si5 0.900551 0.339896 0.278346
Si Si6 0.206120 0.339449 0.659841
Si Si7 0.724311 0.837878 0.837807
O O1 0.550488 0.659352 0.500000
O O2 0.500000 0.700573 0.280329
O O3 0.562466 0.500000 0.283610
O O4 0.590440 0.758656 0.280623
O O5 0.916019 0.295172 0.126476
O O6 0.957347 0.500000 0.000000
O O7 0.000000 0.267508 0.000000
O O8 0.353150 0.798445 0.500000
O O9 0.322667 0.796964 0.241307
O O10 0.376608 0.000000 0.328899
O O11 0.930900 0.761158 0.631948
O O12 0.000000 0.861696 0.500000
O O13 0.923033 0.000000 0.500000
O O14 0.912206 0.500000 0.313030
O O15 0.846845 0.311180 0.302785
O O16 0.215520 0.296247 0.500000
O O17 0.219019 0.500000 0.682443
O O18 0.235034 0.247476 0.765986
O O19 0.735107 0.000000 0.819428
O O20 0.720220 0.798077 0.000000
#
# Coordination Sequence:
#
# PCOD8198964 Si02
#       7
#     8   4   8   4   8   8   8
#     4   8  14  25  43  70 103 135 168 211 263 314
#     4   9  18  32  55  85 109 137 179 219 258 307
#     4   9  17  30  49  73 101 134 174 219 262 307
#     4  11  23  37  55  83 115 145 179 217 260 311
#     4  10  20  37  59  82 109 142 179 220 264 313
#     4  10  21  37  57  82 107 134 175 223 270 318
#     4  10  22  38  55  77 106 142 181 218 265 326
#
# _framework density 17.868362999999999
#
# number of rings (size 3 to 8) (size 9 to 14) (size 15 to 20)
#    0.000    2.500    0.833    1.750    1.167    4.333 
#    0.000    3.750    0.000    2.000    0.000    3.500 
#    0.000    0.000    0.000    0.000    0.000    0.000 
#
# Total GULP energy -595002.312371 kJ/mol
# GULP energy per Si atom -12395.881508 kJ/mol
# Density = 1.782769 g / cm^3
# Si number density = 17.868363 Si / 1000 Ang^3
#
#
#
# Elastic Constant Matrix: (Units=GPa)
#
#
# Indices 1 2 3 4 5 6 
#
# 1 105.1283 57.5812 56.6910 0.0000 0.0000 0.0000
# 2 57.5812 73.3220 47.4152 0.0000 0.0000 0.0000
# 3 56.6910 47.4152 120.2159 0.0000 0.0000 0.0000
# 4 0.0000 0.0000 0.0000 64.8731 0.0000 0.0000
# 5 0.0000 0.0000 0.0000 0.0000 22.4512 0.0000
# 6 0.0000 0.0000 0.0000 0.0000 0.0000 35.0076
#
#
#
# Elastic Compliance Matrix: (Units=1/GPa)
#
#
# Indices 1 2 3 4 5 6 
#
# 1 0.017959 -0.011581 -0.003901 0.000000 0.000000 0.000000
# 2 -0.011581 0.025776 -0.004705 0.000000 0.000000 0.000000
# 3 -0.003901 -0.004705 0.012014 0.000000 0.000000 0.000000
# 4 0.000000 0.000000 0.000000 0.015415 0.000000 0.000000
# 5 0.000000 0.000000 0.000000 0.000000 0.044541 0.000000
# 6 0.000000 0.000000 0.000000 0.000000 0.000000 0.028565
#
#
# Mechanical properties :
#
#
# Convention : Reuss Voigt Hill
#
# Bulk Modulus (GPa) = 65.04430 69.11567 67.07999
# Shear Modulus (GPa) = 26.34780 33.59828 29.97304
#
# Velocity S-wave (km/s) = 3.84415 4.34097 4.10009
# Velocity P-wave (km/s) = 7.49562 7.99311 7.74836
#
# Compressibility (1/GPa) = 0.01537414
#
# Stress axis : x y z
#
# Youngs Moduli (GPa) = 55.68221 38.79622 83.23599
#
# Poissons Ratio (x) = 0.44928 0.32474
# Poissons Ratio (y) = 0.64484 0.39164
# Poissons Ratio (z) = 0.21724 0.18255
#
# Static dielectric constant tensor:
#      x y z
#    x 3.527380 0.000000 0.000000 
#    y 0.000000 3.325100 0.000000 
#    z 0.000000 0.000000 2.978940 
# 
# 
# High freq. dielectric constant tensor:
#      x y z
#    x 1.700420 0.000000 0.000000 
#    y 0.000000 1.681920 0.000000 
#    z 0.000000 0.000000 1.679320 
# 
# From -- ./inp_files/13873.got.cif
#   From: 2010.03.12/outbox.cif.g09.slc.cpg/sg47_7_cif.got.tgz:13873.got - 2010.04.14 03:12:58.
