data_PCOD8198163
_publ_section_title
;
Structure prediction by ZEFSAII (Michael W. Deem and Ramdas Pophale) SiO2 
 PCOD8198163
Probable space group: P M M M
;
_chemical_formula_sum "Si O2"
_cell_formula_units_Z 52
_cell_length_a 8.126401
_cell_length_b 12.208090
_cell_length_c 26.720256
_cell_angle_alpha 90.000000
_cell_angle_beta 90.000000
_cell_angle_gamma 90.000000
_cell_volume 2650.858743
_symmetry_space_group_name_H-M "P M M M"
_symmetry_group_IT_number 47
_symmetry_cell_setting 'orthorhombic'
loop_
_space_group_symop_operation_xyz
x,y,z
-x,-y,z
x,-y,-z
-x,y,-z
-x,-y,-z
x,y,-z
-x,y,z
x,-y,z
loop_
_atom_site_type_symbol
_atom_site_label
_atom_site_fract_x
_atom_site_fract_y
_atom_site_fract_z
Si Si1 0.312159 0.621256 0.084670
Si Si2 0.191675 0.628262 0.376731
Si Si3 0.811181 0.623259 0.807584
Si Si4 0.312921 0.000000 0.864920
Si Si5 0.500000 0.371289 0.444635
Si Si6 0.187145 0.159483 0.054484
Si Si7 0.692533 0.000000 0.246773
Si Si8 0.807073 0.229460 0.719227
O O1 0.500000 0.637162 0.068172
O O2 0.248672 0.500000 0.069811
O O3 0.300307 0.637975 0.143940
O O4 0.202402 0.709550 0.056060
O O5 0.210781 0.500000 0.361978
O O6 0.327483 0.662871 0.418111
O O7 0.242291 0.706158 0.330790
O O8 0.000000 0.649482 0.393902
O O9 0.800620 0.500000 0.786283
O O10 0.734440 0.704257 0.766393
O O11 0.000000 0.652374 0.821379
O O12 0.278017 0.893145 0.898289
O O13 0.224708 0.000000 0.809796
O O14 0.500000 0.000000 0.850664
O O15 0.500000 0.500000 0.449569
O O16 0.500000 0.317355 0.500000
O O17 0.000000 0.123289 0.058995
O O18 0.254922 0.119583 0.000000
O O19 0.743936 0.894738 0.279369
O O20 0.500000 0.000000 0.241469
O O21 0.000000 0.229096 0.724458
#
# Coordination Sequence:
#
# PCOD8198163 Si02
#       8
#     8   8   8   4   4   8   4   8
#     4  10  21  36  53  77 108 138 171 211 260 321
#     4   9  18  33  54  83 118 154 194 240 285 332
#     4   9  17  31  53  78 104 137 174 215 266 325
#     4  11  24  42  61  82 108 134 169 217 268 328
#     4   9  18  32  52  83 121 161 201 236 281 336
#     4  11  24  40  59  81 102 130 171 217 266 320
#     4  11  25  38  52  77 108 143 179 218 267 323
#     4  10  20  34  53  77 107 143 184 226 272 328
#
# _framework density 19.616285999999999
#
# number of rings (size 3 to 8) (size 9 to 14) (size 15 to 20)
#    0.000    2.077    0.000    3.000    1.077    9.846 
#    0.000    3.077    0.000    0.000    0.000    1.077 
#    0.000    2.462    0.000    0.000    0.000    0.000 
#
# Total GULP energy -644452.446064 kJ/mol
# GULP energy per Si atom -12393.316270 kJ/mol
# Density = 1.957164 g / cm^3
# Si number density = 19.616286 Si / 1000 Ang^3
#
#
#
# Elastic Constant Matrix: (Units=GPa)
#
#
# Indices 1 2 3 4 5 6 
#
# 1 45.8699 15.1649 36.8913 0.0000 0.0000 0.0000
# 2 15.1649 109.9802 45.9635 0.0000 0.0000 0.0000
# 3 36.8913 45.9635 107.7682 0.0000 0.0000 0.0000
# 4 0.0000 0.0000 0.0000 14.0910 0.0000 0.0000
# 5 0.0000 0.0000 0.0000 0.0000 23.2873 0.0000
# 6 0.0000 0.0000 0.0000 0.0000 0.0000 21.9694
#
#
#
# Elastic Compliance Matrix: (Units=1/GPa)
#
#
# Indices 1 2 3 4 5 6 
#
# 1 0.030086 0.000190 -0.010380 0.000000 0.000000 0.000000
# 2 0.000190 0.011066 -0.004785 0.000000 0.000000 0.000000
# 3 -0.010380 -0.004785 0.014873 0.000000 0.000000 0.000000
# 4 0.000000 0.000000 0.000000 0.070967 0.000000 0.000000
# 5 0.000000 0.000000 0.000000 0.000000 0.042942 0.000000
# 6 0.000000 0.000000 0.000000 0.000000 0.000000 0.045518
#
#
# Mechanical properties :
#
#
# Convention : Reuss Voigt Hill
#
# Bulk Modulus (GPa) = 38.35037 51.07308 44.71172
# Shear Modulus (GPa) = 19.67774 22.90945 21.29359
#
# Velocity S-wave (km/s) = 3.17066 3.42113 3.29828
# Velocity P-wave (km/s) = 5.74429 6.45741 6.11126
#
# Compressibility (1/GPa) = 0.02607537
#
# Stress axis : x y z
#
# Youngs Moduli (GPa) = 33.23759 90.36688 67.23543
#
# Poissons Ratio (x) = -0.01713 0.69791
# Poissons Ratio (y) = -0.00630 0.32169
# Poissons Ratio (z) = 0.34501 0.43237
#
# Static dielectric constant tensor:
#      x y z
#    x 3.497970 0.000000 0.000000 
#    y 0.000000 3.568020 0.000000 
#    z 0.000000 0.000000 3.663370 
# 
# 
# High freq. dielectric constant tensor:
#      x y z
#    x 1.761580 0.000000 0.000000 
#    y 0.000000 1.759030 0.000000 
#    z 0.000000 0.000000 1.743230 
# 
# From -- ./inp_files/33344.got.cif
#   From: 2010.03.12/outbox.cif.g09.slc.cpg/sg47_17_cif.got.tgz:33344.got - 2010.04.14 03:12:58.
