data_PCOD8198470
_publ_section_title
;
Structure prediction by ZEFSAII (Michael W. Deem and Ramdas Pophale) SiO2 
 PCOD8198470
Probable space group: P M M M
;
_chemical_formula_sum "Si O2"
_cell_formula_units_Z 48
_cell_length_a 20.349857
_cell_length_b 8.981540
_cell_length_c 14.242148
_cell_angle_alpha 90.000000
_cell_angle_beta 90.000000
_cell_angle_gamma 90.000000
_cell_volume 2603.080895
_symmetry_space_group_name_H-M "P M M M"
_symmetry_group_IT_number 47
_symmetry_cell_setting 'orthorhombic'
loop_
_space_group_symop_operation_xyz
x,y,z
-x,-y,z
x,-y,-z
-x,y,-z
-x,-y,-z
x,y,-z
-x,y,z
x,-y,z
loop_
_atom_site_type_symbol
_atom_site_label
_atom_site_fract_x
_atom_site_fract_y
_atom_site_fract_z
Si Si1 0.236325 0.672617 0.893936
Si Si2 0.687457 0.174738 0.392356
Si Si3 0.815640 0.825311 0.723270
Si Si4 0.573923 0.328745 0.279965
Si Si5 0.625177 0.174189 0.893977
Si Si6 0.075371 0.330039 0.608796
O O1 0.249311 0.500000 0.873037
O O2 0.182799 0.738843 0.822537
O O3 0.302885 0.761830 0.876168
O O4 0.210536 0.696526 0.000000
O O5 0.697770 0.221962 0.500000
O O6 0.751893 0.225809 0.335787
O O7 0.623165 0.255087 0.353397
O O8 0.675938 0.000000 0.381955
O O9 0.881056 0.782955 0.667994
O O10 0.815497 0.000000 0.742231
O O11 0.500000 0.311193 0.319356
O O12 0.593480 0.500000 0.267447
O O13 0.575703 0.251206 0.177973
O O14 0.627918 0.000000 0.872673
O O15 0.601039 0.206774 0.000000
O O16 0.085374 0.292059 0.500000
O O17 0.096414 0.500000 0.629203
O O18 0.000000 0.305144 0.638015
#
# Coordination Sequence:
#
# PCOD8198470 Si02
#       6
#     8   8   8   8   8   8
#     4  10  20  34  55  83 113 145 182 224 271 324
#     4  10  22  39  57  79 107 141 183 228 275 329
#     4  11  21  34  57  87 116 147 184 226 274 327
#     4  11  24  39  55  77 106 142 184 229 279 334
#     4  10  20  35  56  81 108 139 177 222 275 333
#     4   9  19  36  57  83 117 156 194 229 270 323
#
# _framework density 18.439686999999999
#
# number of rings (size 3 to 8) (size 9 to 14) (size 15 to 20)
#    0.000    1.833    1.667    3.000    0.000    6.333 
#    0.000    4.167    0.000    0.500    0.000    3.500 
#    0.000    0.000    0.000    0.000    0.000    0.000 
#
# Total GULP energy -595361.050633 kJ/mol
# GULP energy per Si atom -12403.355222 kJ/mol
# Density = 1.839772 g / cm^3
# Si number density = 18.439687 Si / 1000 Ang^3
#
#
#
# Elastic Constant Matrix: (Units=GPa)
#
#
# Indices 1 2 3 4 5 6 
#
# 1 81.9915 35.0468 45.3733 0.0000 0.0000 0.0000
# 2 35.0468 72.7155 49.0330 0.0000 0.0000 0.0000
# 3 45.3733 49.0330 109.4904 0.0000 0.0000 0.0000
# 4 0.0000 0.0000 0.0000 32.0342 0.0000 0.0000
# 5 0.0000 0.0000 0.0000 0.0000 29.0212 0.0000
# 6 0.0000 0.0000 0.0000 0.0000 0.0000 29.6688
#
#
#
# Elastic Compliance Matrix: (Units=1/GPa)
#
#
# Indices 1 2 3 4 5 6 
#
# 1 0.016973 -0.004925 -0.004828 0.000000 0.000000 0.000000
# 2 -0.004925 0.021131 -0.007422 0.000000 0.000000 0.000000
# 3 -0.004828 -0.007422 0.014458 0.000000 0.000000 0.000000
# 4 0.000000 0.000000 0.000000 0.031217 0.000000 0.000000
# 5 0.000000 0.000000 0.000000 0.000000 0.034458 0.000000
# 6 0.000000 0.000000 0.000000 0.000000 0.000000 0.033705
#
#
# Mechanical properties :
#
#
# Convention : Reuss Voigt Hill
#
# Bulk Modulus (GPa) = 54.91048 58.12261 56.51654
# Shear Modulus (GPa) = 25.99256 27.12779 26.56017
#
# Velocity S-wave (km/s) = 3.75854 3.83974 3.79935
# Velocity P-wave (km/s) = 6.97700 7.15869 7.06843
#
# Compressibility (1/GPa) = 0.01821146
#
# Stress axis : x y z
#
# Youngs Moduli (GPa) = 58.91539 47.32465 69.16631
#
# Poissons Ratio (x) = 0.23307 0.33396
# Poissons Ratio (y) = 0.29015 0.51335
# Poissons Ratio (z) = 0.28447 0.35124
#
# Static dielectric constant tensor:
#      x y z
#    x 3.166850 0.000000 0.000000 
#    y 0.000000 3.436920 0.000000 
#    z 0.000000 0.000000 3.529520 
# 
# 
# High freq. dielectric constant tensor:
#      x y z
#    x 1.695490 0.000000 0.000000 
#    y 0.000000 1.725490 0.000000 
#    z 0.000000 0.000000 1.720750 
# 
# From -- ./inp_files/6328.got.cif
#   From: 2010.03.12/outbox.cif.g09.slc.cpg/sg47_4_cif.got.tgz:6328.got - 2010.04.14 03:12:58.
