data_PCOD8198274
_publ_section_title
;
Structure prediction by ZEFSAII (Michael W. Deem and Ramdas Pophale) SiO2 
 PCOD8198274
Probable space group: P M M M
;
_chemical_formula_sum "Si O2"
_cell_formula_units_Z 52
_cell_length_a 8.938670
_cell_length_b 14.770187
_cell_length_c 20.741221
_cell_angle_alpha 90.000000
_cell_angle_beta 90.000000
_cell_angle_gamma 90.000000
_cell_volume 2738.376864
_symmetry_space_group_name_H-M "P M M M"
_symmetry_group_IT_number 47
_symmetry_cell_setting 'orthorhombic'
loop_
_space_group_symop_operation_xyz
x,y,z
-x,-y,z
x,-y,-z
-x,y,-z
-x,-y,-z
x,y,-z
-x,y,z
x,-y,z
loop_
_atom_site_type_symbol
_atom_site_label
_atom_site_fract_x
_atom_site_fract_y
_atom_site_fract_z
Si Si1 0.835291 0.500000 0.575846
Si Si2 0.178084 0.603834 0.804248
Si Si3 0.330914 0.899429 0.243029
Si Si4 0.174234 0.740603 0.306576
Si Si5 0.323547 0.680249 0.572739
Si Si6 0.830087 0.098419 0.112594
Si Si7 0.824689 0.293692 0.069577
O O1 0.853262 0.500000 0.500000
O O2 0.743369 0.413800 0.598300
O O3 0.000000 0.500000 0.608780
O O4 0.236509 0.500000 0.799893
O O5 0.231864 0.660401 0.741317
O O6 0.244970 0.652039 0.869163
O O7 0.000000 0.606145 0.806779
O O8 0.500000 0.861686 0.251700
O O9 0.207149 0.836805 0.275450
O O10 0.291945 0.902852 0.168298
O O11 0.319104 0.000000 0.273178
O O12 0.262050 0.749203 0.374522
O O13 0.000000 0.729201 0.321009
O O14 0.268758 0.704611 0.500000
O O15 0.500000 0.674643 0.573997
O O16 0.791341 0.185713 0.069541
O O17 0.000000 0.109705 0.139806
O O18 0.818522 0.000000 0.076011
O O19 0.000000 0.311538 0.071835
O O20 0.762044 0.329368 0.000000
#
# Coordination Sequence:
#
# PCOD8198274 Si02
#       7
#     4   8   8   8   8   8   8
#     4   9  17  31  51  75 105 143 186 225 264 315
#     4   9  18  31  46  71 106 139 176 223 270 311
#     4  10  20  34  54  79 106 137 174 218 271 330
#     4  11  21  34  56  81 108 142 180 225 271 321
#     4  10  21  36  53  77 112 149 183 223 273 328
#     4   9  16  28  47  72 103 134 168 216 273 329
#     4   9  16  27  45  71 103 138 177 220 269 322
#
# _framework density 18.989352
#
# number of rings (size 3 to 8) (size 9 to 14) (size 15 to 20)
#    0.000    2.385    1.538    1.615    1.077    3.385 
#    0.000    3.077    0.000    0.923    0.000    5.385 
#    0.000    1.231    0.000    0.000    0.000    0.000 
#
# Total GULP energy -644226.827081 kJ/mol
# GULP energy per Si atom -12388.977444 kJ/mol
# Density = 1.894613 g / cm^3
# Si number density = 18.989352 Si / 1000 Ang^3
#
#
#
# Elastic Constant Matrix: (Units=GPa)
#
#
# Indices 1 2 3 4 5 6 
#
# 1 44.5800 18.6857 26.2108 0.0000 0.0000 0.0000
# 2 18.6857 93.1382 39.5378 0.0000 0.0000 0.0000
# 3 26.2108 39.5378 113.1718 0.0000 0.0000 0.0000
# 4 0.0000 0.0000 0.0000 25.4664 0.0000 0.0000
# 5 0.0000 0.0000 0.0000 0.0000 14.8683 0.0000
# 6 0.0000 0.0000 0.0000 0.0000 0.0000 22.5492
#
#
#
# Elastic Compliance Matrix: (Units=1/GPa)
#
#
# Indices 1 2 3 4 5 6 
#
# 1 0.026763 -0.003215 -0.005075 0.000000 0.000000 0.000000
# 2 -0.003215 0.012992 -0.003795 0.000000 0.000000 0.000000
# 3 -0.005075 -0.003795 0.011337 0.000000 0.000000 0.000000
# 4 0.000000 0.000000 0.000000 0.039267 0.000000 0.000000
# 5 0.000000 0.000000 0.000000 0.000000 0.067257 0.000000
# 6 0.000000 0.000000 0.000000 0.000000 0.000000 0.044348
#
#
# Mechanical properties :
#
#
# Convention : Reuss Voigt Hill
#
# Bulk Modulus (GPa) = 37.14211 46.63986 41.89098
# Shear Modulus (GPa) = 21.26675 23.67381 22.47028
#
# Velocity S-wave (km/s) = 3.35017 3.53468 3.44366
# Velocity P-wave (km/s) = 5.87935 6.42441 6.15791
#
# Compressibility (1/GPa) = 0.02692362
#
# Stress axis : x y z
#
# Youngs Moduli (GPa) = 37.36490 76.96752 88.20506
#
# Poissons Ratio (x) = 0.24744 0.44766
# Poissons Ratio (y) = 0.12012 0.33469
# Poissons Ratio (z) = 0.18964 0.29205
#
# Static dielectric constant tensor:
#      x y z
#    x 3.160620 0.000000 0.000000 
#    y 0.000000 3.721120 0.000000 
#    z 0.000000 0.000000 3.514890 
# 
# 
# High freq. dielectric constant tensor:
#      x y z
#    x 1.705800 0.000000 0.000000 
#    y 0.000000 1.732900 0.000000 
#    z 0.000000 0.000000 1.728710 
# 
# From -- ./inp_files/7068.got.cif
#   From: 2010.03.12/outbox.cif.g09.slc.cpg/sg47_4_cif.got.tgz:7068.got - 2010.04.14 03:12:58.
