data_PCOD8198664
_publ_section_title
;
Structure prediction by ZEFSAII (Michael W. Deem and Ramdas Pophale) SiO2 
 PCOD8198664
Probable space group: P M M M
;
_chemical_formula_sum "Si O2"
_cell_formula_units_Z 40
_cell_length_a 11.829295
_cell_length_b 8.960097
_cell_length_c 20.151720
_cell_angle_alpha 90.000000
_cell_angle_beta 90.000000
_cell_angle_gamma 90.000000
_cell_volume 2135.913663
_symmetry_space_group_name_H-M "P M M M"
_symmetry_group_IT_number 47
_symmetry_cell_setting 'orthorhombic'
loop_
_space_group_symop_operation_xyz
x,y,z
-x,-y,z
x,-y,-z
-x,y,-z
-x,-y,-z
x,y,-z
-x,y,z
x,-y,z
loop_
_atom_site_type_symbol
_atom_site_label
_atom_site_fract_x
_atom_site_fract_y
_atom_site_fract_z
Si Si1 0.129036 0.324660 0.311855
Si Si2 0.868819 0.170229 0.923869
Si Si3 0.734933 0.823492 0.424625
Si Si4 0.500000 0.822969 0.783295
Si Si5 0.500000 0.822946 0.632322
Si Si6 0.271823 0.675586 0.814790
O O1 0.141290 0.500000 0.321689
O O2 0.168599 0.246341 0.379103
O O3 0.204152 0.268430 0.250188
O O4 0.000000 0.278553 0.297579
O O5 0.798545 0.284877 0.879958
O O6 0.000000 0.206811 0.913806
O O7 0.843172 0.000000 0.902525
O O8 0.833710 0.195108 0.000000
O O9 0.759876 0.776015 0.500000
O O10 0.611517 0.760617 0.404097
O O11 0.738188 0.000000 0.415604
O O12 0.500000 0.765330 0.707634
O O13 0.390416 0.759832 0.819903
O O14 0.500000 0.000000 0.788082
O O15 0.500000 0.000000 0.629395
O O16 0.292768 0.500000 0.812367
#
# Coordination Sequence:
#
# PCOD8198664 Si02
#       6
#     8   8   8   4   4   8
#     4  10  22  38  54  75 108 148 185 223 273 333
#     4   9  19  37  61  89 120 153 189 229 274 326
#     4  10  20  35  56  81 107 137 180 233 282 330
#     4  11  21  36  60  84 110 147 188 229 284 341
#     4   9  17  33  56  80 106 136 175 224 279 333
#     4  11  22  37  58  85 116 148 188 234 280 330
#
# _framework density 18.727347000000002
#
# number of rings (size 3 to 8) (size 9 to 14) (size 15 to 20)
#    0.000    2.000    2.000    2.400    0.000    4.800 
#    0.000    4.000    0.000    4.200    0.000    0.000 
#    0.000    0.000    0.000    0.000    0.000    0.000 
#
# Total GULP energy -496161.414581 kJ/mol
# GULP energy per Si atom -12404.035365 kJ/mol
# Density = 1.868472 g / cm^3
# Si number density = 18.727347 Si / 1000 Ang^3
#
#
#
# Elastic Constant Matrix: (Units=GPa)
#
#
# Indices 1 2 3 4 5 6 
#
# 1 113.6269 40.8524 53.0406 0.0000 0.0000 0.0000
# 2 40.8524 50.2070 36.4180 0.0000 0.0000 0.0000
# 3 53.0406 36.4180 106.3484 0.0000 0.0000 0.0000
# 4 0.0000 0.0000 0.0000 31.3399 0.0000 0.0000
# 5 0.0000 0.0000 0.0000 0.0000 35.2056 0.0000
# 6 0.0000 0.0000 0.0000 0.0000 0.0000 28.8542
#
#
#
# Elastic Compliance Matrix: (Units=1/GPa)
#
#
# Indices 1 2 3 4 5 6 
#
# 1 0.013600 -0.008177 -0.003983 0.000000 0.000000 0.000000
# 2 -0.008177 0.031416 -0.006680 0.000000 0.000000 0.000000
# 3 -0.003983 -0.006680 0.013677 0.000000 0.000000 0.000000
# 4 0.000000 0.000000 0.000000 0.031908 0.000000 0.000000
# 5 0.000000 0.000000 0.000000 0.000000 0.028405 0.000000
# 6 0.000000 0.000000 0.000000 0.000000 0.000000 0.034657
#
#
# Mechanical properties :
#
#
# Convention : Reuss Voigt Hill
#
# Bulk Modulus (GPa) = 47.58801 58.97826 53.28313
# Shear Modulus (GPa) = 25.20841 28.40469 26.80655
#
# Velocity S-wave (km/s) = 3.67287 3.89877 3.78751
# Velocity P-wave (km/s) = 6.59187 7.19922 6.90223
#
# Compressibility (1/GPa) = 0.02101370
#
# Stress axis : x y z
#
# Youngs Moduli (GPa) = 73.53113 31.83056 73.11609
#
# Poissons Ratio (x) = 0.26028 0.29120
# Poissons Ratio (y) = 0.60126 0.48842
# Poissons Ratio (z) = 0.29285 0.21263
#
# Static dielectric constant tensor:
#      x y z
#    x 3.484380 0.000000 0.000000 
#    y 0.000000 3.230350 0.000000 
#    z 0.000000 0.000000 3.419060 
# 
# 
# High freq. dielectric constant tensor:
#      x y z
#    x 1.733120 0.000000 0.000000 
#    y 0.000000 1.713000 0.000000 
#    z 0.000000 0.000000 1.728250 
# 
# From -- ./inp_files/10666.got.cif
#   From: 2010.03.12/outbox.cif.g09.slc.cpg/sg47_6_cif.got.tgz:10666.got - 2010.04.14 03:12:58.
