data_PCOD8198178
_publ_section_title
;
Structure prediction by ZEFSAII (Michael W. Deem and Ramdas Pophale) SiO2 
 PCOD8198178
Probable space group: P M M M
;
_chemical_formula_sum "Si O2"
_cell_formula_units_Z 40
_cell_length_a 25.893348
_cell_length_b 8.967312
_cell_length_c 9.001358
_cell_angle_alpha 90.000000
_cell_angle_beta 90.000000
_cell_angle_gamma 90.000000
_cell_volume 2090.058891
_symmetry_space_group_name_H-M "P M M M"
_symmetry_group_IT_number 47
_symmetry_cell_setting 'orthorhombic'
loop_
_space_group_symop_operation_xyz
x,y,z
-x,-y,z
x,-y,-z
-x,y,-z
-x,-y,-z
x,y,-z
-x,y,z
x,-y,z
loop_
_atom_site_type_symbol
_atom_site_label
_atom_site_fract_x
_atom_site_fract_y
_atom_site_fract_z
Si Si1 0.403815 0.673947 0.174126
Si Si2 0.699489 0.167920 0.176476
Si Si3 0.000000 0.177151 0.832707
Si Si4 0.500000 0.171611 0.675294
Si Si5 0.897055 0.171888 0.325456
Si Si6 0.802841 0.324909 0.828847
O O1 0.403501 0.500000 0.210092
O O2 0.350355 0.742951 0.234337
O O3 0.449717 0.750436 0.261085
O O4 0.411350 0.704718 0.000000
O O5 0.751234 0.247488 0.234442
O O6 0.697689 0.000000 0.239432
O O7 0.699598 0.168989 0.000000
O O8 0.050980 0.235568 0.749617
O O9 0.000000 0.000000 0.830088
O O10 0.000000 0.239973 0.000000
O O11 0.500000 0.189673 0.500000
O O12 0.500000 0.000000 0.724943
O O13 0.903458 0.190273 0.500000
O O14 0.850077 0.270840 0.269724
O O15 0.887199 0.000000 0.280727
O O16 0.795528 0.500000 0.810973
O O17 0.812965 0.280282 0.000000
#
# Coordination Sequence:
#
# PCOD8198178 Si02
#       6
#     8   8   4   4   8   8
#     4  10  20  35  57  84 111 140 177 221 269 321
#     4   9  17  31  54  82 109 138 174 218 266 314
#     4   9  17  31  54  81 106 135 174 220 268 317
#     4  11  24  39  54  76 108 145 184 225 268 316
#     4  10  20  34  53  78 108 141 177 218 264 315
#     4  10  20  34  53  78 108 141 177 218 263 312
#
# _framework density 19.138217999999998
#
# number of rings (size 3 to 8) (size 9 to 14) (size 15 to 20)
#    0.000    2.200    0.000    3.300    0.000    9.200 
#    0.000    1.500    0.000    9.000    0.000    0.000 
#    0.000    0.000    0.000    0.000    0.000    0.000 
#
# Total GULP energy -496120.898033 kJ/mol
# GULP energy per Si atom -12403.022451 kJ/mol
# Density = 1.909466 g / cm^3
# Si number density = 19.138218 Si / 1000 Ang^3
#
#
#
# Elastic Constant Matrix: (Units=GPa)
#
#
# Indices 1 2 3 4 5 6 
#
# 1 188.1567 72.3430 52.9066 0.0000 0.0000 0.0000
# 2 72.3430 111.4900 41.0041 0.0000 0.0000 0.0000
# 3 52.9066 41.0041 62.7016 0.0000 0.0000 0.0000
# 4 0.0000 0.0000 0.0000 23.0531 0.0000 0.0000
# 5 0.0000 0.0000 0.0000 0.0000 8.3763 0.0000
# 6 0.0000 0.0000 0.0000 0.0000 0.0000 -120.5077
#
#
#
# Elastic Compliance Matrix: (Units=1/GPa)
#
#
# Indices 1 2 3 4 5 6 
#
# 1 0.007893 -0.003518 -0.004359 0.000000 0.000000 0.000000
# 2 -0.003518 0.013378 -0.005780 0.000000 0.000000 0.000000
# 3 -0.004359 -0.005780 0.023407 0.000000 0.000000 0.000000
# 4 0.000000 0.000000 0.000000 0.043378 0.000000 0.000000
# 5 0.000000 0.000000 0.000000 0.000000 0.119384 0.000000
# 6 0.000000 0.000000 0.000000 0.000000 0.000000 -0.008298
#
#
# Mechanical properties :
#
#
# Convention : Reuss Voigt Hill
#
# Bulk Modulus (GPa) = 57.59448 77.20620 67.40034
# Shear Modulus (GPa) = 21.52897 -4.74269 8.39314
#
# Velocity S-wave (km/s) = 3.35762 -1.57591 2.09644
# Velocity P-wave (km/s) = 6.72241 6.09242 6.41515
#
# Compressibility (1/GPa) = 0.01736277
#
# Stress axis : x y z
#
# Youngs Moduli (GPa) = 126.69016 74.74836 42.72278
#
# Poissons Ratio (x) = 0.26300 0.18624
# Poissons Ratio (y) = 0.44575 0.24694
# Poissons Ratio (z) = 0.55228 0.43204
#
# Static dielectric constant tensor:
#      x y z
#    x 3.782460 0.000000 0.000000 
#    y 0.000000 3.521240 0.000000 
#    z 0.000000 0.000000 3.275310 
# 
# 
# High freq. dielectric constant tensor:
#      x y z
#    x 1.764200 0.000000 0.000000 
#    y 0.000000 1.742810 0.000000 
#    z 0.000000 0.000000 1.719500 
# 
# From -- ./inp_files/13053.got.cif
#   From: 2010.03.12/outbox.cif.g09.slc.cpg/sg47_7_cif.got.tgz:13053.got - 2010.04.14 03:12:58.
