data_PCOD8198321
_publ_section_title
;
Structure prediction by ZEFSAII (Michael W. Deem and Ramdas Pophale) SiO2 
 PCOD8198321
Probable space group: P M M M
;
_chemical_formula_sum "Si O2"
_cell_formula_units_Z 48
_cell_length_a 8.945827
_cell_length_b 9.220822
_cell_length_c 30.958005
_cell_angle_alpha 90.000000
_cell_angle_beta 90.000000
_cell_angle_gamma 90.000000
_cell_volume 2553.660152
_symmetry_space_group_name_H-M "P M M M"
_symmetry_group_IT_number 47
_symmetry_cell_setting 'orthorhombic'
loop_
_space_group_symop_operation_xyz
x,y,z
-x,-y,z
x,-y,-z
-x,y,-z
-x,-y,-z
x,y,-z
-x,y,z
x,-y,z
loop_
_atom_site_type_symbol
_atom_site_label
_atom_site_fract_x
_atom_site_fract_y
_atom_site_fract_z
Si Si1 0.326036 0.332780 0.667127
Si Si2 0.175269 0.667586 0.578025
Si Si3 0.170340 0.827819 0.255810
Si Si4 0.672965 0.170753 0.500000
Si Si5 0.825062 0.168329 0.916278
Si Si6 0.177890 0.663717 0.000000
Si Si7 0.668415 0.827509 0.170063
O O1 0.500000 0.302742 0.659593
O O2 0.294104 0.500000 0.678180
O O3 0.239005 0.285147 0.624232
O O4 0.268680 0.236002 0.706050
O O5 0.212301 0.500000 0.568228
O O6 0.251530 0.765401 0.542315
O O7 0.000000 0.697358 0.577636
O O8 0.236533 0.769569 0.210599
O O9 0.000000 0.773925 0.259772
O O10 0.180655 0.000000 0.258317
O O11 0.500000 0.214013 0.500000
O O12 0.697467 0.000000 0.500000
O O13 0.762119 0.255258 0.957434
O O14 0.741814 0.230055 0.874093
O O15 0.000000 0.194343 0.909183
O O16 0.789662 0.000000 0.924241
O O17 0.238784 0.500000 0.000000
O O18 0.000000 0.668707 0.000000
O O19 0.500000 0.767591 0.173720
O O20 0.670639 0.000000 0.169818
#
# Coordination Sequence:
#
# PCOD8198321 Si02
#       7
#     8   8   8   4   8   4   8
#     4  10  21  37  57  81 109 142 179 218 261 310
#     4  10  21  38  60  83 107 140 182 223 264 313
#     4  10  20  34  54  80 108 139 175 215 261 311
#     4  11  24  39  56  82 114 145 178 219 268 318
#     4   9  16  28  48  71  93 121 161 205 245 291
#     4   9  17  29  46  69  96 124 156 197 246 298
#     4   9  17  30  49  73 100 130 166 209 254 300
#
# _framework density 18.79655
#
# number of rings (size 3 to 8) (size 9 to 14) (size 15 to 20)
#    0.000    2.333    0.000    2.750    0.000    8.333 
#    0.000    1.250    0.000    6.000    0.000    0.000 
#    0.000    0.000    0.000    0.000    0.000    0.000 
#
# Total GULP energy -595333.585703 kJ/mol
# GULP energy per Si atom -12402.783035 kJ/mol
# Density = 1.875377 g / cm^3
# Si number density = 18.796550 Si / 1000 Ang^3
#
#
#
# Elastic Constant Matrix: (Units=GPa)
#
#
# Indices 1 2 3 4 5 6 
#
# 1 93.8623 38.0438 60.8206 0.0000 0.0000 0.0000
# 2 38.0438 50.4154 53.5306 0.0000 0.0000 0.0000
# 3 60.8206 53.5306 163.8678 0.0000 0.0000 0.0000
# 4 0.0000 0.0000 0.0000 5.5640 0.0000 0.0000
# 5 0.0000 0.0000 0.0000 0.0000 79.0436 0.0000
# 6 0.0000 0.0000 0.0000 0.0000 0.0000 22.1727
#
#
#
# Elastic Compliance Matrix: (Units=1/GPa)
#
#
# Indices 1 2 3 4 5 6 
#
# 1 0.016325 -0.009011 -0.003116 0.000000 0.000000 0.000000
# 2 -0.009011 0.035342 -0.008201 0.000000 0.000000 0.000000
# 3 -0.003116 -0.008201 0.009938 0.000000 0.000000 0.000000
# 4 0.000000 0.000000 0.000000 0.179726 0.000000 0.000000
# 5 0.000000 0.000000 0.000000 0.000000 0.012651 0.000000
# 6 0.000000 0.000000 0.000000 0.000000 0.000000 0.045101
#
#
# Mechanical properties :
#
#
# Convention : Reuss Voigt Hill
#
# Bulk Modulus (GPa) = 47.73113 68.10393 57.91753
# Shear Modulus (GPa) = 14.42080 31.73944 23.08012
#
# Velocity S-wave (km/s) = 2.77285 4.11369 3.50793
# Velocity P-wave (km/s) = 5.97497 7.67294 6.87657
#
# Compressibility (1/GPa) = 0.02095069
#
# Stress axis : x y z
#
# Youngs Moduli (GPa) = 61.25606 28.29461 100.62594
#
# Poissons Ratio (x) = 0.25496 0.31350
# Poissons Ratio (y) = 0.55197 0.82522
# Poissons Ratio (z) = 0.19085 0.23204
#
# Static dielectric constant tensor:
#      x y z
#    x 3.531140 0.000000 0.000000 
#    y 0.000000 3.231340 0.000000 
#    z 0.000000 0.000000 3.613250 
# 
# 
# High freq. dielectric constant tensor:
#      x y z
#    x 1.733310 0.000000 0.000000 
#    y 0.000000 1.703080 0.000000 
#    z 0.000000 0.000000 1.747610 
# 
# From -- ./inp_files/2550.got.cif
#   From: 2010.03.12/outbox.cif.g09.slc.cpg/sg47_2_cif.got.tgz:2550.got - 2010.04.14 03:12:58.
