data_PCOD8198759
_publ_section_title
;
Structure prediction by ZEFSAII (Michael W. Deem and Ramdas Pophale) SiO2 
 PCOD8198759
Probable space group: P M M M
;
_chemical_formula_sum "Si O2"
_cell_formula_units_Z 44
_cell_length_a 9.375794
_cell_length_b 28.363310
_cell_length_c 8.819163
_cell_angle_alpha 90.000000
_cell_angle_beta 90.000000
_cell_angle_gamma 90.000000
_cell_volume 2345.267244
_symmetry_space_group_name_H-M "P M M M"
_symmetry_group_IT_number 47
_symmetry_cell_setting 'orthorhombic'
loop_
_space_group_symop_operation_xyz
x,y,z
-x,-y,z
x,-y,-z
-x,y,-z
-x,-y,-z
x,y,-z
-x,y,z
x,-y,z
loop_
_atom_site_type_symbol
_atom_site_label
_atom_site_fract_x
_atom_site_fract_y
_atom_site_fract_z
Si Si1 0.165777 0.360353 0.673708
Si Si2 0.162993 0.904663 0.178819
Si Si3 0.834231 0.263099 0.823339
Si Si4 0.169392 0.000000 0.670438
Si Si5 0.333880 0.179703 0.322789
Si Si6 0.339288 0.551635 0.680219
O O1 0.212349 0.350503 0.500000
O O2 0.208734 0.315746 0.775163
O O3 0.242728 0.406177 0.744756
O O4 0.000000 0.371120 0.683919
O O5 0.261705 0.862593 0.232944
O O6 0.000000 0.895649 0.232844
O O7 0.225621 0.953210 0.246401
O O8 0.170063 0.908460 0.000000
O O9 0.738107 0.228313 0.725887
O O10 0.000000 0.253176 0.786610
O O11 0.802008 0.255855 0.000000
O O12 0.228980 0.000000 0.500000
O O13 0.000000 0.000000 0.675111
O O14 0.309407 0.171654 0.500000
O O15 0.500000 0.181620 0.280688
O O16 0.332141 0.552328 0.500000
O O17 0.500000 0.560159 0.736654
O O18 0.285885 0.500000 0.737729
#
# Coordination Sequence:
#
# PCOD8198759 Si02
#       6
#     8   8   8   4   8   8
#     4   9  17  29  47  72  99 126 160 205 254 302
#     4  10  20  35  57  84 112 142 177 217 261 309
#     4  10  21  37  56  77 102 134 172 213 259 312
#     4   9  17  31  54  83 112 143 180 220 260 303
#     4  11  24  39  55  78 107 138 174 216 261 310
#     4   8  14  25  42  66  96 128 162 202 248 297
#
# _framework density 18.761188000000001
#
# number of rings (size 3 to 8) (size 9 to 14) (size 15 to 20)
#    0.000    2.455    0.000    3.000    0.000    8.000 
#    0.000    4.091    0.000    3.273    0.000    3.818 
#    0.000    0.000    0.000    0.000    0.000    0.000 
#
# Total GULP energy -545594.769436 kJ/mol
# GULP energy per Si atom -12399.881124 kJ/mol
# Density = 1.871849 g / cm^3
# Si number density = 18.761188 Si / 1000 Ang^3
#
#
#
# Elastic Constant Matrix: (Units=GPa)
#
#
# Indices 1 2 3 4 5 6 
#
# 1 67.0934 57.9414 27.5690 0.0000 0.0000 0.0000
# 2 57.9414 140.3183 28.8649 0.0000 0.0000 0.0000
# 3 27.5690 28.8649 54.6631 0.0000 0.0000 0.0000
# 4 0.0000 0.0000 0.0000 0.3511 0.0000 0.0000
# 5 0.0000 0.0000 0.0000 0.0000 19.7581 0.0000
# 6 0.0000 0.0000 0.0000 0.0000 0.0000 -6.4220
#
#
#
# Elastic Compliance Matrix: (Units=1/GPa)
#
#
# Indices 1 2 3 4 5 6 
#
# 1 0.026218 -0.009094 -0.008421 0.000000 0.000000 0.000000
# 2 -0.009094 0.011149 -0.001301 0.000000 0.000000 0.000000
# 3 -0.008421 -0.001301 0.023228 0.000000 0.000000 0.000000
# 4 0.000000 0.000000 0.000000 2.847797 0.000000 0.000000
# 5 0.000000 0.000000 0.000000 0.000000 0.050612 0.000000
# 6 0.000000 0.000000 0.000000 0.000000 0.000000 -0.155716
#
#
# Mechanical properties :
#
#
# Convention : Reuss Voigt Hill
#
# Bulk Modulus (GPa) = 43.54676 54.53617 49.04147
# Shear Modulus (GPa) = 1.75526 12.58409 7.16968
#
# Velocity S-wave (km/s) = 0.96830 2.59270 1.95700
# Velocity P-wave (km/s) = 4.95092 6.17207 5.59491
#
# Compressibility (1/GPa) = 0.02296382
#
# Stress axis : x y z
#
# Youngs Moduli (GPa) = 38.14123 89.69045 43.05167
#
# Poissons Ratio (x) = 0.81565 0.36254
# Poissons Ratio (y) = 0.34686 0.05601
# Poissons Ratio (z) = 0.32119 0.11668
#
# Static dielectric constant tensor:
#      x y z
#    x 3.394310 0.000000 0.000000 
#    y 0.000000 3.776570 0.000000 
#    z 0.000000 0.000000 3.314540 
# 
# 
# High freq. dielectric constant tensor:
#      x y z
#    x 1.710460 0.000000 0.000000 
#    y 0.000000 1.746910 0.000000 
#    z 0.000000 0.000000 1.714080 
# 
# From -- ./inp_files/2077.got.cif
#   From: 2010.03.12/outbox.cif.g09.slc.cpg/sg47_2_cif.got.tgz:2077.got - 2010.04.14 03:12:58.
