data_PCOD8198891
_publ_section_title
;
Structure prediction by ZEFSAII (Michael W. Deem and Ramdas Pophale) SiO2 
 PCOD8198891
Probable space group: P M M M
;
_chemical_formula_sum "Si O2"
_cell_formula_units_Z 48
_cell_length_a 17.435736
_cell_length_b 8.995224
_cell_length_c 15.256494
_cell_angle_alpha 90.000000
_cell_angle_beta 90.000000
_cell_angle_gamma 90.000000
_cell_volume 2392.803360
_symmetry_space_group_name_H-M "P M M M"
_symmetry_group_IT_number 47
_symmetry_cell_setting 'orthorhombic'
loop_
_space_group_symop_operation_xyz
x,y,z
-x,-y,z
x,-y,-z
-x,y,-z
-x,-y,-z
x,y,-z
-x,y,z
x,-y,z
loop_
_atom_site_type_symbol
_atom_site_label
_atom_site_fract_x
_atom_site_fract_y
_atom_site_fract_z
Si Si1 0.591931 0.166829 0.000000
Si Si2 0.086186 0.676460 0.902039
Si Si3 0.340232 0.823726 0.318613
Si Si4 0.587462 0.176348 0.500000
Si Si5 0.909574 0.833787 0.598099
Si Si6 0.182955 0.674442 0.737902
Si Si7 0.411704 0.336449 0.833308
O O1 0.626142 0.251240 0.084628
O O2 0.500000 0.163729 0.000000
O O3 0.624507 0.000000 0.000000
O O4 0.083977 0.500000 0.897949
O O5 0.147124 0.734642 0.829790
O O6 0.000000 0.736528 0.881129
O O7 0.111011 0.729131 0.000000
O O8 0.364661 0.768139 0.415422
O O9 0.260215 0.759571 0.285435
O O10 0.404557 0.762104 0.253442
O O11 0.337597 0.000000 0.314749
O O12 0.500000 0.240711 0.500000
O O13 0.582011 0.000000 0.500000
O O14 0.878599 0.803753 0.500000
O O15 0.877040 0.708214 0.661300
O O16 0.000000 0.821532 0.599536
O O17 0.883587 0.000000 0.627466
O O18 0.199295 0.500000 0.741864
O O19 0.500000 0.358560 0.854244
O O20 0.372912 0.500000 0.822660
#
# Coordination Sequence:
#
# PCOD8198891 Si02
#       7
#     4   8   8   4   8   8   8
#     4   9  17  31  55  85 113 145 184 225 272 333
#     4   8  15  31  56  83 111 148 194 239 283 335
#     4  11  23  39  59  83 113 152 193 240 295 354
#     4   9  20  40  65  87 104 137 196 251 293 348
#     4   9  19  36  57  80 109 149 193 232 277 341
#     4  11  22  35  54  84 119 150 187 238 294 349
#     4  10  20  36  58  85 116 148 186 236 292 348
#
# _framework density 20.060151999999999
#
# number of rings (size 3 to 8) (size 9 to 14) (size 15 to 20)
#    0.000    2.333    0.000    3.750    1.167    4.000 
#    1.500    2.083    0.000    4.500    0.000    5.833 
#    0.000    0.000    0.000    0.000    0.000    0.000 
#
# Total GULP energy -595001.058601 kJ/mol
# GULP energy per Si atom -12395.855388 kJ/mol
# Density = 2.001449 g / cm^3
# Si number density = 20.060152 Si / 1000 Ang^3
#
#
#
# Elastic Constant Matrix: (Units=GPa)
#
#
# Indices 1 2 3 4 5 6 
#
# 1 77.1648 29.6491 58.8711 0.0000 0.0000 0.0000
# 2 29.6491 87.2709 55.9468 0.0000 0.0000 0.0000
# 3 58.8711 55.9468 172.9899 0.0000 0.0000 0.0000
# 4 0.0000 0.0000 0.0000 29.4436 0.0000 0.0000
# 5 0.0000 0.0000 0.0000 0.0000 26.0989 0.0000
# 6 0.0000 0.0000 0.0000 0.0000 0.0000 27.5098
#
#
#
# Elastic Compliance Matrix: (Units=1/GPa)
#
#
# Indices 1 2 3 4 5 6 
#
# 1 0.018017 -0.002763 -0.005238 0.000000 0.000000 0.000000
# 2 -0.002763 0.014879 -0.003872 0.000000 0.000000 0.000000
# 3 -0.005238 -0.003872 0.008815 0.000000 0.000000 0.000000
# 4 0.000000 0.000000 0.000000 0.033963 0.000000 0.000000
# 5 0.000000 0.000000 0.000000 0.000000 0.038316 0.000000
# 6 0.000000 0.000000 0.000000 0.000000 0.000000 0.036351
#
#
# Mechanical properties :
#
#
# Convention : Reuss Voigt Hill
#
# Bulk Modulus (GPa) = 55.66020 69.59551 62.62786
# Shear Modulus (GPa) = 27.76604 29.47437 28.62020
#
# Velocity S-wave (km/s) = 3.72444 3.83730 3.78129
# Velocity P-wave (km/s) = 6.80457 7.37577 7.09592
#
# Compressibility (1/GPa) = 0.01796616
#
# Stress axis : x y z
#
# Youngs Moduli (GPa) = 55.50292 67.20685 113.43828
#
# Poissons Ratio (x) = 0.18571 0.59417
# Poissons Ratio (y) = 0.15337 0.43921
# Poissons Ratio (z) = 0.29071 0.26021
#
# Static dielectric constant tensor:
#      x y z
#    x 3.603060 0.000000 0.000000 
#    y 0.000000 3.756330 0.000000 
#    z 0.000000 0.000000 4.182190 
# 
# 
# High freq. dielectric constant tensor:
#      x y z
#    x 1.768090 0.000000 0.000000 
#    y 0.000000 1.762700 0.000000 
#    z 0.000000 0.000000 1.797810 
# 
# From -- ./inp_files/24496.got.cif
#   From: 2010.03.12/outbox.cif.g09.slc.cpg/sg47_13_cif.got.tgz:24496.got - 2010.04.14 03:12:58.
