data_PCOD8198164
_publ_section_title
;
Structure prediction by ZEFSAII (Michael W. Deem and Ramdas Pophale) SiO2 
 PCOD8198164
Probable space group: P M M M
;
_chemical_formula_sum "Si O2"
_cell_formula_units_Z 64
_cell_length_a 8.887234
_cell_length_b 14.731337
_cell_length_c 23.574267
_cell_angle_alpha 90.000000
_cell_angle_beta 90.000000
_cell_angle_gamma 90.000000
_cell_volume 3086.362816
_symmetry_space_group_name_H-M "P M M M"
_symmetry_group_IT_number 47
_symmetry_cell_setting 'orthorhombic'
loop_
_space_group_symop_operation_xyz
x,y,z
-x,-y,z
x,-y,-z
-x,y,-z
-x,-y,-z
x,y,-z
-x,y,z
x,-y,z
loop_
_atom_site_type_symbol
_atom_site_label
_atom_site_fract_x
_atom_site_fract_y
_atom_site_fract_z
Si Si1 0.832339 0.598603 0.334396
Si Si2 0.674431 0.100780 0.325350
Si Si3 0.320970 0.604090 0.156782
Si Si4 0.671014 0.353352 0.436937
Si Si5 0.174402 0.279926 0.066365
Si Si6 0.824601 0.838643 0.563197
Si Si7 0.330396 0.900435 0.067359
Si Si8 0.674190 0.270578 0.742997
O O1 0.828350 0.500000 0.304777
O O2 0.783426 0.586183 0.399516
O O3 0.706740 0.664115 0.309408
O O4 0.000000 0.640332 0.328978
O O5 0.500000 0.123992 0.338509
O O6 0.766599 0.100286 0.384555
O O7 0.736502 0.171372 0.276762
O O8 0.691231 0.000000 0.299319
O O9 0.500000 0.605796 0.157297
O O10 0.265866 0.500000 0.168267
O O11 0.261560 0.637330 0.095949
O O12 0.252905 0.677483 0.202436
O O13 0.681443 0.392618 0.500000
O O14 0.500000 0.359112 0.414518
O O15 0.724951 0.250407 0.434183
O O16 0.228015 0.181622 0.090527
O O17 0.000000 0.289488 0.079786
O O18 0.210326 0.287803 0.000000
O O19 0.803324 0.883936 0.500000
O O20 0.000000 0.816234 0.572864
O O21 0.500000 0.884006 0.089407
O O22 0.273067 0.000000 0.088843
O O23 0.327361 0.900461 0.000000
O O24 0.500000 0.261929 0.755653
#
# Coordination Sequence:
#
# PCOD8198164 Si02
#       8
#     8   8   8   8   8   8   8   8
#     4  11  23  36  54  82 112 144 184 231 285 342
#     4  10  21  37  59  87 116 149 190 235 288 349
#     4  10  22  40  62  87 114 149 196 246 294 347
#     4  10  20  34  53  77 107 145 188 233 283 339
#     4  10  21  36  56  86 124 162 197 238 292 353
#     4  10  20  34  54  81 114 151 191 237 291 349
#     4   8  14  27  50  80 114 154 198 238 275 321
#     4  10  21  40  63  84 110 146 188 237 285 336
#
# _framework density 20.736381999999999
#
# number of rings (size 3 to 8) (size 9 to 14) (size 15 to 20)
#    0.000    2.125    1.250    2.250    0.000    5.750 
#    0.000    5.625    0.000    2.250    0.000    0.000 
#    0.000    0.000    0.000    0.000    0.000    0.000 
#
# Total GULP energy -792936.330910 kJ/mol
# GULP energy per Si atom -12389.630170 kJ/mol
# Density = 2.068919 g / cm^3
# Si number density = 20.736382 Si / 1000 Ang^3
#
#
#
# Elastic Constant Matrix: (Units=GPa)
#
#
# Indices 1 2 3 4 5 6 
#
# 1 30.3438 25.3675 23.5374 0.0000 0.0000 0.0000
# 2 25.3675 139.7971 55.7433 0.0000 0.0000 0.0000
# 3 23.5374 55.7433 73.1322 0.0000 0.0000 0.0000
# 4 0.0000 0.0000 0.0000 18.4280 0.0000 0.0000
# 5 0.0000 0.0000 0.0000 0.0000 20.5884 0.0000
# 6 0.0000 0.0000 0.0000 0.0000 0.0000 22.8335
#
#
#
# Elastic Compliance Matrix: (Units=1/GPa)
#
#
# Indices 1 2 3 4 5 6 
#
# 1 0.045042 -0.003438 -0.011876 0.000000 0.000000 0.000000
# 2 -0.003438 0.010539 -0.006927 0.000000 0.000000 0.000000
# 3 -0.011876 -0.006927 0.022776 0.000000 0.000000 0.000000
# 4 0.000000 0.000000 0.000000 0.054265 0.000000 0.000000
# 5 0.000000 0.000000 0.000000 0.000000 0.048571 0.000000
# 6 0.000000 0.000000 0.000000 0.000000 0.000000 0.043795
#
#
# Mechanical properties :
#
#
# Convention : Reuss Voigt Hill
#
# Bulk Modulus (GPa) = 29.51989 50.28552 39.90270
# Shear Modulus (GPa) = 17.80868 21.61163 19.71015
#
# Velocity S-wave (km/s) = 2.93373 3.23183 3.08638
# Velocity P-wave (km/s) = 5.07370 6.18295 5.65558
#
# Compressibility (1/GPa) = 0.03387546
#
# Stress axis : x y z
#
# Youngs Moduli (GPa) = 22.20151 94.88554 43.90587
#
# Poissons Ratio (x) = 0.32618 0.52144
# Poissons Ratio (y) = 0.07632 0.30412
# Poissons Ratio (z) = 0.26367 0.65725
#
# Static dielectric constant tensor:
#      x y z
#    x 3.595460 0.000000 0.000000 
#    y 0.000000 3.899340 0.000000 
#    z 0.000000 0.000000 3.720650 
# 
# 
# High freq. dielectric constant tensor:
#      x y z
#    x 1.797640 0.000000 0.000000 
#    y 0.000000 1.814030 0.000000 
#    z 0.000000 0.000000 1.791130 
# 
# From -- ./inp_files/32155.got.cif
#   From: 2010.03.12/outbox.cif.g09.slc.cpg/sg47_17_cif.got.tgz:32155.got - 2010.04.14 03:12:58.
