data_PCOD8198057
_publ_section_title
;
Structure prediction by ZEFSAII (Michael W. Deem and Ramdas Pophale) SiO2 
 PCOD8198057
Probable space group: P M M M
;
_chemical_formula_sum "Si O2"
_cell_formula_units_Z 48
_cell_length_a 20.774984
_cell_length_b 9.052298
_cell_length_c 14.573875
_cell_angle_alpha 90.000000
_cell_angle_beta 90.000000
_cell_angle_gamma 90.000000
_cell_volume 2740.782551
_symmetry_space_group_name_H-M "P M M M"
_symmetry_group_IT_number 47
_symmetry_cell_setting 'orthorhombic'
loop_
_space_group_symop_operation_xyz
x,y,z
-x,-y,z
x,-y,-z
-x,y,-z
-x,-y,-z
x,y,-z
-x,y,z
x,-y,z
loop_
_atom_site_type_symbol
_atom_site_label
_atom_site_fract_x
_atom_site_fract_y
_atom_site_fract_z
Si Si1 0.427391 0.830734 0.721981
Si Si2 0.613919 0.671953 0.896444
Si Si3 0.319263 0.325188 0.394530
Si Si4 0.929092 0.675722 0.396789
Si Si5 0.807597 0.676295 0.710739
Si Si6 0.238759 0.675188 0.099000
O O1 0.500000 0.815855 0.684065
O O2 0.426983 0.766205 0.824947
O O3 0.380982 0.743359 0.654093
O O4 0.405208 0.000000 0.725266
O O5 0.606131 0.500000 0.872258
O O6 0.687735 0.722418 0.885896
O O7 0.589479 0.703091 0.000000
O O8 0.317852 0.274701 0.500000
O O9 0.324818 0.500000 0.384897
O O10 0.253733 0.267519 0.347062
O O11 0.917242 0.733388 0.500000
O O12 0.925569 0.500000 0.396278
O O13 0.873404 0.742235 0.331799
O O14 0.000000 0.727230 0.362336
O O15 0.808977 0.500000 0.708580
O O16 0.803057 0.735889 0.815662
O O17 0.235255 0.500000 0.096614
O O18 0.213721 0.737044 0.000000
#
# Coordination Sequence:
#
# PCOD8198057 Si02
#       6
#     8   8   8   8   8   8
#     4  11  24  38  50  67  96 131 159 189 239 300
#     4   9  17  32  54  76  96 120 155 198 241 284
#     4  10  20  34  53  74  91 114 159 212 249 280
#     4   8  13  20  31  53  88 125 154 181 224 283
#     4   9  14  23  42  65  89 116 149 193 238 276
#     4   8  13  22  40  65  88 111 143 185 231 275
#
# _framework density 17.513245999999999
#
# number of rings (size 3 to 8) (size 9 to 14) (size 15 to 20)
#    0.000    2.833    1.667    2.500    0.000    4.667 
#    0.000    3.333    0.000    0.500    0.000    3.500 
#    0.000    0.667    0.000    3.500    0.000    8.667 
#
# Total GULP energy -594885.393832 kJ/mol
# GULP energy per Si atom -12393.445705 kJ/mol
# Density = 1.747338 g / cm^3
# Si number density = 17.513246 Si / 1000 Ang^3
#
#
#
# Elastic Constant Matrix: (Units=GPa)
#
#
# Indices 1 2 3 4 5 6 
#
# 1 117.1016 16.5905 72.3337 0.0000 0.0000 0.0000
# 2 16.5905 18.5516 21.4466 0.0000 0.0000 0.0000
# 3 72.3337 21.4466 142.3210 0.0000 0.0000 0.0000
# 4 0.0000 0.0000 0.0000 7.4871 0.0000 0.0000
# 5 0.0000 0.0000 0.0000 0.0000 28.9896 0.0000
# 6 0.0000 0.0000 0.0000 0.0000 0.0000 -0.7470
#
#
#
# Elastic Compliance Matrix: (Units=1/GPa)
#
#
# Indices 1 2 3 4 5 6 
#
# 1 0.012784 -0.004748 -0.005782 0.000000 0.000000 0.000000
# 2 -0.004748 0.067039 -0.007689 0.000000 0.000000 0.000000
# 3 -0.005782 -0.007689 0.011124 0.000000 0.000000 0.000000
# 4 0.000000 0.000000 0.000000 0.133563 0.000000 0.000000
# 5 0.000000 0.000000 0.000000 0.000000 0.034495 0.000000
# 6 0.000000 0.000000 0.000000 0.000000 0.000000 -1.338766
#
#
# Mechanical properties :
#
#
# Convention : Reuss Voigt Hill
#
# Bulk Modulus (GPa) = 18.34584 55.41286 36.87935
# Shear Modulus (GPa) = -4.87731 18.31950 6.72109
#
# Velocity S-wave (km/s) = -1.67062 3.23776 1.96114
# Velocity P-wave (km/s) = 2.60324 6.75919 5.12169
#
# Compressibility (1/GPa) = 0.05450827
#
# Stress axis : x y z
#
# Youngs Moduli (GPa) = 78.22483 14.91670 89.89966
#
# Poissons Ratio (x) = 0.07083 0.51977
# Poissons Ratio (y) = 0.37144 0.69122
# Poissons Ratio (z) = 0.45227 0.11469
#
# Static dielectric constant tensor:
#      x y z
#    x 3.345210 0.000000 0.000000 
#    y 0.000000 2.706280 0.000000 
#    z 0.000000 0.000000 3.676560 
# 
# 
# High freq. dielectric constant tensor:
#      x y z
#    x 1.666750 0.000000 0.000000 
#    y 0.000000 1.617390 0.000000 
#    z 0.000000 0.000000 1.687820 
# 
# From -- ./inp_files/6768.got.cif
#   From: 2010.03.12/outbox.cif.g09.slc.cpg/sg47_4_cif.got.tgz:6768.got - 2010.04.14 03:12:58.
