data_PCOD8198514
_publ_section_title
;
Structure prediction by ZEFSAII (Michael W. Deem and Ramdas Pophale) SiO2 
 PCOD8198514
Probable space group: P M M M
;
_chemical_formula_sum "Si O2"
_cell_formula_units_Z 40
_cell_length_a 15.537468
_cell_length_b 14.419632
_cell_length_c 9.476830
_cell_angle_alpha 90.000000
_cell_angle_beta 90.000000
_cell_angle_gamma 90.000000
_cell_volume 2123.232310
_symmetry_space_group_name_H-M "P M M M"
_symmetry_group_IT_number 47
_symmetry_cell_setting 'orthorhombic'
loop_
_space_group_symop_operation_xyz
x,y,z
-x,-y,z
x,-y,-z
-x,y,-z
-x,-y,-z
x,y,-z
-x,y,z
x,-y,z
loop_
_atom_site_type_symbol
_atom_site_label
_atom_site_fract_x
_atom_site_fract_y
_atom_site_fract_z
Si Si1 0.403205 0.295513 0.165035
Si Si2 0.254917 0.392801 0.664764
Si Si3 0.094806 0.271152 0.662015
Si Si4 0.148704 0.895488 0.836710
Si Si5 0.655310 0.099823 0.833074
O O1 0.500000 0.331662 0.191614
O O2 0.338203 0.359257 0.250691
O O3 0.398732 0.188484 0.219556
O O4 0.378831 0.301062 0.000000
O O5 0.272038 0.375487 0.500000
O O6 0.239789 0.500000 0.698153
O O7 0.168950 0.340233 0.717993
O O8 0.112851 0.246837 0.500000
O O9 0.092537 0.175402 0.747269
O O10 0.000000 0.317592 0.679926
O O11 0.246754 0.886140 0.784421
O O12 0.114932 0.000000 0.811404
O O13 0.140233 0.868399 0.000000
O O14 0.620622 0.000000 0.772933
O O15 0.651204 0.093740 0.000000
#
# Coordination Sequence:
#
# PCOD8198514 Si02
#       5
#     8   8   8   8   8
#     4  10  20  34  56  85 112 139 174 217 263 310
#     4  10  22  40  59  77 101 137 178 221 272 324
#     4  10  21  36  55  80 107 136 175 223 271 316
#     4   9  17  31  53  79 108 144 181 214 253 307
#     4   8  14  27  49  77 108 140 173 209 250 299
#
# _framework density 18.839199000000001
#
# number of rings (size 3 to 8) (size 9 to 14) (size 15 to 20)
#    0.000    2.600    2.000    1.200    0.000    3.200 
#    0.000    8.000    0.000    0.600    0.000    4.200 
#    0.000    0.000    0.000    0.000    0.000    0.000 
#
# Total GULP energy -495781.346221 kJ/mol
# GULP energy per Si atom -12394.533656 kJ/mol
# Density = 1.879632 g / cm^3
# Si number density = 18.839199 Si / 1000 Ang^3
#
#
#
# Elastic Constant Matrix: (Units=GPa)
#
#
# Indices 1 2 3 4 5 6 
#
# 1 116.1774 60.8714 42.7113 0.0000 0.0000 0.0000
# 2 60.8714 114.9327 46.2359 0.0000 0.0000 0.0000
# 3 42.7113 46.2359 46.5464 0.0000 0.0000 0.0000
# 4 0.0000 0.0000 0.0000 27.3398 0.0000 0.0000
# 5 0.0000 0.0000 0.0000 0.0000 25.0415 0.0000
# 6 0.0000 0.0000 0.0000 0.0000 0.0000 13.7158
#
#
#
# Elastic Compliance Matrix: (Units=1/GPa)
#
#
# Indices 1 2 3 4 5 6 
#
# 1 0.013878 -0.003710 -0.009050 0.000000 0.000000 0.000000
# 2 -0.003710 0.015483 -0.011976 0.000000 0.000000 0.000000
# 3 -0.009050 -0.011976 0.041684 0.000000 0.000000 0.000000
# 4 0.000000 0.000000 0.000000 0.036577 0.000000 0.000000
# 5 0.000000 0.000000 0.000000 0.000000 0.039934 0.000000
# 6 0.000000 0.000000 0.000000 0.000000 0.000000 0.072908
#
#
# Mechanical properties :
#
#
# Convention : Reuss Voigt Hill
#
# Bulk Modulus (GPa) = 46.35047 64.14376 55.24712
# Shear Modulus (GPa) = 18.04224 21.74195 19.89210
#
# Velocity S-wave (km/s) = 3.09803 3.40086 3.25297
# Velocity P-wave (km/s) = 6.11994 7.03868 6.59533
#
# Compressibility (1/GPa) = 0.02157475
#
# Stress axis : x y z
#
# Youngs Moduli (GPa) = 72.05485 64.58598 23.98986
#
# Poissons Ratio (x) = 0.23959 0.21711
# Poissons Ratio (y) = 0.26730 0.28730
# Poissons Ratio (z) = 0.65209 0.77348
#
# Static dielectric constant tensor:
#      x y z
#    x 3.475480 0.000000 0.000000 
#    y 0.000000 4.125710 0.000000 
#    z 0.000000 0.000000 3.133820 
# 
# 
# High freq. dielectric constant tensor:
#      x y z
#    x 1.733490 0.000000 0.000000 
#    y 0.000000 1.732830 0.000000 
#    z 0.000000 0.000000 1.696690 
# 
# From -- ./inp_files/5662.got.cif
#   From: 2010.03.12/outbox.cif.g09.slc.cpg/sg47_3_cif.got.tgz:5662.got - 2010.04.14 03:12:58.
