data_PCOD8198564
_publ_section_title
;
Structure prediction by ZEFSAII (Michael W. Deem and Ramdas Pophale) SiO2 
 PCOD8198564
Probable space group: P M M M
;
_chemical_formula_sum "Si O2"
_cell_formula_units_Z 44
_cell_length_a 17.116740
_cell_length_b 9.904095
_cell_length_c 13.605305
_cell_angle_alpha 90.000000
_cell_angle_beta 90.000000
_cell_angle_gamma 90.000000
_cell_volume 2306.450474
_symmetry_space_group_name_H-M "P M M M"
_symmetry_group_IT_number 47
_symmetry_cell_setting 'orthorhombic'
loop_
_space_group_symop_operation_xyz
x,y,z
-x,-y,z
x,-y,-z
-x,y,-z
-x,-y,-z
x,y,-z
-x,y,z
x,-y,z
loop_
_atom_site_type_symbol
_atom_site_label
_atom_site_fract_x
_atom_site_fract_y
_atom_site_fract_z
Si Si1 0.365951 0.349988 0.383529
Si Si2 0.588382 0.000000 0.116160
Si Si3 0.413565 0.500000 0.117120
Si Si4 0.688663 0.747015 0.115805
Si Si5 0.500000 0.153481 0.382995
Si Si6 0.792918 0.341534 0.276408
Si Si7 0.091466 0.846701 0.386959
O O1 0.366599 0.349638 0.500000
O O2 0.391527 0.500000 0.345484
O O3 0.424278 0.234504 0.343655
O O4 0.278836 0.316053 0.349567
O O5 0.640032 0.875221 0.151169
O O6 0.500000 0.000000 0.161451
O O7 0.578946 0.000000 0.000000
O O8 0.500000 0.500000 0.162161
O O9 0.366656 0.371841 0.154961
O O10 0.417873 0.500000 0.000000
O O11 0.771054 0.726532 0.171042
O O12 0.705630 0.745490 0.000000
O O13 0.500000 0.149196 0.500000
O O14 0.500000 0.000000 0.340967
O O15 0.813753 0.500000 0.264959
O O16 0.866984 0.261701 0.317473
O O17 0.111534 0.813956 0.500000
O O18 0.000000 0.831462 0.367742
O O19 0.118180 0.000000 0.361880
#
# Coordination Sequence:
#
# PCOD8198564 Si02
#       7
#     8   4   4   8   4   8   8
#     4   9  18  33  49  67  98 138 175 217 265 315
#     4   9  18  34  54  74 102 145 198 252 298 335
#     4   9  16  30  52  72 100 147 196 242 288 327
#     4  10  20  35  52  77 112 150 192 238 287 332
#     4   9  17  31  49  67  92 131 180 224 264 310
#     4  11  22  35  54  85 113 143 183 224 272 330
#     4   9  20  40  65  91 117 143 172 214 272 336
#
# _framework density 19.076933
#
# number of rings (size 3 to 8) (size 9 to 14) (size 15 to 20)
#    0.000    2.455    0.909    1.909    1.273    5.455 
#    3.273    2.727    0.000    0.545    0.000    2.545 
#    0.000    0.000    0.000    0.000    0.000    0.000 
#
# Total GULP energy -545478.244390 kJ/mol
# GULP energy per Si atom -12397.232827 kJ/mol
# Density = 1.903351 g / cm^3
# Si number density = 19.076933 Si / 1000 Ang^3
#
#
#
# Elastic Constant Matrix: (Units=GPa)
#
#
# Indices 1 2 3 4 5 6 
#
# 1 84.9170 62.0982 39.6412 0.0000 0.0000 0.0000
# 2 62.0982 158.7810 47.4715 0.0000 0.0000 0.0000
# 3 39.6412 47.4715 53.7093 0.0000 0.0000 0.0000
# 4 0.0000 0.0000 0.0000 25.6670 0.0000 0.0000
# 5 0.0000 0.0000 0.0000 0.0000 27.5549 0.0000
# 6 0.0000 0.0000 0.0000 0.0000 0.0000 36.8606
#
#
#
# Elastic Compliance Matrix: (Units=1/GPa)
#
#
# Indices 1 2 3 4 5 6 
#
# 1 0.020247 -0.004690 -0.010798 0.000000 0.000000 0.000000
# 2 -0.004690 0.009646 -0.005064 0.000000 0.000000 0.000000
# 3 -0.010798 -0.005064 0.031065 0.000000 0.000000 0.000000
# 4 0.000000 0.000000 0.000000 0.038961 0.000000 0.000000
# 5 0.000000 0.000000 0.000000 0.000000 0.036291 0.000000
# 6 0.000000 0.000000 0.000000 0.000000 0.000000 0.027129
#
#
# Mechanical properties :
#
#
# Convention : Reuss Voigt Hill
#
# Bulk Modulus (GPa) = 50.37121 66.20323 58.28722
# Shear Modulus (GPa) = 23.68972 27.89626 25.79299
#
# Velocity S-wave (km/s) = 3.52774 3.82816 3.68101
# Velocity P-wave (km/s) = 6.56162 7.37010 6.97758
#
# Compressibility (1/GPa) = 0.01985261
#
# Stress axis : x y z
#
# Youngs Moduli (GPa) = 49.39064 103.66611 32.19066
#
# Poissons Ratio (x) = 0.48619 0.34760
# Poissons Ratio (y) = 0.23164 0.16303
# Poissons Ratio (z) = 0.53333 0.52502
#
# Static dielectric constant tensor:
#      x y z
#    x 3.222470 0.000000 0.000000 
#    y 0.000000 3.752490 0.000000 
#    z 0.000000 0.000000 3.380940 
# 
# 
# High freq. dielectric constant tensor:
#      x y z
#    x 1.711690 0.000000 0.000000 
#    y 0.000000 1.755210 0.000000 
#    z 0.000000 0.000000 1.743970 
# 
# From -- ./inp_files/24362.got.cif
#   From: 2010.03.12/outbox.cif.g09.slc.cpg/sg47_13_cif.got.tgz:24362.got - 2010.04.14 03:12:58.
