data_PCOD8198087
_publ_section_title
;
Structure prediction by ZEFSAII (Michael W. Deem and Ramdas Pophale) SiO2 
 PCOD8198087
Probable space group: P M M M
;
_chemical_formula_sum "Si O2"
_cell_formula_units_Z 52
_cell_length_a 29.987326
_cell_length_b 10.301909
_cell_length_c 9.164039
_cell_angle_alpha 90.000000
_cell_angle_beta 90.000000
_cell_angle_gamma 90.000000
_cell_volume 2831.016360
_symmetry_space_group_name_H-M "P M M M"
_symmetry_group_IT_number 47
_symmetry_cell_setting 'orthorhombic'
loop_
_space_group_symop_operation_xyz
x,y,z
-x,-y,z
x,-y,-z
-x,y,-z
-x,-y,-z
x,y,-z
-x,y,z
x,-y,z
loop_
_atom_site_type_symbol
_atom_site_label
_atom_site_fract_x
_atom_site_fract_y
_atom_site_fract_z
Si Si1 0.447354 0.500000 0.163002
Si Si2 0.112705 0.352377 0.328634
Si Si3 0.786925 0.644064 0.673223
Si Si4 0.448634 0.755355 0.327754
Si Si5 0.051155 0.853485 0.829104
Si Si6 0.370634 0.853752 0.840201
Si Si7 0.285208 0.849052 0.328427
O O1 0.500000 0.500000 0.151070
O O2 0.431512 0.622403 0.255792
O O3 0.426468 0.500000 0.000000
O O4 0.109822 0.328418 0.500000
O O5 0.098272 0.500000 0.290609
O O6 0.163014 0.327526 0.271442
O O7 0.080581 0.251201 0.252610
O O8 0.786900 0.644644 0.500000
O O9 0.771599 0.500000 0.727622
O O10 0.754701 0.758172 0.731674
O O11 0.441757 0.749479 0.500000
O O12 0.500000 0.787768 0.289437
O O13 0.416369 0.859265 0.253620
O O14 0.000000 0.830514 0.784386
O O15 0.065536 0.000000 0.784957
O O16 0.057625 0.833204 0.000000
O O17 0.329774 0.793029 0.749134
O O18 0.356821 0.000000 0.868266
O O19 0.376936 0.785723 0.000000
O O20 0.292658 0.831189 0.500000
O O21 0.274616 0.000000 0.291898
#
# Coordination Sequence:
#
# PCOD8198087 Si02
#       7
#     4   8   8   8   8   8   8
#     4   9  17  31  51  73  99 129 159 195 239 285
#     4   9  18  32  51  77 107 136 169 213 263 315
#     4   8  15  30  51  75 103 131 161 204 257 308
#     4  10  20  34  53  76 101 130 166 206 246 292
#     4   9  19  35  51  69  99 139 181 223 264 308
#     4  10  21  36  52  71  99 133 166 203 250 302
#     4   9  17  31  52  74  96 127 167 207 248 300
#
# _framework density 18.367963
#
# number of rings (size 3 to 8) (size 9 to 14) (size 15 to 20)
#    0.000    2.846    0.000    2.538    0.000    4.923 
#    1.385    6.154    0.000    2.769    0.000    0.000 
#    0.000    0.000    0.000    0.000    0.000    0.000 
#
# Total GULP energy -644417.644077 kJ/mol
# GULP energy per Si atom -12392.647001 kJ/mol
# Density = 1.832616 g / cm^3
# Si number density = 18.367963 Si / 1000 Ang^3
#
#
#
# Elastic Constant Matrix: (Units=GPa)
#
#
# Indices 1 2 3 4 5 6 
#
# 1 125.3391 75.4883 56.3687 0.0000 0.0000 0.0000
# 2 75.4883 101.3210 45.1331 0.0000 0.0000 0.0000
# 3 56.3687 45.1331 77.6772 0.0000 0.0000 0.0000
# 4 0.0000 0.0000 0.0000 25.3315 0.0000 0.0000
# 5 0.0000 0.0000 0.0000 0.0000 12.7528 0.0000
# 6 0.0000 0.0000 0.0000 0.0000 0.0000 27.7677
#
#
#
# Elastic Compliance Matrix: (Units=1/GPa)
#
#
# Indices 1 2 3 4 5 6 
#
# 1 0.016635 -0.009467 -0.006571 0.000000 0.000000 0.000000
# 2 -0.009467 0.018703 -0.003998 0.000000 0.000000 0.000000
# 3 -0.006571 -0.003998 0.019965 0.000000 0.000000 0.000000
# 4 0.000000 0.000000 0.000000 0.039477 0.000000 0.000000
# 5 0.000000 0.000000 0.000000 0.000000 0.078414 0.000000
# 6 0.000000 0.000000 0.000000 0.000000 0.000000 0.036013
#
#
# Mechanical properties :
#
#
# Convention : Reuss Voigt Hill
#
# Bulk Modulus (GPa) = 65.64857 73.14639 69.39748
# Shear Modulus (GPa) = 19.65747 21.66021 20.65884
#
# Velocity S-wave (km/s) = 3.27495 3.43773 3.35732
# Velocity P-wave (km/s) = 7.07946 7.46100 7.27273
#
# Compressibility (1/GPa) = 0.01523262
#
# Stress axis : x y z
#
# Youngs Moduli (GPa) = 60.11335 53.46617 50.08733
#
# Poissons Ratio (x) = 0.50615 0.32914
# Poissons Ratio (y) = 0.56908 0.20022
# Poissons Ratio (z) = 0.39502 0.21373
#
# Static dielectric constant tensor:
#      x y z
#    x 3.429930 0.000000 0.000000 
#    y 0.000000 3.529850 0.000000 
#    z 0.000000 0.000000 3.348330 
# 
# 
# High freq. dielectric constant tensor:
#      x y z
#    x 1.706020 0.000000 0.000000 
#    y 0.000000 1.708970 0.000000 
#    z 0.000000 0.000000 1.699500 
# 
# From -- ./inp_files/13248.got.cif
#   From: 2010.03.12/outbox.cif.g09.slc.cpg/sg47_7_cif.got.tgz:13248.got - 2010.04.14 03:12:58.
