data_PCOD8198027
_publ_section_title
;
Structure prediction by ZEFSAII (Michael W. Deem and Ramdas Pophale) SiO2 
 PCOD8198027
Probable space group: P M M M
;
_chemical_formula_sum "Si O2"
_cell_formula_units_Z 40
_cell_length_a 8.752852
_cell_length_b 9.743440
_cell_length_c 24.398196
_cell_angle_alpha 90.000000
_cell_angle_beta 90.000000
_cell_angle_gamma 90.000000
_cell_volume 2080.748624
_symmetry_space_group_name_H-M "P M M M"
_symmetry_group_IT_number 47
_symmetry_cell_setting 'orthorhombic'
loop_
_space_group_symop_operation_xyz
x,y,z
-x,-y,z
x,-y,-z
-x,y,-z
-x,-y,-z
x,y,-z
-x,y,z
x,-y,z
loop_
_atom_site_type_symbol
_atom_site_label
_atom_site_fract_x
_atom_site_fract_y
_atom_site_fract_z
Si Si1 0.680114 0.500000 0.562350
Si Si2 0.318228 0.846243 0.938688
Si Si3 0.180677 0.255000 0.628576
Si Si4 0.680336 0.159794 0.739814
Si Si5 0.819227 0.000000 0.439853
Si Si6 0.681399 0.343834 0.842517
O O1 0.500000 0.500000 0.558733
O O2 0.748080 0.500000 0.500000
O O3 0.736406 0.624537 0.598058
O O4 0.500000 0.845574 0.936362
O O5 0.253348 0.731456 0.897008
O O6 0.261286 0.000000 0.922553
O O7 0.261736 0.809080 0.000000
O O8 0.234078 0.234445 0.690427
O O9 0.239392 0.127848 0.593778
O O10 0.000000 0.277300 0.627582
O O11 0.500000 0.169091 0.730441
O O12 0.732992 0.248130 0.792153
O O13 0.730621 0.000000 0.746349
O O14 0.743821 0.000000 0.500000
O O15 0.000000 0.000000 0.444900
O O16 0.500000 0.351570 0.844828
O O17 0.747250 0.500000 0.838033
#
# Coordination Sequence:
#
# PCOD8198027 Si02
#       6
#     4   8   8   8   4   8
#     4  11  25  43  61  85 117 149 180 217 266 327
#     4   8  13  22  37  58  88 128 173 220 271 328
#     4  11  22  38  60  85 112 144 183 226 273 325
#     4  10  20  34  52  74 105 143 181 224 276 332
#     4   9  18  34  57  83 109 135 170 219 270 320
#     4   9  17  27  41  64  94 133 178 223 273 326
#
# _framework density 19.223851
#
# number of rings (size 3 to 8) (size 9 to 14) (size 15 to 20)
#    0.000    2.400    1.000    2.700    1.400    4.400 
#    0.000    2.000    0.000    2.400    0.000    0.000 
#    0.000    0.800    0.000    6.000    0.000    7.800 
#
# Total GULP energy -495749.410800 kJ/mol
# GULP energy per Si atom -12393.735270 kJ/mol
# Density = 1.918010 g / cm^3
# Si number density = 19.223851 Si / 1000 Ang^3
#
#
#
# Elastic Constant Matrix: (Units=GPa)
#
#
# Indices 1 2 3 4 5 6 
#
# 1 29.2521 25.3076 24.0623 0.0000 0.0000 0.0000
# 2 25.3076 175.5957 97.8728 0.0000 0.0000 0.0000
# 3 24.0623 97.8728 172.8678 0.0000 0.0000 0.0000
# 4 0.0000 0.0000 0.0000 42.6240 0.0000 0.0000
# 5 0.0000 0.0000 0.0000 0.0000 3.8309 0.0000
# 6 0.0000 0.0000 0.0000 0.0000 0.0000 6.0352
#
#
#
# Elastic Compliance Matrix: (Units=1/GPa)
#
#
# Indices 1 2 3 4 5 6 
#
# 1 0.040377 -0.003925 -0.003398 0.000000 0.000000 0.000000
# 2 -0.003925 0.008702 -0.004381 0.000000 0.000000 0.000000
# 3 -0.003398 -0.004381 0.008738 0.000000 0.000000 0.000000
# 4 0.000000 0.000000 0.000000 0.023461 0.000000 0.000000
# 5 0.000000 0.000000 0.000000 0.000000 0.261035 0.000000
# 6 0.000000 0.000000 0.000000 0.000000 0.000000 0.165695
#
#
# Mechanical properties :
#
#
# Convention : Reuss Voigt Hill
#
# Bulk Modulus (GPa) = 29.06191 74.68900 51.87546
# Shear Modulus (GPa) = 9.21004 25.86287 17.53646
#
# Velocity S-wave (km/s) = 2.19120 3.67188 3.02358
# Velocity P-wave (km/s) = 4.64244 7.54411 6.26362
#
# Compressibility (1/GPa) = 0.03440930
#
# Stress axis : x y z
#
# Youngs Moduli (GPa) = 24.76677 114.91234 114.44417
#
# Poissons Ratio (x) = 0.45108 0.38885
# Poissons Ratio (y) = 0.09722 0.50133
# Poissons Ratio (z) = 0.08415 0.50338
#
# Static dielectric constant tensor:
#      x y z
#    x 2.974520 0.000000 0.000000 
#    y 0.000000 3.787460 0.000000 
#    z 0.000000 0.000000 3.837670 
# 
# 
# High freq. dielectric constant tensor:
#      x y z
#    x 1.691400 0.000000 0.000000 
#    y 0.000000 1.762630 0.000000 
#    z 0.000000 0.000000 1.765990 
# 
# From -- ./inp_files/33041.got.cif
#   From: 2010.03.12/outbox.cif.g09.slc.cpg/sg47_17_cif.got.tgz:33041.got - 2010.04.14 03:12:58.
