data_PCOD8198984
_publ_section_title
;
Structure prediction by ZEFSAII (Michael W. Deem and Ramdas Pophale) SiO2 
 PCOD8198984
Probable space group: P M M M
;
_chemical_formula_sum "Si O2"
_cell_formula_units_Z 44
_cell_length_a 14.193517
_cell_length_b 9.524785
_cell_length_c 17.777000
_cell_angle_alpha 90.000000
_cell_angle_beta 90.000000
_cell_angle_gamma 90.000000
_cell_volume 2403.276147
_symmetry_space_group_name_H-M "P M M M"
_symmetry_group_IT_number 47
_symmetry_cell_setting 'orthorhombic'
loop_
_space_group_symop_operation_xyz
x,y,z
-x,-y,z
x,-y,-z
-x,y,-z
-x,-y,-z
x,y,-z
-x,y,z
x,-y,z
loop_
_atom_site_type_symbol
_atom_site_label
_atom_site_fract_x
_atom_site_fract_y
_atom_site_fract_z
Si Si1 0.298441 0.161681 0.368386
Si Si2 0.389059 0.663685 0.500000
Si Si3 0.292152 0.663885 0.915140
Si Si4 0.608787 0.160980 0.210926
Si Si5 0.895626 0.661637 0.837341
Si Si6 0.895795 0.839609 0.690985
O O1 0.346507 0.265104 0.426509
O O2 0.333754 0.202035 0.285368
O O3 0.185083 0.185964 0.371522
O O4 0.324226 0.000000 0.388027
O O5 0.362600 0.500000 0.500000
O O6 0.500000 0.687608 0.500000
O O7 0.312593 0.500000 0.904044
O O8 0.359745 0.746004 0.859104
O O9 0.182056 0.698143 0.899955
O O10 0.314978 0.711530 0.000000
O O11 0.500000 0.190292 0.228112
O O12 0.627284 0.000000 0.189169
O O13 0.889814 0.500000 0.813607
O O14 0.872581 0.747644 0.763044
O O15 0.000000 0.698510 0.869097
O O16 0.000000 0.804104 0.657610
O O17 0.891274 0.000000 0.718419
#
# Coordination Sequence:
#
# PCOD8198984 Si02
#       6
#     8   4   8   8   8   8
#     4  10  20  37  61  85 111 144 179 218 267 324
#     4  11  25  41  58  85 116 144 179 225 272 315
#     4  10  21  35  51  75 108 144 183 227 273 323
#     4  10  21  37  57  80 104 136 182 230 275 325
#     4   9  17  30  50  76 106 141 179 220 268 320
#     4   9  17  31  55  85 112 139 175 218 263 315
#
# _framework density 18.308340999999999
#
# number of rings (size 3 to 8) (size 9 to 14) (size 15 to 20)
#    0.000    2.273    1.818    0.818    0.000    4.364 
#    0.000    4.091    0.000    2.727    0.000    3.818 
#    0.000    0.000    0.000    0.000    0.000    0.000 
#
# Total GULP energy -545536.778751 kJ/mol
# GULP energy per Si atom -12398.563153 kJ/mol
# Density = 1.826667 g / cm^3
# Si number density = 18.308341 Si / 1000 Ang^3
#
#
#
# Elastic Constant Matrix: (Units=GPa)
#
#
# Indices 1 2 3 4 5 6 
#
# 1 114.3753 51.1433 56.8029 0.0000 0.0000 0.0000
# 2 51.1433 74.0249 57.9558 0.0000 0.0000 0.0000
# 3 56.8029 57.9558 100.2289 0.0000 0.0000 0.0000
# 4 0.0000 0.0000 0.0000 31.2727 0.0000 0.0000
# 5 0.0000 0.0000 0.0000 0.0000 23.8393 0.0000
# 6 0.0000 0.0000 0.0000 0.0000 0.0000 28.4848
#
#
#
# Elastic Compliance Matrix: (Units=1/GPa)
#
#
# Indices 1 2 3 4 5 6 
#
# 1 0.013528 -0.006110 -0.004134 0.000000 0.000000 0.000000
# 2 -0.006110 0.027443 -0.012406 0.000000 0.000000 0.000000
# 3 -0.004134 -0.012406 0.019493 0.000000 0.000000 0.000000
# 4 0.000000 0.000000 0.000000 0.031977 0.000000 0.000000
# 5 0.000000 0.000000 0.000000 0.000000 0.041948 0.000000
# 6 0.000000 0.000000 0.000000 0.000000 0.000000 0.035106
#
#
# Mechanical properties :
#
#
# Convention : Reuss Voigt Hill
#
# Bulk Modulus (GPa) = 65.93967 68.93701 67.43834
# Shear Modulus (GPa) = 22.74272 24.90115 23.82193
#
# Velocity S-wave (km/s) = 3.52832 3.69195 3.61106
# Velocity P-wave (km/s) = 7.25900 7.47724 7.36893
#
# Compressibility (1/GPa) = 0.01516538
#
# Stress axis : x y z
#
# Youngs Moduli (GPa) = 73.91898 36.43885 51.29939
#
# Poissons Ratio (x) = 0.22265 0.21206
# Poissons Ratio (y) = 0.45166 0.63641
# Poissons Ratio (z) = 0.30557 0.45205
#
# Static dielectric constant tensor:
#      x y z
#    x 3.720450 0.000000 0.000000 
#    y 0.000000 3.382420 0.000000 
#    z 0.000000 0.000000 3.172150 
# 
# 
# High freq. dielectric constant tensor:
#      x y z
#    x 1.729970 0.000000 0.000000 
#    y 0.000000 1.707070 0.000000 
#    z 0.000000 0.000000 1.685930 
# 
# From -- ./inp_files/6053.got.cif
#   From: 2010.03.12/outbox.cif.g09.slc.cpg/sg47_4_cif.got.tgz:6053.got - 2010.04.14 03:12:58.
