data_PCOD8198205
_publ_section_title
;
Structure prediction by ZEFSAII (Michael W. Deem and Ramdas Pophale) SiO2 
 PCOD8198205
Probable space group: P M M M
;
_chemical_formula_sum "Si O2"
_cell_formula_units_Z 52
_cell_length_a 21.846946
_cell_length_b 14.730826
_cell_length_c 8.826687
_cell_angle_alpha 90.000000
_cell_angle_beta 90.000000
_cell_angle_gamma 90.000000
_cell_volume 2840.635835
_symmetry_space_group_name_H-M "P M M M"
_symmetry_group_IT_number 47
_symmetry_cell_setting 'orthorhombic'
loop_
_space_group_symop_operation_xyz
x,y,z
-x,-y,z
x,-y,-z
-x,y,-z
-x,-y,-z
x,y,-z
-x,y,z
x,-y,z
loop_
_atom_site_type_symbol
_atom_site_label
_atom_site_fract_x
_atom_site_fract_y
_atom_site_fract_z
Si Si1 0.071753 0.000000 0.168165
Si Si2 0.141092 0.341622 0.179210
Si Si3 0.072040 0.500000 0.669280
Si Si4 0.500000 0.605557 0.320501
Si Si5 0.428700 0.102549 0.676947
Si Si6 0.389507 0.716254 0.820524
Si Si7 0.273877 0.398119 0.179675
Si Si8 0.929494 0.816616 0.321678
O O1 0.091791 0.084965 0.268084
O O2 0.000000 0.000000 0.145078
O O3 0.102476 0.000000 0.000000
O O4 0.092753 0.412356 0.241470
O O5 0.208796 0.363240 0.242731
O O6 0.118891 0.245169 0.236045
O O7 0.140646 0.345110 0.000000
O O8 0.099715 0.500000 0.500000
O O9 0.000000 0.500000 0.661561
O O10 0.500000 0.500000 0.270230
O O11 0.500000 0.615383 0.500000
O O12 0.558823 0.655656 0.255784
O O13 0.416064 0.116205 0.500000
O O14 0.500000 0.116713 0.713262
O O15 0.390979 0.178518 0.768460
O O16 0.408908 0.000000 0.725905
O O17 0.325621 0.672268 0.766169
O O18 0.397880 0.712311 0.000000
O O19 0.286904 0.500000 0.242514
O O20 0.272019 0.401701 0.000000
O O21 0.921444 0.806395 0.500000
O O22 0.000000 0.795499 0.275212
#
# Coordination Sequence:
#
# PCOD8198205 Si02
#       8
#     4   8   4   4   8   8   8   8
#     4   9  17  31  53  81 109 139 181 224 265 326
#     4  11  21  36  58  79 105 144 190 231 269 324
#     4  11  23  37  53  79 115 146 177 228 287 333
#     4  11  23  37  52  77 116 151 183 226 272 321
#     4   9  18  34  56  81 114 151 180 217 274 331
#     4  11  21  34  58  86 111 142 183 230 278 325
#     4   9  19  37  57  78 107 144 183 227 275 323
#     4  10  20  34  53  80 114 145 173 218 280 333
#
# _framework density 18.305761
#
# number of rings (size 3 to 8) (size 9 to 14) (size 15 to 20)
#    0.000    1.923    1.538    3.462    0.000    5.846 
#    0.000    3.846    1.692    0.000    0.000    0.000 
#    0.000    0.000    0.000    0.000    0.000    0.000 
#
# Total GULP energy -644738.699612 kJ/mol
# GULP energy per Si atom -12398.821146 kJ/mol
# Density = 1.826410 g / cm^3
# Si number density = 18.305761 Si / 1000 Ang^3
#
#
#
# Elastic Constant Matrix: (Units=GPa)
#
#
# Indices 1 2 3 4 5 6 
#
# 1 97.6647 66.7578 35.4050 0.0000 0.0000 0.0000
# 2 66.7578 157.4482 40.9894 0.0000 0.0000 0.0000
# 3 35.4050 40.9894 68.8620 0.0000 0.0000 0.0000
# 4 0.0000 0.0000 0.0000 32.8773 0.0000 0.0000
# 5 0.0000 0.0000 0.0000 0.0000 3.7054 0.0000
# 6 0.0000 0.0000 0.0000 0.0000 0.0000 474.3352
#
#
#
# Elastic Compliance Matrix: (Units=1/GPa)
#
#
# Indices 1 2 3 4 5 6 
#
# 1 0.015680 -0.005384 -0.004857 0.000000 0.000000 0.000000
# 2 -0.005384 0.009365 -0.002806 0.000000 0.000000 0.000000
# 3 -0.004857 -0.002806 0.018689 0.000000 0.000000 0.000000
# 4 0.000000 0.000000 0.000000 0.030416 0.000000 0.000000
# 5 0.000000 0.000000 0.000000 0.000000 0.269875 0.000000
# 6 0.000000 0.000000 0.000000 0.000000 0.000000 0.002108
#
#
# Mechanical properties :
#
#
# Convention : Reuss Voigt Hill
#
# Bulk Modulus (GPa) = 56.68987 67.80881 62.24934
# Shear Modulus (GPa) = 13.22376 114.23844 63.73110
#
# Velocity S-wave (km/s) = 2.69063 7.90830 5.90681
# Velocity P-wave (km/s) = 6.37873 10.97775 8.97773
#
# Compressibility (1/GPa) = 0.01763984
#
# Stress axis : x y z
#
# Youngs Moduli (GPa) = 63.77587 106.78588 53.50640
#
# Poissons Ratio (x) = 0.57491 0.25989
# Poissons Ratio (y) = 0.34336 0.15014
# Poissons Ratio (z) = 0.30977 0.29965
#
# Static dielectric constant tensor:
#      x y z
#    x 3.379870 0.000000 0.000000 
#    y 0.000000 3.667800 0.000000 
#    z 0.000000 0.000000 3.339970 
# 
# 
# High freq. dielectric constant tensor:
#      x y z
#    x 1.689120 0.000000 0.000000 
#    y 0.000000 1.725920 0.000000 
#    z 0.000000 0.000000 1.707210 
# 
# From -- ./inp_files/11177.got.cif
#   From: 2010.03.12/outbox.cif.g09.slc.cpg/sg47_6_cif.got.tgz:11177.got - 2010.04.14 03:12:58.
