data_PCOD8198692
_publ_section_title
;
Structure prediction by ZEFSAII (Michael W. Deem and Ramdas Pophale) SiO2 
 PCOD8198692
Probable space group: P M M M
;
_chemical_formula_sum "Si O2"
_cell_formula_units_Z 48
_cell_length_a 9.286056
_cell_length_b 15.152717
_cell_length_c 17.137226
_cell_angle_alpha 90.000000
_cell_angle_beta 90.000000
_cell_angle_gamma 90.000000
_cell_volume 2411.361567
_symmetry_space_group_name_H-M "P M M M"
_symmetry_group_IT_number 47
_symmetry_cell_setting 'orthorhombic'
loop_
_space_group_symop_operation_xyz
x,y,z
-x,-y,z
x,-y,-z
-x,y,-z
-x,-y,-z
x,y,-z
-x,y,z
x,-y,z
loop_
_atom_site_type_symbol
_atom_site_label
_atom_site_fract_x
_atom_site_fract_y
_atom_site_fract_z
Si Si1 0.838341 0.500000 0.093454
Si Si2 0.341294 0.662059 0.910363
Si Si3 0.169989 0.000000 0.911751
Si Si4 0.168432 0.754113 0.672533
Si Si5 0.668372 0.398447 0.410539
Si Si6 0.168473 0.814329 0.153561
Si Si7 0.660004 0.902020 0.592122
O O1 0.755796 0.585214 0.127983
O O2 0.000000 0.500000 0.127563
O O3 0.844108 0.500000 0.000000
O O4 0.500000 0.665564 0.870493
O O5 0.259429 0.754520 0.904938
O O6 0.362127 0.638240 0.000000
O O7 0.219900 0.085484 0.862443
O O8 0.000000 0.000000 0.919105
O O9 0.235464 0.000000 0.000000
O O10 0.245151 0.662968 0.649322
O O11 0.207482 0.782205 0.760085
O O12 0.220524 0.833678 0.618847
O O13 0.000000 0.741069 0.660218
O O14 0.710738 0.375759 0.500000
O O15 0.500000 0.381073 0.398316
O O16 0.706952 0.500000 0.392135
O O17 0.000000 0.803126 0.135101
O O18 0.659561 0.902834 0.500000
O O19 0.500000 0.874814 0.622136
O O20 0.699145 0.000000 0.623490
#
# Coordination Sequence:
#
# PCOD8198692 Si02
#       7
#     4   8   4   8   8   8   8
#     4   9  17  31  55  83 109 141 178 217 266 329
#     4  10  20  35  56  83 113 143 182 233 283 333
#     4   9  18  36  63  85 102 139 198 248 281 331
#     4  11  23  35  53  84 120 152 184 232 290 344
#     4   9  19  38  63  86 110 149 200 245 284 336
#     4  10  22  38  56  81 112 151 191 231 285 347
#     4   9  19  36  57  80 108 148 195 234 271 329
#
# _framework density 19.905767000000001
#
# number of rings (size 3 to 8) (size 9 to 14) (size 15 to 20)
#    0.000    2.333    0.000    3.250    1.167    7.333 
#    1.500    2.083    0.000    1.500    0.000    0.000 
#    0.000    0.000    0.000    0.000    0.000    0.000 
#
# Total GULP energy -595119.763044 kJ/mol
# GULP energy per Si atom -12398.328397 kJ/mol
# Density = 1.986046 g / cm^3
# Si number density = 19.905767 Si / 1000 Ang^3
#
#
#
# Elastic Constant Matrix: (Units=GPa)
#
#
# Indices 1 2 3 4 5 6 
#
# 1 99.6165 73.8000 38.1064 0.0000 0.0000 0.0000
# 2 73.8000 168.9022 49.7672 0.0000 0.0000 0.0000
# 3 38.1064 49.7672 66.4120 0.0000 0.0000 0.0000
# 4 0.0000 0.0000 0.0000 22.9975 0.0000 0.0000
# 5 0.0000 0.0000 0.0000 0.0000 20.6381 0.0000
# 6 0.0000 0.0000 0.0000 0.0000 0.0000 17.1229
#
#
#
# Elastic Compliance Matrix: (Units=1/GPa)
#
#
# Indices 1 2 3 4 5 6 
#
# 1 0.016078 -0.005527 -0.005083 0.000000 0.000000 0.000000
# 2 -0.005527 0.009498 -0.003946 0.000000 0.000000 0.000000
# 3 -0.005083 -0.003946 0.020932 0.000000 0.000000 0.000000
# 4 0.000000 0.000000 0.000000 0.043483 0.000000 0.000000
# 5 0.000000 0.000000 0.000000 0.000000 0.048454 0.000000
# 6 0.000000 0.000000 0.000000 0.000000 0.000000 0.058401
#
#
# Mechanical properties :
#
#
# Convention : Reuss Voigt Hill
#
# Bulk Modulus (GPa) = 57.49122 73.14197 65.31660
# Shear Modulus (GPa) = 21.57424 23.70220 22.63822
#
# Velocity S-wave (km/s) = 3.29571 3.45443 3.37600
# Velocity P-wave (km/s) = 6.58989 7.26186 6.93402
#
# Compressibility (1/GPa) = 0.01739396
#
# Stress axis : x y z
#
# Youngs Moduli (GPa) = 62.19752 105.28024 47.77473
#
# Poissons Ratio (x) = 0.58191 0.24285
# Poissons Ratio (y) = 0.34378 0.18854
# Poissons Ratio (z) = 0.31617 0.41548
#
# Static dielectric constant tensor:
#      x y z
#    x 3.713930 0.000000 0.000000 
#    y 0.000000 3.873790 0.000000 
#    z 0.000000 0.000000 3.388300 
# 
# 
# High freq. dielectric constant tensor:
#      x y z
#    x 1.769660 0.000000 0.000000 
#    y 0.000000 1.791740 0.000000 
#    z 0.000000 0.000000 1.752650 
# 
# From -- ./inp_files/26522.got.cif
#   From: 2010.03.12/outbox.cif.g09.slc.cpg/sg47_14_cif.got.tgz:26522.got - 2010.04.14 03:12:58.
