data_PCOD8198304
_publ_section_title
;
Structure prediction by ZEFSAII (Michael W. Deem and Ramdas Pophale) SiO2 
 PCOD8198304
Probable space group: P M M M
;
_chemical_formula_sum "Si O2"
_cell_formula_units_Z 48
_cell_length_a 32.270263
_cell_length_b 8.150932
_cell_length_c 9.403077
_cell_angle_alpha 90.000000
_cell_angle_beta 90.000000
_cell_angle_gamma 90.000000
_cell_volume 2473.316913
_symmetry_space_group_name_H-M "P M M M"
_symmetry_group_IT_number 47
_symmetry_cell_setting 'orthorhombic'
loop_
_space_group_symop_operation_xyz
x,y,z
-x,-y,z
x,-y,-z
-x,y,-z
-x,-y,-z
x,y,-z
-x,y,z
x,-y,z
loop_
_atom_site_type_symbol
_atom_site_label
_atom_site_fract_x
_atom_site_fract_y
_atom_site_fract_z
Si Si1 0.500000 0.803886 0.838839
Si Si2 0.810360 0.310986 0.660939
Si Si3 0.096563 0.317008 0.669454
Si Si4 0.737113 0.812615 0.158390
Si Si5 0.650483 0.311761 0.837571
Si Si6 0.576645 0.190337 0.341584
Si Si7 0.047016 0.000000 0.669474
O O1 0.540279 0.733672 0.756333
O O2 0.500000 0.000000 0.843350
O O3 0.500000 0.734514 0.000000
O O4 0.808888 0.246876 0.500000
O O5 0.797521 0.500000 0.670141
O O6 0.856608 0.285016 0.723050
O O7 0.777855 0.205948 0.748096
O O8 0.096058 0.317939 0.500000
O O9 0.081574 0.500000 0.721599
O O10 0.068316 0.167574 0.728575
O O11 0.697788 0.710371 0.216271
O O12 0.723074 0.000000 0.159435
O O13 0.748426 0.752004 0.000000
O O14 0.637705 0.500000 0.828539
O O15 0.620680 0.212416 0.733910
O O16 0.646449 0.245978 0.000000
O O17 0.576758 0.270925 0.500000
O O18 0.567649 0.000000 0.359018
O O19 0.049211 0.000000 0.500000
O O20 0.000000 0.000000 0.724494
#
# Coordination Sequence:
#
# PCOD8198304 Si02
#       7
#     4   8   8   8   8   8   4
#     4   9  17  31  54  81 106 135 170 208 252 301
#     4   9  18  32  50  72  98 132 171 208 252 307
#     4   8  15  27  41  61  92 127 165 210 258 310
#     4  10  21  35  52  76 103 131 167 211 256 304
#     4  10  21  37  55  73  97 133 171 206 250 301
#     4  10  20  34  54  80 108 135 166 207 253 301
#     4   9  16  24  38  62  91 129 173 211 257 314
#
# _framework density 19.407138
#
# number of rings (size 3 to 8) (size 9 to 14) (size 15 to 20)
#    0.000    2.667    0.000    2.750    1.167    5.333 
#    0.000    2.083    0.000    2.500    0.000    0.000 
#    0.000    1.333    0.000    3.667    0.000    3.667 
#
# Total GULP energy -595021.258154 kJ/mol
# GULP energy per Si atom -12396.276212 kJ/mol
# Density = 1.936297 g / cm^3
# Si number density = 19.407138 Si / 1000 Ang^3
#
#
#
# Elastic Constant Matrix: (Units=GPa)
#
#
# Indices 1 2 3 4 5 6 
#
# 1 136.3970 43.6889 55.0138 0.0000 0.0000 0.0000
# 2 43.6889 69.7085 23.7249 0.0000 0.0000 0.0000
# 3 55.0138 23.7249 81.7882 0.0000 0.0000 0.0000
# 4 0.0000 0.0000 0.0000 15.5307 0.0000 0.0000
# 5 0.0000 0.0000 0.0000 0.0000 6.2001 0.0000
# 6 0.0000 0.0000 0.0000 0.0000 0.0000 10.7281
#
#
#
# Elastic Compliance Matrix: (Units=1/GPa)
#
#
# Indices 1 2 3 4 5 6 
#
# 1 0.011474 -0.005064 -0.006249 0.000000 0.000000 0.000000
# 2 -0.005064 0.018152 -0.001859 0.000000 0.000000 0.000000
# 3 -0.006249 -0.001859 0.016969 0.000000 0.000000 0.000000
# 4 0.000000 0.000000 0.000000 0.064389 0.000000 0.000000
# 5 0.000000 0.000000 0.000000 0.000000 0.161288 0.000000
# 6 0.000000 0.000000 0.000000 0.000000 0.000000 0.093213
#
#
# Mechanical properties :
#
#
# Convention : Reuss Voigt Hill
#
# Bulk Modulus (GPa) = 49.38054 59.19433 54.28743
# Shear Modulus (GPa) = 12.54451 17.52284 15.03367
#
# Velocity S-wave (km/s) = 2.54517 3.00810 2.78627
# Velocity P-wave (km/s) = 5.84268 6.52935 6.19554
#
# Compressibility (1/GPa) = 0.02025089
#
# Stress axis : x y z
#
# Youngs Moduli (GPa) = 87.15276 55.08959 58.93053
#
# Poissons Ratio (x) = 0.27900 0.36825
# Poissons Ratio (y) = 0.44138 0.10955
# Poissons Ratio (z) = 0.54460 0.10241
#
# Static dielectric constant tensor:
#      x y z
#    x 3.532440 0.000000 0.000000 
#    y 0.000000 3.502210 0.000000 
#    z 0.000000 0.000000 3.334430 
# 
# 
# High freq. dielectric constant tensor:
#      x y z
#    x 1.757990 0.000000 0.000000 
#    y 0.000000 1.748000 0.000000 
#    z 0.000000 0.000000 1.719130 
# 
# From -- ./inp_files/13959.got.cif
#   From: 2010.03.12/outbox.cif.g09.slc.cpg/sg47_7_cif.got.tgz:13959.got - 2010.04.14 03:12:58.
