data_PCOD8198030
_publ_section_title
;
Structure prediction by ZEFSAII (Michael W. Deem and Ramdas Pophale) SiO2 
 PCOD8198030
Probable space group: P M M M
;
_chemical_formula_sum "Si O2"
_cell_formula_units_Z 52
_cell_length_a 8.939632
_cell_length_b 14.317450
_cell_length_c 24.997924
_cell_angle_alpha 90.000000
_cell_angle_beta 90.000000
_cell_angle_gamma 90.000000
_cell_volume 3199.552642
_symmetry_space_group_name_H-M "P M M M"
_symmetry_group_IT_number 47
_symmetry_cell_setting 'orthorhombic'
loop_
_space_group_symop_operation_xyz
x,y,z
-x,-y,z
x,-y,-z
-x,y,-z
-x,-y,-z
x,y,-z
-x,y,z
x,-y,z
loop_
_atom_site_type_symbol
_atom_site_label
_atom_site_fract_x
_atom_site_fract_y
_atom_site_fract_z
Si Si1 0.823953 0.107215 0.840046
Si Si2 0.166754 0.894616 0.342678
Si Si3 0.324159 0.781468 0.743497
Si Si4 0.172104 0.228105 0.059475
Si Si5 0.000000 0.889690 0.558623
Si Si6 0.174914 0.394474 0.780755
Si Si7 0.672623 0.605279 0.107030
O O1 0.741981 0.160258 0.792489
O O2 0.776501 0.151822 0.896921
O O3 0.000000 0.115771 0.830714
O O4 0.771465 0.000000 0.840316
O O5 0.281544 0.827372 0.312992
O O6 0.000000 0.890208 0.315950
O O7 0.147598 0.863979 0.405607
O O8 0.229236 0.000000 0.338310
O O9 0.500000 0.777862 0.749676
O O10 0.259849 0.676477 0.741739
O O11 0.271289 0.321913 0.062889
O O12 0.000000 0.255994 0.068703
O O13 0.195834 0.185763 0.000000
O O14 0.000000 0.840319 0.500000
O O15 0.000000 0.000000 0.551037
O O16 0.211822 0.500000 0.762358
O O17 0.229555 0.376307 0.840621
O O18 0.000000 0.373403 0.778600
O O19 0.500000 0.623326 0.121328
O O20 0.696176 0.500000 0.085331
#
# Coordination Sequence:
#
# PCOD8198030 Si02
#       7
#     8   8   8   8   4   8   8
#     4  10  21  36  53  70  92 126 165 205 250 299
#     4   8  16  29  47  72 102 137 176 212 242 280
#     4  12  22  31  48  74 106 136 163 200 248 301
#     4  10  21  36  53  72  92 120 161 205 248 299
#     4   7  12  26  50  76 101 137 184 224 250 275
#     4  10  20  34  53  73  95 126 162 200 245 300
#     4  10  20  34  52  74  97 121 151 190 245 307
#
# _framework density 16.252272000000001
#
# number of rings (size 3 to 8) (size 9 to 14) (size 15 to 20)
#    0.462    1.769    1.538    2.769    0.000    5.231 
#    0.000    3.077    0.000    0.462    0.000    4.308 
#    0.000    1.231    0.000    1.385    0.000    0.000 
#
# Total GULP energy -644524.970123 kJ/mol
# GULP energy per Si atom -12394.710964 kJ/mol
# Density = 1.621528 g / cm^3
# Si number density = 16.252272 Si / 1000 Ang^3
#
#
#
# Elastic Constant Matrix: (Units=GPa)
#
#
# Indices 1 2 3 4 5 6 
#
# 1 62.5172 43.0609 35.0207 0.0000 0.0000 0.0000
# 2 43.0609 100.6142 49.4095 0.0000 0.0000 0.0000
# 3 35.0207 49.4095 106.6860 0.0000 0.0000 0.0000
# 4 0.0000 0.0000 0.0000 14.7170 0.0000 0.0000
# 5 0.0000 0.0000 0.0000 0.0000 4.2957 0.0000
# 6 0.0000 0.0000 0.0000 0.0000 0.0000 17.3257
#
#
#
# Elastic Compliance Matrix: (Units=1/GPa)
#
#
# Indices 1 2 3 4 5 6 
#
# 1 0.023951 -0.008271 -0.004032 0.000000 0.000000 0.000000
# 2 -0.008271 0.015721 -0.004566 0.000000 0.000000 0.000000
# 3 -0.004032 -0.004566 0.012811 0.000000 0.000000 0.000000
# 4 0.000000 0.000000 0.000000 0.067948 0.000000 0.000000
# 5 0.000000 0.000000 0.000000 0.000000 0.232791 0.000000
# 6 0.000000 0.000000 0.000000 0.000000 0.000000 0.057718
#
#
# Mechanical properties :
#
#
# Convention : Reuss Voigt Hill
#
# Bulk Modulus (GPa) = 53.34311 58.31106 55.82708
# Shear Modulus (GPa) = 11.08830 16.75611 13.92221
#
# Velocity S-wave (km/s) = 2.61485 3.21440 2.93000
# Velocity P-wave (km/s) = 6.48149 7.05217 6.77285
#
# Compressibility (1/GPa) = 0.01874657
#
# Stress axis : x y z
#
# Youngs Moduli (GPa) = 41.75247 63.61005 78.05582
#
# Poissons Ratio (x) = 0.52609 0.31470
# Poissons Ratio (y) = 0.34532 0.35639
# Poissons Ratio (z) = 0.16833 0.29044
#
# Static dielectric constant tensor:
#      x y z
#    x 2.967110 0.000000 0.000000 
#    y 0.000000 3.174680 0.000000 
#    z 0.000000 0.000000 3.053320 
# 
# 
# High freq. dielectric constant tensor:
#      x y z
#    x 1.616860 0.000000 0.000000 
#    y 0.000000 1.621600 0.000000 
#    z 0.000000 0.000000 1.596390 
# 
# From -- ./inp_files/31990.got.cif
#   From: 2010.03.12/outbox.cif.g09.slc.cpg/sg47_16_cif.got.tgz:31990.got - 2010.04.14 03:12:58.
