data_PCOD8198329
_publ_section_title
;
Structure prediction by ZEFSAII (Michael W. Deem and Ramdas Pophale) SiO2 
 PCOD8198329
Probable space group: P M M M
;
_chemical_formula_sum "Si O2"
_cell_formula_units_Z 44
_cell_length_a 9.237751
_cell_length_b 9.183881
_cell_length_c 28.068415
_cell_angle_alpha 90.000000
_cell_angle_beta 90.000000
_cell_angle_gamma 90.000000
_cell_volume 2381.279585
_symmetry_space_group_name_H-M "P M M M"
_symmetry_group_IT_number 47
_symmetry_cell_setting 'orthorhombic'
loop_
_space_group_symop_operation_xyz
x,y,z
-x,-y,z
x,-y,-z
-x,y,-z
-x,-y,-z
x,y,-z
-x,y,z
x,-y,z
loop_
_atom_site_type_symbol
_atom_site_label
_atom_site_fract_x
_atom_site_fract_y
_atom_site_fract_z
Si Si1 0.665957 0.330590 0.728089
Si Si2 0.667855 0.168889 0.365511
Si Si3 0.170351 0.668113 0.176937
Si Si4 0.328204 0.664342 0.000000
Si Si5 0.668541 0.170770 0.906201
Si Si6 0.830683 0.334940 0.554273
O O1 0.500000 0.287460 0.739352
O O2 0.681155 0.500000 0.716913
O O3 0.726285 0.246722 0.682046
O O4 0.763579 0.284168 0.772620
O O5 0.500000 0.204504 0.372396
O O6 0.748410 0.224476 0.411995
O O7 0.699506 0.000000 0.359547
O O8 0.208792 0.500000 0.165665
O O9 0.239542 0.770953 0.137590
O O10 0.000000 0.694233 0.178516
O O11 0.272784 0.748855 0.953393
O O12 0.265672 0.500000 0.000000
O O13 0.500000 0.662374 0.000000
O O14 0.500000 0.205612 0.897146
O O15 0.695051 0.000000 0.912706
O O16 0.790961 0.295250 0.500000
O O17 0.782483 0.500000 0.565605
O O18 0.000000 0.316956 0.563031
#
# Coordination Sequence:
#
# PCOD8198329 Si02
#       6
#     8   8   8   4   8   8
#     4   9  18  34  55  76 101 137 179 219 258 304
#     4  10  21  35  52  78 110 139 169 210 260 312
#     4  10  21  36  54  78 107 138 174 216 261 309
#     4   9  17  31  54  81 106 135 174 218 260 305
#     4  10  20  34  54  80 109 140 174 214 260 309
#     4   9  19  36  56  77 102 135 176 218 258 304
#
# _framework density 18.477461000000002
#
# number of rings (size 3 to 8) (size 9 to 14) (size 15 to 20)
#    0.000    2.455    0.000    2.455    0.000    6.909 
#    0.000    6.818    0.000    2.727    0.000    0.000 
#    0.000    0.000    0.000    0.000    0.000    0.000 
#
# Total GULP energy -545729.411612 kJ/mol
# GULP energy per Si atom -12402.941173 kJ/mol
# Density = 1.843541 g / cm^3
# Si number density = 18.477461 Si / 1000 Ang^3
#
#
#
# Elastic Constant Matrix: (Units=GPa)
#
#
# Indices 1 2 3 4 5 6 
#
# 1 59.9909 43.0289 58.9963 0.0000 0.0000 0.0000
# 2 43.0289 86.7877 75.9152 0.0000 0.0000 0.0000
# 3 58.9963 75.9152 155.5035 0.0000 0.0000 0.0000
# 4 0.0000 0.0000 0.0000 17.3776 0.0000 0.0000
# 5 0.0000 0.0000 0.0000 0.0000 -34.0474 0.0000
# 6 0.0000 0.0000 0.0000 0.0000 0.0000 26.0720
#
#
#
# Elastic Compliance Matrix: (Units=1/GPa)
#
#
# Indices 1 2 3 4 5 6 
#
# 1 0.029817 -0.008531 -0.007148 0.000000 0.000000 0.000000
# 2 -0.008531 0.022551 -0.007772 0.000000 0.000000 0.000000
# 3 -0.007148 -0.007772 0.012937 0.000000 0.000000 0.000000
# 4 0.000000 0.000000 0.000000 0.057545 0.000000 0.000000
# 5 0.000000 0.000000 0.000000 0.000000 -0.029371 0.000000
# 6 0.000000 0.000000 0.000000 0.000000 0.000000 0.038355
#
#
# Mechanical properties :
#
#
# Convention : Reuss Voigt Hill
#
# Bulk Modulus (GPa) = 54.33992 73.12922 63.73457
# Shear Modulus (GPa) = 27.04588 10.16990 18.60789
#
# Velocity S-wave (km/s) = 3.83001 2.34859 3.17686
# Velocity P-wave (km/s) = 7.00223 6.85697 6.92998
#
# Compressibility (1/GPa) = 0.01840268
#
# Stress axis : x y z
#
# Youngs Moduli (GPa) = 33.53767 44.34433 77.29861
#
# Poissons Ratio (x) = 0.37831 0.55249
# Poissons Ratio (y) = 0.28611 0.60080
# Poissons Ratio (z) = 0.23971 0.34466
#
# Static dielectric constant tensor:
#      x y z
#    x 3.220670 0.000000 0.000000 
#    y 0.000000 3.404880 0.000000 
#    z 0.000000 0.000000 3.509460 
# 
# 
# High freq. dielectric constant tensor:
#      x y z
#    x 1.698840 0.000000 0.000000 
#    y 0.000000 1.718920 0.000000 
#    z 0.000000 0.000000 1.729370 
# 
# From -- ./inp_files/13650.got.cif
#   From: 2010.03.12/outbox.cif.g09.slc.cpg/sg47_7_cif.got.tgz:13650.got - 2010.04.14 03:12:58.
