data_PCOD8198857
_publ_section_title
;
Structure prediction by ZEFSAII (Michael W. Deem and Ramdas Pophale) SiO2 
 PCOD8198857
Probable space group: P M M M
;
_chemical_formula_sum "Si O2"
_cell_formula_units_Z 64
_cell_length_a 8.728204
_cell_length_b 24.735817
_cell_length_c 14.885502
_cell_angle_alpha 90.000000
_cell_angle_beta 90.000000
_cell_angle_gamma 90.000000
_cell_volume 3213.768820
_symmetry_space_group_name_H-M "P M M M"
_symmetry_group_IT_number 47
_symmetry_cell_setting 'orthorhombic'
loop_
_space_group_symop_operation_xyz
x,y,z
-x,-y,z
x,-y,-z
-x,y,-z
-x,-y,-z
x,y,-z
-x,y,z
x,-y,z
loop_
_atom_site_type_symbol
_atom_site_label
_atom_site_fract_x
_atom_site_fract_y
_atom_site_fract_z
Si Si1 0.317909 0.560587 0.899353
Si Si2 0.818245 0.912390 0.903287
Si Si3 0.179195 0.940057 0.709529
Si Si4 0.323200 0.366948 0.738271
Si Si5 0.181018 0.745644 0.280322
Si Si6 0.680793 0.159388 0.396657
Si Si7 0.181764 0.790377 0.096329
Si Si8 0.828679 0.436777 0.399570
O O1 0.500000 0.559427 0.894138
O O2 0.256943 0.500000 0.874750
O O3 0.256448 0.606341 0.830474
O O4 0.263034 0.576047 0.000000
O O5 0.760269 0.942275 0.813291
O O6 0.758337 0.851304 0.895670
O O7 0.000000 0.914651 0.905210
O O8 0.758928 0.936834 0.000000
O O9 0.266211 0.895427 0.651884
O O10 0.000000 0.924991 0.707551
O O11 0.208446 0.000000 0.668750
O O12 0.500000 0.350953 0.748878
O O13 0.228241 0.315728 0.702721
O O14 0.302813 0.411240 0.661346
O O15 0.251101 0.786832 0.352058
O O16 0.247918 0.757650 0.180525
O O17 0.000000 0.752402 0.286052
O O18 0.735646 0.157282 0.500000
O O19 0.500000 0.162885 0.389591
O O20 0.000000 0.789935 0.100423
O O21 0.237010 0.765674 0.000000
O O22 0.810339 0.413856 0.500000
O O23 0.800848 0.500000 0.399214
O O24 0.000000 0.423039 0.363715
#
# Coordination Sequence:
#
# PCOD8198857 Si02
#       8
#     8   8   8   8   8   8   8   8
#     4   8  15  30  52  78 112 156 200 236 273 322
#     4   8  13  25  49  82 117 148 179 217 261 311
#     4  10  20  35  59  91 121 149 186 229 271 325
#     4  11  22  34  53  84 118 149 186 231 278 332
#     4  11  22  38  60  83 110 146 186 230 281 334
#     4  11  25  44  63  81 106 143 187 236 291 346
#     4   8  14  27  51  80 107 138 177 220 265 315
#     4   9  19  37  59  81 107 141 181 226 278 334
#
# _framework density 19.914311999999999
#
# number of rings (size 3 to 8) (size 9 to 14) (size 15 to 20)
#    0.000    2.500    1.250    3.000    0.000    3.750 
#    0.000    3.125    0.000    3.375    0.000    5.250 
#    0.000    0.000    0.000    0.000    0.000    0.000 
#
# Total GULP energy -793024.656782 kJ/mol
# GULP energy per Si atom -12391.010262 kJ/mol
# Density = 1.986899 g / cm^3
# Si number density = 19.914312 Si / 1000 Ang^3
#
#
#
# Elastic Constant Matrix: (Units=GPa)
#
#
# Indices 1 2 3 4 5 6 
#
# 1 40.4802 27.7172 37.1621 0.0000 0.0000 0.0000
# 2 27.7172 101.4760 65.4139 0.0000 0.0000 0.0000
# 3 37.1621 65.4139 147.9366 0.0000 0.0000 0.0000
# 4 0.0000 0.0000 0.0000 9.3635 0.0000 0.0000
# 5 0.0000 0.0000 0.0000 0.0000 16.5450 0.0000
# 6 0.0000 0.0000 0.0000 0.0000 0.0000 24.1563
#
#
#
# Elastic Compliance Matrix: (Units=1/GPa)
#
#
# Indices 1 2 3 4 5 6 
#
# 1 0.034026 -0.005293 -0.006207 0.000000 0.000000 0.000000
# 2 -0.005293 0.014607 -0.005129 0.000000 0.000000 0.000000
# 3 -0.006207 -0.005129 0.010587 0.000000 0.000000 0.000000
# 4 0.000000 0.000000 0.000000 0.106797 0.000000 0.000000
# 5 0.000000 0.000000 0.000000 0.000000 0.060441 0.000000
# 6 0.000000 0.000000 0.000000 0.000000 0.000000 0.041397
#
#
# Mechanical properties :
#
#
# Convention : Reuss Voigt Hill
#
# Bulk Modulus (GPa) = 38.51862 61.16436 49.84149
# Shear Modulus (GPa) = 16.14123 20.65296 18.39710
#
# Velocity S-wave (km/s) = 2.85008 3.22388 3.04273
# Velocity P-wave (km/s) = 5.49680 6.68119 6.11772
#
# Compressibility (1/GPa) = 0.02596147
#
# Stress axis : x y z
#
# Youngs Moduli (GPa) = 29.38960 68.46262 94.45653
#
# Poissons Ratio (x) = 0.36234 0.58630
# Poissons Ratio (y) = 0.15554 0.48448
# Poissons Ratio (z) = 0.18243 0.35115
#
# Static dielectric constant tensor:
#      x y z
#    x 3.172360 0.000000 0.000000 
#    y 0.000000 3.573970 0.000000 
#    z 0.000000 0.000000 4.104220 
# 
# 
# High freq. dielectric constant tensor:
#      x y z
#    x 1.731770 0.000000 0.000000 
#    y 0.000000 1.773470 0.000000 
#    z 0.000000 0.000000 1.790040 
# 
# From -- ./inp_files/21905.got.cif
#   From: 2010.03.12/outbox.cif.g09.slc.cpg/sg47_11_cif.got.tgz:21905.got - 2010.04.14 03:12:58.
