data_PCOD8198461
_publ_section_title
;
Structure prediction by ZEFSAII (Michael W. Deem and Ramdas Pophale) SiO2 
 PCOD8198461
Probable space group: P M M M
;
_chemical_formula_sum "Si O2"
_cell_formula_units_Z 40
_cell_length_a 27.224873
_cell_length_b 9.605574
_cell_length_c 8.031316
_cell_angle_alpha 90.000000
_cell_angle_beta 90.000000
_cell_angle_gamma 90.000000
_cell_volume 2100.273722
_symmetry_space_group_name_H-M "P M M M"
_symmetry_group_IT_number 47
_symmetry_cell_setting 'orthorhombic'
loop_
_space_group_symop_operation_xyz
x,y,z
-x,-y,z
x,-y,-z
-x,y,-z
-x,-y,-z
x,y,-z
-x,y,z
x,-y,z
loop_
_atom_site_type_symbol
_atom_site_label
_atom_site_fract_x
_atom_site_fract_y
_atom_site_fract_z
Si Si1 0.807202 0.154871 0.189432
Si Si2 0.296378 0.160271 0.310374
Si Si3 0.000000 0.652943 0.697399
Si Si4 0.105955 0.335703 0.692612
Si Si5 0.381545 0.338607 0.813063
Si Si6 0.554907 0.334785 0.500000
O O1 0.760276 0.208522 0.293439
O O2 0.852787 0.258212 0.203668
O O3 0.822848 0.000000 0.250133
O O4 0.789912 0.151002 0.000000
O O5 0.313076 0.180703 0.500000
O O6 0.330805 0.254586 0.195715
O O7 0.301388 0.000000 0.253256
O O8 0.948137 0.724575 0.749383
O O9 0.000000 0.500000 0.778063
O O10 0.000000 0.636761 0.500000
O O11 0.115286 0.303232 0.500000
O O12 0.108718 0.500000 0.727992
O O13 0.369516 0.500000 0.780857
O O14 0.418582 0.282802 0.669918
O O15 0.403832 0.317684 0.000000
O O16 0.552570 0.500000 0.500000
O O17 0.500000 0.271769 0.500000
#
# Coordination Sequence:
#
# PCOD8198461 Si02
#       6
#     8   8   4   8   8   4
#     4  10  21  35  49  69 100 135 169 207 253 308
#     4  10  20  35  56  78 101 136 178 218 265 318
#     4   7  12  26  48  71  94 120 156 203 252 303
#     4   9  17  31  52  75  96 123 162 208 256 305
#     4  10  20  34  55  83 112 143 180 222 267 314
#     4   9  18  34  55  81 115 149 181 222 267 310
#
# _framework density 19.045137
#
# number of rings (size 3 to 8) (size 9 to 14) (size 15 to 20)
#    0.000    2.600    1.000    2.400    0.000    4.000 
#    0.000    3.000    0.000    6.000    0.000    1.400 
#    0.000    0.000    0.000    0.000    0.000    0.000 
#
# Total GULP energy -495725.101892 kJ/mol
# GULP energy per Si atom -12393.127547 kJ/mol
# Density = 1.900179 g / cm^3
# Si number density = 19.045137 Si / 1000 Ang^3
#
#
#
# Elastic Constant Matrix: (Units=GPa)
#
#
# Indices 1 2 3 4 5 6 
#
# 1 137.3068 44.8848 45.9345 0.0000 0.0000 0.0000
# 2 44.8848 43.4200 25.9653 0.0000 0.0000 0.0000
# 3 45.9345 25.9653 89.8404 0.0000 0.0000 0.0000
# 4 0.0000 0.0000 0.0000 20.5790 0.0000 0.0000
# 5 0.0000 0.0000 0.0000 0.0000 20.4418 0.0000
# 6 0.0000 0.0000 0.0000 0.0000 0.0000 2.3864
#
#
#
# Elastic Compliance Matrix: (Units=1/GPa)
#
#
# Indices 1 2 3 4 5 6 
#
# 1 0.011628 -0.010233 -0.002987 0.000000 0.000000 0.000000
# 2 -0.010233 0.036849 -0.005418 0.000000 0.000000 0.000000
# 3 -0.002987 -0.005418 0.014224 0.000000 0.000000 0.000000
# 4 0.000000 0.000000 0.000000 0.048593 0.000000 0.000000
# 5 0.000000 0.000000 0.000000 0.000000 0.048919 0.000000
# 6 0.000000 0.000000 0.000000 0.000000 0.000000 0.419046
#
#
# Mechanical properties :
#
#
# Convention : Reuss Voigt Hill
#
# Bulk Modulus (GPa) = 39.33332 56.01516 47.67424
# Shear Modulus (GPa) = 7.99985 18.93359 13.46672
#
# Velocity S-wave (km/s) = 2.05173 3.15642 2.66201
# Velocity P-wave (km/s) = 5.12936 6.53909 5.87665
#
# Compressibility (1/GPa) = 0.02542374
#
# Stress axis : x y z
#
# Youngs Moduli (GPa) = 86.00224 27.13758 70.30290
#
# Poissons Ratio (x) = 0.27771 0.21003
# Poissons Ratio (y) = 0.88009 0.38089
# Poissons Ratio (z) = 0.25693 0.14703
#
# Static dielectric constant tensor:
#      x y z
#    x 3.579160 0.000000 0.000000 
#    y 0.000000 3.158460 0.000000 
#    z 0.000000 0.000000 3.467560 
# 
# 
# High freq. dielectric constant tensor:
#      x y z
#    x 1.742490 0.000000 0.000000 
#    y 0.000000 1.703830 0.000000 
#    z 0.000000 0.000000 1.740380 
# 
# From -- ./inp_files/13030.got.cif
#   From: 2010.03.12/outbox.cif.g09.slc.cpg/sg47_7_cif.got.tgz:13030.got - 2010.04.14 03:12:58.
