data_PCOD8198120
_publ_section_title
;
Structure prediction by ZEFSAII (Michael W. Deem and Ramdas Pophale) SiO2 
 PCOD8198120
Probable space group: P M M M
;
_chemical_formula_sum "Si O2"
_cell_formula_units_Z 40
_cell_length_a 8.785269
_cell_length_b 9.035252
_cell_length_c 26.095621
_cell_angle_alpha 90.000000
_cell_angle_beta 90.000000
_cell_angle_gamma 90.000000
_cell_volume 2071.395221
_symmetry_space_group_name_H-M "P M M M"
_symmetry_group_IT_number 47
_symmetry_cell_setting 'orthorhombic'
loop_
_space_group_symop_operation_xyz
x,y,z
-x,-y,z
x,-y,-z
-x,y,-z
-x,-y,-z
x,y,-z
-x,y,z
x,-y,z
loop_
_atom_site_type_symbol
_atom_site_label
_atom_site_fract_x
_atom_site_fract_y
_atom_site_fract_z
Si Si1 0.318477 0.167140 0.500000
Si Si2 0.681500 0.332862 0.600539
Si Si3 0.820159 0.668359 0.000000
Si Si4 0.318850 0.333057 0.198558
Si Si5 0.681590 0.832772 0.298834
Si Si6 0.320488 0.828941 0.903551
O O1 0.500000 0.167658 0.500000
O O2 0.255677 0.250237 0.449775
O O3 0.256018 0.000000 0.500000
O O4 0.500000 0.332453 0.600488
O O5 0.744032 0.500000 0.600762
O O6 0.744019 0.249138 0.650664
O O7 0.760601 0.750163 0.950187
O O8 0.759841 0.500000 0.000000
O O9 0.000000 0.673846 0.000000
O O10 0.500000 0.334031 0.200178
O O11 0.254874 0.500000 0.196915
O O12 0.254551 0.251823 0.248983
O O13 0.261258 0.245476 0.148730
O O14 0.500000 0.832342 0.298569
O O15 0.743904 0.000000 0.298434
O O16 0.500000 0.809062 0.910116
O O17 0.273635 0.000000 0.902479
#
# Coordination Sequence:
#
# PCOD8198120 Si02
#       6
#     4   8   4   8   8   8
#     4   9  15  21  27  35  49  73 109 153 200 249
#     4   9  15  21  28  38  54  79 113 154 201 252
#     4  11  24  39  54  74 100 129 160 193 230 274
#     4   9  16  26  41  61  84 109 137 172 216 264
#     4   9  15  22  32  47  68  93 122 160 207 256
#     4  10  20  34  53  76  99 124 156 193 233 278
#
# _framework density 19.310654
#
# number of rings (size 3 to 8) (size 9 to 14) (size 15 to 20)
#    0.000    2.600    0.000    3.300    0.000   11.600 
#    0.000    0.000    0.000    0.000    0.000    0.000 
#    0.000    0.000    0.000    0.000    0.000    0.000 
#
# Total GULP energy -496006.453432 kJ/mol
# GULP energy per Si atom -12400.161336 kJ/mol
# Density = 1.926670 g / cm^3
# Si number density = 19.310654 Si / 1000 Ang^3
#
#
#
# Elastic Constant Matrix: (Units=GPa)
#
#
# Indices 1 2 3 4 5 6 
#
# 1 8.4181 19.8047 18.2644 0.0000 0.0000 0.0000
# 2 19.8047 220.3294 124.3303 0.0000 0.0000 0.0000
# 3 18.2644 124.3303 223.7262 0.0000 0.0000 0.0000
# 4 0.0000 0.0000 0.0000 47.9815 0.0000 0.0000
# 5 0.0000 0.0000 0.0000 0.0000 -5.6090 0.0000
# 6 0.0000 0.0000 0.0000 0.0000 0.0000 9.0134
#
#
#
# Elastic Compliance Matrix: (Units=1/GPa)
#
#
# Indices 1 2 3 4 5 6 
#
# 1 0.158460 -0.010116 -0.007315 0.000000 0.000000 0.000000
# 2 -0.010116 0.007258 -0.003208 0.000000 0.000000 0.000000
# 3 -0.007315 -0.003208 0.006849 0.000000 0.000000 0.000000
# 4 0.000000 0.000000 0.000000 0.020841 0.000000 0.000000
# 5 0.000000 0.000000 0.000000 0.000000 -0.178284 0.000000
# 6 0.000000 0.000000 0.000000 0.000000 0.000000 0.110946
#
#
# Mechanical properties :
#
#
# Convention : Reuss Voigt Hill
#
# Bulk Modulus (GPa) = 7.61663 86.36361 46.99012
# Shear Modulus (GPa) = 23.68425 29.61546 26.64986
#
# Velocity S-wave (km/s) = 3.50592 3.92041 3.71895
# Velocity P-wave (km/s) = 4.51015 8.08166 6.54426
#
# Compressibility (1/GPa) = 0.13129158
#
# Stress axis : x y z
#
# Youngs Moduli (GPa) = 6.31072 137.77937 145.99744
#
# Poissons Ratio (x) = 1.39377 1.06791
# Poissons Ratio (y) = 0.06384 0.46830
# Poissons Ratio (z) = 0.04616 0.44194
#
# Static dielectric constant tensor:
#      x y z
#    x 2.654370 0.000000 0.000000 
#    y 0.000000 3.839960 0.000000 
#    z 0.000000 0.000000 3.873560 
# 
# 
# High freq. dielectric constant tensor:
#      x y z
#    x 1.660810 0.000000 0.000000 
#    y 0.000000 1.774660 0.000000 
#    z 0.000000 0.000000 1.774200 
# 
# From -- ./inp_files/13061.got.cif
#   From: 2010.03.12/outbox.cif.g09.slc.cpg/sg47_7_cif.got.tgz:13061.got - 2010.04.14 03:12:58.
