data_PCOD8198738
_publ_section_title
;
Structure prediction by ZEFSAII (Michael W. Deem and Ramdas Pophale) SiO2 
 PCOD8198738
Probable space group: P M M M
;
_chemical_formula_sum "Si O2"
_cell_formula_units_Z 48
_cell_length_a 7.976267
_cell_length_b 9.169676
_cell_length_c 32.522295
_cell_angle_alpha 90.000000
_cell_angle_beta 90.000000
_cell_angle_gamma 90.000000
_cell_volume 2378.673634
_symmetry_space_group_name_H-M "P M M M"
_symmetry_group_IT_number 47
_symmetry_cell_setting 'orthorhombic'
loop_
_space_group_symop_operation_xyz
x,y,z
-x,-y,z
x,-y,-z
-x,y,-z
-x,-y,-z
x,y,-z
-x,y,z
x,-y,z
loop_
_atom_site_type_symbol
_atom_site_label
_atom_site_fract_x
_atom_site_fract_y
_atom_site_fract_z
Si Si1 0.192090 0.171706 0.101729
Si Si2 0.688436 0.827068 0.500000
Si Si3 0.691433 0.664093 0.336726
Si Si4 0.192972 0.833261 0.587154
Si Si5 0.806614 0.160920 0.739278
Si Si6 0.198172 0.337359 0.184334
Si Si7 0.500000 0.827182 0.045897
O O1 0.246439 0.250442 0.143464
O O2 0.327582 0.224740 0.067913
O O3 0.000000 0.212710 0.088409
O O4 0.205362 0.000000 0.109535
O O5 0.500000 0.766690 0.500000
O O6 0.781033 0.770852 0.458943
O O7 0.693838 0.000000 0.500000
O O8 0.500000 0.662335 0.322640
O O9 0.764609 0.500000 0.337949
O O10 0.703070 0.734399 0.381715
O O11 0.793307 0.758472 0.304117
O O12 0.000000 0.823329 0.599370
O O13 0.257836 0.000000 0.590230
O O14 0.722971 0.254344 0.776161
O O15 0.000000 0.140913 0.749884
O O16 0.722230 0.000000 0.736742
O O17 0.275477 0.500000 0.182343
O O18 0.000000 0.347851 0.189012
O O19 0.500000 0.000000 0.043981
O O20 0.500000 0.760467 0.000000
#
# Coordination Sequence:
#
# PCOD8198738 Si02
#       7
#     8   4   8   8   8   8   4
#     4   9  17  31  52  77 106 142 184 229 277 331
#     4   9  17  31  54  83 112 141 172 212 264 317
#     4  11  24  39  53  74 107 144 181 221 267 320
#     4  10  20  35  57  83 108 137 177 222 266 316
#     4  10  20  35  57  83 108 137 177 222 268 323
#     4   9  17  31  53  79 107 140 177 218 266 320
#     4   9  18  32  51  79 111 141 181 233 283 330
#
# _framework density 20.179314999999999
#
# number of rings (size 3 to 8) (size 9 to 14) (size 15 to 20)
#    0.000    2.333    0.000    2.750    0.000    8.667 
#    1.500    2.500    0.000    3.500    0.000    2.333 
#    0.000    0.000    0.000    0.000    0.000    0.000 
#
# Total GULP energy -595122.894253 kJ/mol
# GULP energy per Si atom -12398.393630 kJ/mol
# Density = 2.013339 g / cm^3
# Si number density = 20.179315 Si / 1000 Ang^3
#
#
#
# Elastic Constant Matrix: (Units=GPa)
#
#
# Indices 1 2 3 4 5 6 
#
# 1 61.1272 23.2843 34.4622 0.0000 0.0000 0.0000
# 2 23.2843 111.2307 66.1846 0.0000 0.0000 0.0000
# 3 34.4622 66.1846 165.5850 0.0000 0.0000 0.0000
# 4 0.0000 0.0000 0.0000 6.8772 0.0000 0.0000
# 5 0.0000 0.0000 0.0000 0.0000 21.3085 0.0000
# 6 0.0000 0.0000 0.0000 0.0000 0.0000 15.1650
#
#
#
# Elastic Compliance Matrix: (Units=1/GPa)
#
#
# Indices 1 2 3 4 5 6 
#
# 1 0.018908 -0.002121 -0.003087 0.000000 0.000000 0.000000
# 2 -0.002121 0.012034 -0.004368 0.000000 0.000000 0.000000
# 3 -0.003087 -0.004368 0.008428 0.000000 0.000000 0.000000
# 4 0.000000 0.000000 0.000000 0.145409 0.000000 0.000000
# 5 0.000000 0.000000 0.000000 0.000000 0.046930 0.000000
# 6 0.000000 0.000000 0.000000 0.000000 0.000000 0.065941
#
#
# Mechanical properties :
#
#
# Convention : Reuss Voigt Hill
#
# Bulk Modulus (GPa) = 49.46658 65.08944 57.27801
# Shear Modulus (GPa) = 15.45398 22.93759 19.19579
#
# Velocity S-wave (km/s) = 2.77037 3.37514 3.08760
# Velocity P-wave (km/s) = 5.89915 6.89306 6.41538
#
# Compressibility (1/GPa) = 0.02021567
#
# Stress axis : x y z
#
# Youngs Moduli (GPa) = 52.88804 83.10046 118.65451
#
# Poissons Ratio (x) = 0.17625 0.36634
# Poissons Ratio (y) = 0.11217 0.51833
# Poissons Ratio (z) = 0.16329 0.36302
#
# Static dielectric constant tensor:
#      x y z
#    x 3.485410 0.000000 0.000000 
#    y 0.000000 3.682490 0.000000 
#    z 0.000000 0.000000 3.738800 
# 
# 
# High freq. dielectric constant tensor:
#      x y z
#    x 1.773450 0.000000 0.000000 
#    y 0.000000 1.770360 0.000000 
#    z 0.000000 0.000000 1.791830 
# 
# From -- ./inp_files/34208.got.cif
#   From: 2010.03.12/outbox.cif.g09.slc.cpg/sg47_18_cif.got.tgz:34208.got - 2010.04.14 03:12:58.
