data_PCOD8198014
_publ_section_title
;
Structure prediction by ZEFSAII (Michael W. Deem and Ramdas Pophale) SiO2 
 PCOD8198014
Probable space group: P M M M
;
_chemical_formula_sum "Si O2"
_cell_formula_units_Z 48
_cell_length_a 8.271073
_cell_length_b 32.818925
_cell_length_c 9.484363
_cell_angle_alpha 90.000000
_cell_angle_beta 90.000000
_cell_angle_gamma 90.000000
_cell_volume 2574.508754
_symmetry_space_group_name_H-M "P M M M"
_symmetry_group_IT_number 47
_symmetry_cell_setting 'orthorhombic'
loop_
_space_group_symop_operation_xyz
x,y,z
-x,-y,z
x,-y,-z
-x,y,-z
-x,-y,-z
x,y,-z
-x,y,z
x,-y,z
loop_
_atom_site_type_symbol
_atom_site_label
_atom_site_fract_x
_atom_site_fract_y
_atom_site_fract_z
Si Si1 0.186996 0.342390 0.843300
Si Si2 0.817632 0.500000 0.332594
Si Si3 0.500000 0.045590 0.333127
Si Si4 0.187622 0.174995 0.843757
Si Si5 0.312631 0.585188 0.337655
Si Si6 0.811839 0.097526 0.666234
Si Si7 0.315005 0.258870 0.835718
O O1 0.215093 0.381582 0.748407
O O2 0.260342 0.301922 0.768235
O O3 0.000000 0.334320 0.857742
O O4 0.262592 0.349573 0.000000
O O5 0.811307 0.500000 0.500000
O O6 0.727868 0.459619 0.276296
O O7 0.000000 0.500000 0.275333
O O8 0.500000 0.044739 0.500000
O O9 0.328667 0.065937 0.283982
O O10 0.500000 0.000000 0.270170
O O11 0.244192 0.139238 0.740462
O O12 0.227289 0.218873 0.773228
O O13 0.000000 0.171239 0.864859
O O14 0.270380 0.170923 0.000000
O O15 0.258135 0.588156 0.500000
O O16 0.500000 0.594092 0.318853
O O17 0.803353 0.104588 0.500000
O O18 0.000000 0.084535 0.706414
O O19 0.500000 0.252137 0.803015
O O20 0.271869 0.261950 0.000000
#
# Coordination Sequence:
#
# PCOD8198014 Si02
#       7
#     8   4   4   8   8   8   8
#     4  10  20  34  52  73  99 132 167 204 247 293
#     4   9  17  31  52  75  98 127 162 198 240 293
#     4   9  18  32  51  75 101 131 169 209 249 298
#     4   9  17  30  49  72  97 128 166 204 242 290
#     4  10  20  34  53  76 101 128 161 202 247 295
#     4   9  18  32  50  73 101 131 164 206 255 299
#     4   9  17  29  47  71  97 128 166 203 239 287
#
# _framework density 18.644333
#
# number of rings (size 3 to 8) (size 9 to 14) (size 15 to 20)
#    0.000    2.667    0.000    1.750    1.167    5.333 
#    0.000    2.917    0.000    6.500    0.000    2.333 
#    0.000    0.000    0.000    0.000    0.000    0.000 
#
# Total GULP energy -594793.631009 kJ/mol
# GULP energy per Si atom -12391.533979 kJ/mol
# Density = 1.860190 g / cm^3
# Si number density = 18.644333 Si / 1000 Ang^3
#
#
#
# Elastic Constant Matrix: (Units=GPa)
#
#
# Indices 1 2 3 4 5 6 
#
# 1 54.7540 41.0034 16.2450 0.0000 0.0000 0.0000
# 2 41.0034 156.9547 35.4701 0.0000 0.0000 0.0000
# 3 16.2450 35.4701 31.4706 0.0000 0.0000 0.0000
# 4 0.0000 0.0000 0.0000 33.4337 0.0000 0.0000
# 5 0.0000 0.0000 0.0000 0.0000 16.9829 0.0000
# 6 0.0000 0.0000 0.0000 0.0000 0.0000 39.0816
#
#
#
# Elastic Compliance Matrix: (Units=1/GPa)
#
#
# Indices 1 2 3 4 5 6 
#
# 1 0.023829 -0.004623 -0.007090 0.000000 0.000000 0.000000
# 2 -0.004623 0.009446 -0.008260 0.000000 0.000000 0.000000
# 3 -0.007090 -0.008260 0.044745 0.000000 0.000000 0.000000
# 4 0.000000 0.000000 0.000000 0.029910 0.000000 0.000000
# 5 0.000000 0.000000 0.000000 0.000000 0.058883 0.000000
# 6 0.000000 0.000000 0.000000 0.000000 0.000000 0.025588
#
#
# Mechanical properties :
#
#
# Convention : Reuss Voigt Hill
#
# Bulk Modulus (GPa) = 26.26446 47.62403 36.94425
# Shear Modulus (GPa) = 20.40514 27.93034 24.16774
#
# Velocity S-wave (km/s) = 3.31182 3.87468 3.60426
# Velocity P-wave (km/s) = 5.36115 6.75399 6.09747
#
# Compressibility (1/GPa) = 0.03807426
#
# Stress axis : x y z
#
# Youngs Moduli (GPa) = 41.96566 105.86997 22.34893
#
# Poissons Ratio (x) = 0.48943 0.15846
# Poissons Ratio (y) = 0.19400 0.18459
# Poissons Ratio (z) = 0.29754 0.87445
#
# Static dielectric constant tensor:
#      x y z
#    x 3.517630 0.000000 0.000000 
#    y 0.000000 3.668910 0.000000 
#    z 0.000000 0.000000 3.227740 
# 
# 
# High freq. dielectric constant tensor:
#      x y z
#    x 1.732770 0.000000 0.000000 
#    y 0.000000 1.734430 0.000000 
#    z 0.000000 0.000000 1.673050 
# 
# From -- ./inp_files/2761.got.cif
#   From: 2010.03.12/outbox.cif.g09.slc.cpg/sg47_2_cif.got.tgz:2761.got - 2010.04.14 03:12:58.
