data_PCOD8198537
_publ_section_title
;
Structure prediction by ZEFSAII (Michael W. Deem and Ramdas Pophale) SiO2 
 PCOD8198537
Probable space group: P M M M
;
_chemical_formula_sum "Si O2"
_cell_formula_units_Z 56
_cell_length_a 14.214139
_cell_length_b 9.566256
_cell_length_c 20.425130
_cell_angle_alpha 90.000000
_cell_angle_beta 90.000000
_cell_angle_gamma 90.000000
_cell_volume 2777.329366
_symmetry_space_group_name_H-M "P M M M"
_symmetry_group_IT_number 47
_symmetry_cell_setting 'orthorhombic'
loop_
_space_group_symop_operation_xyz
x,y,z
-x,-y,z
x,-y,-z
-x,y,-z
-x,-y,-z
x,y,-z
-x,y,z
x,-y,z
loop_
_atom_site_type_symbol
_atom_site_label
_atom_site_fract_x
_atom_site_fract_y
_atom_site_fract_z
Si Si1 0.389044 0.338528 0.676089
Si Si2 0.895936 0.346319 0.901894
Si Si3 0.694750 0.155184 0.212481
Si Si4 0.895516 0.754389 0.761873
Si Si5 0.893055 0.657195 0.618151
Si Si6 0.728384 0.839183 0.070201
Si Si7 0.727004 0.161011 0.424992
O O1 0.500000 0.328763 0.670333
O O2 0.355153 0.500000 0.673268
O O3 0.356429 0.270628 0.744065
O O4 0.346262 0.251500 0.616335
O O5 0.868013 0.500000 0.926430
O O6 0.891914 0.349833 0.822971
O O7 0.826825 0.238599 0.935429
O O8 0.000000 0.305947 0.925845
O O9 0.806613 0.141793 0.228918
O O10 0.674122 0.204753 0.136889
O O11 0.652163 0.000000 0.224492
O O12 0.879404 0.666589 0.696066
O O13 0.000000 0.829211 0.759361
O O14 0.864322 0.500000 0.596744
O O15 0.830265 0.772102 0.581629
O O16 0.000000 0.688538 0.597556
O O17 0.754130 0.000000 0.078359
O O18 0.673913 0.813174 0.000000
O O19 0.694353 0.166483 0.500000
O O20 0.729495 0.000000 0.399996
#
# Coordination Sequence:
#
# PCOD8198537 Si02
#       7
#     8   8   8   8   8   8   8
#     4  11  25  44  67  93 118 147 186 236 296 358
#     4   9  17  28  43  67 102 144 192 242 286 331
#     4  10  20  35  59  88 117 153 195 240 290 343
#     4   9  17  29  50  82 117 151 191 238 288 339
#     4  10  20  34  56  86 121 163 206 244 284 333
#     4   9  19  34  50  73 109 150 189 230 280 339
#     4  11  25  43  63  90 124 160 196 237 288 343
#
# _framework density 20.163253999999998
#
# number of rings (size 3 to 8) (size 9 to 14) (size 15 to 20)
#    0.000    2.143    1.429    1.286    0.000    8.286 
#    0.000    8.571    0.000    0.429    0.000    3.000 
#    0.000    0.000    0.000    0.000    0.000    0.000 
#
# Total GULP energy -693853.508821 kJ/mol
# GULP energy per Si atom -12390.241229 kJ/mol
# Density = 2.011736 g / cm^3
# Si number density = 20.163254 Si / 1000 Ang^3
#
#
#
# Elastic Constant Matrix: (Units=GPa)
#
#
# Indices 1 2 3 4 5 6 
#
# 1 68.0654 47.1847 33.0476 0.0000 0.0000 0.0000
# 2 47.1847 125.8456 58.6657 0.0000 0.0000 0.0000
# 3 33.0476 58.6657 125.2576 0.0000 0.0000 0.0000
# 4 0.0000 0.0000 0.0000 12.0605 0.0000 0.0000
# 5 0.0000 0.0000 0.0000 0.0000 8.7560 0.0000
# 6 0.0000 0.0000 0.0000 0.0000 0.0000 5.0797
#
#
#
# Elastic Compliance Matrix: (Units=1/GPa)
#
#
# Indices 1 2 3 4 5 6 
#
# 1 0.020356 -0.006561 -0.002298 0.000000 0.000000 0.000000
# 2 -0.006561 0.012281 -0.004021 0.000000 0.000000 0.000000
# 3 -0.002298 -0.004021 0.010473 0.000000 0.000000 0.000000
# 4 0.000000 0.000000 0.000000 0.082916 0.000000 0.000000
# 5 0.000000 0.000000 0.000000 0.000000 0.114207 0.000000
# 6 0.000000 0.000000 0.000000 0.000000 0.000000 0.196861
#
#
# Mechanical properties :
#
#
# Convention : Reuss Voigt Hill
#
# Bulk Modulus (GPa) = 57.63582 66.32939 61.98261
# Shear Modulus (GPa) = 10.66928 17.19728 13.93328
#
# Velocity S-wave (km/s) = 2.30281 2.92362 2.63158
# Velocity P-wave (km/s) = 5.97639 6.66065 6.32778
#
# Compressibility (1/GPa) = 0.01735032
#
# Stress axis : x y z
#
# Youngs Moduli (GPa) = 49.12652 81.42931 95.48474
#
# Poissons Ratio (x) = 0.53426 0.21939
# Poissons Ratio (y) = 0.32232 0.38391
# Poissons Ratio (z) = 0.11287 0.32740
#
# Static dielectric constant tensor:
#      x y z
#    x 3.456110 0.000000 0.000000 
#    y 0.000000 3.593990 0.000000 
#    z 0.000000 0.000000 3.999580 
# 
# 
# High freq. dielectric constant tensor:
#      x y z
#    x 1.754260 0.000000 0.000000 
#    y 0.000000 1.782130 0.000000 
#    z 0.000000 0.000000 1.801810 
# 
# From -- ./inp_files/25127.got.cif
#   From: 2010.03.12/outbox.cif.g09.slc.cpg/sg47_13_cif.got.tgz:25127.got - 2010.04.14 03:12:58.
