data_PCOD8198271
_publ_section_title
;
Structure prediction by ZEFSAII (Michael W. Deem and Ramdas Pophale) SiO2 
 PCOD8198271
Probable space group: P M M M
;
_chemical_formula_sum "Si O2"
_cell_formula_units_Z 48
_cell_length_a 9.116259
_cell_length_b 7.929691
_cell_length_c 32.217690
_cell_angle_alpha 90.000000
_cell_angle_beta 90.000000
_cell_angle_gamma 90.000000
_cell_volume 2328.988360
_symmetry_space_group_name_H-M "P M M M"
_symmetry_group_IT_number 47
_symmetry_cell_setting 'orthorhombic'
loop_
_space_group_symop_operation_xyz
x,y,z
-x,-y,z
x,-y,-z
-x,y,-z
-x,-y,-z
x,y,-z
-x,y,z
x,-y,z
loop_
_atom_site_type_symbol
_atom_site_label
_atom_site_fract_x
_atom_site_fract_y
_atom_site_fract_z
Si Si1 0.831876 0.802021 0.258826
Si Si2 0.667053 0.199629 0.659748
Si Si3 0.663740 0.307565 0.820104
Si Si4 0.671494 0.810004 0.908626
Si Si5 0.830407 0.500000 0.048785
Si Si6 0.837490 0.303927 0.420943
Si Si7 0.665244 0.701666 0.500000
O O1 0.740418 0.733119 0.297973
O O2 0.776222 0.715450 0.217186
O O3 0.000000 0.751868 0.265999
O O4 0.810134 0.000000 0.253842
O O5 0.500000 0.263129 0.658661
O O6 0.752240 0.277512 0.621478
O O7 0.677993 0.000000 0.657127
O O8 0.500000 0.254760 0.805277
O O9 0.666272 0.500000 0.834978
O O10 0.712110 0.198556 0.859820
O O11 0.500000 0.771098 0.914790
O O12 0.760547 0.671773 0.934091
O O13 0.710285 0.000000 0.924058
O O14 0.000000 0.500000 0.061476
O O15 0.806489 0.500000 0.000000
O O16 0.854755 0.500000 0.429436
O O17 0.747277 0.225023 0.459355
O O18 0.000000 0.220999 0.418479
O O19 0.662673 0.500000 0.500000
O O20 0.500000 0.772847 0.500000
#
# Coordination Sequence:
#
# PCOD8198271 Si02
#       7
#     8   8   8   8   4   8   4
#     4  10  21  36  54  78 109 146 187 229 278 339
#     4  10  21  37  56  77 104 141 184 229 278 332
#     4  10  20  36  59  86 117 152 192 241 294 348
#     4  10  21  40  67  95 124 163 212 264 316 371
#     4  11  25  43  63  91 131 173 211 259 317 378
#     4  10  20  34  54  79 106 136 172 217 271 331
#     4   9  17  31  52  77 104 135 172 216 266 323
#
# _framework density 20.609808000000001
#
# number of rings (size 3 to 8) (size 9 to 14) (size 15 to 20)
#    0.000    2.000    0.833    2.500    0.000    7.667 
#    0.000    2.083    0.000    2.500    0.000    0.000 
#    0.000    0.000    0.000    0.000    0.000    0.000 
#
# Total GULP energy -595273.060086 kJ/mol
# GULP energy per Si atom -12401.522085 kJ/mol
# Density = 2.056290 g / cm^3
# Si number density = 20.609808 Si / 1000 Ang^3
#
#
#
# Elastic Constant Matrix: (Units=GPa)
#
#
# Indices 1 2 3 4 5 6 
#
# 1 151.0114 46.5993 72.2728 0.0000 0.0000 0.0000
# 2 46.5993 71.0747 44.3310 0.0000 0.0000 0.0000
# 3 72.2728 44.3310 123.8808 0.0000 0.0000 0.0000
# 4 0.0000 0.0000 0.0000 -10.4414 0.0000 0.0000
# 5 0.0000 0.0000 0.0000 0.0000 32.5357 0.0000
# 6 0.0000 0.0000 0.0000 0.0000 0.0000 23.6028
#
#
#
# Elastic Compliance Matrix: (Units=1/GPa)
#
#
# Indices 1 2 3 4 5 6 
#
# 1 0.009895 -0.003717 -0.004443 0.000000 0.000000 0.000000
# 2 -0.003717 0.019508 -0.004813 0.000000 0.000000 0.000000
# 3 -0.004443 -0.004813 0.012387 0.000000 0.000000 0.000000
# 4 0.000000 0.000000 0.000000 -0.095773 0.000000 0.000000
# 5 0.000000 0.000000 0.000000 0.000000 0.030735 0.000000
# 6 0.000000 0.000000 0.000000 0.000000 0.000000 0.042368
#
#
# Mechanical properties :
#
#
# Convention : Reuss Voigt Hill
#
# Bulk Modulus (GPa) = 63.10948 74.70811 68.90880
# Shear Modulus (GPa) = 99.31091 21.32369 60.31730
#
# Velocity S-wave (km/s) = 6.94916 3.22007 5.41570
# Velocity P-wave (km/s) = 9.75066 7.08185 8.52138
#
# Compressibility (1/GPa) = 0.01584548
#
# Stress axis : x y z
#
# Youngs Moduli (GPa) = 101.05873 51.26029 80.73224
#
# Poissons Ratio (x) = 0.19051 0.35869
# Poissons Ratio (y) = 0.37558 0.38855
# Poissons Ratio (z) = 0.44900 0.24671
#
# Static dielectric constant tensor:
#      x y z
#    x 3.918100 0.000000 0.000000 
#    y 0.000000 3.639780 0.000000 
#    z 0.000000 0.000000 3.707210 
# 
# 
# High freq. dielectric constant tensor:
#      x y z
#    x 1.812670 0.000000 0.000000 
#    y 0.000000 1.793450 0.000000 
#    z 0.000000 0.000000 1.810600 
# 
# From -- ./inp_files/34126.got.cif
#   From: 2010.03.12/outbox.cif.g09.slc.cpg/sg47_18_cif.got.tgz:34126.got - 2010.04.14 03:12:58.
