data_PCOD8198405
_publ_section_title
;
Structure prediction by ZEFSAII (Michael W. Deem and Ramdas Pophale) SiO2 
 PCOD8198405
Probable space group: P M M M
;
_chemical_formula_sum "Si O2"
_cell_formula_units_Z 56
_cell_length_a 22.789433
_cell_length_b 8.614691
_cell_length_c 14.224889
_cell_angle_alpha 90.000000
_cell_angle_beta 90.000000
_cell_angle_gamma 90.000000
_cell_volume 2792.686018
_symmetry_space_group_name_H-M "P M M M"
_symmetry_group_IT_number 47
_symmetry_cell_setting 'orthorhombic'
loop_
_space_group_symop_operation_xyz
x,y,z
-x,-y,z
x,-y,-z
-x,y,-z
-x,-y,-z
x,y,-z
-x,y,z
x,-y,z
loop_
_atom_site_type_symbol
_atom_site_label
_atom_site_fract_x
_atom_site_fract_y
_atom_site_fract_z
Si Si1 0.611744 0.318486 0.720817
Si Si2 0.662598 0.180202 0.893995
Si Si3 0.500000 0.684853 0.606014
Si Si4 0.841360 0.681508 0.606637
Si Si5 0.000000 0.683580 0.106962
Si Si6 0.787343 0.678688 0.108871
Si Si7 0.284077 0.821620 0.390981
Si Si8 0.891599 0.181189 0.218581
O O1 0.604794 0.500000 0.738170
O O2 0.611914 0.233805 0.822224
O O3 0.557304 0.253032 0.660470
O O4 0.671646 0.284791 0.666362
O O5 0.720807 0.275878 0.868438
O O6 0.676945 0.000000 0.881639
O O7 0.641433 0.217110 0.000000
O O8 0.500000 0.500000 0.601841
O O9 0.500000 0.752741 0.500000
O O10 0.861155 0.718550 0.500000
O O11 0.831166 0.500000 0.621484
O O12 0.781505 0.769101 0.632410
O O13 0.891354 0.744694 0.676811
O O14 0.942485 0.742644 0.158380
O O15 0.000000 0.500000 0.108445
O O16 0.000000 0.745922 0.000000
O O17 0.797325 0.500000 0.137180
O O18 0.829703 0.786778 0.169037
O O19 0.801697 0.707119 0.000000
O O20 0.298064 0.797000 0.500000
O O21 0.291663 0.000000 0.360395
O O22 0.903377 0.000000 0.227083
#
# Coordination Sequence:
#
# PCOD8198405 Si02
#       8
#     8   8   4   8   4   8   8   8
#     4  11  21  35  57  81 108 144 186 232 279 330
#     4  10  21  37  56  80 112 147 183 227 279 334
#     4   9  20  38  58  81 108 140 181 227 274 327
#     4  10  21  38  60  85 114 150 192 235 278 329
#     4  11  25  45  66  87 114 149 191 236 276 323
#     4  10  20  35  57  85 116 150 189 232 277 329
#     4  10  20  34  54  83 118 151 184 227 280 336
#     4  12  24  38  59  86 118 153 188 231 283 337
#
# _framework density 20.052378000000001
#
# number of rings (size 3 to 8) (size 9 to 14) (size 15 to 20)
#    0.000    1.571    0.000    5.357    0.000    6.286 
#    0.000    2.143    0.000    6.857    0.000    0.000 
#    0.000    0.000    0.000    0.000    0.000    0.000 
#
# Total GULP energy -694665.357294 kJ/mol
# GULP energy per Si atom -12404.738523 kJ/mol
# Density = 2.000674 g / cm^3
# Si number density = 20.052378 Si / 1000 Ang^3
#
#
#
# Elastic Constant Matrix: (Units=GPa)
#
#
# Indices 1 2 3 4 5 6 
#
# 1 66.5011 20.6850 78.2191 0.0000 0.0000 0.0000
# 2 20.6850 67.6522 38.3020 0.0000 0.0000 0.0000
# 3 78.2191 38.3020 153.7438 0.0000 0.0000 0.0000
# 4 0.0000 0.0000 0.0000 32.4384 0.0000 0.0000
# 5 0.0000 0.0000 0.0000 0.0000 37.6430 0.0000
# 6 0.0000 0.0000 0.0000 0.0000 0.0000 0.2071
#
#
#
# Elastic Compliance Matrix: (Units=1/GPa)
#
#
# Indices 1 2 3 4 5 6 
#
# 1 0.037479 -0.000773 -0.018876 0.000000 0.000000 0.000000
# 2 -0.000773 0.017225 -0.003898 0.000000 0.000000 0.000000
# 3 -0.018876 -0.003898 0.017079 0.000000 0.000000 0.000000
# 4 0.000000 0.000000 0.000000 0.030828 0.000000 0.000000
# 5 0.000000 0.000000 0.000000 0.000000 0.026565 0.000000
# 6 0.000000 0.000000 0.000000 0.000000 0.000000 4.828690
#
#
# Mechanical properties :
#
#
# Convention : Reuss Voigt Hill
#
# Bulk Modulus (GPa) = 40.50252 62.47880 51.49066
# Shear Modulus (GPa) = 0.99737 24.10375 12.55056
#
# Velocity S-wave (km/s) = 0.70602 3.47081 2.50449
# Velocity P-wave (km/s) = 4.57240 6.87659 5.83927
#
# Compressibility (1/GPa) = 0.02468982
#
# Stress axis : x y z
#
# Youngs Moduli (GPa) = 26.68139 58.05627 58.55293
#
# Poissons Ratio (x) = 0.04487 1.10522
# Poissons Ratio (y) = 0.02062 0.22823
# Poissons Ratio (z) = 0.50362 0.22630
#
# Static dielectric constant tensor:
#      x y z
#    x 3.533190 0.000000 0.000000 
#    y 0.000000 3.613980 0.000000 
#    z 0.000000 0.000000 4.049000 
# 
# 
# High freq. dielectric constant tensor:
#      x y z
#    x 1.758510 0.000000 0.000000 
#    y 0.000000 1.786890 0.000000 
#    z 0.000000 0.000000 1.804220 
# 
# From -- ./inp_files/25161.got.cif
#   From: 2010.03.12/outbox.cif.g09.slc.cpg/sg47_13_cif.got.tgz:25161.got - 2010.04.14 03:12:58.
