data_PCOD8198689
_publ_section_title
;
Structure prediction by ZEFSAII (Michael W. Deem and Ramdas Pophale) SiO2 
 PCOD8198689
Probable space group: P M M M
;
_chemical_formula_sum "Si O2"
_cell_formula_units_Z 52
_cell_length_a 27.622473
_cell_length_b 11.597066
_cell_length_c 8.767634
_cell_angle_alpha 90.000000
_cell_angle_beta 90.000000
_cell_angle_gamma 90.000000
_cell_volume 2808.620741
_symmetry_space_group_name_H-M "P M M M"
_symmetry_group_IT_number 47
_symmetry_cell_setting 'orthorhombic'
loop_
_space_group_symop_operation_xyz
x,y,z
-x,-y,z
x,-y,-z
-x,y,-z
-x,-y,-z
x,y,-z
-x,y,z
x,-y,z
loop_
_atom_site_type_symbol
_atom_site_label
_atom_site_fract_x
_atom_site_fract_y
_atom_site_fract_z
Si Si1 0.146290 0.222651 0.320264
Si Si2 0.224368 0.632728 0.821183
Si Si3 0.054702 0.132695 0.821931
Si Si4 0.693675 0.000000 0.827260
Si Si5 0.500000 0.637316 0.672308
Si Si6 0.402363 0.636882 0.172675
Si Si7 0.314636 0.238869 0.320367
Si Si8 0.808178 0.000000 0.173202
O O1 0.149345 0.229268 0.500000
O O2 0.172296 0.334874 0.249919
O O3 0.090237 0.217714 0.269145
O O4 0.174017 0.111425 0.260664
O O5 0.235747 0.500000 0.783960
O O6 0.265647 0.712737 0.751808
O O7 0.222579 0.656754 0.000000
O O8 0.000000 0.156681 0.766535
O O9 0.068953 0.000000 0.787465
O O10 0.059469 0.158456 0.000000
O O11 0.673545 0.888087 0.741375
O O12 0.751055 0.000000 0.824967
O O13 0.674028 0.000000 0.000000
O O14 0.500000 0.500000 0.671683
O O15 0.500000 0.685373 0.500000
O O16 0.547216 0.684428 0.759790
O O17 0.401903 0.500000 0.175640
O O18 0.358883 0.679098 0.277707
O O19 0.396069 0.682558 0.000000
O O20 0.307652 0.235199 0.500000
O O21 0.828500 0.000000 0.000000
#
# Coordination Sequence:
#
# PCOD8198689 Si02
#       8
#     8   8   8   4   4   8   8   4
#     4  12  23  34  55  84 114 144 177 225 280 326
#     4  11  24  41  59  79 107 147 190 226 267 326
#     4   9  18  33  54  79 109 146 183 220 266 323
#     4  11  23  39  59  79 108 150 190 226 268 326
#     4   9  17  31  53  82 113 144 185 237 286 325
#     4  10  20  35  56  82 114 152 191 229 275 333
#     4  12  24  37  57  84 115 146 182 231 282 327
#     4  11  21  35  56  78 107 147 188 223 264 324
#
# _framework density 18.514426
#
# number of rings (size 3 to 8) (size 9 to 14) (size 15 to 20)
#    0.000    1.308    2.308    5.308    0.000    5.846 
#    0.000    0.769    0.000    0.923    0.000    6.462 
#    0.000    0.000    0.000    0.000    0.000    0.000 
#
# Total GULP energy -645000.336862 kJ/mol
# GULP energy per Si atom -12403.852632 kJ/mol
# Density = 1.847229 g / cm^3
# Si number density = 18.514426 Si / 1000 Ang^3
#
#
#
# Elastic Constant Matrix: (Units=GPa)
#
#
# Indices 1 2 3 4 5 6 
#
# 1 100.2394 23.7291 40.4739 0.0000 0.0000 0.0000
# 2 23.7291 54.6093 43.6503 0.0000 0.0000 0.0000
# 3 40.4739 43.6503 130.2541 0.0000 0.0000 0.0000
# 4 0.0000 0.0000 0.0000 11.9232 0.0000 0.0000
# 5 0.0000 0.0000 0.0000 0.0000 24.1403 0.0000
# 6 0.0000 0.0000 0.0000 0.0000 0.0000 21.4686
#
#
#
# Elastic Compliance Matrix: (Units=1/GPa)
#
#
# Indices 1 2 3 4 5 6 
#
# 1 0.011754 -0.002989 -0.002651 0.000000 0.000000 0.000000
# 2 -0.002989 0.025771 -0.007708 0.000000 0.000000 0.000000
# 3 -0.002651 -0.007708 0.011084 0.000000 0.000000 0.000000
# 4 0.000000 0.000000 0.000000 0.083870 0.000000 0.000000
# 5 0.000000 0.000000 0.000000 0.000000 0.041425 0.000000
# 6 0.000000 0.000000 0.000000 0.000000 0.000000 0.046580
#
#
# Mechanical properties :
#
#
# Convention : Reuss Voigt Hill
#
# Bulk Modulus (GPa) = 45.63064 55.64549 50.63807
# Shear Modulus (GPa) = 19.64766 23.32304 21.48535
#
# Velocity S-wave (km/s) = 3.26115 3.55311 3.41026
# Velocity P-wave (km/s) = 6.23536 6.85224 6.55106
#
# Compressibility (1/GPa) = 0.02191510
#
# Stress axis : x y z
#
# Youngs Moduli (GPa) = 85.07822 38.80260 90.22024
#
# Poissons Ratio (x) = 0.11596 0.23915
# Poissons Ratio (y) = 0.25426 0.69540
# Poissons Ratio (z) = 0.22552 0.29908
#
# Static dielectric constant tensor:
#      x y z
#    x 3.575530 0.000000 0.000000 
#    y 0.000000 3.273850 0.000000 
#    z 0.000000 0.000000 3.545790 
# 
# 
# High freq. dielectric constant tensor:
#      x y z
#    x 1.724400 0.000000 0.000000 
#    y 0.000000 1.689400 0.000000 
#    z 0.000000 0.000000 1.732390 
# 
# From -- ./inp_files/13310.got.cif
#   From: 2010.03.12/outbox.cif.g09.slc.cpg/sg47_7_cif.got.tgz:13310.got - 2010.04.14 03:12:58.
