data_PCOD8198397
_publ_section_title
;
Structure prediction by ZEFSAII (Michael W. Deem and Ramdas Pophale) SiO2 
 PCOD8198397
Probable space group: P M M M
;
_chemical_formula_sum "Si O2"
_cell_formula_units_Z 56
_cell_length_a 23.362792
_cell_length_b 13.904517
_cell_length_c 8.813007
_cell_angle_alpha 90.000000
_cell_angle_beta 90.000000
_cell_angle_gamma 90.000000
_cell_volume 2862.890681
_symmetry_space_group_name_H-M "P M M M"
_symmetry_group_IT_number 47
_symmetry_cell_setting 'orthorhombic'
loop_
_space_group_symop_operation_xyz
x,y,z
-x,-y,z
x,-y,-z
-x,y,-z
-x,-y,-z
x,y,-z
-x,y,z
x,-y,z
loop_
_atom_site_type_symbol
_atom_site_label
_atom_site_fract_x
_atom_site_fract_y
_atom_site_fract_z
Si Si1 0.336323 0.888752 0.177863
Si Si2 0.000000 0.891636 0.678830
Si Si3 0.833330 0.607562 0.824387
Si Si4 0.282210 0.392281 0.678967
Si Si5 0.217245 0.886326 0.328284
Si Si6 0.393175 0.720880 0.680417
Si Si7 0.500000 0.612247 0.179361
Si Si8 0.891497 0.796281 0.175594
O O1 0.277748 0.854759 0.257998
O O2 0.388896 0.828434 0.250526
O O3 0.349382 0.000000 0.211740
O O4 0.331109 0.868697 0.000000
O O5 0.055763 0.834680 0.729357
O O6 0.000000 0.896988 0.500000
O O7 0.000000 0.000000 0.746588
O O8 0.850090 0.500000 0.766256
O O9 0.777744 0.650108 0.738831
O O10 0.885608 0.681208 0.795171
O O11 0.817324 0.604681 0.000000
O O12 0.280539 0.392015 0.500000
O O13 0.289281 0.500000 0.743512
O O14 0.335607 0.331329 0.737308
O O15 0.213520 0.845476 0.500000
O O16 0.166532 0.847235 0.225261
O O17 0.211628 0.000000 0.328906
O O18 0.399951 0.724984 0.500000
O O19 0.445250 0.662861 0.749869
O O20 0.500000 0.500000 0.224607
O O21 0.500000 0.626383 0.000000
O O22 0.902719 0.818990 0.000000
#
# Coordination Sequence:
#
# PCOD8198397 Si02
#       8
#     8   4   8   8   8   8   4   8
#     4  10  21  37  57  83 116 151 188 233 282 334
#     4  11  25  43  60  79 106 140 177 221 274 331
#     4   9  19  35  54  79 111 144 178 218 266 320
#     4   9  18  32  52  81 114 146 180 220 270 325
#     4  10  20  34  54  82 116 151 185 225 277 334
#     4  11  22  37  59  84 113 150 190 235 285 336
#     4  11  25  43  62  85 114 149 189 232 278 333
#     4  11  22  36  57  82 108 143 185 228 274 324
#
# _framework density 19.560649000000002
#
# number of rings (size 3 to 8) (size 9 to 14) (size 15 to 20)
#    0.000    1.857    0.000    3.857    0.000    9.714 
#    0.000    2.143    0.000    4.286    0.000    0.000 
#    0.000    0.000    0.000    0.000    0.000    0.000 
#
# Total GULP energy -694486.377334 kJ/mol
# GULP energy per Si atom -12401.542452 kJ/mol
# Density = 1.951613 g / cm^3
# Si number density = 19.560649 Si / 1000 Ang^3
#
#
#
# Elastic Constant Matrix: (Units=GPa)
#
#
# Indices 1 2 3 4 5 6 
#
# 1 103.5051 78.7015 37.9697 0.0000 0.0000 0.0000
# 2 78.7015 95.2710 42.9745 0.0000 0.0000 0.0000
# 3 37.9697 42.9745 72.6325 0.0000 0.0000 0.0000
# 4 0.0000 0.0000 0.0000 28.7865 0.0000 0.0000
# 5 0.0000 0.0000 0.0000 0.0000 40.6951 0.0000
# 6 0.0000 0.0000 0.0000 0.0000 0.0000 31.3721
#
#
#
# Elastic Compliance Matrix: (Units=1/GPa)
#
#
# Indices 1 2 3 4 5 6 
#
# 1 0.026057 -0.020980 -0.001208 0.000000 0.000000 0.000000
# 2 -0.020980 0.031210 -0.007498 0.000000 0.000000 0.000000
# 3 -0.001208 -0.007498 0.018836 0.000000 0.000000 0.000000
# 4 0.000000 0.000000 0.000000 0.034739 0.000000 0.000000
# 5 0.000000 0.000000 0.000000 0.000000 0.024573 0.000000
# 6 0.000000 0.000000 0.000000 0.000000 0.000000 0.031875
#
#
# Mechanical properties :
#
#
# Convention : Reuss Voigt Hill
#
# Bulk Modulus (GPa) = 59.77466 65.63333 62.70399
# Shear Modulus (GPa) = 21.52930 27.62159 24.57544
#
# Velocity S-wave (km/s) = 3.32119 3.76187 3.54838
# Velocity P-wave (km/s) = 6.73291 7.24538 6.99384
#
# Compressibility (1/GPa) = 0.01672950
#
# Stress axis : x y z
#
# Youngs Moduli (GPa) = 38.37679 32.04077 53.08930
#
# Poissons Ratio (x) = 0.67223 0.06415
# Poissons Ratio (y) = 0.80516 0.39808
# Poissons Ratio (z) = 0.04637 0.24025
#
# Static dielectric constant tensor:
#      x y z
#    x 3.679460 0.000000 0.000000 
#    y 0.000000 3.964320 0.000000 
#    z 0.000000 0.000000 3.613520 
# 
# 
# High freq. dielectric constant tensor:
#      x y z
#    x 1.743840 0.000000 0.000000 
#    y 0.000000 1.780030 0.000000 
#    z 0.000000 0.000000 1.768950 
# 
# From -- ./inp_files/11343.got.cif
#   From: 2010.03.12/outbox.cif.g09.slc.cpg/sg47_6_cif.got.tgz:11343.got - 2010.04.14 03:12:58.
