data_PCOD8198913
_publ_section_title
;
Structure prediction by ZEFSAII (Michael W. Deem and Ramdas Pophale) SiO2 
 PCOD8198913
Probable space group: P M M M
;
_chemical_formula_sum "Si O2"
_cell_formula_units_Z 44
_cell_length_a 9.341351
_cell_length_b 7.867380
_cell_length_c 29.365402
_cell_angle_alpha 90.000000
_cell_angle_beta 90.000000
_cell_angle_gamma 90.000000
_cell_volume 2158.120891
_symmetry_space_group_name_H-M "P M M M"
_symmetry_group_IT_number 47
_symmetry_cell_setting 'orthorhombic'
loop_
_space_group_symop_operation_xyz
x,y,z
-x,-y,z
x,-y,-z
-x,y,-z
-x,-y,-z
x,y,-z
-x,y,z
x,-y,z
loop_
_atom_site_type_symbol
_atom_site_label
_atom_site_fract_x
_atom_site_fract_y
_atom_site_fract_z
Si Si1 0.839600 0.798452 0.782637
Si Si2 0.660498 0.304037 0.303376
Si Si3 0.838555 0.700189 0.948707
Si Si4 0.333825 0.807865 0.402065
Si Si5 0.342615 0.804067 0.134502
Si Si6 0.834951 0.500000 0.446250
O O1 0.770785 0.739890 0.735817
O O2 0.752274 0.719610 0.825420
O O3 0.000000 0.724802 0.785127
O O4 0.841954 0.000000 0.785172
O O5 0.500000 0.259145 0.286398
O O6 0.672671 0.500000 0.317126
O O7 0.699414 0.197739 0.348230
O O8 0.827382 0.500000 0.942841
O O9 0.730519 0.788651 0.914458
O O10 0.000000 0.761447 0.938064
O O11 0.796105 0.753748 0.000000
O O12 0.500000 0.762984 0.410940
O O13 0.237983 0.671962 0.428348
O O14 0.298774 0.000000 0.418981
O O15 0.500000 0.717346 0.133417
O O16 0.360740 0.000000 0.146237
O O17 0.820437 0.500000 0.500000
O O18 0.000000 0.500000 0.430481
#
# Coordination Sequence:
#
# PCOD8198913 Si02
#       6
#     8   8   8   8   8   4
#     4  10  21  36  54  78 109 146 187 229 278 338
#     4  10  20  36  59  86 117 152 192 239 291 349
#     4   9  19  36  56  77 102 134 173 218 271 333
#     4  10  21  40  67  95 124 163 211 262 314 368
#     4  10  21  36  54  77 106 140 180 227 277 331
#     4  11  25  43  63  91 131 173 211 259 314 371
#
# _framework density 20.388106000000001
#
# number of rings (size 3 to 8) (size 9 to 14) (size 15 to 20)
#    0.000    2.091    0.909    2.455    0.000    7.273 
#    0.000    4.545    0.000    0.000    0.000    0.000 
#    0.000    0.000    0.000    0.000    0.000    0.000 
#
# Total GULP energy -545603.477316 kJ/mol
# GULP energy per Si atom -12400.079030 kJ/mol
# Density = 2.034170 g / cm^3
# Si number density = 20.388106 Si / 1000 Ang^3
#
#
#
# Elastic Constant Matrix: (Units=GPa)
#
#
# Indices 1 2 3 4 5 6 
#
# 1 161.9825 52.2169 83.6416 0.0000 0.0000 0.0000
# 2 52.2169 70.1247 37.9226 0.0000 0.0000 0.0000
# 3 83.6416 37.9226 110.9312 0.0000 0.0000 0.0000
# 4 0.0000 0.0000 0.0000 26.9356 0.0000 0.0000
# 5 0.0000 0.0000 0.0000 0.0000 39.4261 0.0000
# 6 0.0000 0.0000 0.0000 0.0000 0.0000 25.7098
#
#
#
# Elastic Compliance Matrix: (Units=1/GPa)
#
#
# Indices 1 2 3 4 5 6 
#
# 1 0.011217 -0.004636 -0.006873 0.000000 0.000000 0.000000
# 2 -0.004636 0.019410 -0.003140 0.000000 0.000000 0.000000
# 3 -0.006873 -0.003140 0.015270 0.000000 0.000000 0.000000
# 4 0.000000 0.000000 0.000000 0.037126 0.000000 0.000000
# 5 0.000000 0.000000 0.000000 0.000000 0.025364 0.000000
# 6 0.000000 0.000000 0.000000 0.000000 0.000000 0.038896
#
#
# Mechanical properties :
#
#
# Convention : Reuss Voigt Hill
#
# Bulk Modulus (GPa) = 60.24100 76.73340 68.48720
# Shear Modulus (GPa) = 27.45556 29.69810 28.57683
#
# Velocity S-wave (km/s) = 3.67365 3.82073 3.74791
# Velocity P-wave (km/s) = 6.89968 7.56188 7.23836
#
# Compressibility (1/GPa) = 0.01659999
#
# Stress axis : x y z
#
# Youngs Moduli (GPa) = 89.15395 51.51878 65.48794
#
# Poissons Ratio (x) = 0.23882 0.45007
# Poissons Ratio (y) = 0.41328 0.20566
# Poissons Ratio (z) = 0.61271 0.16179
#
# Static dielectric constant tensor:
#      x y z
#    x 4.021720 0.000000 0.000000 
#    y 0.000000 3.628700 0.000000 
#    z 0.000000 0.000000 3.688050 
# 
# 
# High freq. dielectric constant tensor:
#      x y z
#    x 1.799010 0.000000 0.000000 
#    y 0.000000 1.789930 0.000000 
#    z 0.000000 0.000000 1.798220 
# 
# From -- ./inp_files/33877.got.cif
#   From: 2010.03.12/outbox.cif.g09.slc.cpg/sg47_17_cif.got.tgz:33877.got - 2010.04.14 03:12:58.
