data_PCOD8198490
_publ_section_title
;
Structure prediction by ZEFSAII (Michael W. Deem and Ramdas Pophale) SiO2 
 PCOD8198490
Probable space group: P M M M
;
_chemical_formula_sum "Si O2"
_cell_formula_units_Z 64
_cell_length_a 9.083794
_cell_length_b 14.344658
_cell_length_c 25.317473
_cell_angle_alpha 90.000000
_cell_angle_beta 90.000000
_cell_angle_gamma 90.000000
_cell_volume 3298.965933
_symmetry_space_group_name_H-M "P M M M"
_symmetry_group_IT_number 47
_symmetry_cell_setting 'orthorhombic'
loop_
_space_group_symop_operation_xyz
x,y,z
-x,-y,z
x,-y,-z
-x,y,-z
-x,-y,-z
x,y,-z
-x,y,z
x,-y,z
loop_
_atom_site_type_symbol
_atom_site_label
_atom_site_fract_x
_atom_site_fract_y
_atom_site_fract_z
Si Si1 0.172662 0.217483 0.939343
Si Si2 0.667041 0.602707 0.704886
Si Si3 0.828308 0.394387 0.597152
Si Si4 0.670408 0.796066 0.747791
Si Si5 0.669977 0.892618 0.853619
Si Si6 0.665184 0.601870 0.062731
Si Si7 0.826746 0.891564 0.349967
Si Si8 0.669136 0.779654 0.559697
O O1 0.240161 0.133654 0.905801
O O2 0.229613 0.316410 0.916266
O O3 0.000000 0.215751 0.933250
O O4 0.221697 0.203236 0.000000
O O5 0.500000 0.609037 0.682768
O O6 0.694489 0.500000 0.730406
O O7 0.779207 0.619920 0.657401
O O8 0.692587 0.683822 0.747943
O O9 0.796138 0.500000 0.578233
O O10 0.737904 0.323902 0.560681
O O11 0.000000 0.370585 0.593149
O O12 0.500000 0.824028 0.739768
O O13 0.728439 0.833520 0.803777
O O14 0.763343 0.841838 0.701407
O O15 0.500000 0.871264 0.864996
O O16 0.697999 0.000000 0.840487
O O17 0.500000 0.621726 0.083204
O O18 0.718530 0.500000 0.083526
O O19 0.667707 0.600603 0.000000
O O20 0.756035 0.849602 0.402642
O O21 0.000000 0.873935 0.352186
O O22 0.786958 0.000000 0.347311
O O23 0.681372 0.817647 0.500000
O O24 0.500000 0.774525 0.578310
#
# Coordination Sequence:
#
# PCOD8198490 Si02
#       8
#     8   8   8   8   8   8   8   8
#     4  10  21  36  55  81 114 152 192 236 288 345
#     4   9  17  31  55  86 117 149 184 221 269 333
#     4  10  20  34  55  84 117 152 189 231 281 337
#     4  10  20  37  62  88 115 148 186 231 280 334
#     4  10  22  39  58  82 112 148 193 243 290 337
#     4   8  14  27  50  79 109 143 184 227 270 322
#     4  11  24  40  60  86 113 145 187 235 290 348
#     4  11  24  40  58  82 113 151 195 241 286 336
#
# _framework density 19.400017999999999
#
# number of rings (size 3 to 8) (size 9 to 14) (size 15 to 20)
#    0.000    2.125    1.250    2.250    0.000    5.750 
#    0.000    5.625    0.000    2.250    0.000    0.000 
#    0.000    0.000    0.000    0.000    0.000    0.000 
#
# Total GULP energy -793579.310942 kJ/mol
# GULP energy per Si atom -12399.676733 kJ/mol
# Density = 1.935586 g / cm^3
# Si number density = 19.400018 Si / 1000 Ang^3
#
#
#
# Elastic Constant Matrix: (Units=GPa)
#
#
# Indices 1 2 3 4 5 6 
#
# 1 82.3688 50.0160 43.3381 0.0000 0.0000 0.0000
# 2 50.0160 123.7415 58.1897 0.0000 0.0000 0.0000
# 3 43.3381 58.1897 92.2062 0.0000 0.0000 0.0000
# 4 0.0000 0.0000 0.0000 26.3402 0.0000 0.0000
# 5 0.0000 0.0000 0.0000 0.0000 14.9792 0.0000
# 6 0.0000 0.0000 0.0000 0.0000 0.0000 28.5709
#
#
#
# Elastic Compliance Matrix: (Units=1/GPa)
#
#
# Indices 1 2 3 4 5 6 
#
# 1 0.017827 -0.004643 -0.005448 0.000000 0.000000 0.000000
# 2 -0.004643 0.012701 -0.005833 0.000000 0.000000 0.000000
# 3 -0.005448 -0.005833 0.017087 0.000000 0.000000 0.000000
# 4 0.000000 0.000000 0.000000 0.037965 0.000000 0.000000
# 5 0.000000 0.000000 0.000000 0.000000 0.066759 0.000000
# 6 0.000000 0.000000 0.000000 0.000000 0.000000 0.035001
#
#
# Mechanical properties :
#
#
# Convention : Reuss Voigt Hill
#
# Bulk Modulus (GPa) = 63.42993 66.82268 65.12630
# Shear Modulus (GPa) = 22.27717 23.76289 23.02003
#
# Velocity S-wave (km/s) = 3.39234 3.50364 3.44844
# Velocity P-wave (km/s) = 6.93619 7.13349 7.03554
#
# Compressibility (1/GPa) = 0.01576543
#
# Stress axis : x y z
#
# Youngs Moduli (GPa) = 56.09539 78.73260 58.52312
#
# Poissons Ratio (x) = 0.36559 0.31886
# Poissons Ratio (y) = 0.26047 0.34137
# Poissons Ratio (z) = 0.30563 0.45925
#
# Static dielectric constant tensor:
#      x y z
#    x 3.554410 0.000000 0.000000 
#    y 0.000000 3.856780 0.000000 
#    z 0.000000 0.000000 3.286310 
# 
# 
# High freq. dielectric constant tensor:
#      x y z
#    x 1.754110 0.000000 0.000000 
#    y 0.000000 1.769460 0.000000 
#    z 0.000000 0.000000 1.730250 
# 
# From -- ./inp_files/32099.got.cif
#   From: 2010.03.12/outbox.cif.g09.slc.cpg/sg47_17_cif.got.tgz:32099.got - 2010.04.14 03:12:58.
