data_PCOD8198816
_publ_section_title
;
Structure prediction by ZEFSAII (Michael W. Deem and Ramdas Pophale) SiO2 
 PCOD8198816
Probable space group: P M M M
;
_chemical_formula_sum "Si O2"
_cell_formula_units_Z 48
_cell_length_a 31.883289
_cell_length_b 8.103757
_cell_length_c 9.306213
_cell_angle_alpha 90.000000
_cell_angle_beta 90.000000
_cell_angle_gamma 90.000000
_cell_volume 2404.487446
_symmetry_space_group_name_H-M "P M M M"
_symmetry_group_IT_number 47
_symmetry_cell_setting 'orthorhombic'
loop_
_space_group_symop_operation_xyz
x,y,z
-x,-y,z
x,-y,-z
-x,y,-z
-x,-y,-z
x,y,-z
-x,y,z
x,-y,z
loop_
_atom_site_type_symbol
_atom_site_label
_atom_site_fract_x
_atom_site_fract_y
_atom_site_fract_z
Si Si1 0.399805 0.814225 0.667446
Si Si2 0.752414 0.192702 0.664276
Si Si3 0.000000 0.189378 0.656589
Si Si4 0.676446 0.688722 0.164452
Si Si5 0.453038 0.500000 0.329414
Si Si6 0.152162 0.806732 0.336502
Si Si7 0.923429 0.689553 0.160122
O O1 0.390412 0.786385 0.500000
O O2 0.356016 0.803230 0.750562
O O3 0.430785 0.669461 0.724456
O O4 0.418494 0.000000 0.693034
O O5 0.742631 0.241249 0.500000
O O6 0.722558 0.294817 0.768882
O O7 0.800133 0.239375 0.702928
O O8 0.744597 0.000000 0.688236
O O9 0.041696 0.225996 0.743989
O O10 0.000000 0.281076 0.500000
O O11 0.000000 0.000000 0.622855
O O12 0.661651 0.500000 0.177360
O O13 0.677836 0.747270 0.000000
O O14 0.500000 0.500000 0.265400
O O15 0.454504 0.500000 0.500000
O O16 0.142353 0.753838 0.500000
O O17 0.122263 0.709047 0.229402
O O18 0.144339 0.000000 0.317567
O O19 0.935263 0.500000 0.150066
O O20 0.923343 0.767551 0.000000
#
# Coordination Sequence:
#
# PCOD8198816 Si02
#       7
#     8   8   4   8   4   8   8
#     4  10  20  35  58  85 113 150 193 235 286 347
#     4   9  19  36  57  81 109 143 186 234 282 334
#     4  11  24  41  62  86 108 135 178 227 272 324
#     4  11  23  36  52  78 113 151 191 237 287 339
#     4   9  18  34  57  87 121 151 185 237 293 342
#     4   9  19  37  59  82 109 143 185 229 273 328
#     4  11  24  39  56  82 115 146 178 220 270 326
#
# _framework density 19.962675000000001
#
# number of rings (size 3 to 8) (size 9 to 14) (size 15 to 20)
#    0.000    2.000    0.833    3.500    0.000   10.667 
#    0.000    6.667    0.000    1.000    0.000    1.167 
#    0.000    0.000    0.000    0.000    0.000    0.000 
#
# Total GULP energy -595209.217623 kJ/mol
# GULP energy per Si atom -12400.192034 kJ/mol
# Density = 1.991724 g / cm^3
# Si number density = 19.962675 Si / 1000 Ang^3
#
#
#
# Elastic Constant Matrix: (Units=GPa)
#
#
# Indices 1 2 3 4 5 6 
#
# 1 127.0422 42.7193 63.5377 0.0000 0.0000 0.0000
# 2 42.7193 87.3896 38.5364 0.0000 0.0000 0.0000
# 3 63.5377 38.5364 115.4484 0.0000 0.0000 0.0000
# 4 0.0000 0.0000 0.0000 24.8932 0.0000 0.0000
# 5 0.0000 0.0000 0.0000 0.0000 2.1635 0.0000
# 6 0.0000 0.0000 0.0000 0.0000 0.0000 29.8352
#
#
#
# Elastic Compliance Matrix: (Units=1/GPa)
#
#
# Indices 1 2 3 4 5 6 
#
# 1 0.011646 -0.003361 -0.005288 0.000000 0.000000 0.000000
# 2 -0.003361 0.014388 -0.002953 0.000000 0.000000 0.000000
# 3 -0.005288 -0.002953 0.012558 0.000000 0.000000 0.000000
# 4 0.000000 0.000000 0.000000 0.040172 0.000000 0.000000
# 5 0.000000 0.000000 0.000000 0.000000 0.462212 0.000000
# 6 0.000000 0.000000 0.000000 0.000000 0.000000 0.033518
#
#
# Mechanical properties :
#
#
# Convention : Reuss Voigt Hill
#
# Bulk Modulus (GPa) = 64.98346 68.82967 66.90656
# Shear Modulus (GPa) = 8.29427 23.71749 16.00588
#
# Velocity S-wave (km/s) = 2.04057 3.45061 2.83466
# Velocity P-wave (km/s) = 6.17859 7.10138 6.65600
#
# Compressibility (1/GPa) = 0.01538853
#
# Stress axis : x y z
#
# Youngs Moduli (GPa) = 85.86516 69.50091 79.63354
#
# Poissons Ratio (x) = 0.23362 0.42106
# Poissons Ratio (y) = 0.28863 0.23514
# Poissons Ratio (z) = 0.45401 0.20522
#
# Static dielectric constant tensor:
#      x y z
#    x 3.674490 0.000000 0.000000 
#    y 0.000000 3.596350 0.000000 
#    z 0.000000 0.000000 3.658560 
# 
# 
# High freq. dielectric constant tensor:
#      x y z
#    x 1.778380 0.000000 0.000000 
#    y 0.000000 1.779190 0.000000 
#    z 0.000000 0.000000 1.769030 
# 
# From -- ./inp_files/13989.got.cif
#   From: 2010.03.12/outbox.cif.g09.slc.cpg/sg47_7_cif.got.tgz:13989.got - 2010.04.14 03:12:58.
