data_PCOD8198808
_publ_section_title
;
Structure prediction by ZEFSAII (Michael W. Deem and Ramdas Pophale) SiO2 
 PCOD8198808
Probable space group: P M M M
;
_chemical_formula_sum "Si O2"
_cell_formula_units_Z 44
_cell_length_a 9.196592
_cell_length_b 7.729382
_cell_length_c 31.864077
_cell_angle_alpha 90.000000
_cell_angle_beta 90.000000
_cell_angle_gamma 90.000000
_cell_volume 2265.025178
_symmetry_space_group_name_H-M "P M M M"
_symmetry_group_IT_number 47
_symmetry_cell_setting 'orthorhombic'
loop_
_space_group_symop_operation_xyz
x,y,z
-x,-y,z
x,-y,-z
-x,y,-z
-x,-y,-z
x,y,-z
-x,y,z
x,-y,z
loop_
_atom_site_type_symbol
_atom_site_label
_atom_site_fract_x
_atom_site_fract_y
_atom_site_fract_z
Si Si1 0.337095 0.794832 0.545878
Si Si2 0.665090 0.301681 0.082677
Si Si3 0.828338 0.197001 0.626941
Si Si4 0.827041 0.500000 0.686697
Si Si5 0.832321 0.204190 0.000000
Si Si6 0.166502 0.192249 0.161504
Si Si7 0.827393 0.500000 0.219632
O O1 0.283574 0.726811 0.500000
O O2 0.500000 0.726633 0.554477
O O3 0.233415 0.729287 0.583021
O O4 0.335866 0.000000 0.545297
O O5 0.500000 0.236149 0.075883
O O6 0.667491 0.500000 0.096777
O O7 0.754183 0.281510 0.040260
O O8 0.739594 0.192289 0.119297
O O9 0.772670 0.325484 0.663464
O O10 0.000000 0.202552 0.622962
O O11 0.775401 0.000000 0.636674
O O12 0.760489 0.500000 0.733602
O O13 0.000000 0.500000 0.688297
O O14 0.000000 0.262866 0.000000
O O15 0.817111 0.000000 0.000000
O O16 0.227530 0.328722 0.195376
O O17 0.000000 0.237997 0.149619
O O18 0.177065 0.000000 0.181235
O O19 0.000000 0.500000 0.222738
#
# Coordination Sequence:
#
# PCOD8198808 Si02
#       7
#     8   8   8   4   4   8   4
#     4   8  14  26  45  68  95 129 167 206 250 300
#     4  11  23  38  57  82 113 149 186 222 267 320
#     4   9  17  29  47  71  98 130 168 208 251 302
#     4   9  18  32  50  74 104 133 164 208 262 310
#     4  11  24  39  56  82 114 149 190 230 267 311
#     4  10  20  35  58  85 109 139 180 221 267 320
#     4   9  18  34  55  79 107 135 168 218 267 312
#
# _framework density 19.425833000000001
#
# number of rings (size 3 to 8) (size 9 to 14) (size 15 to 20)
#    0.000    2.455    0.909    2.182    0.000    6.545 
#    0.000    6.364    0.000    4.909    0.000    2.545 
#    0.000    0.000    0.000    0.000    0.000    0.000 
#
# Total GULP energy -545479.610907 kJ/mol
# GULP energy per Si atom -12397.263884 kJ/mol
# Density = 1.938162 g / cm^3
# Si number density = 19.425833 Si / 1000 Ang^3
#
#
#
# Elastic Constant Matrix: (Units=GPa)
#
#
# Indices 1 2 3 4 5 6 
#
# 1 65.2888 27.7126 42.0183 0.0000 0.0000 0.0000
# 2 27.7126 103.3279 60.7989 0.0000 0.0000 0.0000
# 3 42.0183 60.7989 165.6828 0.0000 0.0000 0.0000
# 4 0.0000 0.0000 0.0000 20.8162 0.0000 0.0000
# 5 0.0000 0.0000 0.0000 0.0000 -0.6365 0.0000
# 6 0.0000 0.0000 0.0000 0.0000 0.0000 14.2099
#
#
#
# Elastic Compliance Matrix: (Units=1/GPa)
#
#
# Indices 1 2 3 4 5 6 
#
# 1 0.018951 -0.002876 -0.003751 0.000000 0.000000 0.000000
# 2 -0.002876 0.012779 -0.003960 0.000000 0.000000 0.000000
# 3 -0.003751 -0.003960 0.008440 0.000000 0.000000 0.000000
# 4 0.000000 0.000000 0.000000 0.048040 0.000000 0.000000
# 5 0.000000 0.000000 0.000000 0.000000 -1.571027 0.000000
# 6 0.000000 0.000000 0.000000 0.000000 0.000000 0.070374
#
#
# Mechanical properties :
#
#
# Convention : Reuss Voigt Hill
#
# Bulk Modulus (GPa) = 52.63957 66.15101 59.39529
# Shear Modulus (GPa) = -3.61027 20.46255 8.42614
#
# Velocity S-wave (km/s) = -1.36474 3.24908 2.08495
# Velocity P-wave (km/s) = 4.96721 6.94280 6.03637
#
# Compressibility (1/GPa) = 0.01899712
#
# Stress axis : x y z
#
# Youngs Moduli (GPa) = 52.76725 78.25079 118.48150
#
# Poissons Ratio (x) = 0.22502 0.44441
# Poissons Ratio (y) = 0.15174 0.46922
# Poissons Ratio (z) = 0.19792 0.30989
#
# Static dielectric constant tensor:
#      x y z
#    x 3.406540 0.000000 0.000000 
#    y 0.000000 3.608780 0.000000 
#    z 0.000000 0.000000 3.536180 
# 
# 
# High freq. dielectric constant tensor:
#      x y z
#    x 1.728660 0.000000 0.000000 
#    y 0.000000 1.758730 0.000000 
#    z 0.000000 0.000000 1.753400 
# 
# From -- ./inp_files/33992.got.cif
#   From: 2010.03.12/outbox.cif.g09.slc.cpg/sg47_17_cif.got.tgz:33992.got - 2010.04.14 03:12:58.
