data_PCOD8198733
_publ_section_title
;
Structure prediction by ZEFSAII (Michael W. Deem and Ramdas Pophale) SiO2 
 PCOD8198733
Probable space group: P M M M
;
_chemical_formula_sum "Si O2"
_cell_formula_units_Z 40
_cell_length_a 8.711957
_cell_length_b 9.215595
_cell_length_c 25.781054
_cell_angle_alpha 90.000000
_cell_angle_beta 90.000000
_cell_angle_gamma 90.000000
_cell_volume 2069.854282
_symmetry_space_group_name_H-M "P M M M"
_symmetry_group_IT_number 47
_symmetry_cell_setting 'orthorhombic'
loop_
_space_group_symop_operation_xyz
x,y,z
-x,-y,z
x,-y,-z
-x,y,-z
-x,-y,-z
x,y,-z
-x,y,z
x,-y,z
loop_
_atom_site_type_symbol
_atom_site_label
_atom_site_fract_x
_atom_site_fract_y
_atom_site_fract_z
Si Si1 0.178198 0.329978 0.712591
Si Si2 0.679209 0.833012 0.805386
Si Si3 0.816480 0.161622 0.500000
Si Si4 0.182052 0.339776 0.403367
Si Si5 0.816956 0.164408 0.000000
Si Si6 0.818109 0.663901 0.900223
O O1 0.210488 0.500000 0.721895
O O2 0.282748 0.233214 0.749532
O O3 0.225837 0.284341 0.654109
O O4 0.000000 0.295699 0.723255
O O5 0.500000 0.818519 0.816339
O O6 0.770006 0.743147 0.848082
O O7 0.732653 0.000000 0.807188
O O8 0.750400 0.236895 0.551884
O O9 0.000000 0.165187 0.500000
O O10 0.751933 0.000000 0.500000
O O11 0.250671 0.500000 0.412403
O O12 0.000000 0.347451 0.407533
O O13 0.753009 0.247589 0.050529
O O14 0.000000 0.163248 0.000000
O O15 0.753018 0.000000 0.000000
O O16 0.751904 0.500000 0.901250
O O17 0.000000 0.658957 0.902571
#
# Coordination Sequence:
#
# PCOD8198733 Si02
#       6
#     8   8   4   8   4   8
#     4   9  18  33  53  76  99 127 168 213 254 300
#     4  11  24  38  51  72 103 137 172 210 254 303
#     4   9  15  21  33  59  94 127 158 193 236 288
#     4   8  14  25  41  62  91 125 158 195 242 294
#     4   9  17  31  54  83 112 139 166 200 246 297
#     4  10  20  35  57  83 108 135 170 210 249 293
#
# _framework density 19.325032
#
# number of rings (size 3 to 8) (size 9 to 14) (size 15 to 20)
#    0.000    2.600    0.000    3.600    0.000    8.800 
#    0.000    2.500    0.000    3.000    0.000    0.700 
#    0.000    5.600    0.000    0.000    0.000    0.000 
#
# Total GULP energy -495948.457286 kJ/mol
# GULP energy per Si atom -12398.711432 kJ/mol
# Density = 1.928105 g / cm^3
# Si number density = 19.325032 Si / 1000 Ang^3
#
#
#
# Elastic Constant Matrix: (Units=GPa)
#
#
# Indices 1 2 3 4 5 6 
#
# 1 10.7417 13.7232 6.2707 0.0000 0.0000 0.0000
# 2 13.7232 149.4610 85.6568 0.0000 0.0000 0.0000
# 3 6.2707 85.6568 156.7486 0.0000 0.0000 0.0000
# 4 0.0000 0.0000 0.0000 26.2436 0.0000 0.0000
# 5 0.0000 0.0000 0.0000 0.0000 -1.2679 0.0000
# 6 0.0000 0.0000 0.0000 0.0000 0.0000 17.6816
#
#
#
# Elastic Compliance Matrix: (Units=1/GPa)
#
#
# Indices 1 2 3 4 5 6 
#
# 1 0.105730 -0.010605 0.001566 0.000000 0.000000 0.000000
# 2 -0.010605 0.010805 -0.005480 0.000000 0.000000 0.000000
# 3 0.001566 -0.005480 0.009312 0.000000 0.000000 0.000000
# 4 0.000000 0.000000 0.000000 0.038104 0.000000 0.000000
# 5 0.000000 0.000000 0.000000 0.000000 -0.788675 0.000000
# 6 0.000000 0.000000 0.000000 0.000000 0.000000 0.056556
#
#
# Mechanical properties :
#
#
# Convention : Reuss Voigt Hill
#
# Bulk Modulus (GPa) = 10.32982 58.69475 34.51229
# Shear Modulus (GPa) = -9.86468 22.61814 6.37673
#
# Velocity S-wave (km/s) = -2.26179 3.42483 1.81849
# Velocity P-wave (km/s) = 1.20997 6.78805 4.72301
#
# Compressibility (1/GPa) = 0.09680710
#
# Stress axis : x y z
#
# Youngs Moduli (GPa) = 9.45806 92.54707 107.39020
#
# Poissons Ratio (x) = 0.98148 -0.16813
# Poissons Ratio (y) = 0.10030 0.58854
# Poissons Ratio (z) = -0.01481 0.50720
#
# Static dielectric constant tensor:
#      x y z
#    x 2.948200 0.000000 0.000000 
#    y 0.000000 3.771790 0.000000 
#    z 0.000000 0.000000 3.762830 
# 
# 
# High freq. dielectric constant tensor:
#      x y z
#    x 1.695680 0.000000 0.000000 
#    y 0.000000 1.759570 0.000000 
#    z 0.000000 0.000000 1.770700 
# 
# From -- ./inp_files/13028.got.cif
#   From: 2010.03.12/outbox.cif.g09.slc.cpg/sg47_7_cif.got.tgz:13028.got - 2010.04.14 03:12:58.
