data_PCOD8198633
_publ_section_title
;
Structure prediction by ZEFSAII (Michael W. Deem and Ramdas Pophale) SiO2 
 PCOD8198633
Probable space group: P M M M
;
_chemical_formula_sum "Si O2"
_cell_formula_units_Z 56
_cell_length_a 16.855357
_cell_length_b 9.202769
_cell_length_c 20.471115
_cell_angle_alpha 90.000000
_cell_angle_beta 90.000000
_cell_angle_gamma 90.000000
_cell_volume 3175.396592
_symmetry_space_group_name_H-M "P M M M"
_symmetry_group_IT_number 47
_symmetry_cell_setting 'orthorhombic'
loop_
_space_group_symop_operation_xyz
x,y,z
-x,-y,z
x,-y,-z
-x,y,-z
-x,-y,-z
x,y,-z
-x,y,z
x,-y,z
loop_
_atom_site_type_symbol
_atom_site_label
_atom_site_fract_x
_atom_site_fract_y
_atom_site_fract_z
Si Si1 0.590094 0.332118 0.268181
Si Si2 0.166831 0.330768 0.424781
Si Si3 0.411653 0.330485 0.117512
Si Si4 0.263101 0.828837 0.317129
Si Si5 0.000000 0.673279 0.774451
Si Si6 0.264415 0.166520 0.927413
Si Si7 0.000000 0.671624 0.625342
Si Si8 0.842148 0.171432 0.808004
O O1 0.500000 0.304049 0.291613
O O2 0.613099 0.500000 0.278606
O O3 0.599440 0.287948 0.192892
O O4 0.648171 0.231576 0.309896
O O5 0.188266 0.305782 0.500000
O O6 0.172746 0.500000 0.405356
O O7 0.228257 0.240211 0.382423
O O8 0.078235 0.269961 0.411096
O O9 0.500000 0.286065 0.094315
O O10 0.398440 0.500000 0.107386
O O11 0.347947 0.248131 0.074100
O O12 0.209703 0.784527 0.254951
O O13 0.267305 0.000000 0.325721
O O14 0.923037 0.738695 0.809075
O O15 0.000000 0.500000 0.781029
O O16 0.000000 0.726544 0.699633
O O17 0.203379 0.224641 0.873131
O O18 0.283041 0.000000 0.911810
O O19 0.227578 0.186941 0.000000
O O20 0.000000 0.500000 0.622165
O O21 0.860671 0.000000 0.809020
#
# Coordination Sequence:
#
# PCOD8198633 Si02
#       8
#     8   8   8   8   4   8   4   8
#     4   9  18  33  54  80 108 139 178 222 266 315
#     4  10  20  35  55  79 111 148 181 215 259 315
#     4   9  18  32  51  77 109 142 174 216 271 323
#     4  11  21  33  54  81 110 143 179 220 265 312
#     4  11  21  34  58  84 104 134 175 223 269 310
#     4  10  21  37  55  75 103 142 185 224 265 318
#     4   9  17  31  52  80 108 136 174 213 254 306
#     4  10  21  37  54  77 107 139 176 221 269 317
#
# _framework density 17.635593
#
# number of rings (size 3 to 8) (size 9 to 14) (size 15 to 20)
#    0.000    2.143    2.857    1.714    0.000    3.429 
#    0.000    3.571    0.000    3.429    0.000    3.000 
#    0.000    0.000    0.000    0.000    0.000    0.000 
#
# Total GULP energy -694481.829195 kJ/mol
# GULP energy per Si atom -12401.461236 kJ/mol
# Density = 1.759545 g / cm^3
# Si number density = 17.635593 Si / 1000 Ang^3
#
#
#
# Elastic Constant Matrix: (Units=GPa)
#
#
# Indices 1 2 3 4 5 6 
#
# 1 119.0134 51.2990 57.5174 0.0000 0.0000 0.0000
# 2 51.2990 58.3752 41.8491 0.0000 0.0000 0.0000
# 3 57.5174 41.8491 101.2105 0.0000 0.0000 0.0000
# 4 0.0000 0.0000 0.0000 24.7345 0.0000 0.0000
# 5 0.0000 0.0000 0.0000 0.0000 24.3117 0.0000
# 6 0.0000 0.0000 0.0000 0.0000 0.0000 29.7427
#
#
#
# Elastic Compliance Matrix: (Units=1/GPa)
#
#
# Indices 1 2 3 4 5 6 
#
# 1 0.014729 -0.009868 -0.004290 0.000000 0.000000 0.000000
# 2 -0.009868 0.030959 -0.007193 0.000000 0.000000 0.000000
# 3 -0.004290 -0.007193 0.015293 0.000000 0.000000 0.000000
# 4 0.000000 0.000000 0.000000 0.040429 0.000000 0.000000
# 5 0.000000 0.000000 0.000000 0.000000 0.041132 0.000000
# 6 0.000000 0.000000 0.000000 0.000000 0.000000 0.033622
#
#
# Mechanical properties :
#
#
# Convention : Reuss Voigt Hill
#
# Bulk Modulus (GPa) = 54.70996 64.43669 59.57333
# Shear Modulus (GPa) = 22.22605 24.28668 23.25636
#
# Velocity S-wave (km/s) = 3.55391 3.71501 3.63535
# Velocity P-wave (km/s) = 6.92317 7.41747 7.17458
#
# Compressibility (1/GPa) = 0.01827821
#
# Stress axis : x y z
#
# Youngs Moduli (GPa) = 67.89143 32.30039 65.39018
#
# Poissons Ratio (x) = 0.31875 0.28054
# Poissons Ratio (y) = 0.66997 0.47036
# Poissons Ratio (z) = 0.29127 0.23234
#
# Static dielectric constant tensor:
#      x y z
#    x 3.299750 0.000000 0.000000 
#    y 0.000000 3.122820 0.000000 
#    z 0.000000 0.000000 3.190100 
# 
# 
# High freq. dielectric constant tensor:
#      x y z
#    x 1.682890 0.000000 0.000000 
#    y 0.000000 1.672340 0.000000 
#    z 0.000000 0.000000 1.670560 
# 
# From -- ./inp_files/31044.got.cif
#   From: 2010.03.12/outbox.cif.g09.slc.cpg/sg47_16_cif.got.tgz:31044.got - 2010.04.14 03:12:58.
