data_PCOD8198036
_publ_section_title
;
Structure prediction by ZEFSAII (Michael W. Deem and Ramdas Pophale) SiO2 
 PCOD8198036
Probable space group: P M M M
;
_chemical_formula_sum "Si O2"
_cell_formula_units_Z 64
_cell_length_a 19.939482
_cell_length_b 19.939788
_cell_length_c 8.882225
_cell_angle_alpha 90.000000
_cell_angle_beta 90.000000
_cell_angle_gamma 90.000000
_cell_volume 3531.475346
_symmetry_space_group_name_H-M "P M M M"
_symmetry_group_IT_number 47
_symmetry_cell_setting 'orthorhombic'
loop_
_space_group_symop_operation_xyz
x,y,z
-x,-y,z
x,-y,-z
-x,y,-z
-x,-y,-z
x,y,-z
-x,y,z
x,-y,z
loop_
_atom_site_type_symbol
_atom_site_label
_atom_site_fract_x
_atom_site_fract_y
_atom_site_fract_z
Si Si1 0.676323 0.823673 0.176812
Si Si2 0.577544 0.922459 0.672079
Si Si3 0.179445 0.320552 0.677311
Si Si4 0.074751 0.574750 0.320627
Si Si5 0.422149 0.576702 0.826902
Si Si6 0.076703 0.077851 0.826905
Si Si7 0.329566 0.683453 0.677075
Si Si8 0.816546 0.170433 0.322927
O O1 0.621011 0.878985 0.213924
O O2 0.651354 0.752993 0.243602
O O3 0.747006 0.848640 0.243593
O O4 0.683973 0.816020 0.000000
O O5 0.595773 0.904227 0.500000
O O6 0.500000 0.906767 0.703616
O O7 0.593251 0.000000 0.703614
O O8 0.173046 0.326961 0.500000
O O9 0.127284 0.372712 0.752343
O O10 0.254918 0.338609 0.728207
O O11 0.161382 0.245079 0.728191
O O12 0.076987 0.577003 0.500000
O O13 0.093786 0.500000 0.265017
O O14 0.000000 0.593762 0.264981
O O15 0.500000 0.590543 0.796362
O O16 0.404379 0.500000 0.786425
O O17 0.380278 0.624987 0.720232
O O18 0.404371 0.591607 0.000000
O O19 0.124990 0.119717 0.720230
O O20 0.000000 0.095596 0.786374
O O21 0.090567 0.000000 0.796437
O O22 0.091584 0.095659 0.000000
O O23 0.332689 0.696275 0.500000
O O24 0.803720 0.167305 0.500000
#
# Coordination Sequence:
#
# PCOD8198036 Si02
#       8
#     8   8   8   8   8   8   8   8
#     4  11  22  36  55  77 105 141 176 212 257 311
#     4   9  19  37  59  81 106 135 167 208 257 304
#     4   8  16  29  43  65  98 129 160 203 249 291
#     4   8  13  22  38  61  91 127 161 191 230 284
#     4   9  19  36  55  75 102 135 171 213 260 312
#     4   9  19  36  55  75 102 135 171 213 260 312
#     4  10  20  34  52  75 103 134 171 216 261 305
#     4  10  20  34  52  75 103 134 171 216 261 305
#
# _framework density 18.122737000000001
#
# number of rings (size 3 to 8) (size 9 to 14) (size 15 to 20)
#    0.000    2.750    0.000    4.125    0.000    3.500 
#    0.000    4.375    0.000    0.000    0.000    0.000 
#    0.000    0.000    0.000   49.500    0.000   44.500 
#
# Total GULP energy -793536.728015 kJ/mol
# GULP energy per Si atom -12399.011375 kJ/mol
# Density = 1.808149 g / cm^3
# Si number density = 18.122737 Si / 1000 Ang^3
#
#
#
# Elastic Constant Matrix: (Units=GPa)
#
#
# Indices 1 2 3 4 5 6 
#
# 1 105.5249 80.4698 45.5786 0.0000 0.0000 0.0000
# 2 80.4698 105.5690 45.5874 0.0000 0.0000 0.0000
# 3 45.5786 45.5874 80.4693 0.0000 0.0000 0.0000
# 4 0.0000 0.0000 0.0000 25.9179 0.0000 0.0000
# 5 0.0000 0.0000 0.0000 0.0000 25.9165 0.0000
# 6 0.0000 0.0000 0.0000 0.0000 0.0000 41.8459
#
#
#
# Elastic Compliance Matrix: (Units=1/GPa)
#
#
# Indices 1 2 3 4 5 6 
#
# 1 0.023664 -0.016217 -0.004216 0.000000 0.000000 0.000000
# 2 -0.016217 0.023654 -0.004215 0.000000 0.000000 0.000000
# 3 -0.004216 -0.004215 0.017203 0.000000 0.000000 0.000000
# 4 0.000000 0.000000 0.000000 0.038583 0.000000 0.000000
# 5 0.000000 0.000000 0.000000 0.000000 0.038585 0.000000
# 6 0.000000 0.000000 0.000000 0.000000 0.000000 0.023897
#
#
# Mechanical properties :
#
#
# Convention : Reuss Voigt Hill
#
# Bulk Modulus (GPa) = 65.68338 70.53720 68.11029
# Shear Modulus (GPa) = 22.73142 26.73123 24.73132
#
# Velocity S-wave (km/s) = 3.54546 3.84475 3.69813
# Velocity P-wave (km/s) = 7.28579 7.66263 7.47658
#
# Compressibility (1/GPa) = 0.01522455
#
# Stress axis : x y z
#
# Youngs Moduli (GPa) = 42.25748 42.27558 58.12932
#
# Poissons Ratio (x) = 0.68560 0.24509
# Poissons Ratio (y) = 0.68531 0.24501
# Poissons Ratio (z) = 0.17817 0.17819
#
# Static dielectric constant tensor:
#      x y z
#    x 3.444880 0.000000 0.000000 
#    y 0.000000 3.444860 0.000000 
#    z 0.000000 0.000000 3.059180 
# 
# 
# High freq. dielectric constant tensor:
#      x y z
#    x 1.705900 0.000000 0.000000 
#    y 0.000000 1.705900 0.000000 
#    z 0.000000 0.000000 1.679080 
# 
# From -- ./inp_files/11604.got.cif
#   From: 2010.03.12/outbox.cif.g09.slc.cpg/sg47_6_cif.got.tgz:11604.got - 2010.04.14 03:12:58.
