data_PCOD8198911
_publ_section_title
;
Structure prediction by ZEFSAII (Michael W. Deem and Ramdas Pophale) SiO2 
 PCOD8198911
Probable space group: P M M M
;
_chemical_formula_sum "Si O2"
_cell_formula_units_Z 37
_cell_length_a 17.562191
_cell_length_b 11.589256
_cell_length_c 9.364190
_cell_angle_alpha 90.000000
_cell_angle_beta 90.000000
_cell_angle_gamma 90.000000
_cell_volume 1905.919131
_symmetry_space_group_name_H-M "P M M M"
_symmetry_group_IT_number 47
_symmetry_cell_setting 'orthorhombic'
loop_
_space_group_symop_operation_xyz
x,y,z
-x,-y,z
x,-y,-z
-x,y,-z
-x,-y,-z
x,y,-z
-x,y,z
x,-y,z
loop_
_atom_site_type_symbol
_atom_site_label
_atom_site_fract_x
_atom_site_fract_y
_atom_site_fract_z
Si Si1 0.844670 0.500000 0.831347
Si Si2 0.500000 0.000000 0.000000
Si Si3 0.087737 0.261754 0.831918
Si Si4 0.669565 0.500000 0.830443
Si Si5 0.210670 0.868203 0.665926
Si Si6 0.355381 0.721681 0.337573
Si Si7 0.500000 0.875170 0.282894
O O1 0.886586 0.613432 0.771283
O O2 0.757454 0.500000 0.781874
O O3 0.851412 0.500000 0.000000
O O4 0.500000 0.105451 0.886830
O O5 0.135614 0.162786 0.754744
O O6 0.000000 0.241728 0.794343
O O7 0.103115 0.253154 0.000000
O O8 0.629796 0.612851 0.764929
O O9 0.658945 0.500000 0.000000
O O10 0.192926 0.849234 0.500000
O O11 0.280936 0.789912 0.717690
O O12 0.232682 0.000000 0.698638
O O13 0.343659 0.678939 0.500000
O O14 0.426116 0.806326 0.331469
O O15 0.500000 0.000000 0.362547
#
# Coordination Sequence:
#
# PCOD8198911 Si02
#       7
#     4   1   8   4   8   8   4
#     4   9  17  35  57  86 114 152 192 240 300 356
#     4   8  24  44  62 102 132 156 196 264 306 344
#     4  10  20  36  59  86 115 150 198 250 300 358
#     4  11  23  37  64  91 124 160 198 249 309 365
#     4  10  22  39  58  83 116 157 199 244 298 357
#     4  11  23  41  65  91 123 159 206 251 298 360
#     4  10  23  43  67  92 126 161 202 248 297 351
#
# _framework density 19.413205999999999
#
# number of rings (size 3 to 8) (size 9 to 14) (size 15 to 20)
#    0.324    1.514    2.162    1.622    1.514    4.757 
#    0.000    4.324    0.000    1.297    0.000    0.000 
#    0.000    0.000    0.000    0.000    0.000    0.000 
#
# Total GULP energy -458375.716016 kJ/mol
# GULP energy per Si atom -12388.532865 kJ/mol
# Density = 1.936902 g / cm^3
# Si number density = 19.413206 Si / 1000 Ang^3
#
#
#
# Elastic Constant Matrix: (Units=GPa)
#
#
# Indices 1 2 3 4 5 6 
#
# 1 107.4436 52.8084 29.5250 0.0000 0.0000 0.0000
# 2 52.8084 137.8700 45.5115 0.0000 0.0000 0.0000
# 3 29.5250 45.5115 68.6540 0.0000 0.0000 0.0000
# 4 0.0000 0.0000 0.0000 32.4738 0.0000 0.0000
# 5 0.0000 0.0000 0.0000 0.0000 17.5073 0.0000
# 6 0.0000 0.0000 0.0000 0.0000 0.0000 25.0418
#
#
#
# Elastic Compliance Matrix: (Units=1/GPa)
#
#
# Indices 1 2 3 4 5 6 
#
# 1 0.011836 -0.003652 -0.002669 0.000000 0.000000 0.000000
# 2 -0.003652 0.010412 -0.005332 0.000000 0.000000 0.000000
# 3 -0.002669 -0.005332 0.019248 0.000000 0.000000 0.000000
# 4 0.000000 0.000000 0.000000 0.030794 0.000000 0.000000
# 5 0.000000 0.000000 0.000000 0.000000 0.057119 0.000000
# 6 0.000000 0.000000 0.000000 0.000000 0.000000 0.039933
#
#
# Mechanical properties :
#
#
# Convention : Reuss Voigt Hill
#
# Bulk Modulus (GPa) = 54.97474 63.29527 59.13500
# Shear Modulus (GPa) = 25.16214 27.41276 26.28745
#
# Velocity S-wave (km/s) = 3.60409 3.76183 3.68380
# Velocity P-wave (km/s) = 6.76010 7.17938 6.97289
#
# Compressibility (1/GPa) = 0.01819017
#
# Stress axis : x y z
#
# Youngs Moduli (GPa) = 84.48974 96.04112 51.95377
#
# Poissons Ratio (x) = 0.35079 0.13865
# Poissons Ratio (y) = 0.30860 0.27700
# Poissons Ratio (z) = 0.22548 0.51205
#
# Static dielectric constant tensor:
#      x y z
#    x 3.604540 0.000000 0.000000 
#    y 0.000000 3.624970 0.000000 
#    z 0.000000 0.000000 3.393700 
# 
# 
# High freq. dielectric constant tensor:
#      x y z
#    x 1.748920 0.000000 0.000000 
#    y 0.000000 1.767590 0.000000 
#    z 0.000000 0.000000 1.748190 
# 
# From -- ./inp_files/8710.got.cif
#   From: 2010.03.12/outbox.cif.g09.slc.cpg/sg47_5_cif.got.tgz:8710.got - 2010.04.14 03:12:58.
