data_PCOD8198230
_publ_section_title
;
Structure prediction by ZEFSAII (Michael W. Deem and Ramdas Pophale) SiO2 
 PCOD8198230
Probable space group: P M M M
;
_chemical_formula_sum "Si O2"
_cell_formula_units_Z 40
_cell_length_a 20.248926
_cell_length_b 9.103399
_cell_length_c 11.974447
_cell_angle_alpha 90.000000
_cell_angle_beta 90.000000
_cell_angle_gamma 90.000000
_cell_volume 2207.298344
_symmetry_space_group_name_H-M "P M M M"
_symmetry_group_IT_number 47
_symmetry_cell_setting 'orthorhombic'
loop_
_space_group_symop_operation_xyz
x,y,z
-x,-y,z
x,-y,-z
-x,y,-z
-x,-y,-z
x,y,-z
-x,y,z
x,-y,z
loop_
_atom_site_type_symbol
_atom_site_label
_atom_site_fract_x
_atom_site_fract_y
_atom_site_fract_z
Si Si1 0.195276 0.673180 0.710033
Si Si2 0.251075 0.836041 0.500000
Si Si3 0.405424 0.837489 0.500000
Si Si4 0.074894 0.829047 0.628532
Si Si5 0.308168 0.673639 0.124234
Si Si6 0.573021 0.331140 0.724351
O O1 0.190664 0.500000 0.692804
O O2 0.232149 0.745455 0.607640
O O3 0.121202 0.739560 0.714483
O O4 0.237841 0.714668 0.819486
O O5 0.328073 0.851738 0.500000
O O6 0.218340 0.000000 0.500000
O O7 0.429924 0.753474 0.608579
O O8 0.436917 0.000000 0.500000
O O9 0.097474 0.799903 0.500000
O O10 0.000000 0.774042 0.645090
O O11 0.080007 0.000000 0.656946
O O12 0.315698 0.500000 0.116723
O O13 0.370847 0.736496 0.193749
O O14 0.308854 0.742853 0.000000
O O15 0.500000 0.318322 0.780541
O O16 0.590827 0.500000 0.698293
#
# Coordination Sequence:
#
# PCOD8198230 Si02
#       6
#     8   4   4   8   8   8
#     4  11  20  31  53  80 105 134 171 216 258 301
#     4  11  21  32  49  74 104 139 172 206 257 314
#     4  11  22  34  51  75 107 141 170 207 258 318
#     4   9  18  32  50  75 110 146 171 199 247 306
#     4   9  19  35  53  75 103 134 172 219 266 306
#     4  10  20  34  54  78 104 135 172 215 260 310
#
# _framework density 18.121701000000002
#
# number of rings (size 3 to 8) (size 9 to 14) (size 15 to 20)
#    0.000    2.000    3.000    2.100    0.000    3.200 
#    0.000    3.000    0.000    6.000    0.000    5.600 
#    0.000    0.000    0.000    0.000    0.000    0.000 
#
# Total GULP energy -495845.658391 kJ/mol
# GULP energy per Si atom -12396.141460 kJ/mol
# Density = 1.808045 g / cm^3
# Si number density = 18.121701 Si / 1000 Ang^3
#
#
#
# Elastic Constant Matrix: (Units=GPa)
#
#
# Indices 1 2 3 4 5 6 
#
# 1 133.3739 42.8989 60.2023 0.0000 0.0000 0.0000
# 2 42.8989 68.5328 39.4959 0.0000 0.0000 0.0000
# 3 60.2023 39.4959 120.9962 0.0000 0.0000 0.0000
# 4 0.0000 0.0000 0.0000 8.1605 0.0000 0.0000
# 5 0.0000 0.0000 0.0000 0.0000 22.8880 0.0000
# 6 0.0000 0.0000 0.0000 0.0000 0.0000 21.9484
#
#
#
# Elastic Compliance Matrix: (Units=1/GPa)
#
#
# Indices 1 2 3 4 5 6 
#
# 1 0.010672 -0.004459 -0.003854 0.000000 0.000000 0.000000
# 2 -0.004459 0.019836 -0.004256 0.000000 0.000000 0.000000
# 3 -0.003854 -0.004256 0.011572 0.000000 0.000000 0.000000
# 4 0.000000 0.000000 0.000000 0.122542 0.000000 0.000000
# 5 0.000000 0.000000 0.000000 0.000000 0.043691 0.000000
# 6 0.000000 0.000000 0.000000 0.000000 0.000000 0.045561
#
#
# Mechanical properties :
#
#
# Convention : Reuss Voigt Hill
#
# Bulk Modulus (GPa) = 59.03098 67.56635 63.29867
# Shear Modulus (GPa) = 17.56492 22.61976 20.09234
#
# Velocity S-wave (km/s) = 3.11670 3.53684 3.33339
# Velocity P-wave (km/s) = 6.75257 7.35151 7.05840
#
# Compressibility (1/GPa) = 0.01694026
#
# Stress axis : x y z
#
# Youngs Moduli (GPa) = 93.70666 50.41466 86.41719
#
# Poissons Ratio (x) = 0.22479 0.33308
# Poissons Ratio (y) = 0.41782 0.36781
# Poissons Ratio (z) = 0.36117 0.21458
#
# Static dielectric constant tensor:
#      x y z
#    x 3.703780 0.000000 0.000000 
#    y 0.000000 3.270150 0.000000 
#    z 0.000000 0.000000 3.227040 
# 
# 
# High freq. dielectric constant tensor:
#      x y z
#    x 1.724860 0.000000 0.000000 
#    y 0.000000 1.684740 0.000000 
#    z 0.000000 0.000000 1.669500 
# 
# From -- ./inp_files/18934.got.cif
#   From: 2010.03.12/outbox.cif.g09.slc.cpg/sg47_10_cif.got.tgz:18934.got - 2010.04.14 03:12:58.
