data_PCOD8198067
_publ_section_title
;
Structure prediction by ZEFSAII (Michael W. Deem and Ramdas Pophale) SiO2 
 PCOD8198067
Probable space group: P M M M
;
_chemical_formula_sum "Si O2"
_cell_formula_units_Z 64
_cell_length_a 25.487831
_cell_length_b 14.395387
_cell_length_c 9.421217
_cell_angle_alpha 90.000000
_cell_angle_beta 90.000000
_cell_angle_gamma 90.000000
_cell_volume 3456.712266
_symmetry_space_group_name_H-M "P M M M"
_symmetry_group_IT_number 47
_symmetry_cell_setting 'orthorhombic'
loop_
_space_group_symop_operation_xyz
x,y,z
-x,-y,z
x,-y,-z
-x,y,-z
-x,-y,-z
x,y,-z
-x,y,z
x,-y,z
loop_
_atom_site_type_symbol
_atom_site_label
_atom_site_fract_x
_atom_site_fract_y
_atom_site_fract_z
Si Si1 0.712857 0.897460 0.838503
Si Si2 0.754327 0.296593 0.165879
Si Si3 0.941104 0.727222 0.663236
Si Si4 0.339704 0.609031 0.665973
Si Si5 0.391242 0.897319 0.334281
Si Si6 0.442843 0.288112 0.332133
Si Si7 0.844246 0.393038 0.336088
Si Si8 0.062383 0.101628 0.840825
O O1 0.754714 0.815296 0.811916
O O2 0.663531 0.878091 0.740283
O O3 0.737522 0.000000 0.806047
O O4 0.692703 0.893356 0.000000
O O5 0.704312 0.341434 0.241604
O O6 0.807028 0.333982 0.235593
O O7 0.753102 0.323209 0.000000
O O8 0.942624 0.755418 0.500000
O O9 0.904155 0.638661 0.690022
O O10 0.916073 0.816194 0.742392
O O11 0.000000 0.702423 0.717229
O O12 0.331361 0.633592 0.500000
O O13 0.336030 0.500000 0.692247
O O14 0.396578 0.644182 0.721454
O O15 0.379573 0.888497 0.500000
O O16 0.432109 0.818588 0.285393
O O17 0.413540 0.000000 0.296131
O O18 0.445585 0.295359 0.500000
O O19 0.500000 0.317055 0.268655
O O20 0.827810 0.378038 0.500000
O O21 0.839891 0.500000 0.292768
O O22 0.000000 0.102612 0.837046
O O23 0.082342 0.000000 0.788244
O O24 0.082852 0.119590 0.000000
#
# Coordination Sequence:
#
# PCOD8198067 Si02
#       8
#     8   8   8   8   8   8   8   8
#     4   9  18  33  53  76 102 132 165 203 252 307
#     4  11  22  36  57  81 104 132 169 215 260 307
#     4   9  18  33  54  80 108 139 176 217 260 306
#     4  10  20  34  53  75 100 134 175 218 264 311
#     4   9  16  27  47  74 101 131 167 207 252 303
#     4   9  17  29  46  72 105 136 169 212 258 307
#     4  10  22  39  57  78 106 139 173 213 261 310
#     4   8  14  26  46  73 105 141 178 212 249 298
#
# _framework density 18.514702
#
# number of rings (size 3 to 8) (size 9 to 14) (size 15 to 20)
#    0.000    2.625    1.250    1.125    0.000    4.000 
#    0.000    5.625    0.000    3.750    0.000    5.250 
#    0.000    0.000    0.000    0.000    0.000    0.000 
#
# Total GULP energy -793224.256757 kJ/mol
# GULP energy per Si atom -12394.129012 kJ/mol
# Density = 1.847256 g / cm^3
# Si number density = 18.514702 Si / 1000 Ang^3
#
#
#
# Elastic Constant Matrix: (Units=GPa)
#
#
# Indices 1 2 3 4 5 6 
#
# 1 95.6542 56.8508 38.9532 0.0000 0.0000 0.0000
# 2 56.8508 111.8168 43.5026 0.0000 0.0000 0.0000
# 3 38.9532 43.5026 55.8930 0.0000 0.0000 0.0000
# 4 0.0000 0.0000 0.0000 24.3553 0.0000 0.0000
# 5 0.0000 0.0000 0.0000 0.0000 3.3784 0.0000
# 6 0.0000 0.0000 0.0000 0.0000 0.0000 25.6072
#
#
#
# Elastic Compliance Matrix: (Units=1/GPa)
#
#
# Indices 1 2 3 4 5 6 
#
# 1 0.016813 -0.005722 -0.007264 0.000000 0.000000 0.000000
# 2 -0.005722 0.014775 -0.007512 0.000000 0.000000 0.000000
# 3 -0.007264 -0.007512 0.028800 0.000000 0.000000 0.000000
# 4 0.000000 0.000000 0.000000 0.041059 0.000000 0.000000
# 5 0.000000 0.000000 0.000000 0.000000 0.296000 0.000000
# 6 0.000000 0.000000 0.000000 0.000000 0.000000 0.039052
#
#
# Mechanical properties :
#
#
# Convention : Reuss Voigt Hill
#
# Bulk Modulus (GPa) = 51.56534 60.21968 55.89251
# Shear Modulus (GPa) = 10.33146 18.93866 14.63506
#
# Velocity S-wave (km/s) = 2.36479 3.20175 2.81456
# Velocity P-wave (km/s) = 5.94709 6.80178 6.38874
#
# Compressibility (1/GPa) = 0.01939287
#
# Stress axis : x y z
#
# Youngs Moduli (GPa) = 59.47640 67.68169 34.72208
#
# Poissons Ratio (x) = 0.38730 0.25222
# Poissons Ratio (y) = 0.34035 0.26082
# Poissons Ratio (z) = 0.43203 0.50840
#
# Static dielectric constant tensor:
#      x y z
#    x 3.375550 0.000000 0.000000 
#    y 0.000000 3.758720 0.000000 
#    z 0.000000 0.000000 3.330730 
# 
# 
# High freq. dielectric constant tensor:
#      x y z
#    x 1.698510 0.000000 0.000000 
#    y 0.000000 1.731720 0.000000 
#    z 0.000000 0.000000 1.698610 
# 
# From -- ./inp_files/12724.got.cif
#   From: 2010.03.12/outbox.cif.g09.slc.cpg/sg47_7_cif.got.tgz:12724.got - 2010.04.14 03:12:58.
