data_PCOD8198096
_publ_section_title
;
Structure prediction by ZEFSAII (Michael W. Deem and Ramdas Pophale) SiO2 
 PCOD8198096
Probable space group: P M M M
;
_chemical_formula_sum "Si O2"
_cell_formula_units_Z 48
_cell_length_a 8.656850
_cell_length_b 9.164599
_cell_length_c 30.733802
_cell_angle_alpha 90.000000
_cell_angle_beta 90.000000
_cell_angle_gamma 90.000000
_cell_volume 2438.314091
_symmetry_space_group_name_H-M "P M M M"
_symmetry_group_IT_number 47
_symmetry_cell_setting 'orthorhombic'
loop_
_space_group_symop_operation_xyz
x,y,z
-x,-y,z
x,-y,-z
-x,y,-z
-x,-y,-z
x,y,-z
-x,y,z
x,-y,z
loop_
_atom_site_type_symbol
_atom_site_label
_atom_site_fract_x
_atom_site_fract_y
_atom_site_fract_z
Si Si1 0.819886 0.332032 0.793834
Si Si2 0.317221 0.836317 0.286329
Si Si3 0.320811 0.830981 0.873265
Si Si4 0.316301 0.836057 0.452073
Si Si5 0.821242 0.667722 0.050047
Si Si6 0.315526 0.663913 0.369721
O O1 0.767537 0.500000 0.795057
O O2 0.727244 0.251125 0.756375
O O3 0.782085 0.259681 0.839805
O O4 0.000000 0.316905 0.784258
O O5 0.500000 0.843062 0.289130
O O6 0.250580 0.756017 0.329045
O O7 0.248487 0.000000 0.284307
O O8 0.500000 0.807924 0.862307
O O9 0.285447 0.773044 0.921481
O O10 0.274811 0.000000 0.870184
O O11 0.261927 0.781448 0.500000
O O12 0.500000 0.835643 0.450057
O O13 0.249065 0.731767 0.414527
O O14 0.255584 0.000000 0.443829
O O15 0.784039 0.500000 0.061451
O O16 0.000000 0.701242 0.059707
O O17 0.781823 0.700129 0.000000
O O18 0.500000 0.665589 0.369965
O O19 0.251986 0.500000 0.365585
#
# Coordination Sequence:
#
# PCOD8198096 Si02
#       6
#     8   8   8   8   8   8
#     4  11  24  40  58  80 105 134 171 215 262 313
#     4  10  20  34  53  76 102 133 170 211 256 309
#     4  11  24  39  56  82 114 145 179 219 262 310
#     4   8  13  21  33  51  80 120 163 205 250 301
#     4   9  19  37  60  85 113 146 185 226 266 310
#     4   9  16  25  39  61  90 125 164 206 253 304
#
# _framework density 19.685735000000001
#
# number of rings (size 3 to 8) (size 9 to 14) (size 15 to 20)
#    0.000    2.333    0.000    4.000    0.000   11.000 
#    0.000    4.167    0.000    0.000    0.000    0.000 
#    0.000    0.667    0.000    7.000    0.000    9.667 
#
# Total GULP energy -595237.001444 kJ/mol
# GULP energy per Si atom -12400.770863 kJ/mol
# Density = 1.964093 g / cm^3
# Si number density = 19.685735 Si / 1000 Ang^3
#
#
#
# Elastic Constant Matrix: (Units=GPa)
#
#
# Indices 1 2 3 4 5 6 
#
# 1 15.8453 20.9434 9.2396 0.0000 0.0000 0.0000
# 2 20.9434 154.0145 73.3140 0.0000 0.0000 0.0000
# 3 9.2396 73.3140 132.4592 0.0000 0.0000 0.0000
# 4 0.0000 0.0000 0.0000 43.7422 0.0000 0.0000
# 5 0.0000 0.0000 0.0000 0.0000 -1.1133 0.0000
# 6 0.0000 0.0000 0.0000 0.0000 0.0000 19.5301
#
#
#
# Elastic Compliance Matrix: (Units=1/GPa)
#
#
# Indices 1 2 3 4 5 6 
#
# 1 0.076971 -0.010741 0.000576 0.000000 0.000000 0.000000
# 2 -0.010741 0.010314 -0.004960 0.000000 0.000000 0.000000
# 3 0.000576 -0.004960 0.010254 0.000000 0.000000 0.000000
# 4 0.000000 0.000000 0.000000 0.022861 0.000000 0.000000
# 5 0.000000 0.000000 0.000000 0.000000 -0.898197 0.000000
# 6 0.000000 0.000000 0.000000 0.000000 0.000000 0.051203
#
#
# Mechanical properties :
#
#
# Convention : Reuss Voigt Hill
#
# Bulk Modulus (GPa) = 14.86089 56.59032 35.72561
# Shear Modulus (GPa) = -7.41935 25.68658 9.13361
#
# Velocity S-wave (km/s) = -1.94347 3.61616 2.15634
# Velocity P-wave (km/s) = 1.59039 6.80035 4.93833
#
# Compressibility (1/GPa) = 0.06729071
#
# Stress axis : x y z
#
# Youngs Moduli (GPa) = 12.99185 96.95237 97.51926
#
# Poissons Ratio (x) = 1.04136 -0.05615
# Poissons Ratio (y) = 0.13954 0.48366
# Poissons Ratio (z) = -0.00748 0.48084
#
# Static dielectric constant tensor:
#      x y z
#    x 3.099070 0.000000 0.000000 
#    y 0.000000 3.784930 0.000000 
#    z 0.000000 0.000000 3.779410 
# 
# 
# High freq. dielectric constant tensor:
#      x y z
#    x 1.720700 0.000000 0.000000 
#    y 0.000000 1.776100 0.000000 
#    z 0.000000 0.000000 1.784530 
# 
# From -- ./inp_files/2427.got.cif
#   From: 2010.03.12/outbox.cif.g09.slc.cpg/sg47_2_cif.got.tgz:2427.got - 2010.04.14 03:12:58.
