data_PCOD8198064
_publ_section_title
;
Structure prediction by ZEFSAII (Michael W. Deem and Ramdas Pophale) SiO2 
 PCOD8198064
Probable space group: P M M M
;
_chemical_formula_sum "Si O2"
_cell_formula_units_Z 40
_cell_length_a 8.924414
_cell_length_b 25.632926
_cell_length_c 9.221928
_cell_angle_alpha 90.000000
_cell_angle_beta 90.000000
_cell_angle_gamma 90.000000
_cell_volume 2109.597586
_symmetry_space_group_name_H-M "P M M M"
_symmetry_group_IT_number 47
_symmetry_cell_setting 'orthorhombic'
loop_
_space_group_symop_operation_xyz
x,y,z
-x,-y,z
x,-y,-z
-x,y,-z
-x,-y,-z
x,y,-z
-x,y,z
x,-y,z
loop_
_atom_site_type_symbol
_atom_site_label
_atom_site_fract_x
_atom_site_fract_y
_atom_site_fract_z
Si Si1 0.177824 0.743800 0.834852
Si Si2 0.172874 0.439669 0.833635
Si Si3 0.821275 0.844444 0.662975
Si Si4 0.675618 0.350571 0.667105
Si Si5 0.178216 0.057555 0.162902
O O1 0.238658 0.795424 0.754631
O O2 0.240196 0.693276 0.756905
O O3 0.000000 0.741348 0.828236
O O4 0.234994 0.745274 0.000000
O O5 0.207431 0.500000 0.803580
O O6 0.277823 0.406858 0.727651
O O7 0.000000 0.426893 0.800371
O O8 0.209630 0.425439 0.000000
O O9 0.759094 0.839720 0.500000
O O10 0.756223 0.897816 0.732204
O O11 0.000000 0.845429 0.664029
O O12 0.724141 0.346574 0.500000
O O13 0.500000 0.343001 0.686579
O O14 0.000000 0.060123 0.163135
O O15 0.230717 0.000000 0.216346
O O16 0.237037 0.067771 0.000000
#
# Coordination Sequence:
#
# PCOD8198064 Si02
#       5
#     8   8   8   8   8
#     4  10  20  34  53  74  96 127 169 213 254 300
#     4   9  19  37  60  84 108 135 170 209 246 289
#     4   9  16  25  39  61  89 121 158 201 249 300
#     4  11  24  38  52  75 107 138 168 206 252 300
#     4   8  13  21  33  51  80 119 159 198 242 293
#
# _framework density 18.960961000000001
#
# number of rings (size 3 to 8) (size 9 to 14) (size 15 to 20)
#    0.000    2.600    0.000    3.600    0.000    9.200 
#    0.000    5.000    0.000    0.000    0.000    0.000 
#    0.000    0.800    0.000    8.400    0.000   11.600 
#
# Total GULP energy -495972.986164 kJ/mol
# GULP energy per Si atom -12399.324654 kJ/mol
# Density = 1.891781 g / cm^3
# Si number density = 18.960961 Si / 1000 Ang^3
#
#
#
# Elastic Constant Matrix: (Units=GPa)
#
#
# Indices 1 2 3 4 5 6 
#
# 1 6.1697 11.0130 18.0581 0.0000 0.0000 0.0000
# 2 11.0130 132.3556 79.6779 0.0000 0.0000 0.0000
# 3 18.0581 79.6779 151.8578 0.0000 0.0000 0.0000
# 4 0.0000 0.0000 0.0000 28.0315 0.0000 0.0000
# 5 0.0000 0.0000 0.0000 0.0000 18.4794 0.0000
# 6 0.0000 0.0000 0.0000 0.0000 0.0000 -1.7233
#
#
#
# Elastic Compliance Matrix: (Units=1/GPa)
#
#
# Indices 1 2 3 4 5 6 
#
# 1 0.250238 -0.004251 -0.027527 0.000000 0.000000 0.000000
# 2 -0.004251 0.011116 -0.005327 0.000000 0.000000 0.000000
# 3 -0.027527 -0.005327 0.012653 0.000000 0.000000 0.000000
# 4 0.000000 0.000000 0.000000 0.035674 0.000000 0.000000
# 5 0.000000 0.000000 0.000000 0.000000 0.054114 0.000000
# 6 0.000000 0.000000 0.000000 0.000000 0.000000 -0.580277
#
#
# Mechanical properties :
#
#
# Convention : Reuss Voigt Hill
#
# Bulk Modulus (GPa) = 5.00502 56.43122 30.71812
# Shear Modulus (GPa) = -66.07376 21.06645 -22.50366
#
# Velocity S-wave (km/s) = -5.90956 3.33685 -3.44879
# Velocity P-wave (km/s) = 6.62710 6.68375 0.61399
#
# Compressibility (1/GPa) = 0.19979923
#
# Stress axis : x y z
#
# Youngs Moduli (GPa) = 3.99619 89.96142 79.03016
#
# Poissons Ratio (x) = 0.38239 2.17544
# Poissons Ratio (y) = 0.01699 0.42099
# Poissons Ratio (z) = 0.11000 0.47922
#
# Static dielectric constant tensor:
#      x y z
#    x 2.942980 0.000000 0.000000 
#    y 0.000000 3.712120 0.000000 
#    z 0.000000 0.000000 3.682470 
# 
# 
# High freq. dielectric constant tensor:
#      x y z
#    x 1.680250 0.000000 0.000000 
#    y 0.000000 1.755610 0.000000 
#    z 0.000000 0.000000 1.745100 
# 
# From -- ./inp_files/1409.got.cif
#   From: 2010.03.12/outbox.cif.g09.slc.cpg/sg47_1_cif.got.tgz:1409.got - 2010.04.14 03:12:58.
