data_PCOD8198676
_publ_section_title
;
Structure prediction by ZEFSAII (Michael W. Deem and Ramdas Pophale) SiO2 
 PCOD8198676
Probable space group: P M M M
;
_chemical_formula_sum "Si O2"
_cell_formula_units_Z 52
_cell_length_a 14.075265
_cell_length_b 22.873369
_cell_length_c 8.813607
_cell_angle_alpha 90.000000
_cell_angle_beta 90.000000
_cell_angle_gamma 90.000000
_cell_volume 2837.529581
_symmetry_space_group_name_H-M "P M M M"
_symmetry_group_IT_number 47
_symmetry_cell_setting 'orthorhombic'
loop_
_space_group_symop_operation_xyz
x,y,z
-x,-y,z
x,-y,-z
-x,y,-z
-x,-y,-z
x,y,-z
-x,y,z
x,-y,z
loop_
_atom_site_type_symbol
_atom_site_label
_atom_site_fract_x
_atom_site_fract_y
_atom_site_fract_z
Si Si1 0.392664 0.778791 0.175677
Si Si2 0.890002 0.727922 0.175893
Si Si3 0.891626 0.500000 0.679298
Si Si4 0.779735 0.832224 0.322752
Si Si5 0.109314 0.067286 0.174414
Si Si6 0.785984 0.391575 0.177732
Si Si7 0.607963 0.654530 0.322521
O O1 0.500000 0.801221 0.201649
O O2 0.321023 0.827845 0.236298
O O3 0.372076 0.719929 0.267081
O O4 0.372707 0.765358 0.000000
O O5 0.850707 0.780833 0.274789
O O6 0.836430 0.668917 0.221830
O O7 0.000000 0.719086 0.213819
O O8 0.873538 0.743173 0.000000
O O9 0.885682 0.500000 0.500000
O O10 0.840869 0.557196 0.740190
O O11 0.000000 0.500000 0.736916
O O12 0.760456 0.828835 0.500000
O O13 0.824815 0.894452 0.282487
O O14 0.000000 0.078294 0.218286
O O15 0.136627 0.000000 0.200614
O O16 0.126201 0.085254 0.000000
O O17 0.677352 0.390040 0.235930
O O18 0.787585 0.403704 0.000000
O O19 0.629143 0.651718 0.500000
O O20 0.500000 0.635901 0.284915
#
# Coordination Sequence:
#
# PCOD8198676 Si02
#       7
#     8   8   4   8   8   8   8
#     4  10  20  35  56  81 110 147 190 231 274 330
#     4  10  21  36  54  78 110 147 186 230 277 326
#     4  11  25  43  62  83 112 151 191 234 284 339
#     4  12  23  33  52  83 117 149 182 227 285 338
#     4   9  19  37  59  80 107 149 196 236 275 326
#     4  11  22  38  61  85 111 148 192 234 277 332
#     4  10  20  35  57  86 118 148 180 225 283 340
#
# _framework density 18.325800000000001
#
# number of rings (size 3 to 8) (size 9 to 14) (size 15 to 20)
#    0.000    1.615    1.538    4.385    0.000    6.462 
#    0.000    1.154    0.000    2.769    0.000    3.231 
#    0.000    0.000    0.000    0.000    0.000    0.000 
#
# Total GULP energy -645041.859332 kJ/mol
# GULP energy per Si atom -12404.651141 kJ/mol
# Density = 1.828409 g / cm^3
# Si number density = 18.325800 Si / 1000 Ang^3
#
#
#
# Elastic Constant Matrix: (Units=GPa)
#
#
# Indices 1 2 3 4 5 6 
#
# 1 130.0838 50.2287 39.0974 0.0000 0.0000 0.0000
# 2 50.2287 82.0636 28.1697 0.0000 0.0000 0.0000
# 3 39.0974 28.1697 55.1136 0.0000 0.0000 0.0000
# 4 0.0000 0.0000 0.0000 21.4985 0.0000 0.0000
# 5 0.0000 0.0000 0.0000 0.0000 28.5694 0.0000
# 6 0.0000 0.0000 0.0000 0.0000 0.0000 38.5269
#
#
#
# Elastic Compliance Matrix: (Units=1/GPa)
#
#
# Indices 1 2 3 4 5 6 
#
# 1 0.011258 -0.005032 -0.005414 0.000000 0.000000 0.000000
# 2 -0.005032 0.017028 -0.005134 0.000000 0.000000 0.000000
# 3 -0.005414 -0.005134 0.024609 0.000000 0.000000 0.000000
# 4 0.000000 0.000000 0.000000 0.046515 0.000000 0.000000
# 5 0.000000 0.000000 0.000000 0.000000 0.035002 0.000000
# 6 0.000000 0.000000 0.000000 0.000000 0.000000 0.025956
#
#
# Mechanical properties :
#
#
# Convention : Reuss Voigt Hill
#
# Bulk Modulus (GPa) = 46.00885 55.80586 50.90736
# Shear Modulus (GPa) = 25.15446 27.70332 26.42889
#
# Velocity S-wave (km/s) = 3.70892 3.89229 3.80171
# Velocity P-wave (km/s) = 6.59560 7.12166 6.86367
#
# Compressibility (1/GPa) = 0.02173495
#
# Stress axis : x y z
#
# Youngs Moduli (GPa) = 88.82925 58.72768 40.63552
#
# Poissons Ratio (x) = 0.29551 0.22001
# Poissons Ratio (y) = 0.44698 0.20861
# Poissons Ratio (z) = 0.48094 0.30149
#
# Static dielectric constant tensor:
#      x y z
#    x 3.604760 0.000000 0.000000 
#    y 0.000000 3.434370 0.000000 
#    z 0.000000 0.000000 3.415500 
# 
# 
# High freq. dielectric constant tensor:
#      x y z
#    x 1.722960 0.000000 0.000000 
#    y 0.000000 1.691680 0.000000 
#    z 0.000000 0.000000 1.717950 
# 
# From -- ./inp_files/6916.got.cif
#   From: 2010.03.12/outbox.cif.g09.slc.cpg/sg47_4_cif.got.tgz:6916.got - 2010.04.14 03:12:58.
