data_PCOD8198201
_publ_section_title
;
Structure prediction by ZEFSAII (Michael W. Deem and Ramdas Pophale) SiO2 
 PCOD8198201
Probable space group: P M M M
;
_chemical_formula_sum "Si O2"
_cell_formula_units_Z 52
_cell_length_a 28.148392
_cell_length_b 11.848819
_cell_length_c 8.515180
_cell_angle_alpha 90.000000
_cell_angle_beta 90.000000
_cell_angle_gamma 90.000000
_cell_volume 2840.027129
_symmetry_space_group_name_H-M "P M M M"
_symmetry_group_IT_number 47
_symmetry_cell_setting 'orthorhombic'
loop_
_space_group_symop_operation_xyz
x,y,z
-x,-y,z
x,-y,-z
-x,y,-z
-x,-y,-z
x,y,-z
-x,y,z
x,-y,z
loop_
_atom_site_type_symbol
_atom_site_label
_atom_site_fract_x
_atom_site_fract_y
_atom_site_fract_z
Si Si1 0.801588 0.000000 0.680322
Si Si2 0.448368 0.873302 0.314540
Si Si3 0.185792 0.754837 0.684155
Si Si4 0.349967 0.209961 0.315833
Si Si5 0.000000 0.365760 0.676954
Si Si6 0.298306 0.000000 0.819857
Si Si7 0.097822 0.366579 0.820984
Si Si8 0.276541 0.371146 0.815878
O O1 0.822097 0.882593 0.751408
O O2 0.745454 0.000000 0.701772
O O3 0.815320 0.000000 0.500000
O O4 0.451462 0.879524 0.500000
O O5 0.500000 0.831952 0.248486
O O6 0.405986 0.786837 0.267794
O O7 0.437295 0.000000 0.250867
O O8 0.198035 0.756033 0.500000
O O9 0.138020 0.685938 0.712114
O O10 0.229916 0.699422 0.773013
O O11 0.343716 0.183911 0.500000
O O12 0.323578 0.326045 0.272338
O O13 0.328075 0.111165 0.212524
O O14 0.046611 0.320374 0.766029
O O15 0.000000 0.500000 0.677984
O O16 0.000000 0.318745 0.500000
O O17 0.280965 0.000000 0.000000
O O18 0.100378 0.500000 0.800473
O O19 0.106427 0.330246 0.000000
O O20 0.268513 0.500000 0.763047
O O21 0.285325 0.361541 0.000000
#
# Coordination Sequence:
#
# PCOD8198201 Si02
#       8
#     4   8   8   8   4   4   8   8
#     4  10  22  38  54  76 106 140 178 221 262 308
#     4   8  14  26  47  76 106 133 164 208 262 311
#     4  11  22  36  56  79 107 140 178 220 263 313
#     4  11  20  33  55  79 105 136 175 219 261 310
#     4   9  17  31  53  80 107 138 181 225 265 313
#     4  12  22  32  51  77 107 142 176 210 261 318
#     4  10  20  34  53  79 112 145 177 218 269 318
#     4  11  24  39  53  74 106 141 177 217 265 320
#
# _framework density 18.309684000000001
#
# number of rings (size 3 to 8) (size 9 to 14) (size 15 to 20)
#    0.000    1.769    2.308    3.692    0.000    5.538 
#    0.000    0.000    0.000    3.231    0.000    6.462 
#    0.000    0.000    0.000    0.000    0.000    0.000 
#
# Total GULP energy -644587.599163 kJ/mol
# GULP energy per Si atom -12395.915369 kJ/mol
# Density = 1.826801 g / cm^3
# Si number density = 18.309684 Si / 1000 Ang^3
#
#
#
# Elastic Constant Matrix: (Units=GPa)
#
#
# Indices 1 2 3 4 5 6 
#
# 1 128.1366 36.6775 15.4936 0.0000 0.0000 0.0000
# 2 36.6775 80.7933 26.3552 0.0000 0.0000 0.0000
# 3 15.4936 26.3552 41.6408 0.0000 0.0000 0.0000
# 4 0.0000 0.0000 0.0000 19.5075 0.0000 0.0000
# 5 0.0000 0.0000 0.0000 0.0000 12.8969 0.0000
# 6 0.0000 0.0000 0.0000 0.0000 0.0000 365.1897
#
#
#
# Elastic Compliance Matrix: (Units=1/GPa)
#
#
# Indices 1 2 3 4 5 6 
#
# 1 0.009000 -0.003772 -0.000961 0.000000 0.000000 0.000000
# 2 -0.003772 0.017179 -0.009469 0.000000 0.000000 0.000000
# 3 -0.000961 -0.009469 0.030366 0.000000 0.000000 0.000000
# 4 0.000000 0.000000 0.000000 0.051262 0.000000 0.000000
# 5 0.000000 0.000000 0.000000 0.000000 0.077538 0.000000
# 6 0.000000 0.000000 0.000000 0.000000 0.000000 0.002738
#
#
# Mechanical properties :
#
#
# Convention : Reuss Voigt Hill
#
# Bulk Modulus (GPa) = 35.53737 45.29147 40.41442
# Shear Modulus (GPa) = 22.13686 90.98846 56.56266
#
# Velocity S-wave (km/s) = 3.48088 7.05706 5.56411
# Velocity P-wave (km/s) = 5.96712 9.54949 7.96239
#
# Compressibility (1/GPa) = 0.02813939
#
# Stress axis : x y z
#
# Youngs Moduli (GPa) = 111.10927 58.21204 32.93185
#
# Poissons Ratio (x) = 0.21959 0.03166
# Poissons Ratio (y) = 0.41913 0.31183
# Poissons Ratio (z) = 0.10681 0.55121
#
# Static dielectric constant tensor:
#      x y z
#    x 3.632400 0.000000 0.000000 
#    y 0.000000 3.492100 0.000000 
#    z 0.000000 0.000000 3.280750 
# 
# 
# High freq. dielectric constant tensor:
#      x y z
#    x 1.715250 0.000000 0.000000 
#    y 0.000000 1.682310 0.000000 
#    z 0.000000 0.000000 1.704140 
# 
# From -- ./inp_files/13294.got.cif
#   From: 2010.03.12/outbox.cif.g09.slc.cpg/sg47_7_cif.got.tgz:13294.got - 2010.04.14 03:12:58.
