data_PCOD8198297
_publ_section_title
;
Structure prediction by ZEFSAII (Michael W. Deem and Ramdas Pophale) SiO2 
 PCOD8198297
Probable space group: P M M M
;
_chemical_formula_sum "Si O2"
_cell_formula_units_Z 36
_cell_length_a 9.285393
_cell_length_b 9.016546
_cell_length_c 23.318571
_cell_angle_alpha 90.000000
_cell_angle_beta 90.000000
_cell_angle_gamma 90.000000
_cell_volume 1952.281438
_symmetry_space_group_name_H-M "P M M M"
_symmetry_group_IT_number 47
_symmetry_cell_setting 'orthorhombic'
loop_
_space_group_symop_operation_xyz
x,y,z
-x,-y,z
x,-y,-z
-x,y,-z
-x,-y,-z
x,y,-z
-x,y,z
x,-y,z
loop_
_atom_site_type_symbol
_atom_site_label
_atom_site_fract_x
_atom_site_fract_y
_atom_site_fract_z
Si Si1 0.663138 0.323805 0.500000
Si Si2 0.162498 0.676284 0.062705
Si Si3 0.332071 0.329960 0.829039
Si Si4 0.665077 0.825007 0.712851
Si Si5 0.832386 0.325746 0.388506
O O1 0.661536 0.500000 0.500000
O O2 0.500000 0.260709 0.500000
O O3 0.747318 0.265971 0.444123
O O4 0.170381 0.500000 0.063728
O O5 0.258024 0.740222 0.114501
O O6 0.000000 0.731183 0.072302
O O7 0.217811 0.732195 0.000000
O O8 0.500000 0.316682 0.839971
O O9 0.285008 0.500000 0.818563
O O10 0.283473 0.235784 0.774188
O O11 0.500000 0.776346 0.700303
O O12 0.770458 0.757586 0.666076
O O13 0.681118 0.000000 0.712803
O O14 0.808034 0.500000 0.379944
O O15 0.000000 0.287477 0.396250
#
# Coordination Sequence:
#
# PCOD8198297 Si02
#       5
#     4   8   8   8   8
#     4   9  17  31  54  81 106 133 164 200 244 293
#     4   8  14  25  42  66  95 123 152 192 243 295
#     4   9  17  29  47  71  96 123 159 203 247 292
#     4  10  21  36  52  71  99 135 172 209 250 296
#     4  10  20  34  54  80 107 133 164 204 248 294
#
# _framework density 18.439965000000001
#
# number of rings (size 3 to 8) (size 9 to 14) (size 15 to 20)
#    0.000    2.778    0.000    2.333    0.000    5.333 
#    0.000    5.000    0.000    4.000    0.000    4.667 
#    0.000    0.000    0.000    0.000    0.000    0.000 
#
# Total GULP energy -446332.346844 kJ/mol
# GULP energy per Si atom -12398.120746 kJ/mol
# Density = 1.839799 g / cm^3
# Si number density = 18.439965 Si / 1000 Ang^3
#
#
#
# Elastic Constant Matrix: (Units=GPa)
#
#
# Indices 1 2 3 4 5 6 
#
# 1 103.5595 36.0391 92.6727 0.0000 0.0000 0.0000
# 2 36.0391 36.4373 42.1217 0.0000 0.0000 0.0000
# 3 92.6727 42.1217 186.5148 0.0000 0.0000 0.0000
# 4 0.0000 0.0000 0.0000 -4.3962 0.0000 0.0000
# 5 0.0000 0.0000 0.0000 0.0000 37.4078 0.0000
# 6 0.0000 0.0000 0.0000 0.0000 0.0000 16.8203
#
#
#
# Elastic Compliance Matrix: (Units=1/GPa)
#
#
# Indices 1 2 3 4 5 6 
#
# 1 0.020394 -0.011445 -0.007548 0.000000 0.000000 0.000000
# 2 -0.011445 0.043564 -0.004151 0.000000 0.000000 0.000000
# 3 -0.007548 -0.004151 0.010050 0.000000 0.000000 0.000000
# 4 0.000000 0.000000 0.000000 -0.227471 0.000000 0.000000
# 5 0.000000 0.000000 0.000000 0.000000 0.026732 0.000000
# 6 0.000000 0.000000 0.000000 0.000000 0.000000 0.059452
#
#
# Mechanical properties :
#
#
# Convention : Reuss Voigt Hill
#
# Bulk Modulus (GPa) = 36.07872 74.24207 55.16040
# Shear Modulus (GPa) = -425.52796 20.34493 -202.59152
#
# Velocity S-wave (km/s) = -15.20740 3.32521 -10.49304
# Velocity P-wave (km/s) = 16.99251 7.42237 10.80865
#
# Compressibility (1/GPa) = 0.02771717
#
# Stress axis : x y z
#
# Youngs Moduli (GPa) = 49.03370 22.95487 99.50656
#
# Poissons Ratio (x) = 0.26272 0.75111
# Poissons Ratio (y) = 0.56120 0.41310
# Poissons Ratio (z) = 0.37013 0.09530
#
# Static dielectric constant tensor:
#      x y z
#    x 3.473200 0.000000 0.000000 
#    y 0.000000 2.984970 0.000000 
#    z 0.000000 0.000000 3.770780 
# 
# 
# High freq. dielectric constant tensor:
#      x y z
#    x 1.714460 0.000000 0.000000 
#    y 0.000000 1.670030 0.000000 
#    z 0.000000 0.000000 1.733880 
# 
# From -- ./inp_files/31648.got.cif
#   From: 2010.03.12/outbox.cif.g09.slc.cpg/sg47_16_cif.got.tgz:31648.got - 2010.04.14 03:12:58.
