data_PCOD8198237
_publ_section_title
;
Structure prediction by ZEFSAII (Michael W. Deem and Ramdas Pophale) SiO2 
 PCOD8198237
Probable space group: P M M M
;
_chemical_formula_sum "Si O2"
_cell_formula_units_Z 52
_cell_length_a 22.190073
_cell_length_b 9.012131
_cell_length_c 14.880381
_cell_angle_alpha 90.000000
_cell_angle_beta 90.000000
_cell_angle_gamma 90.000000
_cell_volume 2975.776283
_symmetry_space_group_name_H-M "P M M M"
_symmetry_group_IT_number 47
_symmetry_cell_setting 'orthorhombic'
loop_
_space_group_symop_operation_xyz
x,y,z
-x,-y,z
x,-y,-z
-x,y,-z
-x,-y,-z
x,y,-z
-x,y,z
x,-y,z
loop_
_atom_site_type_symbol
_atom_site_label
_atom_site_fract_x
_atom_site_fract_y
_atom_site_fract_z
Si Si1 0.726048 0.323322 0.282089
Si Si2 0.246428 0.175183 0.899335
Si Si3 0.378617 0.173484 0.394128
Si Si4 0.500000 0.667352 0.606315
Si Si5 0.884216 0.161766 0.852803
Si Si6 0.068684 0.823579 0.500000
Si Si7 0.000000 0.342883 0.896562
Si Si8 0.844164 0.834754 0.655344
O O1 0.723935 0.500000 0.279306
O O2 0.718820 0.262419 0.179597
O O3 0.671958 0.261038 0.340634
O O4 0.787040 0.272128 0.331784
O O5 0.176806 0.227162 0.896175
O O6 0.250757 0.000000 0.877752
O O7 0.271972 0.210569 0.000000
O O8 0.368519 0.198602 0.500000
O O9 0.441789 0.241853 0.361023
O O10 0.377240 0.000000 0.369719
O O11 0.500000 0.500000 0.646795
O O12 0.500000 0.657853 0.500000
O O13 0.939764 0.262089 0.872344
O O14 0.879904 0.150395 0.746750
O O15 0.896401 0.000000 0.894838
O O16 0.107520 0.767635 0.414675
O O17 0.000000 0.757530 0.500000
O O18 0.063570 0.000000 0.500000
O O19 0.000000 0.500000 0.844824
O O20 0.000000 0.372667 0.000000
O O21 0.821775 0.000000 0.625014
#
# Coordination Sequence:
#
# PCOD8198237 Si02
#       8
#     8   8   8   4   8   4   4   8
#     4  11  22  34  51  78 111 142 174 214 265 316
#     4   9  18  35  57  77  98 127 167 214 260 310
#     4  10  20  34  54  78 109 149 191 225 256 299
#     4   9  17  31  51  79 114 147 180 219 267 313
#     4   9  18  32  51  70  90 117 153 198 248 303
#     4   9  18  32  55  77  91 118 167 220 263 305
#     4  11  23  33  43  64  91 116 146 187 241 309
#     4   9  19  35  53  73  96 124 166 214 259 308
#
# _framework density 17.474432
#
# number of rings (size 3 to 8) (size 9 to 14) (size 15 to 20)
#    0.000    2.385    0.000    3.692    2.154    5.846 
#    0.000    0.000    0.000    0.462    0.000    0.538 
#    0.000    4.308    0.000    0.000    0.000    0.000 
#
# Total GULP energy -644487.252559 kJ/mol
# GULP energy per Si atom -12393.985626 kJ/mol
# Density = 1.743466 g / cm^3
# Si number density = 17.474432 Si / 1000 Ang^3
#
#
#
# Elastic Constant Matrix: (Units=GPa)
#
#
# Indices 1 2 3 4 5 6 
#
# 1 106.4304 58.0933 50.1400 0.0000 0.0000 0.0000
# 2 58.0933 112.7956 40.1955 0.0000 0.0000 0.0000
# 3 50.1400 40.1955 89.7426 0.0000 0.0000 0.0000
# 4 0.0000 0.0000 0.0000 18.4541 0.0000 0.0000
# 5 0.0000 0.0000 0.0000 0.0000 19.0820 0.0000
# 6 0.0000 0.0000 0.0000 0.0000 0.0000 62.0938
#
#
#
# Elastic Compliance Matrix: (Units=1/GPa)
#
#
# Indices 1 2 3 4 5 6 
#
# 1 0.015380 -0.005782 -0.006003 0.000000 0.000000 0.000000
# 2 -0.005782 0.012723 -0.002468 0.000000 0.000000 0.000000
# 3 -0.006003 -0.002468 0.015603 0.000000 0.000000 0.000000
# 4 0.000000 0.000000 0.000000 0.054188 0.000000 0.000000
# 5 0.000000 0.000000 0.000000 0.000000 0.052405 0.000000
# 6 0.000000 0.000000 0.000000 0.000000 0.000000 0.016105
#
#
# Mechanical properties :
#
#
# Convention : Reuss Voigt Hill
#
# Bulk Modulus (GPa) = 65.79444 67.31405 66.55425
# Shear Modulus (GPa) = 25.00288 30.62862 27.81575
#
# Velocity S-wave (km/s) = 3.78673 4.19115 3.99406
# Velocity P-wave (km/s) = 7.54007 7.87566 7.70969
#
# Compressibility (1/GPa) = 0.01519885
#
# Stress axis : x y z
#
# Youngs Moduli (GPa) = 65.01996 78.59781 64.09214
#
# Poissons Ratio (x) = 0.45444 0.38476
# Poissons Ratio (y) = 0.37594 0.15819
# Poissons Ratio (z) = 0.39033 0.19400
#
# Static dielectric constant tensor:
#      x y z
#    x 3.222290 0.000000 0.000000 
#    y 0.000000 -0.022810 0.000000 
#    z 0.000000 0.000000 3.360530 
# 
# 
# High freq. dielectric constant tensor:
#      x y z
#    x 1.661230 0.000000 0.000000 
#    y 0.000000 1.670370 0.000000 
#    z 0.000000 0.000000 1.668790 
# 
# From -- ./inp_files/25083.got.cif
#   From: 2010.03.12/outbox.cif.g09.slc.cpg/sg47_13_cif.got.tgz:25083.got - 2010.04.14 03:12:58.
