data_PCOD8198069
_publ_section_title
;
Structure prediction by ZEFSAII (Michael W. Deem and Ramdas Pophale) SiO2 
 PCOD8198069
Probable space group: P M M M
;
_chemical_formula_sum "Si O2"
_cell_formula_units_Z 36
_cell_length_a 24.398676
_cell_length_b 9.185092
_cell_length_c 9.248435
_cell_angle_alpha 90.000000
_cell_angle_beta 90.000000
_cell_angle_gamma 90.000000
_cell_volume 2072.612052
_symmetry_space_group_name_H-M "P M M M"
_symmetry_group_IT_number 47
_symmetry_cell_setting 'orthorhombic'
loop_
_space_group_symop_operation_xyz
x,y,z
-x,-y,z
x,-y,-z
-x,y,-z
-x,-y,-z
x,y,-z
-x,y,z
x,-y,z
loop_
_atom_site_type_symbol
_atom_site_label
_atom_site_fract_x
_atom_site_fract_y
_atom_site_fract_z
Si Si1 0.062766 0.330133 0.836233
Si Si2 0.648574 0.665293 0.340780
Si Si3 0.436335 0.828431 0.500000
Si Si4 0.845461 0.829370 0.666094
Si Si5 0.737932 0.168116 0.830736
O O1 0.074409 0.500000 0.819092
O O2 0.100066 0.244887 0.724487
O O3 0.000000 0.294055 0.798088
O O4 0.075905 0.280361 0.000000
O O5 0.677666 0.667534 0.500000
O O6 0.635685 0.500000 0.292524
O O7 0.591507 0.756073 0.356696
O O8 0.686450 0.739040 0.221566
O O9 0.500000 0.790229 0.500000
O O10 0.425289 0.000000 0.500000
O O11 0.837285 0.786203 0.500000
O O12 0.792579 0.773051 0.753424
O O13 0.852870 0.000000 0.687904
O O14 0.727355 0.000000 0.790586
O O15 0.745594 0.191492 0.000000
#
# Coordination Sequence:
#
# PCOD8198069 Si02
#       5
#     8   8   4   8   8
#     4   9  19  36  55  74  98 131 171 213 260 315
#     4   9  19  32  50  78 108 139 173 211 256 306
#     4   9  17  31  55  83 109 141 178 215 254 297
#     4  10  21  35  52  76 104 134 170 214 262 311
#     4  10  20  34  53  75 101 137 178 217 261 313
#
# _framework density 17.369387
#
# number of rings (size 3 to 8) (size 9 to 14) (size 15 to 20)
#    0.667    1.889    0.000    2.667    0.000    5.778 
#    0.000    3.333    0.000    0.667    0.000    4.667 
#    0.000    0.000    0.000    0.000    0.000    0.000 
#
# Total GULP energy -446301.345538 kJ/mol
# GULP energy per Si atom -12397.259598 kJ/mol
# Density = 1.732985 g / cm^3
# Si number density = 17.369387 Si / 1000 Ang^3
#
#
#
# Elastic Constant Matrix: (Units=GPa)
#
#
# Indices 1 2 3 4 5 6 
#
# 1 129.8621 64.3893 63.3305 0.0000 0.0000 0.0000
# 2 64.3893 81.7899 48.9119 0.0000 0.0000 0.0000
# 3 63.3305 48.9119 87.7668 0.0000 0.0000 0.0000
# 4 0.0000 0.0000 0.0000 28.4808 0.0000 0.0000
# 5 0.0000 0.0000 0.0000 0.0000 23.9750 0.0000
# 6 0.0000 0.0000 0.0000 0.0000 0.0000 8.3189
#
#
#
# Elastic Compliance Matrix: (Units=1/GPa)
#
#
# Indices 1 2 3 4 5 6 
#
# 1 0.014569 -0.007773 -0.006180 0.000000 0.000000 0.000000
# 2 -0.007773 0.022485 -0.006922 0.000000 0.000000 0.000000
# 3 -0.006180 -0.006922 0.019711 0.000000 0.000000 0.000000
# 4 0.000000 0.000000 0.000000 0.035111 0.000000 0.000000
# 5 0.000000 0.000000 0.000000 0.000000 0.041710 0.000000
# 6 0.000000 0.000000 0.000000 0.000000 0.000000 0.120208
#
#
# Mechanical properties :
#
#
# Convention : Reuss Voigt Hill
#
# Bulk Modulus (GPa) = 66.60523 72.52024 69.56274
# Shear Modulus (GPa) = 16.63614 20.34075 18.48845
#
# Velocity S-wave (km/s) = 3.09817 3.42580 3.26610
# Velocity P-wave (km/s) = 7.15736 7.58225 7.37287
#
# Compressibility (1/GPa) = 0.01501384
#
# Stress axis : x y z
#
# Youngs Moduli (GPa) = 68.64021 44.47322 50.73284
#
# Poissons Ratio (x) = 0.34570 0.31355
# Poissons Ratio (y) = 0.53356 0.35117
# Poissons Ratio (z) = 0.42423 0.30784
#
# Static dielectric constant tensor:
#      x y z
#    x 3.108450 0.000000 0.000000 
#    y 0.000000 3.184260 0.000000 
#    z 0.000000 0.000000 3.101490 
# 
# 
# High freq. dielectric constant tensor:
#      x y z
#    x 1.664610 0.000000 0.000000 
#    y 0.000000 1.673120 0.000000 
#    z 0.000000 0.000000 1.659520 
# 
# From -- ./inp_files/12969.got.cif
#   From: 2010.03.12/outbox.cif.g09.slc.cpg/sg47_7_cif.got.tgz:12969.got - 2010.04.14 03:12:58.
