data_PCOD8198618
_publ_section_title
;
Structure prediction by ZEFSAII (Michael W. Deem and Ramdas Pophale) SiO2 
 PCOD8198618
Probable space group: P M M M
;
_chemical_formula_sum "Si O2"
_cell_formula_units_Z 48
_cell_length_a 18.293024
_cell_length_b 16.373947
_cell_length_c 8.879011
_cell_angle_alpha 90.000000
_cell_angle_beta 90.000000
_cell_angle_gamma 90.000000
_cell_volume 2659.521334
_symmetry_space_group_name_H-M "P M M M"
_symmetry_group_IT_number 47
_symmetry_cell_setting 'orthorhombic'
loop_
_space_group_symop_operation_xyz
x,y,z
-x,-y,z
x,-y,-z
-x,y,-z
-x,-y,-z
x,y,-z
-x,y,z
x,-y,z
loop_
_atom_site_type_symbol
_atom_site_label
_atom_site_fract_x
_atom_site_fract_y
_atom_site_fract_z
Si Si1 0.083738 0.190332 0.826400
Si Si2 0.795004 0.092856 0.324659
Si Si3 0.415799 0.343688 0.827346
Si Si4 0.648716 0.500000 0.677682
Si Si5 0.302542 0.760367 0.671406
Si Si6 0.807417 0.500000 0.822252
Si Si7 0.156535 0.338558 0.327251
O O1 0.132397 0.115273 0.767279
O O2 0.099714 0.272617 0.734911
O O3 0.000000 0.164912 0.802591
O O4 0.102318 0.206662 0.000000
O O5 0.812779 0.107661 0.500000
O O6 0.727671 0.151111 0.276624
O O7 0.772505 0.000000 0.290036
O O8 0.500000 0.320557 0.805232
O O9 0.396830 0.420683 0.724166
O O10 0.369377 0.264521 0.778260
O O11 0.398084 0.365775 0.000000
O O12 0.660584 0.500000 0.500000
O O13 0.727036 0.500000 0.753969
O O14 0.330602 0.763626 0.500000
O O15 0.239047 0.693545 0.689389
O O16 0.852064 0.421021 0.767781
O O17 0.801515 0.500000 0.000000
O O18 0.137283 0.356587 0.500000
#
# Coordination Sequence:
#
# PCOD8198618 Si02
#       7
#     8   8   8   4   8   4   8
#     4  10  21  36  54  79 112 145 176 215 264 318
#     4   9  19  36  58  83 109 137 173 219 268 321
#     4  11  23  36  51  75 108 144 181 222 271 322
#     4  12  23  35  52  76 107 143 182 223 267 314
#     4   9  18  33  54  77 103 135 174 219 265 319
#     4  12  22  33  54  79 106 140 178 224 270 313
#     4  10  20  35  55  78 104 138 182 226 264 312
#
# _framework density 18.048359999999999
#
# number of rings (size 3 to 8) (size 9 to 14) (size 15 to 20)
#    0.000    1.833    1.667    4.250    0.000    7.000 
#    0.000    2.083    0.000    3.000    0.000    3.500 
#    0.000    0.000    0.000    0.000    0.000    0.000 
#
# Total GULP energy -595392.143195 kJ/mol
# GULP energy per Si atom -12404.002983 kJ/mol
# Density = 1.800728 g / cm^3
# Si number density = 18.048360 Si / 1000 Ang^3
#
#
#
# Elastic Constant Matrix: (Units=GPa)
#
#
# Indices 1 2 3 4 5 6 
#
# 1 72.0836 41.3573 40.3764 0.0000 0.0000 0.0000
# 2 41.3573 127.1661 48.6883 0.0000 0.0000 0.0000
# 3 40.3764 48.6883 117.7891 0.0000 0.0000 0.0000
# 4 0.0000 0.0000 0.0000 21.8823 0.0000 0.0000
# 5 0.0000 0.0000 0.0000 0.0000 24.3832 0.0000
# 6 0.0000 0.0000 0.0000 0.0000 0.0000 17.1416
#
#
#
# Elastic Compliance Matrix: (Units=1/GPa)
#
#
# Indices 1 2 3 4 5 6 
#
# 1 0.019026 -0.004385 -0.004710 0.000000 0.000000 0.000000
# 2 -0.004385 0.010353 -0.002776 0.000000 0.000000 0.000000
# 3 -0.004710 -0.002776 0.011252 0.000000 0.000000 0.000000
# 4 0.000000 0.000000 0.000000 0.045699 0.000000 0.000000
# 5 0.000000 0.000000 0.000000 0.000000 0.041012 0.000000
# 6 0.000000 0.000000 0.000000 0.000000 0.000000 0.058338
#
#
# Mechanical properties :
#
#
# Convention : Reuss Voigt Hill
#
# Bulk Modulus (GPa) = 59.20754 64.20923 61.70838
# Shear Modulus (GPa) = 23.25037 25.12253 24.18645
#
# Velocity S-wave (km/s) = 3.59308 3.73494 3.66470
# Velocity P-wave (km/s) = 7.07741 7.36567 7.22298
#
# Compressibility (1/GPa) = 0.01688974
#
# Stress axis : x y z
#
# Youngs Moduli (GPa) = 52.55850 96.59324 88.87536
#
# Poissons Ratio (x) = 0.42353 0.41857
# Poissons Ratio (y) = 0.23045 0.24675
# Poissons Ratio (z) = 0.24753 0.26817
#
# Static dielectric constant tensor:
#      x y z
#    x 3.180020 0.000000 0.000000 
#    y 0.000000 3.375720 0.000000 
#    z 0.000000 0.000000 3.489280 
# 
# 
# High freq. dielectric constant tensor:
#      x y z
#    x 1.679280 0.000000 0.000000 
#    y 0.000000 1.694010 0.000000 
#    z 0.000000 0.000000 1.710140 
# 
# From -- ./inp_files/9225.got.cif
#   From: 2010.03.12/outbox.cif.g09.slc.cpg/sg47_5_cif.got.tgz:9225.got - 2010.04.14 03:12:58.
