data_PCOD8198500
_publ_section_title
;
Structure prediction by ZEFSAII (Michael W. Deem and Ramdas Pophale) SiO2 
 PCOD8198500
Probable space group: P M M M
;
_chemical_formula_sum "Si O2"
_cell_formula_units_Z 48
_cell_length_a 29.435799
_cell_length_b 9.630660
_cell_length_c 8.693126
_cell_angle_alpha 90.000000
_cell_angle_beta 90.000000
_cell_angle_gamma 90.000000
_cell_volume 2464.381012
_symmetry_space_group_name_H-M "P M M M"
_symmetry_group_IT_number 47
_symmetry_cell_setting 'orthorhombic'
loop_
_space_group_symop_operation_xyz
x,y,z
-x,-y,z
x,-y,-z
-x,y,-z
-x,-y,-z
x,y,-z
-x,y,z
x,-y,z
loop_
_atom_site_type_symbol
_atom_site_label
_atom_site_fract_x
_atom_site_fract_y
_atom_site_fract_z
Si Si1 0.450408 0.664180 0.328160
Si Si2 0.050993 0.000000 0.680915
Si Si3 0.358836 0.662110 0.821532
Si Si4 0.106789 0.736711 0.319396
Si Si5 0.200445 0.661520 0.180703
Si Si6 0.280885 0.837048 0.319734
Si Si7 0.049561 0.500000 0.179132
O O1 0.439696 0.720607 0.500000
O O2 0.500000 0.721108 0.272884
O O3 0.452739 0.500000 0.333638
O O4 0.410717 0.709026 0.211278
O O5 0.082187 0.874929 0.735187
O O6 0.044391 0.000000 0.500000
O O7 0.000000 0.000000 0.755740
O O8 0.350610 0.500000 0.776314
O O9 0.328439 0.764078 0.719076
O O10 0.347729 0.685159 0.000000
O O11 0.103292 0.709924 0.500000
O O12 0.159044 0.731978 0.270851
O O13 0.078502 0.628543 0.226438
O O14 0.207079 0.500000 0.230268
O O15 0.243834 0.752726 0.222990
O O16 0.191328 0.670590 0.000000
O O17 0.270571 0.822049 0.500000
O O18 0.281527 0.000000 0.272064
O O19 0.000000 0.500000 0.260510
O O20 0.042423 0.500000 0.000000
#
# Coordination Sequence:
#
# PCOD8198500 Si02
#       7
#     8   4   8   8   8   8   4
#     4   8  14  26  47  77 113 153 196 240 286 337
#     4   9  20  38  59  87 121 153 191 239 282 327
#     4  10  20  34  55  85 119 154 193 238 292 348
#     4  11  22  38  63  90 117 153 195 237 285 340
#     4  11  24  42  63  88 119 150 185 233 292 350
#     4  11  25  42  61  85 113 148 194 242 288 343
#     4  11  23  39  59  87 123 157 193 239 286 335
#
# _framework density 19.477508
#
# number of rings (size 3 to 8) (size 9 to 14) (size 15 to 20)
#    0.000    1.833    0.833    3.750    1.167    7.000 
#    0.000    2.917    0.000    3.500    0.000    3.500 
#    0.000    0.000    0.000    0.000    0.000    0.000 
#
# Total GULP energy -594974.373015 kJ/mol
# GULP energy per Si atom -12395.299438 kJ/mol
# Density = 1.943318 g / cm^3
# Si number density = 19.477508 Si / 1000 Ang^3
#
#
#
# Elastic Constant Matrix: (Units=GPa)
#
#
# Indices 1 2 3 4 5 6 
#
# 1 122.6098 47.0749 14.5653 0.0000 0.0000 0.0000
# 2 47.0749 115.7192 24.6618 0.0000 0.0000 0.0000
# 3 14.5653 24.6618 53.8149 0.0000 0.0000 0.0000
# 4 0.0000 0.0000 0.0000 21.0400 0.0000 0.0000
# 5 0.0000 0.0000 0.0000 0.0000 37.6797 0.0000
# 6 0.0000 0.0000 0.0000 0.0000 0.0000 24.7958
#
#
#
# Elastic Compliance Matrix: (Units=1/GPa)
#
#
# Indices 1 2 3 4 5 6 
#
# 1 0.009705 -0.003755 -0.000906 0.000000 0.000000 0.000000
# 2 -0.003755 0.011030 -0.004038 0.000000 0.000000 0.000000
# 3 -0.000906 -0.004038 0.020678 0.000000 0.000000 0.000000
# 4 0.000000 0.000000 0.000000 0.047529 0.000000 0.000000
# 5 0.000000 0.000000 0.000000 0.000000 0.026539 0.000000
# 6 0.000000 0.000000 0.000000 0.000000 0.000000 0.040329
#
#
# Mechanical properties :
#
#
# Convention : Reuss Voigt Hill
#
# Bulk Modulus (GPa) = 41.64147 51.63865 46.64006
# Shear Modulus (GPa) = 27.59167 30.42589 29.00878
#
# Velocity S-wave (km/s) = 3.76785 3.95663 3.86339
# Velocity P-wave (km/s) = 6.35252 6.88787 6.62561
#
# Compressibility (1/GPa) = 0.02401452
#
# Stress axis : x y z
#
# Youngs Moduli (GPa) = 103.03643 90.66336 48.36042
#
# Poissons Ratio (x) = 0.34045 0.04381
# Poissons Ratio (y) = 0.38691 0.19529
# Poissons Ratio (z) = 0.09335 0.36613
#
# Static dielectric constant tensor:
#      x y z
#    x 4.188170 0.000000 0.000000 
#    y 0.000000 3.449710 0.000000 
#    z 0.000000 0.000000 3.489490 
# 
# 
# High freq. dielectric constant tensor:
#      x y z
#    x 1.779550 0.000000 0.000000 
#    y 0.000000 1.741280 0.000000 
#    z 0.000000 0.000000 1.754180 
# 
# From -- ./inp_files/13854.got.cif
#   From: 2010.03.12/outbox.cif.g09.slc.cpg/sg47_7_cif.got.tgz:13854.got - 2010.04.14 03:12:58.
