data_PCOD8198471
_publ_section_title
;
Structure prediction by ZEFSAII (Michael W. Deem and Ramdas Pophale) SiO2 
 PCOD8198471
Probable space group: P M M M
;
_chemical_formula_sum "Si O2"
_cell_formula_units_Z 48
_cell_length_a 9.117961
_cell_length_b 15.794280
_cell_length_c 17.015298
_cell_angle_alpha 90.000000
_cell_angle_beta 90.000000
_cell_angle_gamma 90.000000
_cell_volume 2450.400784
_symmetry_space_group_name_H-M "P M M M"
_symmetry_group_IT_number 47
_symmetry_cell_setting 'orthorhombic'
loop_
_space_group_symop_operation_xyz
x,y,z
-x,-y,z
x,-y,-z
-x,y,-z
-x,-y,-z
x,y,-z
-x,y,z
x,-y,z
loop_
_atom_site_type_symbol
_atom_site_label
_atom_site_fract_x
_atom_site_fract_y
_atom_site_fract_z
Si Si1 0.170160 0.599724 0.000000
Si Si2 0.674016 0.904304 0.000000
Si Si3 0.829137 0.094583 0.312092
Si Si4 0.667835 0.157003 0.835036
Si Si5 0.831230 0.594010 0.305033
Si Si6 0.331310 0.649088 0.156873
Si Si7 0.174498 0.252403 0.412071
O O1 0.246519 0.638598 0.075886
O O2 0.192409 0.500000 0.000000
O O3 0.000000 0.625131 0.000000
O O4 0.735016 0.858648 0.078128
O O5 0.500000 0.897507 0.000000
O O6 0.730029 0.000000 0.000000
O O7 0.754840 0.101599 0.227510
O O8 0.766793 0.165952 0.371519
O O9 0.000000 0.110313 0.299193
O O10 0.799058 0.000000 0.346099
O O11 0.500000 0.126429 0.832332
O O12 0.682947 0.254990 0.813755
O O13 0.816456 0.500000 0.342924
O O14 0.740418 0.592359 0.224412
O O15 0.769532 0.664410 0.365368
O O16 0.000000 0.614298 0.284176
O O17 0.500000 0.622339 0.144382
O O18 0.240015 0.256091 0.500000
O O19 0.000000 0.252121 0.415575
#
# Coordination Sequence:
#
# PCOD8198471 Si02
#       7
#     4   4   8   8   8   8   8
#     4  11  24  39  55  79 112 151 194 236 281 331
#     4   9  17  30  49  73 100 133 176 221 259 304
#     4  10  20  34  55  83 113 145 183 227 277 332
#     4  10  20  35  55  78 107 145 187 227 272 329
#     4  10  20  35  57  83 111 145 186 231 281 337
#     4  11  22  36  56  81 111 149 192 235 280 330
#     4   9  18  34  56  82 113 145 179 227 283 337
#
# _framework density 19.588632
#
# number of rings (size 3 to 8) (size 9 to 14) (size 15 to 20)
#    0.000    2.000    1.667    2.250    0.000    6.667 
#    0.000    3.750    0.000    3.500    0.000    2.333 
#    0.000    0.000    0.000    0.000    0.000    0.000 
#
# Total GULP energy -595218.003391 kJ/mol
# GULP energy per Si atom -12400.375071 kJ/mol
# Density = 1.954405 g / cm^3
# Si number density = 19.588632 Si / 1000 Ang^3
#
#
#
# Elastic Constant Matrix: (Units=GPa)
#
#
# Indices 1 2 3 4 5 6 
#
# 1 59.7623 31.2895 34.2647 0.0000 0.0000 0.0000
# 2 31.2895 125.6338 60.0683 0.0000 0.0000 0.0000
# 3 34.2647 60.0683 145.6120 0.0000 0.0000 0.0000
# 4 0.0000 0.0000 0.0000 23.5587 0.0000 0.0000
# 5 0.0000 0.0000 0.0000 0.0000 5.8087 0.0000
# 6 0.0000 0.0000 0.0000 0.0000 0.0000 19.5928
#
#
#
# Elastic Compliance Matrix: (Units=1/GPa)
#
#
# Indices 1 2 3 4 5 6 
#
# 1 0.020500 -0.003487 -0.003385 0.000000 0.000000 0.000000
# 2 -0.003487 0.010508 -0.003514 0.000000 0.000000 0.000000
# 3 -0.003385 -0.003514 0.009114 0.000000 0.000000 0.000000
# 4 0.000000 0.000000 0.000000 0.042447 0.000000 0.000000
# 5 0.000000 0.000000 0.000000 0.000000 0.172155 0.000000
# 6 0.000000 0.000000 0.000000 0.000000 0.000000 0.051039
#
#
# Mechanical properties :
#
#
# Convention : Reuss Voigt Hill
#
# Bulk Modulus (GPa) = 51.68355 64.69478 58.18916
# Shear Modulus (GPa) = 15.01564 23.48441 19.25003
#
# Velocity S-wave (km/s) = 2.77167 3.46624 3.13823
# Velocity P-wave (km/s) = 6.05678 7.00843 6.54991
#
# Compressibility (1/GPa) = 0.01934852
#
# Stress axis : x y z
#
# Youngs Moduli (GPa) = 48.78142 95.16218 109.72124
#
# Poissons Ratio (x) = 0.33181 0.37146
# Poissons Ratio (y) = 0.17009 0.38561
# Poissons Ratio (z) = 0.16515 0.33444
#
# Static dielectric constant tensor:
#      x y z
#    x 3.280270 0.000000 0.000000 
#    y 0.000000 3.740470 0.000000 
#    z 0.000000 0.000000 3.622010 
# 
# 
# High freq. dielectric constant tensor:
#      x y z
#    x 1.728800 0.000000 0.000000 
#    y 0.000000 1.778910 0.000000 
#    z 0.000000 0.000000 1.760030 
# 
# From -- ./inp_files/26506.got.cif
#   From: 2010.03.12/outbox.cif.g09.slc.cpg/sg47_14_cif.got.tgz:26506.got - 2010.04.14 03:12:58.
