data_PCOD8198846
_publ_section_title
;
Structure prediction by ZEFSAII (Michael W. Deem and Ramdas Pophale) SiO2 
 PCOD8198846
Probable space group: P M M M
;
_chemical_formula_sum "Si O2"
_cell_formula_units_Z 38
_cell_length_a 17.083721
_cell_length_b 9.186744
_cell_length_c 11.934091
_cell_angle_alpha 90.000000
_cell_angle_beta 90.000000
_cell_angle_gamma 90.000000
_cell_volume 1872.981250
_symmetry_space_group_name_H-M "P M M M"
_symmetry_group_IT_number 47
_symmetry_cell_setting 'orthorhombic'
loop_
_space_group_symop_operation_xyz
x,y,z
-x,-y,z
x,-y,-z
-x,y,-z
-x,-y,-z
x,y,-z
-x,y,z
x,-y,z
loop_
_atom_site_type_symbol
_atom_site_label
_atom_site_fract_x
_atom_site_fract_y
_atom_site_fract_z
Si Si1 0.846772 0.829400 0.368983
Si Si2 0.000000 0.162695 0.249820
Si Si3 0.828250 0.661897 0.000000
Si Si4 0.262683 0.673598 0.788637
Si Si5 0.000000 0.751478 0.000000
Si Si6 0.409223 0.844468 0.500000
Si Si7 0.411213 0.174013 0.257249
O O1 0.857859 0.797991 0.500000
O O2 0.770808 0.742284 0.326017
O O3 0.922098 0.764062 0.301719
O O4 0.834399 0.000000 0.344529
O O5 0.000000 0.155803 0.114336
O O6 0.000000 0.000000 0.297195
O O7 0.793786 0.734230 0.887722
O O8 0.922115 0.655096 0.000000
O O9 0.794779 0.500000 0.000000
O O10 0.266000 0.500000 0.778531
O O11 0.348812 0.738909 0.817933
O O12 0.500000 0.882048 0.500000
O O13 0.391657 0.763540 0.616984
O O14 0.363598 0.000000 0.500000
O O15 0.500000 0.213780 0.220655
O O16 0.399428 0.000000 0.250669
#
# Coordination Sequence:
#
# PCOD8198846 Si02
#       7
#     8   4   4   8   2   4   8
#     4  10  21  38  59  84 119 159 192 229 288 354
#     4  10  20  35  58  89 116 146 193 245 291 336
#     4  10  23  41  60  81 111 157 198 234 286 347
#     4  11  23  39  58  84 117 151 196 244 288 339
#     4  12  18  38  64  82 112 150 200 246 282 334
#     4   7  12  26  51  79 107 140 179 220 265 329
#     4   9  18  35  58  84 114 151 193 234 285 346
#
# _framework density 20.288512000000001
#
# number of rings (size 3 to 8) (size 9 to 14) (size 15 to 20)
#    0.000    2.211    2.105    2.526    1.474    2.105 
#    0.000    3.158    0.000    6.316    0.000    0.000 
#    0.000    0.000    0.000    0.000    0.000    0.000 
#
# Total GULP energy -470787.095813 kJ/mol
# GULP energy per Si atom -12389.134100 kJ/mol
# Density = 2.024233 g / cm^3
# Si number density = 20.288512 Si / 1000 Ang^3
#
#
#
# Elastic Constant Matrix: (Units=GPa)
#
#
# Indices 1 2 3 4 5 6 
#
# 1 160.9019 46.9039 55.1861 0.0000 0.0000 0.0000
# 2 46.9039 62.4074 30.0291 0.0000 0.0000 0.0000
# 3 55.1861 30.0291 101.0200 0.0000 0.0000 0.0000
# 4 0.0000 0.0000 0.0000 20.7898 0.0000 0.0000
# 5 0.0000 0.0000 0.0000 0.0000 26.2573 0.0000
# 6 0.0000 0.0000 0.0000 0.0000 0.0000 24.6452
#
#
#
# Elastic Compliance Matrix: (Units=1/GPa)
#
#
# Indices 1 2 3 4 5 6 
#
# 1 0.008821 -0.005031 -0.003324 0.000000 0.000000 0.000000
# 2 -0.005031 0.021567 -0.003663 0.000000 0.000000 0.000000
# 3 -0.003324 -0.003663 0.012803 0.000000 0.000000 0.000000
# 4 0.000000 0.000000 0.000000 0.048101 0.000000 0.000000
# 5 0.000000 0.000000 0.000000 0.000000 0.038085 0.000000
# 6 0.000000 0.000000 0.000000 0.000000 0.000000 0.040576
#
#
# Mechanical properties :
#
#
# Convention : Reuss Voigt Hill
#
# Bulk Modulus (GPa) = 52.19805 65.39637 58.79721
# Shear Modulus (GPa) = 24.95344 27.15248 26.05296
#
# Velocity S-wave (km/s) = 3.51084 3.66227 3.58735
# Velocity P-wave (km/s) = 6.49757 7.08422 6.79723
#
# Compressibility (1/GPa) = 0.01915780
#
# Stress axis : x y z
#
# Youngs Moduli (GPa) = 113.36110 46.36679 78.10379
#
# Poissons Ratio (x) = 0.23326 0.25959
# Poissons Ratio (y) = 0.57028 0.28608
# Poissons Ratio (z) = 0.37677 0.16983
#
# Static dielectric constant tensor:
#      x y z
#    x 3.829130 0.000000 0.000000 
#    y 0.000000 3.167270 0.000000 
#    z 0.000000 0.000000 3.859860 
# 
# 
# High freq. dielectric constant tensor:
#      x y z
#    x 1.807880 0.000000 0.000000 
#    y 0.000000 1.747230 0.000000 
#    z 0.000000 0.000000 1.787160 
# 
# From -- ./inp_files/18257.got.cif
#   From: 2010.03.12/outbox.cif.g09.slc.cpg/sg47_10_cif.got.tgz:18257.got - 2010.04.14 03:12:58.
