data_PCOD8198895
_publ_section_title
;
Structure prediction by ZEFSAII (Michael W. Deem and Ramdas Pophale) SiO2 
 PCOD8198895
Probable space group: P M M M
;
_chemical_formula_sum "Si O2"
_cell_formula_units_Z 48
_cell_length_a 9.873422
_cell_length_b 8.744819
_cell_length_c 29.226627
_cell_angle_alpha 90.000000
_cell_angle_beta 90.000000
_cell_angle_gamma 90.000000
_cell_volume 2523.464628
_symmetry_space_group_name_H-M "P M M M"
_symmetry_group_IT_number 47
_symmetry_cell_setting 'orthorhombic'
loop_
_space_group_symop_operation_xyz
x,y,z
-x,-y,z
x,-y,-z
-x,y,-z
-x,-y,-z
x,y,-z
-x,y,z
x,-y,z
loop_
_atom_site_type_symbol
_atom_site_label
_atom_site_fract_x
_atom_site_fract_y
_atom_site_fract_z
Si Si1 0.841986 0.323827 0.308537
Si Si2 0.345635 0.181943 0.130096
Si Si3 0.000000 0.674310 0.554221
Si Si4 0.251142 0.820428 0.398238
Si Si5 0.155189 0.820791 0.787358
Si Si6 0.500000 0.319790 0.551267
Si Si7 0.151676 0.818092 0.051245
O O1 0.801429 0.500000 0.313534
O O2 0.759662 0.225003 0.345116
O O3 0.802520 0.268042 0.258185
O O4 0.000000 0.297006 0.317990
O O5 0.500000 0.246748 0.131520
O O6 0.259646 0.236184 0.173999
O O7 0.265698 0.247205 0.085707
O O8 0.350035 0.000000 0.128314
O O9 0.874602 0.767338 0.572401
O O10 0.000000 0.500000 0.573326
O O11 0.000000 0.672675 0.500000
O O12 0.373651 0.733675 0.420378
O O13 0.271599 0.000000 0.402051
O O14 0.000000 0.782450 0.801923
O O15 0.170436 0.000000 0.778063
O O16 0.500000 0.500000 0.547671
O O17 0.500000 0.249333 0.500000
O O18 0.000000 0.761092 0.064880
O O19 0.152516 0.000000 0.053293
O O20 0.187618 0.761799 0.000000
#
# Coordination Sequence:
#
# PCOD8198895 Si02
#       7
#     8   8   4   8   8   4   8
#     4  10  20  36  59  83 109 140 179 226 277 333
#     4   9  16  25  38  60  91 127 166 213 266 315
#     4  11  23  39  61  89 121 157 193 231 280 335
#     4  12  24  39  62  90 119 150 190 238 284 334
#     4   9  17  30  49  70  95 129 170 213 261 319
#     4  11  25  45  65  85 117 159 195 229 278 339
#     4   8  13  21  34  54  84 125 171 213 256 313
#
# _framework density 19.021467000000001
#
# number of rings (size 3 to 8) (size 9 to 14) (size 15 to 20)
#    0.000    2.167    0.833    4.000    0.000    6.333 
#    1.500    1.667    0.000    0.000    0.000    0.000 
#    0.000    0.667    0.000    7.667    0.000    9.833 
#
# Total GULP energy -595119.439771 kJ/mol
# GULP energy per Si atom -12398.321662 kJ/mol
# Density = 1.897817 g / cm^3
# Si number density = 19.021467 Si / 1000 Ang^3
#
#
#
# Elastic Constant Matrix: (Units=GPa)
#
#
# Indices 1 2 3 4 5 6 
#
# 1 135.8297 12.8140 73.3417 0.0000 0.0000 0.0000
# 2 12.8140 41.5912 23.0553 0.0000 0.0000 0.0000
# 3 73.3417 23.0553 135.8752 0.0000 0.0000 0.0000
# 4 0.0000 0.0000 0.0000 2.6960 0.0000 0.0000
# 5 0.0000 0.0000 0.0000 0.0000 30.3770 0.0000
# 6 0.0000 0.0000 0.0000 0.0000 0.0000 136.4304
#
#
#
# Elastic Compliance Matrix: (Units=1/GPa)
#
#
# Indices 1 2 3 4 5 6 
#
# 1 0.010391 -0.000102 -0.005591 0.000000 0.000000 0.000000
# 2 -0.000102 0.026541 -0.004448 0.000000 0.000000 0.000000
# 3 -0.005591 -0.004448 0.011133 0.000000 0.000000 0.000000
# 4 0.000000 0.000000 0.000000 0.370919 0.000000 0.000000
# 5 0.000000 0.000000 0.000000 0.000000 0.032920 0.000000
# 6 0.000000 0.000000 0.000000 0.000000 0.000000 0.007330
#
#
# Mechanical properties :
#
#
# Convention : Reuss Voigt Hill
#
# Bulk Modulus (GPa) = 35.99608 59.07982 47.53795
# Shear Modulus (GPa) = 10.22963 47.50637 28.86800
#
# Velocity S-wave (km/s) = 2.32155 5.00293 3.89993
# Velocity P-wave (km/s) = 5.11382 8.03115 6.73241
#
# Compressibility (1/GPa) = 0.02778080
#
# Stress axis : x y z
#
# Youngs Moduli (GPa) = 96.23822 37.67779 89.82618
#
# Poissons Ratio (x) = 0.00384 0.50226
# Poissons Ratio (y) = 0.00980 0.39959
# Poissons Ratio (z) = 0.53811 0.16761
#
# Static dielectric constant tensor:
#      x y z
#    x 3.554290 0.000000 0.000000 
#    y 0.000000 3.184450 0.000000 
#    z 0.000000 0.000000 3.727500 
# 
# 
# High freq. dielectric constant tensor:
#      x y z
#    x 1.736400 0.000000 0.000000 
#    y 0.000000 1.705580 0.000000 
#    z 0.000000 0.000000 1.755340 
# 
# From -- ./inp_files/13852.got.cif
#   From: 2010.03.12/outbox.cif.g09.slc.cpg/sg47_7_cif.got.tgz:13852.got - 2010.04.14 03:12:58.
