data_PCOD8198371
_publ_section_title
;
Structure prediction by ZEFSAII (Michael W. Deem and Ramdas Pophale) SiO2 
 PCOD8198371
Probable space group: P M M M
;
_chemical_formula_sum "Si O2"
_cell_formula_units_Z 48
_cell_length_a 9.102388
_cell_length_b 30.822099
_cell_length_c 9.090010
_cell_angle_alpha 90.000000
_cell_angle_beta 90.000000
_cell_angle_gamma 90.000000
_cell_volume 2550.245066
_symmetry_space_group_name_H-M "P M M M"
_symmetry_group_IT_number 47
_symmetry_cell_setting 'orthorhombic'
loop_
_space_group_symop_operation_xyz
x,y,z
-x,-y,z
x,-y,-z
-x,y,-z
-x,-y,-z
x,y,-z
-x,y,z
x,-y,z
loop_
_atom_site_type_symbol
_atom_site_label
_atom_site_fract_x
_atom_site_fract_y
_atom_site_fract_z
Si Si1 0.828593 0.248603 0.669453
Si Si2 0.174511 0.500000 0.665846
Si Si3 0.668152 0.171976 0.826784
Si Si4 0.830036 0.585850 0.172603
Si Si5 0.327538 0.336994 0.669191
Si Si6 0.671091 0.915243 0.330082
Si Si7 0.165867 0.000000 0.324949
O O1 0.794768 0.237537 0.500000
O O2 0.771373 0.209799 0.768843
O O3 0.746186 0.292149 0.718216
O O4 0.000000 0.255513 0.698154
O O5 0.236704 0.500000 0.500000
O O6 0.231900 0.542707 0.748997
O O7 0.000000 0.500000 0.667340
O O8 0.500000 0.181195 0.779041
O O9 0.723652 0.126832 0.758702
O O10 0.684288 0.168848 0.000000
O O11 0.734702 0.625867 0.227067
O O12 0.000000 0.594109 0.213498
O O13 0.808751 0.579683 0.000000
O O14 0.288931 0.347909 0.500000
O O15 0.500000 0.332648 0.694482
O O16 0.710816 0.907284 0.500000
O O17 0.500000 0.924324 0.307829
O O18 0.755257 0.956869 0.264533
O O19 0.176042 0.000000 0.500000
O O20 0.000000 0.000000 0.267328
#
# Coordination Sequence:
#
# PCOD8198371 Si02
#       7
#     8   4   8   8   8   8   4
#     4  10  21  37  58  82 106 136 176 220 265 314
#     4   9  17  31  54  81 108 141 180 222 266 311
#     4  10  21  36  54  78 108 141 176 215 262 315
#     4  10  20  34  54  81 112 144 178 217 263 316
#     4  10  21  37  57  80 106 138 177 220 265 313
#     4   9  17  31  52  75 100 133 172 212 256 308
#     4   9  17  29  48  75 102 128 166 217 264 305
#
# _framework density 18.821721
#
# number of rings (size 3 to 8) (size 9 to 14) (size 15 to 20)
#    0.000    2.333    0.000    2.500    0.000    7.333 
#    0.000    2.500    0.000    5.000    0.000    0.000 
#    0.000    0.000    0.000    0.000    0.000    0.000 
#
# Total GULP energy -595384.363535 kJ/mol
# GULP energy per Si atom -12403.840907 kJ/mol
# Density = 1.877888 g / cm^3
# Si number density = 18.821721 Si / 1000 Ang^3
#
#
#
# Elastic Constant Matrix: (Units=GPa)
#
#
# Indices 1 2 3 4 5 6 
#
# 1 80.8070 67.3856 39.5908 0.0000 0.0000 0.0000
# 2 67.3856 169.1937 65.4521 0.0000 0.0000 0.0000
# 3 39.5908 65.4521 77.2007 0.0000 0.0000 0.0000
# 4 0.0000 0.0000 0.0000 0.7122 0.0000 0.0000
# 5 0.0000 0.0000 0.0000 0.0000 23.8024 0.0000
# 6 0.0000 0.0000 0.0000 0.0000 0.0000 50.7299
#
#
#
# Elastic Compliance Matrix: (Units=1/GPa)
#
#
# Indices 1 2 3 4 5 6 
#
# 1 0.019824 -0.005896 -0.005167 0.000000 0.000000 0.000000
# 2 -0.005896 0.010549 -0.005920 0.000000 0.000000 0.000000
# 3 -0.005167 -0.005920 0.020622 0.000000 0.000000 0.000000
# 4 0.000000 0.000000 0.000000 1.404096 0.000000 0.000000
# 5 0.000000 0.000000 0.000000 0.000000 0.042013 0.000000
# 6 0.000000 0.000000 0.000000 0.000000 0.000000 0.019712
#
#
# Mechanical properties :
#
#
# Convention : Reuss Voigt Hill
#
# Bulk Modulus (GPa) = 58.72630 74.67315 66.69973
# Shear Modulus (GPa) = 3.21242 25.36709 14.28976
#
# Velocity S-wave (km/s) = 1.30785 3.67516 2.75838
# Velocity P-wave (km/s) = 5.79221 7.60060 6.75718
#
# Compressibility (1/GPa) = 0.01702815
#
# Stress axis : x y z
#
# Youngs Moduli (GPa) = 50.44423 94.79794 48.49241
#
# Poissons Ratio (x) = 0.55897 0.25057
# Poissons Ratio (y) = 0.29744 0.28705
# Poissons Ratio (z) = 0.26065 0.56116
#
# Static dielectric constant tensor:
#      x y z
#    x 3.364360 0.000000 0.000000 
#    y 0.000000 3.617920 0.000000 
#    z 0.000000 0.000000 3.335490 
# 
# 
# High freq. dielectric constant tensor:
#      x y z
#    x 1.721020 0.000000 0.000000 
#    y 0.000000 1.745860 0.000000 
#    z 0.000000 0.000000 1.719860 
# 
# From -- ./inp_files/2636.got.cif
#   From: 2010.03.12/outbox.cif.g09.slc.cpg/sg47_2_cif.got.tgz:2636.got - 2010.04.14 03:12:58.
