data_PCOD8198182
_publ_section_title
;
Structure prediction by ZEFSAII (Michael W. Deem and Ramdas Pophale) SiO2 
 PCOD8198182
Probable space group: P M M M
;
_chemical_formula_sum "Si O2"
_cell_formula_units_Z 56
_cell_length_a 15.073940
_cell_length_b 9.125351
_cell_length_c 21.025115
_cell_angle_alpha 90.000000
_cell_angle_beta 90.000000
_cell_angle_gamma 90.000000
_cell_volume 2892.109556
_symmetry_space_group_name_H-M "P M M M"
_symmetry_group_IT_number 47
_symmetry_cell_setting 'orthorhombic'
loop_
_space_group_symop_operation_xyz
x,y,z
-x,-y,z
x,-y,-z
-x,y,-z
-x,-y,-z
x,y,-z
-x,y,z
x,-y,z
loop_
_atom_site_type_symbol
_atom_site_label
_atom_site_fract_x
_atom_site_fract_y
_atom_site_fract_z
Si Si1 0.599511 0.169486 0.241817
Si Si2 0.354910 0.665858 0.630683
Si Si3 0.845758 0.337874 0.382033
Si Si4 0.900010 0.172321 0.500000
Si Si5 0.099889 0.330617 0.925420
Si Si6 0.904255 0.836870 0.728722
Si Si7 0.395976 0.165413 0.500000
Si Si8 0.231012 0.828274 0.165237
O O1 0.500000 0.188078 0.213575
O O2 0.601331 0.254453 0.308924
O O3 0.669749 0.224032 0.187229
O O4 0.621151 0.000000 0.257215
O O5 0.393187 0.500000 0.624495
O O6 0.251763 0.659423 0.647022
O O7 0.368625 0.748970 0.563963
O O8 0.877673 0.500000 0.402045
O O9 0.845263 0.230083 0.441006
O O10 0.911536 0.273914 0.329670
O O11 0.000000 0.234921 0.500000
O O12 0.900445 0.000000 0.500000
O O13 0.107052 0.500000 0.906811
O O14 0.185518 0.250443 0.894750
O O15 0.000000 0.274236 0.905065
O O16 0.110755 0.306484 0.000000
O O17 0.830638 0.782529 0.776547
O O18 0.000000 0.836102 0.763120
O O19 0.881320 0.000000 0.703382
O O20 0.500000 0.151072 0.500000
O O21 0.354498 0.000000 0.500000
O O22 0.230305 0.000000 0.150053
#
# Coordination Sequence:
#
# PCOD8198182 Si02
#       8
#     8   8   8   4   8   8   4   8
#     4  10  21  38  60  84 112 149 192 236 286 343
#     4  11  23  38  56  80 108 138 179 232 288 345
#     4  11  23  37  53  75 102 134 176 223 272 330
#     4  11  24  39  54  72  96 133 180 226 277 335
#     4   9  19  36  58  87 124 162 196 231 274 326
#     4  10  20  34  53  78 108 142 180 221 270 326
#     4  11  24  39  56  78 102 133 176 226 287 355
#     4  10  20  35  57  85 117 150 189 235 278 324
#
# _framework density 19.363029000000001
#
# number of rings (size 3 to 8) (size 9 to 14) (size 15 to 20)
#    0.000    1.714    1.429    3.429    0.000   10.857 
#    0.000    0.714    0.000    0.429    0.000    3.000 
#    0.000    0.000    0.000    0.000    0.000    0.000 
#
# Total GULP energy -693973.313684 kJ/mol
# GULP energy per Si atom -12392.380601 kJ/mol
# Density = 1.931896 g / cm^3
# Si number density = 19.363029 Si / 1000 Ang^3
#
#
#
# Elastic Constant Matrix: (Units=GPa)
#
#
# Indices 1 2 3 4 5 6 
#
# 1 117.8536 32.8277 44.5876 0.0000 0.0000 0.0000
# 2 32.8277 89.3093 42.7604 0.0000 0.0000 0.0000
# 3 44.5876 42.7604 81.8311 0.0000 0.0000 0.0000
# 4 0.0000 0.0000 0.0000 36.3564 0.0000 0.0000
# 5 0.0000 0.0000 0.0000 0.0000 425.5026 0.0000
# 6 0.0000 0.0000 0.0000 0.0000 0.0000 21.5474
#
#
#
# Elastic Compliance Matrix: (Units=1/GPa)
#
#
# Indices 1 2 3 4 5 6 
#
# 1 0.010846 -0.001543 -0.005103 0.000000 0.000000 0.000000
# 2 -0.001543 0.015153 -0.007077 0.000000 0.000000 0.000000
# 3 -0.005103 -0.007077 0.018699 0.000000 0.000000 0.000000
# 4 0.000000 0.000000 0.000000 0.027505 0.000000 0.000000
# 5 0.000000 0.000000 0.000000 0.000000 0.002350 0.000000
# 6 0.000000 0.000000 0.000000 0.000000 0.000000 0.046409
#
#
# Mechanical properties :
#
#
# Convention : Reuss Voigt Hill
#
# Bulk Modulus (GPa) = 57.96958 58.81614 58.39286
# Shear Modulus (GPa) = 32.43400 107.93583 70.18491
#
# Velocity S-wave (km/s) = 4.09717 7.47424 6.02707
# Velocity P-wave (km/s) = 7.23780 10.24339 8.86885
#
# Compressibility (1/GPa) = 0.01725043
#
# Stress axis : x y z
#
# Youngs Moduli (GPa) = 92.20316 65.99459 53.47907
#
# Poissons Ratio (x) = 0.10185 0.27291
# Poissons Ratio (y) = 0.14229 0.37848
# Poissons Ratio (z) = 0.47052 0.46705
#
# Static dielectric constant tensor:
#      x y z
#    x 3.968510 0.000000 0.000000 
#    y 0.000000 3.648540 0.000000 
#    z 0.000000 0.000000 3.117690 
# 
# 
# High freq. dielectric constant tensor:
#      x y z
#    x 1.763740 0.000000 0.000000 
#    y 0.000000 1.754630 0.000000 
#    z 0.000000 0.000000 1.727600 
# 
# From -- ./inp_files/31057.got.cif
#   From: 2010.03.12/outbox.cif.g09.slc.cpg/sg47_16_cif.got.tgz:31057.got - 2010.04.14 03:12:58.
