data_PCOD8198060
_publ_section_title
;
Structure prediction by ZEFSAII (Michael W. Deem and Ramdas Pophale) SiO2 
 PCOD8198060
Probable space group: P M M M
;
_chemical_formula_sum "Si O2"
_cell_formula_units_Z 48
_cell_length_a 8.713747
_cell_length_b 9.164361
_cell_length_c 31.557798
_cell_angle_alpha 90.000000
_cell_angle_beta 90.000000
_cell_angle_gamma 90.000000
_cell_volume 2520.077093
_symmetry_space_group_name_H-M "P M M M"
_symmetry_group_IT_number 47
_symmetry_cell_setting 'orthorhombic'
loop_
_space_group_symop_operation_xyz
x,y,z
-x,-y,z
x,-y,-z
-x,y,-z
-x,-y,-z
x,y,-z
-x,y,z
x,-y,z
loop_
_atom_site_type_symbol
_atom_site_label
_atom_site_fract_x
_atom_site_fract_y
_atom_site_fract_z
Si Si1 0.681812 0.664054 0.791707
Si Si2 0.677791 0.673615 0.636519
Si Si3 0.178778 0.832014 0.286107
Si Si4 0.682005 0.663287 0.544773
Si Si5 0.682504 0.663950 0.953313
Si Si6 0.316779 0.163941 0.126879
O O1 0.500000 0.658630 0.793608
O O2 0.749047 0.500000 0.789625
O O3 0.728772 0.752937 0.750621
O O4 0.747038 0.742890 0.833655
O O5 0.500000 0.712208 0.645174
O O6 0.702376 0.500000 0.639979
O O7 0.783968 0.756225 0.669542
O O8 0.732919 0.733201 0.589763
O O9 0.000000 0.816486 0.276593
O O10 0.230452 0.000000 0.287896
O O11 0.733892 0.742620 0.500000
O O12 0.500000 0.655912 0.546232
O O13 0.748347 0.500000 0.543224
O O14 0.500000 0.664303 0.951341
O O15 0.742807 0.500000 0.945229
O O16 0.749282 0.768551 0.916807
O O17 0.736518 0.718401 0.000000
O O18 0.500000 0.165360 0.126558
O O19 0.253595 0.000000 0.131114
#
# Coordination Sequence:
#
# PCOD8198060 Si02
#       6
#     8   8   8   8   8   8
#     4  10  20  34  53  74  94 119 155 198 242 289
#     4   9  17  30  51  78 102 125 158 197 236 281
#     4  11  24  38  50  67  94 127 161 197 239 287
#     4   7  10  19  39  69 101 126 149 185 232 275
#     4   8  13  21  33  51  80 119 158 193 230 273
#     4   9  16  25  39  61  89 120 153 190 233 281
#
# _framework density 19.047035999999999
#
# number of rings (size 3 to 8) (size 9 to 14) (size 15 to 20)
#    0.000    3.000    0.000    4.000    0.000    7.000 
#    0.000    1.667    0.000    1.000    0.000    5.833 
#    0.000    0.667    0.000    7.000    0.000    9.667 
#
# Total GULP energy -594680.201797 kJ/mol
# GULP energy per Si atom -12389.170871 kJ/mol
# Density = 1.900368 g / cm^3
# Si number density = 19.047036 Si / 1000 Ang^3
#
#
#
# Elastic Constant Matrix: (Units=GPa)
#
#
# Indices 1 2 3 4 5 6 
#
# 1 8.5234 11.7970 5.8352 0.0000 0.0000 0.0000
# 2 11.7970 103.6799 68.5418 0.0000 0.0000 0.0000
# 3 5.8352 68.5418 180.4426 0.0000 0.0000 0.0000
# 4 0.0000 0.0000 0.0000 4.3181 0.0000 0.0000
# 5 0.0000 0.0000 0.0000 0.0000 -1.9295 0.0000
# 6 0.0000 0.0000 0.0000 0.0000 0.0000 14.5174
#
#
#
# Elastic Compliance Matrix: (Units=1/GPa)
#
#
# Indices 1 2 3 4 5 6 
#
# 1 0.139810 -0.017251 0.002032 0.000000 0.000000 0.000000
# 2 -0.017251 0.015008 -0.005143 0.000000 0.000000 0.000000
# 3 0.002032 -0.005143 0.007430 0.000000 0.000000 0.000000
# 4 0.000000 0.000000 0.000000 0.231585 0.000000 0.000000
# 5 0.000000 0.000000 0.000000 0.000000 -0.518267 0.000000
# 6 0.000000 0.000000 0.000000 0.000000 0.000000 0.068883
#
#
# Mechanical properties :
#
#
# Convention : Reuss Voigt Hill
#
# Bulk Modulus (GPa) = 8.22888 51.66598 29.94743
# Shear Modulus (GPa) = 194.68846 17.14597 105.91722
#
# Velocity S-wave (km/s) = 10.12109 3.00357 7.46518
# Velocity P-wave (km/s) = 11.87062 6.26203 9.49012
#
# Compressibility (1/GPa) = 0.12152324
#
# Stress axis : x y z
#
# Youngs Moduli (GPa) = 7.15255 66.63146 134.59319
#
# Poissons Ratio (x) = 1.14947 -0.27346
# Poissons Ratio (y) = 0.12339 0.69221
# Poissons Ratio (z) = -0.01453 0.34268
#
# Static dielectric constant tensor:
#      x y z
#    x 2.851360 0.000000 0.000000 
#    y 0.000000 3.463610 0.000000 
#    z 0.000000 0.000000 4.062250 
# 
# 
# High freq. dielectric constant tensor:
#      x y z
#    x 1.674320 0.000000 0.000000 
#    y 0.000000 1.720260 0.000000 
#    z 0.000000 0.000000 1.771200 
# 
# From -- ./inp_files/13799.got.cif
#   From: 2010.03.12/outbox.cif.g09.slc.cpg/sg47_7_cif.got.tgz:13799.got - 2010.04.14 03:12:58.
