data_PCOD8198535
_publ_section_title
;
Structure prediction by ZEFSAII (Michael W. Deem and Ramdas Pophale) SiO2 
 PCOD8198535
Probable space group: P M M M
;
_chemical_formula_sum "Si O2"
_cell_formula_units_Z 48
_cell_length_a 28.778294
_cell_length_b 10.257852
_cell_length_c 8.123734
_cell_angle_alpha 90.000000
_cell_angle_beta 90.000000
_cell_angle_gamma 90.000000
_cell_volume 2398.154553
_symmetry_space_group_name_H-M "P M M M"
_symmetry_group_IT_number 47
_symmetry_cell_setting 'orthorhombic'
loop_
_space_group_symop_operation_xyz
x,y,z
-x,-y,z
x,-y,-z
-x,y,-z
-x,-y,-z
x,y,-z
-x,y,z
x,-y,z
loop_
_atom_site_type_symbol
_atom_site_label
_atom_site_fract_x
_atom_site_fract_y
_atom_site_fract_z
Si Si1 0.449075 0.727863 0.189060
Si Si2 0.887607 0.651187 0.686976
Si Si3 0.948412 0.653682 0.000000
Si Si4 0.643963 0.357464 0.688889
Si Si5 0.183483 0.851757 0.189671
Si Si6 0.285498 0.147140 0.307634
Si Si7 0.445152 0.000000 0.681063
O O1 0.500000 0.703734 0.275709
O O2 0.408769 0.631931 0.246395
O O3 0.429121 0.872312 0.222412
O O4 0.457454 0.706147 0.000000
O O5 0.908155 0.666071 0.500000
O O6 0.872998 0.500000 0.716499
O O7 0.843200 0.745536 0.700256
O O8 0.923449 0.697494 0.829585
O O9 0.952300 0.500000 0.000000
O O10 0.000000 0.716232 0.000000
O O11 0.640070 0.320938 0.500000
O O12 0.666580 0.500000 0.718449
O O13 0.676634 0.246975 0.770070
O O14 0.238052 0.828349 0.211007
O O15 0.170665 0.000000 0.245038
O O16 0.170039 0.830046 0.000000
O O17 0.276286 0.174018 0.500000
O O18 0.303730 0.000000 0.278802
O O19 0.500000 0.000000 0.666741
O O20 0.421968 0.000000 0.500000
#
# Coordination Sequence:
#
# PCOD8198535 Si02
#       7
#     8   8   4   8   8   8   4
#     4  10  21  36  54  78 107 137 173 217 267 324
#     4  10  20  34  56  86 118 157 204 250 300 354
#     4   9  18  34  55  83 123 163 203 255 304 349
#     4  10  22  38  55  78 108 142 182 225 271 327
#     4  10  20  35  57  85 116 151 192 237 289 349
#     4   9  19  36  56  78 106 142 183 227 278 336
#     4   9  17  31  53  79 103 129 165 207 253 305
#
# _framework density 20.01539
#
# number of rings (size 3 to 8) (size 9 to 14) (size 15 to 20)
#    0.000    2.333    0.833    1.250    1.167    5.333 
#    0.000    5.000    0.000    1.000    0.000    1.167 
#    0.000    0.000    0.000    0.000    0.000    0.000 
#
# Total GULP energy -594851.002638 kJ/mol
# GULP energy per Si atom -12392.729222 kJ/mol
# Density = 1.996983 g / cm^3
# Si number density = 20.015390 Si / 1000 Ang^3
#
#
#
# Elastic Constant Matrix: (Units=GPa)
#
#
# Indices 1 2 3 4 5 6 
#
# 1 100.3765 55.6467 39.5626 0.0000 0.0000 0.0000
# 2 55.6467 88.7388 40.9072 0.0000 0.0000 0.0000
# 3 39.5626 40.9072 79.1610 0.0000 0.0000 0.0000
# 4 0.0000 0.0000 0.0000 18.9924 0.0000 0.0000
# 5 0.0000 0.0000 0.0000 0.0000 26.4371 0.0000
# 6 0.0000 0.0000 0.0000 0.0000 0.0000 24.8244
#
#
#
# Elastic Compliance Matrix: (Units=1/GPa)
#
#
# Indices 1 2 3 4 5 6 
#
# 1 0.016058 -0.008362 -0.003704 0.000000 0.000000 0.000000
# 2 -0.008362 0.019148 -0.005715 0.000000 0.000000 0.000000
# 3 -0.003704 -0.005715 0.017437 0.000000 0.000000 0.000000
# 4 0.000000 0.000000 0.000000 0.052653 0.000000 0.000000
# 5 0.000000 0.000000 0.000000 0.000000 0.037826 0.000000
# 6 0.000000 0.000000 0.000000 0.000000 0.000000 0.040283
#
#
# Mechanical properties :
#
#
# Convention : Reuss Voigt Hill
#
# Bulk Modulus (GPa) = 58.55063 60.05660 59.30362
# Shear Modulus (GPa) = 22.25567 22.86143 22.55855
#
# Velocity S-wave (km/s) = 3.33818 3.38330 3.36081
# Velocity P-wave (km/s) = 6.64637 6.73295 6.68980
#
# Compressibility (1/GPa) = 0.01707924
#
# Stress axis : x y z
#
# Youngs Moduli (GPa) = 62.27251 52.22566 57.34846
#
# Poissons Ratio (x) = 0.43673 0.21243
# Poissons Ratio (y) = 0.52075 0.32777
# Poissons Ratio (z) = 0.23067 0.29849
#
# Static dielectric constant tensor:
#      x y z
#    x 2.226830 0.000000 0.000000 
#    y 0.000000 3.618350 0.000000 
#    z 0.000000 0.000000 3.608460 
# 
# 
# High freq. dielectric constant tensor:
#      x y z
#    x 1.760010 0.000000 0.000000 
#    y 0.000000 1.775840 0.000000 
#    z 0.000000 0.000000 1.776710 
# 
# From -- ./inp_files/13887.got.cif
#   From: 2010.03.12/outbox.cif.g09.slc.cpg/sg47_7_cif.got.tgz:13887.got - 2010.04.14 03:12:58.
