data_PCOD8198055
_publ_section_title
;
Structure prediction by ZEFSAII (Michael W. Deem and Ramdas Pophale) SiO2 
 PCOD8198055
Probable space group: P M M M
;
_chemical_formula_sum "Si O2"
_cell_formula_units_Z 44
_cell_length_a 31.999041
_cell_length_b 7.852793
_cell_length_c 9.228688
_cell_angle_alpha 90.000000
_cell_angle_beta 90.000000
_cell_angle_gamma 90.000000
_cell_volume 2319.001749
_symmetry_space_group_name_H-M "P M M M"
_symmetry_group_IT_number 47
_symmetry_cell_setting 'orthorhombic'
loop_
_space_group_symop_operation_xyz
x,y,z
-x,-y,z
x,-y,-z
-x,y,-z
-x,-y,-z
x,y,-z
-x,y,z
x,-y,z
loop_
_atom_site_type_symbol
_atom_site_label
_atom_site_fract_x
_atom_site_fract_y
_atom_site_fract_z
Si Si1 0.000000 0.699571 0.836460
Si Si2 0.912013 0.198137 0.838311
Si Si3 0.546945 0.689038 0.172241
Si Si4 0.304718 0.000000 0.171686
Si Si5 0.601583 0.000000 0.173421
Si Si6 0.167482 0.798820 0.667278
Si Si7 0.752214 0.691401 0.167250
O O1 0.957139 0.765937 0.762590
O O2 0.000000 0.500000 0.830626
O O3 0.000000 0.772217 0.000000
O O4 0.875152 0.273040 0.738934
O O5 0.904639 0.000000 0.851691
O O6 0.910294 0.281480 0.000000
O O7 0.500000 0.727574 0.228056
O O8 0.561129 0.500000 0.224241
O O9 0.578298 0.831723 0.234355
O O10 0.547231 0.695742 0.000000
O O11 0.281181 0.829338 0.226118
O O12 0.351436 0.000000 0.236341
O O13 0.307465 0.000000 0.000000
O O14 0.601467 0.000000 0.000000
O O15 0.166392 0.748227 0.500000
O O16 0.205671 0.703649 0.741896
O O17 0.172712 0.000000 0.689643
O O18 0.733778 0.500000 0.184874
O O19 0.762966 0.730580 0.000000
#
# Coordination Sequence:
#
# PCOD8198055 Si02
#       7
#     4   8   8   4   4   8   8
#     4   9  17  29  46  69  96 124 158 197 232 277
#     4   9  17  30  50  73  97 127 160 195 237 286
#     4   8  13  20  30  47  74 109 150 194 237 284
#     4   9  18  31  45  64  91 118 157 210 254 297
#     4   9  15  22  35  53  75 109 149 197 248 287
#     4  10  20  34  53  76 100 126 159 202 250 297
#     4  10  20  34  53  73  95 127 163 202 252 304
#
# _framework density 18.973680999999999
#
# number of rings (size 3 to 8) (size 9 to 14) (size 15 to 20)
#    0.000    2.818    0.909    1.636    0.000    4.727 
#    0.000    5.909    0.000    2.727    0.000    0.000 
#    0.000    0.000    0.000    0.000    0.000    7.273 
#
# Total GULP energy -545367.566006 kJ/mol
# GULP energy per Si atom -12394.717409 kJ/mol
# Density = 1.893050 g / cm^3
# Si number density = 18.973681 Si / 1000 Ang^3
#
#
#
# Elastic Constant Matrix: (Units=GPa)
#
#
# Indices 1 2 3 4 5 6 
#
# 1 172.7578 78.8895 34.0717 0.0000 0.0000 0.0000
# 2 78.8895 112.3812 25.6749 0.0000 0.0000 0.0000
# 3 34.0717 25.6749 43.5744 0.0000 0.0000 0.0000
# 4 0.0000 0.0000 0.0000 10.0114 0.0000 0.0000
# 5 0.0000 0.0000 0.0000 0.0000 1.6805 0.0000
# 6 0.0000 0.0000 0.0000 0.0000 0.0000 14.6309
#
#
#
# Elastic Compliance Matrix: (Units=1/GPa)
#
#
# Indices 1 2 3 4 5 6 
#
# 1 0.009046 -0.005470 -0.003850 0.000000 0.000000 0.000000
# 2 -0.005470 0.013591 -0.003730 0.000000 0.000000 0.000000
# 3 -0.003850 -0.003730 0.028158 0.000000 0.000000 0.000000
# 4 0.000000 0.000000 0.000000 0.099886 0.000000 0.000000
# 5 0.000000 0.000000 0.000000 0.000000 0.595062 0.000000
# 6 0.000000 0.000000 0.000000 0.000000 0.000000 0.068348
#
#
# Mechanical properties :
#
#
# Convention : Reuss Voigt Hill
#
# Bulk Modulus (GPa) = 40.49787 67.33173 53.91480
# Shear Modulus (GPa) = 5.89329 17.93639 11.91484
#
# Velocity S-wave (km/s) = 1.76431 3.07796 2.50865
# Velocity P-wave (km/s) = 5.05380 6.94231 6.07193
#
# Compressibility (1/GPa) = 0.02469265
#
# Stress axis : x y z
#
# Youngs Moduli (GPa) = 110.54873 73.57969 35.51445
#
# Poissons Ratio (x) = 0.40251 0.13672
# Poissons Ratio (y) = 0.60475 0.13249
# Poissons Ratio (z) = 0.42559 0.27449
#
# Static dielectric constant tensor:
#      x y z
#    x 3.715530 0.000000 0.000000 
#    y 0.000000 3.564140 0.000000 
#    z 0.000000 0.000000 2.990170 
# 
# 
# High freq. dielectric constant tensor:
#      x y z
#    x 1.741140 0.000000 0.000000 
#    y 0.000000 1.742870 0.000000 
#    z 0.000000 0.000000 1.668840 
# 
# From -- ./inp_files/13770.got.cif
#   From: 2010.03.12/outbox.cif.g09.slc.cpg/sg47_7_cif.got.tgz:13770.got - 2010.04.14 03:12:58.
