data_PCOD8198523
_publ_section_title
;
Structure prediction by ZEFSAII (Michael W. Deem and Ramdas Pophale) SiO2 
 PCOD8198523
Probable space group: P M M M
;
_chemical_formula_sum "Si O2"
_cell_formula_units_Z 64
_cell_length_a 9.485801
_cell_length_b 14.640331
_cell_length_c 24.358456
_cell_angle_alpha 90.000000
_cell_angle_beta 90.000000
_cell_angle_gamma 90.000000
_cell_volume 3382.787067
_symmetry_space_group_name_H-M "P M M M"
_symmetry_group_IT_number 47
_symmetry_cell_setting 'orthorhombic'
loop_
_space_group_symop_operation_xyz
x,y,z
-x,-y,z
x,-y,-z
-x,y,-z
-x,-y,-z
x,y,-z
-x,y,z
x,-y,z
loop_
_atom_site_type_symbol
_atom_site_label
_atom_site_fract_x
_atom_site_fract_y
_atom_site_fract_z
Si Si1 0.164741 0.795530 0.438722
Si Si2 0.661248 0.762277 0.245748
Si Si3 0.839261 0.602161 0.285337
Si Si4 0.662593 0.754989 0.878985
Si Si5 0.334178 0.105887 0.656667
Si Si6 0.845220 0.101107 0.935309
Si Si7 0.836053 0.394324 0.062775
Si Si8 0.166770 0.401866 0.589955
O O1 0.187359 0.835505 0.500000
O O2 0.252466 0.855218 0.395984
O O3 0.219491 0.689731 0.440380
O O4 0.000000 0.799354 0.421896
O O5 0.500000 0.740013 0.258843
O O6 0.745774 0.668824 0.249841
O O7 0.683438 0.791709 0.183007
O O8 0.714070 0.840412 0.288176
O O9 0.823669 0.500000 0.261590
O O10 0.784097 0.606366 0.347428
O O11 0.000000 0.635427 0.282058
O O12 0.500000 0.736731 0.892290
O O13 0.719321 0.835536 0.916387
O O14 0.745957 0.662397 0.893245
O O15 0.500000 0.117346 0.645770
O O16 0.293747 0.000000 0.664801
O O17 0.000000 0.137547 0.916083
O O18 0.820684 0.000000 0.911058
O O19 0.841749 0.097234 0.000000
O O20 0.798709 0.500000 0.071525
O O21 0.000000 0.376233 0.074440
O O22 0.800268 0.365032 0.000000
O O23 0.225332 0.500000 0.566037
O O24 0.000000 0.406850 0.586109
#
# Coordination Sequence:
#
# PCOD8198523 Si02
#       8
#     8   8   8   8   8   8   8   8
#     4  10  20  34  56  86 115 140 170 216 271 322
#     4  10  22  38  54  76 107 143 181 223 271 320
#     4   9  17  31  54  80 104 135 176 218 257 305
#     4  11  23  35  52  82 115 144 178 225 280 331
#     4  10  22  41  61  76  97 138 187 227 268 322
#     4   9  19  37  59  81 107 140 177 218 266 323
#     4   9  19  37  59  81 109 150 196 235 272 318
#     4   8  14  27  49  78 110 140 169 203 248 304
#
# _framework density 18.919311
#
# number of rings (size 3 to 8) (size 9 to 14) (size 15 to 20)
#    0.000    2.500    1.250    2.250    0.000    5.750 
#    0.000    7.500    0.000    0.375    0.000    0.875 
#    0.000    0.000    0.000    0.000    0.000    0.000 
#
# Total GULP energy -793215.851318 kJ/mol
# GULP energy per Si atom -12393.997677 kJ/mol
# Density = 1.887625 g / cm^3
# Si number density = 18.919311 Si / 1000 Ang^3
#
#
#
# Elastic Constant Matrix: (Units=GPa)
#
#
# Indices 1 2 3 4 5 6 
#
# 1 66.7277 51.0413 44.7967 0.0000 0.0000 0.0000
# 2 51.0413 115.4517 49.2347 0.0000 0.0000 0.0000
# 3 44.7967 49.2347 76.4469 0.0000 0.0000 0.0000
# 4 0.0000 0.0000 0.0000 6.1361 0.0000 0.0000
# 5 0.0000 0.0000 0.0000 0.0000 27.3891 0.0000
# 6 0.0000 0.0000 0.0000 0.0000 0.0000 17.3892
#
#
#
# Elastic Compliance Matrix: (Units=1/GPa)
#
#
# Indices 1 2 3 4 5 6 
#
# 1 0.028904 -0.007659 -0.012004 0.000000 0.000000 0.000000
# 2 -0.007659 0.013971 -0.004510 0.000000 0.000000 0.000000
# 3 -0.012004 -0.004510 0.023020 0.000000 0.000000 0.000000
# 4 0.000000 0.000000 0.000000 0.162969 0.000000 0.000000
# 5 0.000000 0.000000 0.000000 0.000000 0.036511 0.000000
# 6 0.000000 0.000000 0.000000 0.000000 0.000000 0.057507
#
#
# Mechanical properties :
#
#
# Convention : Reuss Voigt Hill
#
# Bulk Modulus (GPa) = 56.98623 60.97463 58.98043
# Shear Modulus (GPa) = 13.25989 17.75313 15.50651
#
# Velocity S-wave (km/s) = 2.65026 3.06659 2.86599
# Velocity P-wave (km/s) = 6.28898 6.69607 6.49571
#
# Compressibility (1/GPa) = 0.01754810
#
# Stress axis : x y z
#
# Youngs Moduli (GPa) = 34.59746 71.57737 43.44084
#
# Poissons Ratio (x) = 0.54822 0.52148
# Poissons Ratio (y) = 0.26498 0.19590
# Poissons Ratio (z) = 0.41532 0.32279
#
# Static dielectric constant tensor:
#      x y z
#    x 3.292310 0.000000 0.000000 
#    y 0.000000 3.584890 0.000000 
#    z 0.000000 0.000000 3.431990 
# 
# 
# High freq. dielectric constant tensor:
#      x y z
#    x 1.712780 0.000000 0.000000 
#    y 0.000000 1.742410 0.000000 
#    z 0.000000 0.000000 1.728390 
# 
# From -- ./inp_files/25549.got.cif
#   From: 2010.03.12/outbox.cif.g09.slc.cpg/sg47_13_cif.got.tgz:25549.got - 2010.04.14 03:12:58.
