data_PCOD8198551
_publ_section_title
;
Structure prediction by ZEFSAII (Michael W. Deem and Ramdas Pophale) SiO2 
 PCOD8198551
Probable space group: P M M M
;
_chemical_formula_sum "Si O2"
_cell_formula_units_Z 32
_cell_length_a 7.738305
_cell_length_b 24.431834
_cell_length_c 8.879679
_cell_angle_alpha 90.000000
_cell_angle_beta 90.000000
_cell_angle_gamma 90.000000
_cell_volume 1678.800842
_symmetry_space_group_name_H-M "P M M M"
_symmetry_group_IT_number 47
_symmetry_cell_setting 'orthorhombic'
loop_
_space_group_symop_operation_xyz
x,y,z
-x,-y,z
x,-y,-z
-x,y,-z
-x,-y,-z
x,y,-z
-x,y,z
x,-y,z
loop_
_atom_site_type_symbol
_atom_site_label
_atom_site_fract_x
_atom_site_fract_y
_atom_site_fract_z
Si Si1 0.805969 0.871074 0.676858
Si Si2 0.500000 0.063218 0.823250
Si Si3 0.692917 0.636740 0.680158
Si Si4 0.000000 0.561520 0.679635
Si Si5 0.702755 0.243885 0.668315
O O1 0.760296 0.870053 0.500000
O O2 0.673825 0.910959 0.757884
O O3 0.790487 0.809147 0.745566
O O4 0.000000 0.892684 0.705910
O O5 0.500000 0.000000 0.778101
O O6 0.500000 0.072546 0.000000
O O7 0.694675 0.639777 0.500000
O O8 0.500000 0.620053 0.734689
O O9 0.743279 0.697162 0.745818
O O10 0.829287 0.592313 0.740715
O O11 0.000000 0.500000 0.744195
O O12 0.000000 0.560908 0.500000
O O13 0.776872 0.247395 0.500000
O O14 0.500000 0.233299 0.668572
#
# Coordination Sequence:
#
# PCOD8198551 Si02
#       5
#     8   4   8   4   8
#     4  10  20  34  57  87 110 132 169 223 274 312
#     4  11  25  43  59  75 105 149 184 209 246 310
#     4   8  14  22  32  49  74 108 149 196 243 287
#     4   9  16  22  28  42  70 114 164 201 232 284
#     4   8  13  24  43  67  95 120 150 201 261 310
#
# _framework density 19.061225
#
# number of rings (size 3 to 8) (size 9 to 14) (size 15 to 20)
#    0.000    3.000    1.250    1.875    1.750    2.500 
#    0.000    5.000    0.000    0.000    0.000    0.000 
#    0.000    0.000    0.000    0.000    0.000    3.750 
#
# Total GULP energy -396477.260038 kJ/mol
# GULP energy per Si atom -12389.914376 kJ/mol
# Density = 1.901784 g / cm^3
# Si number density = 19.061225 Si / 1000 Ang^3
#
#
#
# Elastic Constant Matrix: (Units=GPa)
#
#
# Indices 1 2 3 4 5 6 
#
# 1 143.2031 105.5456 25.2417 0.0000 0.0000 0.0000
# 2 105.5456 176.0407 34.2049 0.0000 0.0000 0.0000
# 3 25.2417 34.2049 18.5658 0.0000 0.0000 0.0000
# 4 0.0000 0.0000 0.0000 -4.2784 0.0000 0.0000
# 5 0.0000 0.0000 0.0000 0.0000 5.4860 0.0000
# 6 0.0000 0.0000 0.0000 0.0000 0.0000 24.8853
#
#
#
# Elastic Compliance Matrix: (Units=1/GPa)
#
#
# Indices 1 2 3 4 5 6 
#
# 1 0.012813 -0.006694 -0.005089 0.000000 0.000000 0.000000
# 2 -0.006694 0.012344 -0.013642 0.000000 0.000000 0.000000
# 3 -0.005089 -0.013642 0.085915 0.000000 0.000000 0.000000
# 4 0.000000 0.000000 0.000000 -0.233734 0.000000 0.000000
# 5 0.000000 0.000000 0.000000 0.000000 0.182282 0.000000
# 6 0.000000 0.000000 0.000000 0.000000 0.000000 0.040184
#
#
# Mechanical properties :
#
#
# Convention : Reuss Voigt Hill
#
# Bulk Modulus (GPa) = 16.60482 74.19933 45.40207
# Shear Modulus (GPa) = 29.28600 16.73975 23.01287
#
# Velocity S-wave (km/s) = 3.92397 2.96668 3.47841
# Velocity P-wave (km/s) = 5.40927 7.12364 6.32481
#
# Compressibility (1/GPa) = 0.06022349
#
# Stress axis : x y z
#
# Youngs Moduli (GPa) = 78.04283 81.00877 11.63935
#
# Poissons Ratio (x) = 0.54224 0.05923
# Poissons Ratio (y) = 0.52238 0.15879
# Poissons Ratio (z) = 0.39716 1.10515
#
# Static dielectric constant tensor:
#      x y z
#    x 3.588570 0.000000 0.000000 
#    y 0.000000 3.780920 0.000000 
#    z 0.000000 0.000000 2.727360 
# 
# 
# High freq. dielectric constant tensor:
#      x y z
#    x 1.751140 0.000000 0.000000 
#    y 0.000000 1.751920 0.000000 
#    z 0.000000 0.000000 1.650930 
# 
# From -- ./inp_files/1306.got.cif
#   From: 2010.03.12/outbox.cif.g09.slc.cpg/sg47_1_cif.got.tgz:1306.got - 2010.04.14 03:12:58.
