data_PCOD8198487
_publ_section_title
;
Structure prediction by ZEFSAII (Michael W. Deem and Ramdas Pophale) SiO2 
 PCOD8198487
Probable space group: P M M M
;
_chemical_formula_sum "Si O2"
_cell_formula_units_Z 64
_cell_length_a 14.423990
_cell_length_b 8.977490
_cell_length_c 25.540759
_cell_angle_alpha 90.000000
_cell_angle_beta 90.000000
_cell_angle_gamma 90.000000
_cell_volume 3307.304195
_symmetry_space_group_name_H-M "P M M M"
_symmetry_group_IT_number 47
_symmetry_cell_setting 'orthorhombic'
loop_
_space_group_symop_operation_xyz
x,y,z
-x,-y,z
x,-y,-z
-x,y,-z
-x,-y,-z
x,y,-z
-x,y,z
x,-y,z
loop_
_atom_site_type_symbol
_atom_site_label
_atom_site_fract_x
_atom_site_fract_y
_atom_site_fract_z
Si Si1 0.203379 0.322414 0.940894
Si Si2 0.794387 0.172922 0.746505
Si Si3 0.893791 0.828827 0.849596
Si Si4 0.893103 0.324028 0.350670
Si Si5 0.604800 0.673726 0.596082
Si Si6 0.597722 0.333712 0.062117
Si Si7 0.397823 0.169513 0.703931
Si Si8 0.780311 0.829153 0.559238
O O1 0.205180 0.500000 0.939218
O O2 0.125318 0.261788 0.902406
O O3 0.304542 0.258173 0.921069
O O4 0.180828 0.268209 0.000000
O O5 0.832306 0.233967 0.801702
O O6 0.840729 0.261751 0.699561
O O7 0.682944 0.197858 0.746401
O O8 0.821090 0.000000 0.739915
O O9 0.000000 0.805858 0.833661
O O10 0.870107 0.000000 0.860846
O O11 0.881547 0.500000 0.351440
O O12 0.849147 0.260620 0.403595
O O13 0.000000 0.275203 0.348220
O O14 0.500000 0.709957 0.577536
O O15 0.626813 0.500000 0.590788
O O16 0.618947 0.719128 0.656227
O O17 0.676154 0.764431 0.560544
O O18 0.500000 0.251919 0.079373
O O19 0.594311 0.500000 0.085422
O O20 0.601492 0.343529 0.000000
O O21 0.500000 0.197848 0.729159
O O22 0.391110 0.000000 0.682717
O O23 0.817447 0.815112 0.500000
O O24 0.777797 0.000000 0.577821
#
# Coordination Sequence:
#
# PCOD8198487 Si02
#       8
#     8   8   8   8   8   8   8   8
#     4   9  18  33  54  80 108 140 181 228 276 327
#     4  10  20  37  61  84 109 144 183 224 270 326
#     4  10  22  38  54  76 108 146 187 230 277 328
#     4  11  24  40  60  86 112 141 181 232 291 345
#     4  10  20  34  55  84 117 151 186 228 279 332
#     4   7  10  20  42  71 100 130 166 208 255 310
#     4   9  17  31  55  85 113 143 180 219 266 330
#     4  11  24  40  58  82 113 151 194 236 277 329
#
# _framework density 19.351109000000001
#
# number of rings (size 3 to 8) (size 9 to 14) (size 15 to 20)
#    0.000    2.375    1.250    2.625    0.000    5.000 
#    0.000    4.375    0.000    1.125    0.000    1.750 
#    0.000    0.000    0.000    0.000    0.000    0.000 
#
# Total GULP energy -793193.530665 kJ/mol
# GULP energy per Si atom -12393.648917 kJ/mol
# Density = 1.930707 g / cm^3
# Si number density = 19.351109 Si / 1000 Ang^3
#
#
#
# Elastic Constant Matrix: (Units=GPa)
#
#
# Indices 1 2 3 4 5 6 
#
# 1 122.6298 36.3072 55.8517 0.0000 0.0000 0.0000
# 2 36.3072 53.3705 30.2473 0.0000 0.0000 0.0000
# 3 55.8517 30.2473 100.0009 0.0000 0.0000 0.0000
# 4 0.0000 0.0000 0.0000 -14.9612 0.0000 0.0000
# 5 0.0000 0.0000 0.0000 0.0000 26.8541 0.0000
# 6 0.0000 0.0000 0.0000 0.0000 0.0000 25.9034
#
#
#
# Elastic Compliance Matrix: (Units=1/GPa)
#
#
# Indices 1 2 3 4 5 6 
#
# 1 0.012061 -0.005295 -0.005135 0.000000 0.000000 0.000000
# 2 -0.005295 0.024938 -0.004586 0.000000 0.000000 0.000000
# 3 -0.005135 -0.004586 0.014255 0.000000 0.000000 0.000000
# 4 0.000000 0.000000 0.000000 -0.066840 0.000000 0.000000
# 5 0.000000 0.000000 0.000000 0.000000 0.037238 0.000000
# 6 0.000000 0.000000 0.000000 0.000000 0.000000 0.038605
#
#
# Mechanical properties :
#
#
# Convention : Reuss Voigt Hill
#
# Bulk Modulus (GPa) = 47.11853 57.86819 52.49336
# Shear Modulus (GPa) = 51.35481 17.79891 34.57686
#
# Velocity S-wave (km/s) = 5.15714 3.03609 4.23166
# Velocity P-wave (km/s) = 7.73715 6.50075 7.14574
#
# Compressibility (1/GPa) = 0.02122307
#
# Stress axis : x y z
#
# Youngs Moduli (GPa) = 82.91311 40.09964 70.15235
#
# Poissons Ratio (x) = 0.21232 0.36020
# Poissons Ratio (y) = 0.43901 0.32170
# Poissons Ratio (z) = 0.42572 0.18389
#
# Static dielectric constant tensor:
#      x y z
#    x 4.002890 0.000000 0.000000 
#    y 0.000000 3.370880 0.000000 
#    z 0.000000 0.000000 3.268840 
# 
# 
# High freq. dielectric constant tensor:
#      x y z
#    x 1.773400 0.000000 0.000000 
#    y 0.000000 1.734280 0.000000 
#    z 0.000000 0.000000 1.726890 
# 
# From -- ./inp_files/32100.got.cif
#   From: 2010.03.12/outbox.cif.g09.slc.cpg/sg47_17_cif.got.tgz:32100.got - 2010.04.14 03:12:58.
