data_PCOD8198354
_publ_section_title
;
Structure prediction by ZEFSAII (Michael W. Deem and Ramdas Pophale) SiO2 
 PCOD8198354
Probable space group: P M M M
;
_chemical_formula_sum "Si O2"
_cell_formula_units_Z 40
_cell_length_a 8.033661
_cell_length_b 27.265614
_cell_length_c 9.318653
_cell_angle_alpha 90.000000
_cell_angle_beta 90.000000
_cell_angle_gamma 90.000000
_cell_volume 2041.182912
_symmetry_space_group_name_H-M "P M M M"
_symmetry_group_IT_number 47
_symmetry_cell_setting 'orthorhombic'
loop_
_space_group_symop_operation_xyz
x,y,z
-x,-y,z
x,-y,-z
-x,y,-z
-x,-y,-z
x,y,-z
-x,y,z
x,-y,z
loop_
_atom_site_type_symbol
_atom_site_label
_atom_site_fract_x
_atom_site_fract_y
_atom_site_fract_z
Si Si1 0.804108 0.693836 0.336941
Si Si2 0.311900 0.119106 0.333434
Si Si3 0.194709 0.788881 0.832221
Si Si4 0.692129 0.589148 0.659857
Si Si5 0.000000 0.945298 0.330035
Si Si6 0.190588 0.500000 0.845150
O O1 0.746464 0.704949 0.500000
O O2 0.743262 0.737822 0.235492
O O3 0.722177 0.643730 0.278758
O O4 0.000000 0.687378 0.327504
O O5 0.279563 0.131744 0.500000
O O6 0.500000 0.097503 0.312775
O O7 0.298888 0.168305 0.241736
O O8 0.169873 0.081410 0.277714
O O9 0.000000 0.797423 0.800739
O O10 0.234425 0.788164 0.000000
O O11 0.771215 0.585702 0.500000
O O12 0.500000 0.577054 0.652470
O O13 0.772793 0.549167 0.760063
O O14 0.000000 0.948274 0.500000
O O15 0.000000 0.000000 0.263767
O O16 0.000000 0.500000 0.879148
O O17 0.285196 0.500000 0.000000
#
# Coordination Sequence:
#
# PCOD8198354 Si02
#       6
#     8   8   8   8   4   4
#     4   9  18  33  54  79 109 146 185 225 270 323
#     4  10  20  34  56  84 113 149 191 233 281 338
#     4  10  20  34  54  80 112 150 188 229 278 330
#     4  10  21  37  57  81 108 138 175 220 270 326
#     4   9  18  34  57  85 117 149 185 236 289 332
#     4  11  24  39  56  78 104 137 178 223 270 324
#
# _framework density 19.59648
#
# number of rings (size 3 to 8) (size 9 to 14) (size 15 to 20)
#    0.000    2.200    1.000    1.800    0.000    6.400 
#    0.000    6.000    0.000    1.200    0.000    1.400 
#    0.000    0.000    0.000    0.000    0.000    0.000 
#
# Total GULP energy -495951.449860 kJ/mol
# GULP energy per Si atom -12398.786246 kJ/mol
# Density = 1.955188 g / cm^3
# Si number density = 19.596480 Si / 1000 Ang^3
#
#
#
# Elastic Constant Matrix: (Units=GPa)
#
#
# Indices 1 2 3 4 5 6 
#
# 1 88.9037 55.2391 35.2082 0.0000 0.0000 0.0000
# 2 55.2391 147.5905 66.2224 0.0000 0.0000 0.0000
# 3 35.2082 66.2224 87.7860 0.0000 0.0000 0.0000
# 4 0.0000 0.0000 0.0000 -3.9247 0.0000 0.0000
# 5 0.0000 0.0000 0.0000 0.0000 11.9995 0.0000
# 6 0.0000 0.0000 0.0000 0.0000 0.0000 5.2470
#
#
#
# Elastic Compliance Matrix: (Units=1/GPa)
#
#
# Indices 1 2 3 4 5 6 
#
# 1 0.015070 -0.004427 -0.002705 0.000000 0.000000 0.000000
# 2 -0.004427 0.011543 -0.006932 0.000000 0.000000 0.000000
# 3 -0.002705 -0.006932 0.017705 0.000000 0.000000 0.000000
# 4 0.000000 0.000000 0.000000 -0.254794 0.000000 0.000000
# 5 0.000000 0.000000 0.000000 0.000000 0.083337 0.000000
# 6 0.000000 0.000000 0.000000 0.000000 0.000000 0.190586
#
#
# Mechanical properties :
#
#
# Convention : Reuss Voigt Hill
#
# Bulk Modulus (GPa) = 61.76236 70.84663 66.30450
# Shear Modulus (GPa) = 51.56231 13.83837 32.70034
#
# Velocity S-wave (km/s) = 5.13509 2.66026 4.08939
# Velocity P-wave (km/s) = 8.16972 6.75775 7.49705
#
# Compressibility (1/GPa) = 0.01619109
#
# Stress axis : x y z
#
# Youngs Moduli (GPa) = 66.35851 86.63619 56.48038
#
# Poissons Ratio (x) = 0.38350 0.15276
# Poissons Ratio (y) = 0.29374 0.39152
# Poissons Ratio (z) = 0.17948 0.60055
#
# Static dielectric constant tensor:
#      x y z
#    x 3.577470 0.000000 0.000000 
#    y 0.000000 3.590570 0.000000 
#    z 0.000000 0.000000 3.569260 
# 
# 
# High freq. dielectric constant tensor:
#      x y z
#    x 1.763590 0.000000 0.000000 
#    y 0.000000 1.764190 0.000000 
#    z 0.000000 0.000000 1.745310 
# 
# From -- ./inp_files/1834.got.cif
#   From: 2010.03.12/outbox.cif.g09.slc.cpg/sg47_1_cif.got.tgz:1834.got - 2010.04.14 03:12:58.
