data_PCOD8198775
_publ_section_title
;
Structure prediction by ZEFSAII (Michael W. Deem and Ramdas Pophale) SiO2 
 PCOD8198775
Probable space group: P M M M
;
_chemical_formula_sum "Si O2"
_cell_formula_units_Z 48
_cell_length_a 8.975120
_cell_length_b 8.864893
_cell_length_c 30.713645
_cell_angle_alpha 90.000000
_cell_angle_beta 90.000000
_cell_angle_gamma 90.000000
_cell_volume 2443.684432
_symmetry_space_group_name_H-M "P M M M"
_symmetry_group_IT_number 47
_symmetry_cell_setting 'orthorhombic'
loop_
_space_group_symop_operation_xyz
x,y,z
-x,-y,z
x,-y,-z
-x,y,-z
-x,-y,-z
x,y,-z
-x,y,z
x,-y,z
loop_
_atom_site_type_symbol
_atom_site_label
_atom_site_fract_x
_atom_site_fract_y
_atom_site_fract_z
Si Si1 0.673818 0.825195 0.581828
Si Si2 0.332391 0.820864 0.000000
Si Si3 0.171061 0.824473 0.247464
Si Si4 0.672808 0.674819 0.832211
Si Si5 0.824677 0.174205 0.912846
Si Si6 0.828317 0.676515 0.338109
Si Si7 0.826726 0.675784 0.500000
O O1 0.500000 0.796106 0.575816
O O2 0.724213 0.759554 0.627738
O O3 0.757922 0.744454 0.543066
O O4 0.714410 0.000000 0.580368
O O5 0.248384 0.762491 0.957073
O O6 0.500000 0.756624 0.000000
O O7 0.331124 0.000000 0.000000
O O8 0.277465 0.771285 0.209086
O O9 0.216229 0.733653 0.290464
O O10 0.000000 0.791772 0.234325
O O11 0.197243 0.000000 0.256524
O O12 0.500000 0.706506 0.841434
O O13 0.704437 0.500000 0.822670
O O14 0.766395 0.724779 0.873750
O O15 0.000000 0.193270 0.917193
O O16 0.780879 0.000000 0.904312
O O17 0.797379 0.500000 0.340800
O O18 0.000000 0.715149 0.348464
O O19 0.792988 0.500000 0.500000
O O20 0.000000 0.712347 0.500000
#
# Coordination Sequence:
#
# PCOD8198775 Si02
#       7
#     8   4   8   8   8   8   4
#     4  11  24  40  59  86 119 154 193 236 283 336
#     4   9  17  31  54  83 114 147 182 224 276 331
#     4  10  21  38  61  87 113 145 187 233 281 334
#     4  11  24  39  55  79 112 149 188 231 281 335
#     4  10  20  35  57  84 112 144 185 231 278 331
#     4  10  21  38  61  88 117 151 191 233 280 336
#     4  11  24  41  62  88 116 149 192 239 288 342
#
# _framework density 19.642471
#
# number of rings (size 3 to 8) (size 9 to 14) (size 15 to 20)
#    0.000    1.667    0.000    4.250    0.000   13.000 
#    0.000    0.417    0.000    2.500    0.000    0.000 
#    0.000    0.000    0.000    0.000    0.000    0.000 
#
# Total GULP energy -595487.470805 kJ/mol
# GULP energy per Si atom -12405.988975 kJ/mol
# Density = 1.959776 g / cm^3
# Si number density = 19.642471 Si / 1000 Ang^3
#
#
#
# Elastic Constant Matrix: (Units=GPa)
#
#
# Indices 1 2 3 4 5 6 
#
# 1 86.7041 55.5760 57.6670 0.0000 0.0000 0.0000
# 2 55.5760 83.5722 46.2801 0.0000 0.0000 0.0000
# 3 57.6670 46.2801 127.8305 0.0000 0.0000 0.0000
# 4 0.0000 0.0000 0.0000 40.2107 0.0000 0.0000
# 5 0.0000 0.0000 0.0000 0.0000 104.6527 0.0000
# 6 0.0000 0.0000 0.0000 0.0000 0.0000 29.9990
#
#
#
# Elastic Compliance Matrix: (Units=1/GPa)
#
#
# Indices 1 2 3 4 5 6 
#
# 1 0.023435 -0.012170 -0.006166 0.000000 0.000000 0.000000
# 2 -0.012170 0.021286 -0.002216 0.000000 0.000000 0.000000
# 3 -0.006166 -0.002216 0.011407 0.000000 0.000000 0.000000
# 4 0.000000 0.000000 0.000000 0.024869 0.000000 0.000000
# 5 0.000000 0.000000 0.000000 0.000000 0.009555 0.000000
# 6 0.000000 0.000000 0.000000 0.000000 0.000000 0.033334
#
#
# Mechanical properties :
#
#
# Convention : Reuss Voigt Hill
#
# Bulk Modulus (GPa) = 66.56235 68.57255 67.56745
# Shear Modulus (GPa) = 29.41173 44.21138 36.81155
#
# Velocity S-wave (km/s) = 3.87376 4.74941 4.33376
# Velocity P-wave (km/s) = 7.34633 8.06610 7.71462
#
# Compressibility (1/GPa) = 0.01502351
#
# Stress axis : x y z
#
# Youngs Moduli (GPa) = 42.67059 46.97879 87.66601
#
# Poissons Ratio (x) = 0.57173 0.54056
# Poissons Ratio (y) = 0.51930 0.19430
# Poissons Ratio (z) = 0.26311 0.10412
#
# Static dielectric constant tensor:
#      x y z
#    x 3.675050 0.000000 0.000000 
#    y 0.000000 3.616130 0.000000 
#    z 0.000000 0.000000 3.605220 
# 
# 
# High freq. dielectric constant tensor:
#      x y z
#    x 1.772250 0.000000 0.000000 
#    y 0.000000 1.766310 0.000000 
#    z 0.000000 0.000000 1.781870 
# 
# From -- ./inp_files/34175.got.cif
#   From: 2010.03.12/outbox.cif.g09.slc.cpg/sg47_18_cif.got.tgz:34175.got - 2010.04.14 03:12:58.
