data_PCOD8198836
_publ_section_title
;
Structure prediction by ZEFSAII (Michael W. Deem and Ramdas Pophale) SiO2 
 PCOD8198836
Probable space group: P M M M
;
_chemical_formula_sum "Si O2"
_cell_formula_units_Z 56
_cell_length_a 8.706391
_cell_length_b 22.860554
_cell_length_c 14.555074
_cell_angle_alpha 90.000000
_cell_angle_beta 90.000000
_cell_angle_gamma 90.000000
_cell_volume 2896.938902
_symmetry_space_group_name_H-M "P M M M"
_symmetry_group_IT_number 47
_symmetry_cell_setting 'orthorhombic'
loop_
_space_group_symop_operation_xyz
x,y,z
-x,-y,z
x,-y,-z
-x,y,-z
-x,-y,-z
x,y,-z
-x,y,z
x,-y,z
loop_
_atom_site_type_symbol
_atom_site_label
_atom_site_fract_x
_atom_site_fract_y
_atom_site_fract_z
Si Si1 0.678260 0.110409 0.299618
Si Si2 0.818299 0.224618 0.607066
Si Si3 0.181028 0.000000 0.602920
Si Si4 0.173504 0.261232 0.897804
Si Si5 0.677856 0.680011 0.266227
Si Si6 0.181105 0.565995 0.312529
Si Si7 0.330187 0.431484 0.500000
Si Si8 0.325989 0.859178 0.900443
O O1 0.500000 0.106660 0.324512
O O2 0.740365 0.172160 0.336487
O O3 0.706050 0.101736 0.189757
O O4 0.765131 0.057990 0.347198
O O5 0.768118 0.223021 0.500000
O O6 0.765804 0.285794 0.652249
O O7 0.000000 0.218316 0.616322
O O8 0.248105 0.000000 0.500000
O O9 0.000000 0.000000 0.601190
O O10 0.297414 0.289706 0.831282
O O11 0.203545 0.192470 0.899591
O O12 0.000000 0.271842 0.861650
O O13 0.193352 0.287669 0.000000
O O14 0.500000 0.678480 0.291728
O O15 0.740979 0.614188 0.248014
O O16 0.240297 0.500000 0.290232
O O17 0.231271 0.587581 0.413099
O O18 0.000000 0.568234 0.303085
O O19 0.352997 0.500000 0.500000
O O20 0.500000 0.401722 0.500000
O O21 0.500000 0.834200 0.892944
O O22 0.307912 0.892661 0.000000
#
# Coordination Sequence:
#
# PCOD8198836 Si02
#       8
#     8   8   4   8   8   8   4   8
#     4  11  22  38  62  90 118 152 194 243 294 344
#     4  11  24  40  58  82 117 157 194 239 294 349
#     4  11  25  43  62  83 112 158 207 247 290 343
#     4  10  20  35  58  87 117 150 190 236 287 347
#     4  12  24  37  57  85 117 152 192 240 292 348
#     4  10  21  37  56  77 107 149 194 240 290 346
#     4   9  17  31  51  75 103 139 185 232 277 332
#     4   9  18  34  57  86 119 152 186 229 288 351
#
# _framework density 19.330749999999998
#
# number of rings (size 3 to 8) (size 9 to 14) (size 15 to 20)
#    0.000    1.571    1.429    3.857    1.000    6.571 
#    0.000    0.357    0.000    2.571    0.000    3.000 
#    0.000    0.000    0.000    0.000    0.000    0.000 
#
# Total GULP energy -694160.128079 kJ/mol
# GULP energy per Si atom -12395.716573 kJ/mol
# Density = 1.928675 g / cm^3
# Si number density = 19.330750 Si / 1000 Ang^3
#
#
#
# Elastic Constant Matrix: (Units=GPa)
#
#
# Indices 1 2 3 4 5 6 
#
# 1 70.9796 22.3240 32.5138 0.0000 0.0000 0.0000
# 2 22.3240 91.2985 40.4101 0.0000 0.0000 0.0000
# 3 32.5138 40.4101 131.5154 0.0000 0.0000 0.0000
# 4 0.0000 0.0000 0.0000 23.8705 0.0000 0.0000
# 5 0.0000 0.0000 0.0000 0.0000 26.9889 0.0000
# 6 0.0000 0.0000 0.0000 0.0000 0.0000 28.0347
#
#
#
# Elastic Compliance Matrix: (Units=1/GPa)
#
#
# Indices 1 2 3 4 5 6 
#
# 1 0.016390 -0.002563 -0.003265 0.000000 0.000000 0.000000
# 2 -0.002563 0.013078 -0.003385 0.000000 0.000000 0.000000
# 3 -0.003265 -0.003385 0.009451 0.000000 0.000000 0.000000
# 4 0.000000 0.000000 0.000000 0.041893 0.000000 0.000000
# 5 0.000000 0.000000 0.000000 0.000000 0.037052 0.000000
# 6 0.000000 0.000000 0.000000 0.000000 0.000000 0.035670
#
#
# Mechanical properties :
#
#
# Convention : Reuss Voigt Hill
#
# Bulk Modulus (GPa) = 48.79358 53.80991 51.30174
# Shear Modulus (GPa) = 27.96589 29.01520 28.49055
#
# Velocity S-wave (km/s) = 3.80768 3.87846 3.84323
# Velocity P-wave (km/s) = 6.68038 6.92484 6.80371
#
# Compressibility (1/GPa) = 0.02049450
#
# Stress axis : x y z
#
# Youngs Moduli (GPa) = 61.01298 76.46506 105.81124
#
# Poissons Ratio (x) = 0.19595 0.34543
# Poissons Ratio (y) = 0.15636 0.35815
# Poissons Ratio (z) = 0.19918 0.25882
#
# Static dielectric constant tensor:
#      x y z
#    x 3.584000 0.000000 0.000000 
#    y 0.000000 3.493790 0.000000 
#    z 0.000000 0.000000 2.572940 
# 
# 
# High freq. dielectric constant tensor:
#      x y z
#    x 1.764700 0.000000 0.000000 
#    y 0.000000 1.731210 0.000000 
#    z 0.000000 0.000000 1.756010 
# 
# From -- ./inp_files/21593.got.cif
#   From: 2010.03.12/outbox.cif.g09.slc.cpg/sg47_11_cif.got.tgz:21593.got - 2010.04.14 03:12:58.
