data_PCOD8198716
_publ_section_title
;
Structure prediction by ZEFSAII (Michael W. Deem and Ramdas Pophale) SiO2 
 PCOD8198716
Probable space group: P M M M
;
_chemical_formula_sum "Si O2"
_cell_formula_units_Z 44
_cell_length_a 29.848986
_cell_length_b 7.875927
_cell_length_c 9.222785
_cell_angle_alpha 90.000000
_cell_angle_beta 90.000000
_cell_angle_gamma 90.000000
_cell_volume 2168.170090
_symmetry_space_group_name_H-M "P M M M"
_symmetry_group_IT_number 47
_symmetry_cell_setting 'orthorhombic'
loop_
_space_group_symop_operation_xyz
x,y,z
-x,-y,z
x,-y,-z
-x,y,-z
-x,-y,-z
x,y,-z
-x,y,z
x,-y,z
loop_
_atom_site_type_symbol
_atom_site_label
_atom_site_fract_x
_atom_site_fract_y
_atom_site_fract_z
Si Si1 0.633394 0.193573 0.837373
Si Si2 0.049896 0.000000 0.671691
Si Si3 0.449307 0.300570 0.664686
Si Si4 0.715620 0.695064 0.659821
Si Si5 0.201787 0.700934 0.161917
Si Si6 0.887512 0.305405 0.670357
O O1 0.583618 0.204793 0.773041
O O2 0.667945 0.295329 0.738469
O O3 0.648936 0.000000 0.839814
O O4 0.633568 0.269573 0.000000
O O5 0.074421 0.826648 0.722653
O O6 0.047091 0.000000 0.500000
O O7 0.000000 0.000000 0.739373
O O8 0.439165 0.243861 0.500000
O O9 0.500000 0.250540 0.706736
O O10 0.441930 0.500000 0.680875
O O11 0.713058 0.781386 0.500000
O O12 0.728025 0.500000 0.638910
O O13 0.755153 0.780408 0.755180
O O14 0.206483 0.500000 0.152078
O O15 0.157286 0.751385 0.248041
O O16 0.199899 0.778751 0.000000
O O17 0.878120 0.288826 0.500000
O O18 0.901680 0.500000 0.709196
#
# Coordination Sequence:
#
# PCOD8198716 Si02
#       6
#     8   4   8   8   8   8
#     4  11  24  38  51  74 110 145 177 215 261 316
#     4   9  18  32  51  79 111 141 181 231 278 325
#     4   9  19  37  60  83 104 130 171 220 266 316
#     4  10  20  35  57  82 106 136 177 222 267 319
#     4   9  17  31  53  79 106 137 174 216 264 318
#     4   9  17  31  52  77 106 141 182 227 274 327
#
# _framework density 20.293610999999999
#
# number of rings (size 3 to 8) (size 9 to 14) (size 15 to 20)
#    0.000    2.455    0.000    2.727    0.000    8.364 
#    1.636    5.000    0.000    1.091    0.000    2.545 
#    0.000    0.000    0.000    0.000    0.000    0.000 
#
# Total GULP energy -545535.412459 kJ/mol
# GULP energy per Si atom -12398.532101 kJ/mol
# Density = 2.024742 g / cm^3
# Si number density = 20.293611 Si / 1000 Ang^3
#
#
#
# Elastic Constant Matrix: (Units=GPa)
#
#
# Indices 1 2 3 4 5 6 
#
# 1 161.3397 35.6158 76.6708 0.0000 0.0000 0.0000
# 2 35.6158 54.9242 24.9444 0.0000 0.0000 0.0000
# 3 76.6708 24.9444 133.3016 0.0000 0.0000 0.0000
# 4 0.0000 0.0000 0.0000 14.0825 0.0000 0.0000
# 5 0.0000 0.0000 0.0000 0.0000 13.4506 0.0000
# 6 0.0000 0.0000 0.0000 0.0000 0.0000 11.4392
#
#
#
# Elastic Compliance Matrix: (Units=1/GPa)
#
#
# Indices 1 2 3 4 5 6 
#
# 1 0.009239 -0.003910 -0.004582 0.000000 0.000000 0.000000
# 2 -0.003910 0.021553 -0.001784 0.000000 0.000000 0.000000
# 3 -0.004582 -0.001784 0.010471 0.000000 0.000000 0.000000
# 4 0.000000 0.000000 0.000000 0.071010 0.000000 0.000000
# 5 0.000000 0.000000 0.000000 0.000000 0.074346 0.000000
# 6 0.000000 0.000000 0.000000 0.000000 0.000000 0.087419
#
#
# Mechanical properties :
#
#
# Convention : Reuss Voigt Hill
#
# Bulk Modulus (GPa) = 48.28601 69.33639 58.81120
# Shear Modulus (GPa) = 16.58410 21.95009 19.26710
#
# Velocity S-wave (km/s) = 2.86179 3.29238 3.08460
# Velocity P-wave (km/s) = 5.89619 6.97809 6.45983
#
# Compressibility (1/GPa) = 0.02070993
#
# Stress axis : x y z
#
# Youngs Moduli (GPa) = 108.24030 46.39814 95.50010
#
# Poissons Ratio (x) = 0.18141 0.43760
# Poissons Ratio (y) = 0.42320 0.17040
# Poissons Ratio (z) = 0.49598 0.08279
#
# Static dielectric constant tensor:
#      x y z
#    x 3.726990 0.000000 0.000000 
#    y 0.000000 3.420140 0.000000 
#    z 0.000000 0.000000 3.814930 
# 
# 
# High freq. dielectric constant tensor:
#      x y z
#    x 1.792900 0.000000 0.000000 
#    y 0.000000 1.772640 0.000000 
#    z 0.000000 0.000000 1.787320 
# 
# From -- ./inp_files/2106.got.cif
#   From: 2010.03.12/outbox.cif.g09.slc.cpg/sg47_2_cif.got.tgz:2106.got - 2010.04.14 03:12:58.
