data_PCOD8198189
_publ_section_title
;
Structure prediction by ZEFSAII (Michael W. Deem and Ramdas Pophale) SiO2 
 PCOD8198189
Probable space group: P M M M
;
_chemical_formula_sum "Si O2"
_cell_formula_units_Z 56
_cell_length_a 13.927263
_cell_length_b 8.934845
_cell_length_c 21.811383
_cell_angle_alpha 90.000000
_cell_angle_beta 90.000000
_cell_angle_gamma 90.000000
_cell_volume 2714.163486
_symmetry_space_group_name_H-M "P M M M"
_symmetry_group_IT_number 47
_symmetry_cell_setting 'orthorhombic'
loop_
_space_group_symop_operation_xyz
x,y,z
-x,-y,z
x,-y,-z
-x,y,-z
-x,-y,-z
x,y,-z
-x,y,z
x,-y,z
loop_
_atom_site_type_symbol
_atom_site_label
_atom_site_fract_x
_atom_site_fract_y
_atom_site_fract_z
Si Si1 0.613159 0.670845 0.500000
Si Si2 0.766882 0.324346 0.710007
Si Si3 0.604656 0.667490 0.072681
Si Si4 0.892245 0.675792 0.822857
Si Si5 0.206623 0.175515 0.069962
Si Si6 0.113918 0.332637 0.500000
Si Si7 0.389470 0.822792 0.373289
Si Si8 0.112679 0.833562 0.382451
O O1 0.650730 0.500000 0.500000
O O2 0.500000 0.678129 0.500000
O O3 0.648754 0.751834 0.562610
O O4 0.745697 0.500000 0.705946
O O5 0.804516 0.276214 0.777574
O O6 0.673549 0.236591 0.684515
O O7 0.859623 0.279659 0.670763
O O8 0.500000 0.720777 0.097917
O O9 0.626562 0.500000 0.096948
O O10 0.688443 0.776674 0.095573
O O11 0.600644 0.667289 0.000000
O O12 0.888852 0.500000 0.832302
O O13 0.875475 0.752368 0.888461
O O14 0.000000 0.722925 0.799989
O O15 0.198074 0.000000 0.074657
O O16 0.191872 0.230844 0.000000
O O17 0.157166 0.500000 0.500000
O O18 0.155298 0.240298 0.556635
O O19 0.000000 0.340971 0.500000
O O20 0.500000 0.777101 0.360684
O O21 0.378444 0.000000 0.378186
O O22 0.000000 0.846627 0.386578
O O23 0.157540 0.000000 0.373540
#
# Coordination Sequence:
#
# PCOD8198189 Si02
#       8
#     4   8   8   8   8   4   8   8
#     4   9  17  32  57  88 120 155 197 244 293 342
#     4  11  23  39  60  84 110 143 188 237 282 336
#     4   8  14  27  50  80 114 152 190 225 264 316
#     4  10  23  43  64  85 111 147 192 240 290 348
#     4  10  21  36  57  88 122 153 188 235 292 353
#     4   9  17  30  49  74 106 143 183 230 279 322
#     4  10  21  38  60  87 121 158 196 241 293 348
#     4  10  20  34  53  78 109 144 182 225 276 333
#
# _framework density 20.63251
#
# number of rings (size 3 to 8) (size 9 to 14) (size 15 to 20)
#    0.000    2.286    0.000    3.000    0.000    7.429 
#    0.000    6.429    0.000    0.857    0.000    0.000 
#    0.000    0.000    0.000    0.000    0.000    0.000 
#
# Total GULP energy -693940.214568 kJ/mol
# GULP energy per Si atom -12391.789546 kJ/mol
# Density = 2.058555 g / cm^3
# Si number density = 20.632510 Si / 1000 Ang^3
#
#
#
# Elastic Constant Matrix: (Units=GPa)
#
#
# Indices 1 2 3 4 5 6 
#
# 1 108.7289 43.9813 50.3608 0.0000 0.0000 0.0000
# 2 43.9813 60.2134 42.0262 0.0000 0.0000 0.0000
# 3 50.3608 42.0262 104.5504 0.0000 0.0000 0.0000
# 4 0.0000 0.0000 0.0000 27.7406 0.0000 0.0000
# 5 0.0000 0.0000 0.0000 0.0000 31.5203 0.0000
# 6 0.0000 0.0000 0.0000 0.0000 0.0000 26.5177
#
#
#
# Elastic Compliance Matrix: (Units=1/GPa)
#
#
# Indices 1 2 3 4 5 6 
#
# 1 0.013993 -0.007668 -0.003658 0.000000 0.000000 0.000000
# 2 -0.007668 0.027286 -0.007275 0.000000 0.000000 0.000000
# 3 -0.003658 -0.007275 0.014251 0.000000 0.000000 0.000000
# 4 0.000000 0.000000 0.000000 0.036048 0.000000 0.000000
# 5 0.000000 0.000000 0.000000 0.000000 0.031726 0.000000
# 6 0.000000 0.000000 0.000000 0.000000 0.000000 0.037711
#
#
# Mechanical properties :
#
#
# Convention : Reuss Voigt Hill
#
# Bulk Modulus (GPa) = 54.55861 60.69216 57.62539
# Shear Modulus (GPa) = 24.47083 26.29735 25.38409
#
# Velocity S-wave (km/s) = 3.44762 3.57397 3.51136
# Velocity P-wave (km/s) = 6.50758 6.81987 6.66555
#
# Compressibility (1/GPa) = 0.01832891
#
# Stress axis : x y z
#
# Youngs Moduli (GPa) = 71.46325 36.64936 70.17041
#
# Poissons Ratio (x) = 0.28102 0.25670
# Poissons Ratio (y) = 0.54796 0.51046
# Poissons Ratio (z) = 0.26142 0.26661
#
# Static dielectric constant tensor:
#      x y z
#    x 3.883730 0.000000 0.000000 
#    y 0.000000 3.805990 0.000000 
#    z 0.000000 0.000000 8.244960 
# 
# 
# High freq. dielectric constant tensor:
#      x y z
#    x 1.815930 0.000000 0.000000 
#    y 0.000000 1.808070 0.000000 
#    z 0.000000 0.000000 1.783990 
# 
# From -- ./inp_files/31005.got.cif
#   From: 2010.03.12/outbox.cif.g09.slc.cpg/sg47_16_cif.got.tgz:31005.got - 2010.04.14 03:12:58.
