data_PCOD8198940
_publ_section_title
;
Structure prediction by ZEFSAII (Michael W. Deem and Ramdas Pophale) SiO2 
 PCOD8198940
Probable space group: P M M M
;
_chemical_formula_sum "Si O2"
_cell_formula_units_Z 36
_cell_length_a 12.359360
_cell_length_b 7.695073
_cell_length_c 19.239829
_cell_angle_alpha 90.000000
_cell_angle_beta 90.000000
_cell_angle_gamma 90.000000
_cell_volume 1829.826591
_symmetry_space_group_name_H-M "P M M M"
_symmetry_group_IT_number 47
_symmetry_cell_setting 'orthorhombic'
loop_
_space_group_symop_operation_xyz
x,y,z
-x,-y,z
x,-y,-z
-x,y,-z
-x,-y,-z
x,y,-z
-x,y,z
x,-y,z
loop_
_atom_site_type_symbol
_atom_site_label
_atom_site_fract_x
_atom_site_fract_y
_atom_site_fract_z
Si Si1 0.734863 0.701536 0.648621
Si Si2 0.271134 0.696992 0.194472
Si Si3 0.500000 0.805773 0.643989
Si Si4 0.124200 0.000000 0.582159
Si Si5 0.500000 0.806002 0.808521
Si Si6 0.121829 0.292997 0.076438
O O1 0.771896 0.500000 0.642481
O O2 0.739296 0.775711 0.728020
O O3 0.611208 0.712920 0.619206
O O4 0.815647 0.824338 0.606309
O O5 0.234587 0.500000 0.200801
O O6 0.393106 0.708721 0.165095
O O7 0.194628 0.791265 0.137718
O O8 0.500000 0.804152 0.726177
O O9 0.500000 0.000000 0.613531
O O10 0.125363 0.000000 0.500000
O O11 0.000000 0.000000 0.609773
O O12 0.500000 0.000000 0.838349
O O13 0.130721 0.500000 0.077433
O O14 0.000000 0.232077 0.090798
O O15 0.159079 0.226034 0.000000
#
# Coordination Sequence:
#
# PCOD8198940 Si02
#       6
#     8   8   4   4   4   8
#     4  10  20  36  61  90 116 146 188 235 282 333
#     4   9  17  29  51  80 106 133 173 221 267 318
#     4   9  15  31  59  88 119 147 178 226 285 341
#     4  11  26  45  61  81 114 155 193 228 275 334
#     4   9  17  27  46  72 103 140 173 207 263 323
#     4   8  14  26  45  70 101 135 171 217 272 320
#
# _framework density 19.673997
#
# number of rings (size 3 to 8) (size 9 to 14) (size 15 to 20)
#    0.000    2.778    1.111    1.333    1.556    4.444 
#    0.000    5.000    0.000    5.333    0.000    1.556 
#    0.000    0.000    0.000    0.000    0.000    0.000 
#
# Total GULP energy -446031.210163 kJ/mol
# GULP energy per Si atom -12389.755838 kJ/mol
# Density = 1.962922 g / cm^3
# Si number density = 19.673997 Si / 1000 Ang^3
#
#
#
# Elastic Constant Matrix: (Units=GPa)
#
#
# Indices 1 2 3 4 5 6 
#
# 1 144.4477 34.5001 63.4963 0.0000 0.0000 0.0000
# 2 34.5001 75.7943 21.3891 0.0000 0.0000 0.0000
# 3 63.4963 21.3891 77.0815 0.0000 0.0000 0.0000
# 4 0.0000 0.0000 0.0000 8.3636 0.0000 0.0000
# 5 0.0000 0.0000 0.0000 0.0000 12.0670 0.0000
# 6 0.0000 0.0000 0.0000 0.0000 0.0000 15.2585
#
#
#
# Elastic Compliance Matrix: (Units=1/GPa)
#
#
# Indices 1 2 3 4 5 6 
#
# 1 0.011355 -0.002744 -0.008593 0.000000 0.000000 0.000000
# 2 -0.002744 0.014978 -0.001896 0.000000 0.000000 0.000000
# 3 -0.008593 -0.001896 0.020578 0.000000 0.000000 0.000000
# 4 0.000000 0.000000 0.000000 0.119566 0.000000 0.000000
# 5 0.000000 0.000000 0.000000 0.000000 0.082870 0.000000
# 6 0.000000 0.000000 0.000000 0.000000 0.000000 0.065537
#
#
# Mechanical properties :
#
#
# Convention : Reuss Voigt Hill
#
# Bulk Modulus (GPa) = 48.90964 59.56605 54.23784
# Shear Modulus (GPa) = 14.36102 19.00035 16.68068
#
# Velocity S-wave (km/s) = 2.70469 3.11104 2.91495
# Velocity P-wave (km/s) = 5.88794 6.57625 6.24159
#
# Compressibility (1/GPa) = 0.02044587
#
# Stress axis : x y z
#
# Youngs Moduli (GPa) = 88.06314 66.76651 48.59640
#
# Poissons Ratio (x) = 0.18320 0.41758
# Poissons Ratio (y) = 0.24164 0.09213
# Poissons Ratio (z) = 0.75670 0.12657
#
# Static dielectric constant tensor:
#      x y z
#    x 3.912880 0.000000 0.000000 
#    y 0.000000 3.337370 0.000000 
#    z 0.000000 0.000000 3.639350 
# 
# 
# High freq. dielectric constant tensor:
#      x y z
#    x 1.768490 0.000000 0.000000 
#    y 0.000000 1.751230 0.000000 
#    z 0.000000 0.000000 1.738300 
# 
# From -- ./inp_files/30294.got.cif
#   From: 2010.03.12/outbox.cif.g09.slc.cpg/sg47_16_cif.got.tgz:30294.got - 2010.04.14 03:12:58.
