data_PCOD8198398
_publ_section_title
;
Structure prediction by ZEFSAII (Michael W. Deem and Ramdas Pophale) SiO2 
 PCOD8198398
Probable space group: P M M M
;
_chemical_formula_sum "Si O2"
_cell_formula_units_Z 56
_cell_length_a 23.492967
_cell_length_b 9.172474
_cell_length_c 13.812016
_cell_angle_alpha 90.000000
_cell_angle_beta 90.000000
_cell_angle_gamma 90.000000
_cell_volume 2976.332391
_symmetry_space_group_name_H-M "P M M M"
_symmetry_group_IT_number 47
_symmetry_cell_setting 'orthorhombic'
loop_
_space_group_symop_operation_xyz
x,y,z
-x,-y,z
x,-y,-z
-x,y,-z
-x,-y,-z
x,y,-z
-x,y,z
x,-y,z
loop_
_atom_site_type_symbol
_atom_site_label
_atom_site_fract_x
_atom_site_fract_y
_atom_site_fract_z
Si Si1 0.061697 0.831597 0.886137
Si Si2 0.387613 0.830533 0.114350
Si Si3 0.892413 0.161487 0.614578
Si Si4 0.500000 0.334800 0.114901
Si Si5 0.000000 0.663789 0.383857
Si Si6 0.765348 0.170999 0.388455
Si Si7 0.284592 0.672717 0.218454
Si Si8 0.829984 0.669779 0.111450
O O1 0.115274 0.747620 0.838708
O O2 0.000000 0.777947 0.845057
O O3 0.070028 0.000000 0.863322
O O4 0.062076 0.800912 0.000000
O O5 0.444896 0.752633 0.151877
O O6 0.336016 0.750788 0.165720
O O7 0.389797 0.000000 0.143698
O O8 0.380180 0.811523 0.000000
O O9 0.898653 0.152184 0.500000
O O10 0.942930 0.260177 0.658259
O O11 0.829552 0.223310 0.638632
O O12 0.899903 0.000000 0.658909
O O13 0.500000 0.500000 0.156591
O O14 0.500000 0.339507 0.000000
O O15 0.000000 0.500000 0.345197
O O16 0.000000 0.669080 0.500000
O O17 0.751843 0.203083 0.500000
O O18 0.720601 0.266242 0.327389
O O19 0.758499 0.000000 0.365670
O O20 0.294703 0.500000 0.218417
O O21 0.227305 0.719767 0.163620
O O22 0.840368 0.500000 0.122802
O O23 0.823438 0.716767 0.000000
#
# Coordination Sequence:
#
# PCOD8198398 Si02
#       8
#     8   8   8   4   4   8   8   8
#     4   8  14  25  42  64  88 116 155 203 251 298
#     4  10  20  34  54  82 116 153 190 222 253 297
#     4   8  14  26  44  63  84 113 149 192 247 311
#     4   9  17  31  53  81 116 155 188 219 257 299
#     4   9  15  21  35  63  91 111 138 183 242 309
#     4   9  19  36  55  73  95 127 170 220 270 320
#     4  11  22  34  51  76 107 140 175 216 265 317
#     4   9  18  31  46  67  97 131 164 200 247 305
#
# _framework density 18.815102
#
# number of rings (size 3 to 8) (size 9 to 14) (size 15 to 20)
#    0.000    2.857    0.000    3.000    0.000    5.429 
#    0.000    4.286    1.571    0.000    0.000    0.500 
#    0.000    4.000    0.000    0.000    0.000    0.000 
#
# Total GULP energy -694265.473856 kJ/mol
# GULP energy per Si atom -12397.597747 kJ/mol
# Density = 1.877228 g / cm^3
# Si number density = 18.815102 Si / 1000 Ang^3
#
#
#
# Elastic Constant Matrix: (Units=GPa)
#
#
# Indices 1 2 3 4 5 6 
#
# 1 158.0691 84.9784 45.7217 0.0000 0.0000 0.0000
# 2 84.9784 113.6110 31.6857 0.0000 0.0000 0.0000
# 3 45.7217 31.6857 38.0026 0.0000 0.0000 0.0000
# 4 0.0000 0.0000 0.0000 16.4265 0.0000 0.0000
# 5 0.0000 0.0000 0.0000 0.0000 17.5370 0.0000
# 6 0.0000 0.0000 0.0000 0.0000 0.0000 37.3404
#
#
#
# Elastic Compliance Matrix: (Units=1/GPa)
#
#
# Indices 1 2 3 4 5 6 
#
# 1 0.012840 -0.006900 -0.009695 0.000000 0.000000 0.000000
# 2 -0.006900 0.015177 -0.004352 0.000000 0.000000 0.000000
# 3 -0.009695 -0.004352 0.041607 0.000000 0.000000 0.000000
# 4 0.000000 0.000000 0.000000 0.060877 0.000000 0.000000
# 5 0.000000 0.000000 0.000000 0.000000 0.057022 0.000000
# 6 0.000000 0.000000 0.000000 0.000000 0.000000 0.026781
#
#
# Mechanical properties :
#
#
# Convention : Reuss Voigt Hill
#
# Bulk Modulus (GPa) = 36.06323 70.49491 53.27907
# Shear Modulus (GPa) = 18.83638 24.08056 21.45847
#
# Velocity S-wave (km/s) = 3.16750 3.58138 3.38078
# Velocity P-wave (km/s) = 5.70843 7.39258 6.60441
#
# Compressibility (1/GPa) = 0.02772907
#
# Stress axis : x y z
#
# Youngs Moduli (GPa) = 77.87985 65.88863 24.03421
#
# Poissons Ratio (x) = 0.45465 0.23301
# Poissons Ratio (y) = 0.53740 0.10461
# Poissons Ratio (z) = 0.75505 0.28678
#
# Static dielectric constant tensor:
#      x y z
#    x 3.381590 0.000000 0.000000 
#    y 0.000000 3.474930 0.000000 
#    z 0.000000 0.000000 3.186700 
# 
# 
# High freq. dielectric constant tensor:
#      x y z
#    x 1.722580 0.000000 0.000000 
#    y 0.000000 1.730210 0.000000 
#    z 0.000000 0.000000 1.710220 
# 
# From -- ./inp_files/11348.got.cif
#   From: 2010.03.12/outbox.cif.g09.slc.cpg/sg47_6_cif.got.tgz:11348.got - 2010.04.14 03:12:58.
