data_PCOD8198792
_publ_section_title
;
Structure prediction by ZEFSAII (Michael W. Deem and Ramdas Pophale) SiO2 
 PCOD8198792
Probable space group: P M M M
;
_chemical_formula_sum "Si O2"
_cell_formula_units_Z 56
_cell_length_a 15.385954
_cell_length_b 19.990868
_cell_length_c 8.897427
_cell_angle_alpha 90.000000
_cell_angle_beta 90.000000
_cell_angle_gamma 90.000000
_cell_volume 2736.657922
_symmetry_space_group_name_H-M "P M M M"
_symmetry_group_IT_number 47
_symmetry_cell_setting 'orthorhombic'
loop_
_space_group_symop_operation_xyz
x,y,z
-x,-y,z
x,-y,-z
-x,y,-z
-x,-y,-z
x,y,-z
-x,y,z
x,-y,z
loop_
_atom_site_type_symbol
_atom_site_label
_atom_site_fract_x
_atom_site_fract_y
_atom_site_fract_z
Si Si1 0.728711 0.426071 0.826894
Si Si2 0.902310 0.388939 0.323540
Si Si3 0.399296 0.308357 0.821961
Si Si4 0.500000 0.075789 0.822429
Si Si5 0.897104 0.000000 0.826345
Si Si6 0.098954 0.747049 0.833243
Si Si7 0.633650 0.831483 0.667169
Si Si8 0.172743 0.869555 0.667132
O O1 0.686809 0.500000 0.804377
O O2 0.823371 0.429494 0.748738
O O3 0.661113 0.370316 0.764207
O O4 0.746482 0.410720 0.000000
O O5 0.897734 0.399175 0.500000
O O6 0.885749 0.312096 0.283517
O O7 0.000000 0.410811 0.266471
O O8 0.500000 0.322094 0.777510
O O9 0.364183 0.241439 0.743775
O O10 0.391068 0.299463 0.000000
O O11 0.417366 0.116225 0.767525
O O12 0.500000 0.000000 0.757965
O O13 0.500000 0.074131 0.000000
O O14 0.858297 0.063221 0.743208
O O15 0.000000 0.000000 0.811183
O O16 0.868115 0.000000 0.000000
O O17 0.150867 0.809781 0.777118
O O18 0.000000 0.769368 0.840452
O O19 0.131890 0.725890 0.000000
O O20 0.593218 0.823058 0.500000
O O21 0.724963 0.867401 0.652246
O O22 0.130579 0.862738 0.500000
#
# Coordination Sequence:
#
# PCOD8198792 Si02
#       8
#     8   8   8   4   4   8   8   8
#     4  10  22  39  60  89 124 162 206 258 313 369
#     4  10  21  37  58  85 118 157 201 250 307 371
#     4  10  21  39  64  92 123 162 208 255 306 371
#     4  11  25  43  65  93 122 155 196 243 299 360
#     4  11  25  43  61  84 117 160 209 257 304 357
#     4  10  20  35  57  85 115 150 195 246 298 353
#     4  11  24  41  63  92 124 159 199 246 301 362
#     4  11  24  39  58  86 118 155 198 245 301 362
#
# _framework density 20.462914999999999
#
# number of rings (size 3 to 8) (size 9 to 14) (size 15 to 20)
#    0.000    1.571    0.714    3.429    1.000   10.571 
#    0.000    2.857    0.000    0.000    0.000    2.000 
#    0.000    0.000    0.000    0.000    0.000    0.000 
#
# Total GULP energy -694207.155180 kJ/mol
# GULP energy per Si atom -12396.556343 kJ/mol
# Density = 2.041634 g / cm^3
# Si number density = 20.462915 Si / 1000 Ang^3
#
#
#
# Elastic Constant Matrix: (Units=GPa)
#
#
# Indices 1 2 3 4 5 6 
#
# 1 89.4241 49.7685 34.9560 0.0000 0.0000 0.0000
# 2 49.7685 125.6596 32.8529 0.0000 0.0000 0.0000
# 3 34.9560 32.8529 75.8600 0.0000 0.0000 0.0000
# 4 0.0000 0.0000 0.0000 17.0527 0.0000 0.0000
# 5 0.0000 0.0000 0.0000 0.0000 27.1170 0.0000
# 6 0.0000 0.0000 0.0000 0.0000 0.0000 36.4412
#
#
#
# Elastic Compliance Matrix: (Units=1/GPa)
#
#
# Indices 1 2 3 4 5 6 
#
# 1 0.015986 -0.004968 -0.005215 0.000000 0.000000 0.000000
# 2 -0.004968 0.010518 -0.002266 0.000000 0.000000 0.000000
# 3 -0.005215 -0.002266 0.016566 0.000000 0.000000 0.000000
# 4 0.000000 0.000000 0.000000 0.058642 0.000000 0.000000
# 5 0.000000 0.000000 0.000000 0.000000 0.036877 0.000000
# 6 0.000000 0.000000 0.000000 0.000000 0.000000 0.027441
#
#
# Mechanical properties :
#
#
# Convention : Reuss Voigt Hill
#
# Bulk Modulus (GPa) = 55.02609 58.45537 56.74073
# Shear Modulus (GPa) = 25.38252 27.67993 26.53123
#
# Velocity S-wave (km/s) = 3.52577 3.68188 3.60467
# Velocity P-wave (km/s) = 6.59726 6.83400 6.71667
#
# Compressibility (1/GPa) = 0.01817320
#
# Stress axis : x y z
#
# Youngs Moduli (GPa) = 62.55442 95.07485 60.36310
#
# Poissons Ratio (x) = 0.47234 0.31478
# Poissons Ratio (y) = 0.31077 0.13677
# Poissons Ratio (z) = 0.32621 0.21542
#
# Static dielectric constant tensor:
#      x y z
#    x 4.094070 0.000000 0.000000 
#    y 0.000000 3.131260 0.000000 
#    z 0.000000 0.000000 3.916780 
# 
# 
# High freq. dielectric constant tensor:
#      x y z
#    x 1.805360 0.000000 0.000000 
#    y 0.000000 1.805870 0.000000 
#    z 0.000000 0.000000 1.804690 
# 
# From -- ./inp_files/7407.got.cif
#   From: 2010.03.12/outbox.cif.g09.slc.cpg/sg47_4_cif.got.tgz:7407.got - 2010.04.14 03:12:58.
