data_PCOD8198663
_publ_section_title
;
Structure prediction by ZEFSAII (Michael W. Deem and Ramdas Pophale) SiO2 
 PCOD8198663
Probable space group: P M M M
;
_chemical_formula_sum "Si O2"
_cell_formula_units_Z 56
_cell_length_a 9.140999
_cell_length_b 14.395405
_cell_length_c 22.700999
_cell_angle_alpha 90.000000
_cell_angle_beta 90.000000
_cell_angle_gamma 90.000000
_cell_volume 2987.187744
_symmetry_space_group_name_H-M "P M M M"
_symmetry_group_IT_number 47
_symmetry_cell_setting 'orthorhombic'
loop_
_space_group_symop_operation_xyz
x,y,z
-x,-y,z
x,-y,-z
-x,y,-z
-x,-y,-z
x,y,-z
-x,y,z
x,-y,z
loop_
_atom_site_type_symbol
_atom_site_label
_atom_site_fract_x
_atom_site_fract_y
_atom_site_fract_z
Si Si1 0.669818 0.107183 0.140772
Si Si2 0.336581 0.163827 0.648589
Si Si3 0.670521 0.278254 0.064365
Si Si4 0.174397 0.224832 0.237140
Si Si5 0.325802 0.391521 0.176095
Si Si6 0.659003 0.334550 0.564901
Si Si7 0.160183 0.500000 0.429467
Si Si8 0.325812 0.000000 0.433120
O O1 0.500000 0.116472 0.159963
O O2 0.701028 0.171729 0.083926
O O3 0.771991 0.145732 0.192301
O O4 0.709561 0.000000 0.126453
O O5 0.500000 0.137201 0.673021
O O6 0.223092 0.186196 0.699847
O O7 0.352418 0.250610 0.607649
O O8 0.269976 0.086307 0.605450
O O9 0.500000 0.295316 0.057906
O O10 0.728537 0.353139 0.112258
O O11 0.744947 0.294208 0.000000
O O12 0.247354 0.326093 0.224609
O O13 0.000000 0.234887 0.234334
O O14 0.500000 0.379543 0.183430
O O15 0.280276 0.500000 0.183140
O O16 0.715834 0.303317 0.500000
O O17 0.500000 0.381308 0.558212
O O18 0.764719 0.408451 0.595556
O O19 0.169781 0.500000 0.500000
O O20 0.000000 0.500000 0.403517
O O21 0.500000 0.000000 0.438291
O O22 0.260180 0.000000 0.500000
#
# Coordination Sequence:
#
# PCOD8198663 Si02
#       8
#     8   8   8   8   8   8   4   4
#     4   9  18  33  54  77 105 144 186 226 269 317
#     4  10  20  35  56  81 107 137 173 216 266 318
#     4   8  14  26  48  83 119 142 170 219 276 329
#     4  11  23  37  53  76 107 141 182 228 272 321
#     4   9  18  35  58  81 108 144 184 226 272 323
#     4   9  17  31  52  76 102 132 167 208 255 311
#     4   9  17  29  47  71  99 131 165 201 244 299
#     4   9  18  34  59  89 113 135 170 217 266 319
#
# _framework density 18.746728999999998
#
# number of rings (size 3 to 8) (size 9 to 14) (size 15 to 20)
#    0.000    2.714    0.000    2.786    1.000    4.286 
#    1.286    2.857    0.000    8.571    0.000    8.000 
#    0.000    0.000    0.000    0.000    0.000    0.000 
#
# Total GULP energy -693862.453236 kJ/mol
# GULP energy per Si atom -12390.400951 kJ/mol
# Density = 1.870406 g / cm^3
# Si number density = 18.746729 Si / 1000 Ang^3
#
#
#
# Elastic Constant Matrix: (Units=GPa)
#
#
# Indices 1 2 3 4 5 6 
#
# 1 75.4249 38.8977 33.8665 0.0000 0.0000 0.0000
# 2 38.8977 122.5049 45.5573 0.0000 0.0000 0.0000
# 3 33.8665 45.5573 110.2314 0.0000 0.0000 0.0000
# 4 0.0000 0.0000 0.0000 21.5957 0.0000 0.0000
# 5 0.0000 0.0000 0.0000 0.0000 4.3641 0.0000
# 6 0.0000 0.0000 0.0000 0.0000 0.0000 3.1212
#
#
#
# Elastic Compliance Matrix: (Units=1/GPa)
#
#
# Indices 1 2 3 4 5 6 
#
# 1 0.016938 -0.004068 -0.003523 0.000000 0.000000 0.000000
# 2 -0.004068 0.010622 -0.003140 0.000000 0.000000 0.000000
# 3 -0.003523 -0.003140 0.011452 0.000000 0.000000 0.000000
# 4 0.000000 0.000000 0.000000 0.046305 0.000000 0.000000
# 5 0.000000 0.000000 0.000000 0.000000 0.229142 0.000000
# 6 0.000000 0.000000 0.000000 0.000000 0.000000 0.320388
#
#
# Mechanical properties :
#
#
# Convention : Reuss Voigt Hill
#
# Bulk Modulus (GPa) = 56.97896 60.53379 58.75637
# Shear Modulus (GPa) = 7.55104 18.47219 13.01162
#
# Velocity S-wave (km/s) = 2.00915 3.14244 2.63739
# Velocity P-wave (km/s) = 5.98684 6.74737 6.37845
#
# Compressibility (1/GPa) = 0.01755034
#
# Stress axis : x y z
#
# Youngs Moduli (GPa) = 59.03934 94.14010 87.32181
#
# Poissons Ratio (x) = 0.38297 0.30759
# Poissons Ratio (y) = 0.24018 0.27421
# Poissons Ratio (z) = 0.20797 0.29563
#
# Static dielectric constant tensor:
#      x y z
#    x 3.389460 0.000000 0.000000 
#    y 0.000000 3.502230 0.000000 
#    z 0.000000 0.000000 3.850000 
# 
# 
# High freq. dielectric constant tensor:
#      x y z
#    x 1.690570 0.000000 0.000000 
#    y 0.000000 1.735160 0.000000 
#    z 0.000000 0.000000 1.720900 
# 
# From -- ./inp_files/29773.got.cif
#   From: 2010.03.12/outbox.cif.g09.slc.cpg/sg47_15_cif.got.tgz:29773.got - 2010.04.14 03:12:58.
