data_PCOD8198173
_publ_section_title
;
Structure prediction by ZEFSAII (Michael W. Deem and Ramdas Pophale) SiO2 
 PCOD8198173
Probable space group: P M M M
;
_chemical_formula_sum "Si O2"
_cell_formula_units_Z 48
_cell_length_a 30.986190
_cell_length_b 8.832951
_cell_length_c 8.935254
_cell_angle_alpha 90.000000
_cell_angle_beta 90.000000
_cell_angle_gamma 90.000000
_cell_volume 2445.574534
_symmetry_space_group_name_H-M "P M M M"
_symmetry_group_IT_number 47
_symmetry_cell_setting 'orthorhombic'
loop_
_space_group_symop_operation_xyz
x,y,z
-x,-y,z
x,-y,-z
-x,y,-z
-x,-y,-z
x,y,-z
-x,y,z
x,-y,z
loop_
_atom_site_type_symbol
_atom_site_label
_atom_site_fract_x
_atom_site_fract_y
_atom_site_fract_z
Si Si1 0.412895 0.678380 0.829015
Si Si2 0.500000 0.170221 0.822212
Si Si3 0.667162 0.175925 0.673184
Si Si4 0.827886 0.825839 0.323546
Si Si5 0.000000 0.819223 0.331214
Si Si6 0.084939 0.179978 0.831846
Si Si7 0.252396 0.675425 0.826040
O O1 0.416779 0.500000 0.821008
O O2 0.457158 0.746882 0.763109
O O3 0.374356 0.732034 0.724766
O O4 0.404555 0.732045 0.000000
O O5 0.500000 0.000000 0.760061
O O6 0.500000 0.175482 0.000000
O O7 0.676535 0.210984 0.500000
O O8 0.708118 0.225274 0.768693
O O9 0.658348 0.000000 0.701300
O O10 0.830456 0.808614 0.500000
O O11 0.872704 0.765355 0.255850
O O12 0.790392 0.720578 0.261617
O O13 0.819077 0.000000 0.277125
O O14 0.957591 0.754803 0.248795
O O15 0.000000 0.757926 0.500000
O O16 0.000000 0.000000 0.328869
O O17 0.082839 0.000000 0.832243
O O18 0.086650 0.244232 0.000000
O O19 0.262835 0.500000 0.796547
O O20 0.245243 0.709439 0.000000
#
# Coordination Sequence:
#
# PCOD8198173 Si02
#       7
#     8   4   8   8   4   8   8
#     4  10  20  35  57  85 115 147 185 228 273 323
#     4   9  17  31  54  83 114 149 188 230 276 323
#     4  11  24  40  58  82 111 143 180 222 269 322
#     4  10  20  34  53  78 107 139 176 218 266 320
#     4   9  15  23  37  61  96 135 174 219 270 321
#     4   9  16  26  42  66  98 136 176 218 266 319
#     4  11  24  40  58  81 107 137 176 220 266 319
#
# _framework density 19.627291
#
# number of rings (size 3 to 8) (size 9 to 14) (size 15 to 20)
#    0.000    2.000    0.000    4.000    0.000   12.667 
#    0.000    0.417    0.000    2.500    0.000    0.583 
#    0.000    4.667    0.000    0.000    0.000    0.000 
#
# Total GULP energy -595373.717748 kJ/mol
# GULP energy per Si atom -12403.619120 kJ/mol
# Density = 1.958262 g / cm^3
# Si number density = 19.627291 Si / 1000 Ang^3
#
#
#
# Elastic Constant Matrix: (Units=GPa)
#
#
# Indices 1 2 3 4 5 6 
#
# 1 148.6159 25.9680 44.0787 0.0000 0.0000 0.0000
# 2 25.9680 52.1787 25.5837 0.0000 0.0000 0.0000
# 3 44.0787 25.5837 95.1065 0.0000 0.0000 0.0000
# 4 0.0000 0.0000 0.0000 22.9842 0.0000 0.0000
# 5 0.0000 0.0000 0.0000 0.0000-4159.3495 0.0000
# 6 0.0000 0.0000 0.0000 0.0000 0.0000 -29.3581
#
#
#
# Elastic Compliance Matrix: (Units=1/GPa)
#
#
# Indices 1 2 3 4 5 6 
#
# 1 0.008078 -0.002516 -0.003067 0.000000 0.000000 0.000000
# 2 -0.002516 0.022861 -0.004983 0.000000 0.000000 0.000000
# 3 -0.003067 -0.004983 0.013276 0.000000 0.000000 0.000000
# 4 0.000000 0.000000 0.000000 0.043508 0.000000 0.000000
# 5 0.000000 0.000000 0.000000 0.000000 -0.000240 0.000000
# 6 0.000000 0.000000 0.000000 0.000000 0.000000 -0.034062
#
#
# Mechanical properties :
#
#
# Convention : Reuss Voigt Hill
#
# Bulk Modulus (GPa) = 43.32418 54.12909 48.72664
# Shear Modulus (GPa) = 60.79172 -819.79330 -379.50079
#
# Velocity S-wave (km/s) = 5.57138 -20.45940 -13.92025
# Velocity P-wave (km/s) = 7.96922 23.03210 15.28020
#
# Compressibility (1/GPa) = 0.02308180
#
# Stress axis : x y z
#
# Youngs Moduli (GPa) = 123.79112 43.74339 75.32129
#
# Poissons Ratio (x) = 0.11008 0.23101
# Poissons Ratio (y) = 0.31152 0.37534
# Poissons Ratio (z) = 0.37967 0.21798
#
# Static dielectric constant tensor:
#      x y z
#    x 3.939450 0.000000 0.000000 
#    y 0.000000 3.344990 0.000000 
#    z 0.000000 0.000000 3.633950 
# 
# 
# High freq. dielectric constant tensor:
#      x y z
#    x 1.783560 0.000000 0.000000 
#    y 0.000000 1.739000 0.000000 
#    z 0.000000 0.000000 1.765480 
# 
# From -- ./inp_files/13926.got.cif
#   From: 2010.03.12/outbox.cif.g09.slc.cpg/sg47_7_cif.got.tgz:13926.got - 2010.04.14 03:12:58.
