data_PCOD8198094
_publ_section_title
;
Structure prediction by ZEFSAII (Michael W. Deem and Ramdas Pophale) SiO2 
 PCOD8198094
Probable space group: P M M M
;
_chemical_formula_sum "Si O2"
_cell_formula_units_Z 48
_cell_length_a 9.052973
_cell_length_b 30.539174
_cell_length_c 9.255336
_cell_angle_alpha 90.000000
_cell_angle_beta 90.000000
_cell_angle_gamma 90.000000
_cell_volume 2558.825684
_symmetry_space_group_name_H-M "P M M M"
_symmetry_group_IT_number 47
_symmetry_cell_setting 'orthorhombic'
loop_
_space_group_symop_operation_xyz
x,y,z
-x,-y,z
x,-y,-z
-x,y,-z
-x,-y,-z
x,y,-z
-x,y,z
x,-y,z
loop_
_atom_site_type_symbol
_atom_site_label
_atom_site_fract_x
_atom_site_fract_y
_atom_site_fract_z
Si Si1 0.173974 0.500000 0.837185
Si Si2 0.833522 0.914559 0.328147
Si Si3 0.673240 0.827117 0.667623
Si Si4 0.828798 0.749178 0.169663
Si Si5 0.666917 0.000000 0.672479
Si Si6 0.669672 0.425814 0.665758
Si Si7 0.330155 0.325116 0.667408
O O1 0.229022 0.544031 0.762790
O O2 0.000000 0.500000 0.829945
O O3 0.233275 0.500000 0.000000
O O4 0.833745 0.916260 0.500000
O O5 0.750274 0.871172 0.274432
O O6 0.749664 0.957117 0.266728
O O7 0.000000 0.914173 0.267235
O O8 0.710776 0.818654 0.500000
O O9 0.500000 0.832297 0.692319
O O10 0.732592 0.786972 0.759110
O O11 0.778259 0.702820 0.233303
O O12 0.000000 0.756815 0.206389
O O13 0.799253 0.749063 0.000000
O O14 0.500000 0.000000 0.731309
O O15 0.667938 0.000000 0.500000
O O16 0.711703 0.434164 0.500000
O O17 0.500000 0.438291 0.692915
O O18 0.698620 0.375522 0.707078
O O19 0.293938 0.316086 0.500000
O O20 0.500000 0.312405 0.698957
#
# Coordination Sequence:
#
# PCOD8198094 Si02
#       7
#     4   8   8   8   4   8   8
#     4  11  24  37  50  76 114 149 180 217 260 306
#     4   9  16  26  42  66  97 132 168 208 258 312
#     4  10  20  34  53  76 101 132 173 218 261 308
#     4  11  24  38  52  75 107 140 173 211 257 309
#     4   9  15  23  37  61  96 133 168 209 256 305
#     4   9  19  37  60  83 106 135 175 220 262 308
#     4   9  19  37  60  84 107 133 170 216 263 311
#
# _framework density 18.758603000000001
#
# number of rings (size 3 to 8) (size 9 to 14) (size 15 to 20)
#    0.000    2.333    0.000    3.750    0.000   11.000 
#    0.000    5.000    0.000    0.000    0.000    0.583 
#    0.000    4.667    0.000    0.000    0.000    0.000 
#
# Total GULP energy -595313.897817 kJ/mol
# GULP energy per Si atom -12402.372871 kJ/mol
# Density = 1.871591 g / cm^3
# Si number density = 18.758603 Si / 1000 Ang^3
#
#
#
# Elastic Constant Matrix: (Units=GPa)
#
#
# Indices 1 2 3 4 5 6 
#
# 1 108.3526 59.9456 44.8309 0.0000 0.0000 0.0000
# 2 59.9456 128.1932 49.6773 0.0000 0.0000 0.0000
# 3 44.8309 49.6773 63.9939 0.0000 0.0000 0.0000
# 4 0.0000 0.0000 0.0000 -5.5673 0.0000 0.0000
# 5 0.0000 0.0000 0.0000 0.0000 24.3215 0.0000
# 6 0.0000 0.0000 0.0000 0.0000 0.0000 31.3348
#
#
#
# Elastic Compliance Matrix: (Units=1/GPa)
#
#
# Indices 1 2 3 4 5 6 
#
# 1 0.014308 -0.004014 -0.006907 0.000000 0.000000 0.000000
# 2 -0.004014 0.012283 -0.006723 0.000000 0.000000 0.000000
# 3 -0.006907 -0.006723 0.025685 0.000000 0.000000 0.000000
# 4 0.000000 0.000000 0.000000 -0.179620 0.000000 0.000000
# 5 0.000000 0.000000 0.000000 0.000000 0.041116 0.000000
# 6 0.000000 0.000000 0.000000 0.000000 0.000000 0.031913
#
#
# Mechanical properties :
#
#
# Convention : Reuss Voigt Hill
#
# Bulk Modulus (GPa) = 58.87049 67.71637 63.29343
# Shear Modulus (GPa) = -374.11488 19.75686 -177.17901
#
# Velocity S-wave (km/s) = -14.13752 3.24885 -9.72919
# Velocity P-wave (km/s) = 15.33105 7.08876 9.61225
#
# Compressibility (1/GPa) = 0.01698644
#
# Stress axis : x y z
#
# Youngs Moduli (GPa) = 69.89258 81.41311 38.93391
#
# Poissons Ratio (x) = 0.32678 0.26893
# Poissons Ratio (y) = 0.28054 0.26176
# Poissons Ratio (z) = 0.48277 0.54736
#
# Static dielectric constant tensor:
#      x y z
#    x 3.519970 0.000000 0.000000 
#    y 0.000000 3.834500 0.000000 
#    z 0.000000 0.000000 3.138310 
# 
# 
# High freq. dielectric constant tensor:
#      x y z
#    x 1.737200 0.000000 0.000000 
#    y 0.000000 1.745960 0.000000 
#    z 0.000000 0.000000 1.692020 
# 
# From -- ./inp_files/2567.got.cif
#   From: 2010.03.12/outbox.cif.g09.slc.cpg/sg47_2_cif.got.tgz:2567.got - 2010.04.14 03:12:58.
