data_PCOD8198791
_publ_section_title
;
Structure prediction by ZEFSAII (Michael W. Deem and Ramdas Pophale) SiO2 
 PCOD8198791
Probable space group: P M M M
;
_chemical_formula_sum "Si O2"
_cell_formula_units_Z 44
_cell_length_a 27.938729
_cell_length_b 9.025795
_cell_length_c 8.655579
_cell_angle_alpha 90.000000
_cell_angle_beta 90.000000
_cell_angle_gamma 90.000000
_cell_volume 2182.670783
_symmetry_space_group_name_H-M "P M M M"
_symmetry_group_IT_number 47
_symmetry_cell_setting 'orthorhombic'
loop_
_space_group_symop_operation_xyz
x,y,z
-x,-y,z
x,-y,-z
-x,y,-z
-x,-y,-z
x,y,-z
-x,y,z
x,-y,z
loop_
_atom_site_type_symbol
_atom_site_label
_atom_site_fract_x
_atom_site_fract_y
_atom_site_fract_z
Si Si1 0.817662 0.670559 0.820351
Si Si2 0.906845 0.834228 0.682628
Si Si3 0.554867 0.829332 0.678804
Si Si4 0.640664 0.671573 0.178916
Si Si5 0.728769 0.827788 0.679122
Si Si6 0.000000 0.667003 0.684410
O O1 0.815993 0.500000 0.770106
O O2 0.858795 0.750121 0.725033
O O3 0.766886 0.742468 0.783117
O O4 0.828745 0.688850 0.000000
O O5 0.910707 0.841568 0.500000
O O6 0.953017 0.749078 0.750108
O O7 0.905734 0.000000 0.752190
O O8 0.565212 0.794987 0.500000
O O9 0.500000 0.794032 0.719515
O O10 0.587028 0.724409 0.785052
O O11 0.566699 0.000000 0.715436
O O12 0.645940 0.500000 0.222393
O O13 0.676443 0.766180 0.283792
O O14 0.652378 0.698891 0.000000
O O15 0.740616 0.801565 0.500000
O O16 0.730598 0.000000 0.721782
O O17 0.000000 0.500000 0.748629
O O18 0.000000 0.667420 0.500000
#
# Coordination Sequence:
#
# PCOD8198791 Si02
#       6
#     8   8   8   8   8   4
#     4  11  24  40  58  83 115 149 186 229 278 333
#     4  10  20  35  57  85 115 148 189 234 279 331
#     4   9  19  37  60  85 113 147 190 237 281 329
#     4  11  24  39  56  83 118 152 187 229 278 333
#     4  11  24  41  62  87 112 142 185 233 279 332
#     4   9  17  31  54  83 114 149 188 232 282 331
#
# _framework density 20.158791000000001
#
# number of rings (size 3 to 8) (size 9 to 14) (size 15 to 20)
#    0.000    1.727    0.000    4.636    0.000   14.182 
#    0.000    3.182    0.000    2.727    0.000    0.000 
#    0.000    0.000    0.000    0.000    0.000    0.000 
#
# Total GULP energy -545845.362794 kJ/mol
# GULP energy per Si atom -12405.576427 kJ/mol
# Density = 2.011291 g / cm^3
# Si number density = 20.158791 Si / 1000 Ang^3
#
#
#
# Elastic Constant Matrix: (Units=GPa)
#
#
# Indices 1 2 3 4 5 6 
#
# 1 114.9952 56.3617 12.2420 0.0000 0.0000 0.0000
# 2 56.3617 151.0739 35.6666 0.0000 0.0000 0.0000
# 3 12.2420 35.6666 29.1854 0.0000 0.0000 0.0000
# 4 0.0000 0.0000 0.0000 27.6392 0.0000 0.0000
# 5 0.0000 0.0000 0.0000 0.0000 5.0580 0.0000
# 6 0.0000 0.0000 0.0000 0.0000 0.0000 32.1307
#
#
#
# Elastic Compliance Matrix: (Units=1/GPa)
#
#
# Indices 1 2 3 4 5 6 
#
# 1 0.010648 -0.004101 0.000546 0.000000 0.000000 0.000000
# 2 -0.004101 0.010883 -0.011580 0.000000 0.000000 0.000000
# 3 0.000546 -0.011580 0.048186 0.000000 0.000000 0.000000
# 4 0.000000 0.000000 0.000000 0.036181 0.000000 0.000000
# 5 0.000000 0.000000 0.000000 0.000000 0.197707 0.000000
# 6 0.000000 0.000000 0.000000 0.000000 0.000000 0.031123
#
#
# Mechanical properties :
#
#
# Convention : Reuss Voigt Hill
#
# Bulk Modulus (GPa) = 25.35070 55.97727 40.66398
# Shear Modulus (GPa) = 13.22235 25.69785 19.46010
#
# Velocity S-wave (km/s) = 2.56385 3.57427 3.11036
# Velocity P-wave (km/s) = 4.62247 6.69793 5.75454
#
# Compressibility (1/GPa) = 0.03944664
#
# Stress axis : x y z
#
# Youngs Moduli (GPa) = 93.91357 91.88466 20.75291
#
# Poissons Ratio (x) = 0.37685 -0.01133
# Poissons Ratio (y) = 0.38517 0.24031
# Poissons Ratio (z) = -0.05125 1.06400
#
# Static dielectric constant tensor:
#      x y z
#    x 3.706390 0.000000 0.000000 
#    y 0.000000 3.844060 0.000000 
#    z 0.000000 0.000000 3.424940 
# 
# 
# High freq. dielectric constant tensor:
#      x y z
#    x 1.801750 0.000000 0.000000 
#    y 0.000000 1.800580 0.000000 
#    z 0.000000 0.000000 1.770610 
# 
# From -- ./inp_files/13596.got.cif
#   From: 2010.03.12/outbox.cif.g09.slc.cpg/sg47_7_cif.got.tgz:13596.got - 2010.04.14 03:12:58.
