data_PCOD8198243
_publ_section_title
;
Structure prediction by ZEFSAII (Michael W. Deem and Ramdas Pophale) SiO2 
 PCOD8198243
Probable space group: P M M M
;
_chemical_formula_sum "Si O2"
_cell_formula_units_Z 40
_cell_length_a 12.696948
_cell_length_b 8.968229
_cell_length_c 19.820927
_cell_angle_alpha 90.000000
_cell_angle_beta 90.000000
_cell_angle_gamma 90.000000
_cell_volume 2256.991857
_symmetry_space_group_name_H-M "P M M M"
_symmetry_group_IT_number 47
_symmetry_cell_setting 'orthorhombic'
loop_
_space_group_symop_operation_xyz
x,y,z
-x,-y,z
x,-y,-z
-x,y,-z
-x,-y,-z
x,y,-z
-x,y,z
x,-y,z
loop_
_atom_site_type_symbol
_atom_site_label
_atom_site_fract_x
_atom_site_fract_y
_atom_site_fract_z
Si Si1 0.274236 0.678540 0.424639
Si Si2 0.121959 0.825277 0.829373
Si Si3 0.878948 0.325894 0.308689
Si Si4 0.500000 0.168704 0.080246
Si Si5 0.500000 0.662118 0.579674
Si Si6 0.289386 0.672250 0.079554
O O1 0.244604 0.735450 0.500000
O O2 0.280197 0.500000 0.425199
O O3 0.187163 0.735488 0.372172
O O4 0.389528 0.743874 0.401390
O O5 0.158380 0.762350 0.757248
O O6 0.187903 0.748250 0.888064
O O7 0.000000 0.786491 0.842534
O O8 0.143306 0.000000 0.830864
O O9 0.858890 0.500000 0.295689
O O10 0.000000 0.292688 0.325644
O O11 0.603965 0.251787 0.107479
O O12 0.500000 0.000000 0.107674
O O13 0.500000 0.172598 0.000000
O O14 0.500000 0.500000 0.615252
O O15 0.500000 0.639568 0.500000
O O16 0.293362 0.500000 0.099927
O O17 0.278951 0.694594 0.000000
#
# Coordination Sequence:
#
# PCOD8198243 Si02
#       6
#     8   8   8   4   4   8
#     4   8  13  22  39  64  91 118 150 189 234 285
#     4  10  21  36  52  69  94 131 170 206 248 301
#     4   9  17  29  45  65  91 122 154 193 242 291
#     4   9  17  31  52  77 106 137 165 195 236 287
#     4   7  10  18  33  56  88 119 143 175 224 277
#     4  10  20  34  54  79 104 129 161 203 248 293
#
# _framework density 17.722704
#
# number of rings (size 3 to 8) (size 9 to 14) (size 15 to 20)
#    0.000    3.000    0.000    2.700    0.000    4.400 
#    0.000    5.000    0.000    3.000    0.000    2.800 
#    0.000    2.400    0.000    0.000    0.000    0.000 
#
# Total GULP energy -495778.748923 kJ/mol
# GULP energy per Si atom -12394.468723 kJ/mol
# Density = 1.768237 g / cm^3
# Si number density = 17.722704 Si / 1000 Ang^3
#
#
#
# Elastic Constant Matrix: (Units=GPa)
#
#
# Indices 1 2 3 4 5 6 
#
# 1 114.4036 48.9646 56.4726 0.0000 0.0000 0.0000
# 2 48.9646 76.6211 38.4731 0.0000 0.0000 0.0000
# 3 56.4726 38.4731 61.7858 0.0000 0.0000 0.0000
# 4 0.0000 0.0000 0.0000 11.1112 0.0000 0.0000
# 5 0.0000 0.0000 0.0000 0.0000 13.0673 0.0000
# 6 0.0000 0.0000 0.0000 0.0000 0.0000 23.6598
#
#
#
# Elastic Compliance Matrix: (Units=1/GPa)
#
#
# Indices 1 2 3 4 5 6 
#
# 1 0.016900 -0.004428 -0.012689 0.000000 0.000000 0.000000
# 2 -0.004428 0.020149 -0.008499 0.000000 0.000000 0.000000
# 3 -0.012689 -0.008499 0.033075 0.000000 0.000000 0.000000
# 4 0.000000 0.000000 0.000000 0.090000 0.000000 0.000000
# 5 0.000000 0.000000 0.000000 0.000000 0.076527 0.000000
# 6 0.000000 0.000000 0.000000 0.000000 0.000000 0.042266
#
#
# Mechanical properties :
#
#
# Convention : Reuss Voigt Hill
#
# Bulk Modulus (GPa) = 52.93521 60.07012 56.50267
# Shear Modulus (GPa) = 14.86125 16.82766 15.84446
#
# Velocity S-wave (km/s) = 2.89890 3.08473 2.99326
# Velocity P-wave (km/s) = 6.41391 6.83048 6.62547
#
# Compressibility (1/GPa) = 0.01889102
#
# Stress axis : x y z
#
# Youngs Moduli (GPa) = 59.17126 49.63141 30.23441
#
# Poissons Ratio (x) = 0.21979 0.38365
# Poissons Ratio (y) = 0.26204 0.25695
# Poissons Ratio (z) = 0.75084 0.42180
#
# Static dielectric constant tensor:
#      x y z
#    x 3.612960 0.000000 0.000000 
#    y 0.000000 3.056910 0.000000 
#    z 0.000000 0.000000 3.138980 
# 
# 
# High freq. dielectric constant tensor:
#      x y z
#    x 1.699150 0.000000 0.000000 
#    y 0.000000 1.657480 0.000000 
#    z 0.000000 0.000000 1.662600 
# 
# From -- ./inp_files/10743.got.cif
#   From: 2010.03.12/outbox.cif.g09.slc.cpg/sg47_6_cif.got.tgz:10743.got - 2010.04.14 03:12:58.
