data_PCOD8198774
_publ_section_title
;
Structure prediction by ZEFSAII (Michael W. Deem and Ramdas Pophale) SiO2 
 PCOD8198774
Probable space group: P M M M
;
_chemical_formula_sum "Si O2"
_cell_formula_units_Z 44
_cell_length_a 28.126199
_cell_length_b 9.069506
_cell_length_c 8.997909
_cell_angle_alpha 90.000000
_cell_angle_beta 90.000000
_cell_angle_gamma 90.000000
_cell_volume 2295.283181
_symmetry_space_group_name_H-M "P M M M"
_symmetry_group_IT_number 47
_symmetry_cell_setting 'orthorhombic'
loop_
_space_group_symop_operation_xyz
x,y,z
-x,-y,z
x,-y,-z
-x,y,-z
-x,-y,-z
x,y,-z
-x,y,z
x,-y,z
loop_
_atom_site_type_symbol
_atom_site_label
_atom_site_fract_x
_atom_site_fract_y
_atom_site_fract_z
Si Si1 0.946432 0.173822 0.167147
Si Si2 0.232366 0.329799 0.825132
Si Si3 0.500000 0.166201 0.823467
Si Si4 0.594398 0.327183 0.826907
Si Si5 0.136304 0.329276 0.670050
Si Si6 0.681406 0.829645 0.674667
O O1 0.910841 0.244258 0.283904
O O2 0.000000 0.221811 0.209500
O O3 0.941299 0.000000 0.176835
O O4 0.934474 0.227773 0.000000
O O5 0.242034 0.500000 0.780907
O O6 0.180720 0.278160 0.769643
O O7 0.270402 0.225595 0.748349
O O8 0.235431 0.306909 0.000000
O O9 0.546707 0.250105 0.765658
O O10 0.500000 0.000000 0.760270
O O11 0.500000 0.166728 0.000000
O O12 0.589360 0.500000 0.798897
O O13 0.638114 0.265847 0.734849
O O14 0.602912 0.291900 0.000000
O O15 0.148504 0.292583 0.500000
O O16 0.125825 0.500000 0.694944
O O17 0.685465 0.805939 0.500000
O O18 0.673243 0.000000 0.716578
#
# Coordination Sequence:
#
# PCOD8198774 Si02
#       6
#     8   8   4   8   8   8
#     4   9  19  36  56  78 106 142 184 227 270 318
#     4  10  21  38  60  83 106 137 179 223 268 321
#     4   9  17  31  54  83 114 147 182 224 272 319
#     4  10  20  35  57  84 112 144 184 227 271 321
#     4  10  21  36  55  81 112 144 178 219 269 324
#     4  11  24  39  55  79 111 145 181 222 270 323
#
# _framework density 19.169747999999998
#
# number of rings (size 3 to 8) (size 9 to 14) (size 15 to 20)
#    0.000    2.091    0.000    3.545    0.000    9.818 
#    0.000    3.182    0.000    2.727    0.000    0.000 
#    0.000    0.000    0.000    0.000    0.000    0.000 
#
# Total GULP energy -545760.339857 kJ/mol
# GULP energy per Si atom -12403.644088 kJ/mol
# Density = 1.912612 g / cm^3
# Si number density = 19.169748 Si / 1000 Ang^3
#
#
#
# Elastic Constant Matrix: (Units=GPa)
#
#
# Indices 1 2 3 4 5 6 
#
# 1 130.4369 54.0416 42.4589 0.0000 0.0000 0.0000
# 2 54.0416 77.8911 41.9922 0.0000 0.0000 0.0000
# 3 42.4589 41.9922 66.9534 0.0000 0.0000 0.0000
# 4 0.0000 0.0000 0.0000 29.4401 0.0000 0.0000
# 5 0.0000 0.0000 0.0000 0.0000 -45.5559 0.0000
# 6 0.0000 0.0000 0.0000 0.0000 0.0000 63.1593
#
#
#
# Elastic Compliance Matrix: (Units=1/GPa)
#
#
# Indices 1 2 3 4 5 6 
#
# 1 0.011244 -0.005979 -0.003381 0.000000 0.000000 0.000000
# 2 -0.005979 0.022576 -0.010368 0.000000 0.000000 0.000000
# 3 -0.003381 -0.010368 0.023582 0.000000 0.000000 0.000000
# 4 0.000000 0.000000 0.000000 0.033967 0.000000 0.000000
# 5 0.000000 0.000000 0.000000 0.000000 -0.021951 0.000000
# 6 0.000000 0.000000 0.000000 0.000000 0.000000 0.015833
#
#
# Mechanical properties :
#
#
# Convention : Reuss Voigt Hill
#
# Bulk Modulus (GPa) = 55.71757 61.36298 58.54028
# Shear Modulus (GPa) = 38.25888 18.52797 28.39343
#
# Velocity S-wave (km/s) = 4.47228 3.11227 3.85276
# Velocity P-wave (km/s) = 7.46973 6.70781 7.09900
#
# Compressibility (1/GPa) = 0.01794766
#
# Stress axis : x y z
#
# Youngs Moduli (GPa) = 88.93608 44.29494 42.40464
#
# Poissons Ratio (x) = 0.26482 0.14336
# Poissons Ratio (y) = 0.53171 0.43965
# Poissons Ratio (z) = 0.30067 0.45925
#
# Static dielectric constant tensor:
#      x y z
#    x 3.694620 0.000000 0.000000 
#    y 0.000000 3.534030 0.000000 
#    z 0.000000 0.000000 3.457000 
# 
# 
# High freq. dielectric constant tensor:
#      x y z
#    x 1.760450 0.000000 0.000000 
#    y 0.000000 1.746790 0.000000 
#    z 0.000000 0.000000 1.738620 
# 
# From -- ./inp_files/13687.got.cif
#   From: 2010.03.12/outbox.cif.g09.slc.cpg/sg47_7_cif.got.tgz:13687.got - 2010.04.14 03:12:58.
