data_PCOD8198806
_publ_section_title
;
Structure prediction by ZEFSAII (Michael W. Deem and Ramdas Pophale) SiO2 
 PCOD8198806
Probable space group: P M M M
;
_chemical_formula_sum "Si O2"
_cell_formula_units_Z 64
_cell_length_a 15.422119
_cell_length_b 23.920308
_cell_length_c 8.984926
_cell_angle_alpha 90.000000
_cell_angle_beta 90.000000
_cell_angle_gamma 90.000000
_cell_volume 3314.555702
_symmetry_space_group_name_H-M "P M M M"
_symmetry_group_IT_number 47
_symmetry_cell_setting 'orthorhombic'
loop_
_space_group_symop_operation_xyz
x,y,z
-x,-y,z
x,-y,-z
-x,y,-z
-x,-y,-z
x,y,-z
-x,y,z
x,-y,z
loop_
_atom_site_type_symbol
_atom_site_label
_atom_site_fract_x
_atom_site_fract_y
_atom_site_fract_z
Si Si1 0.248694 0.755101 0.823096
Si Si2 0.255834 0.635365 0.676525
Si Si3 0.595212 0.168917 0.828839
Si Si4 0.351081 0.937955 0.674154
Si Si5 0.845326 0.060236 0.323689
Si Si6 0.096130 0.437424 0.676674
Si Si7 0.097587 0.178681 0.672863
Si Si8 0.599814 0.435113 0.171105
O O1 0.258704 0.694789 0.753235
O O2 0.330323 0.791104 0.762302
O O3 0.159495 0.782892 0.770551
O O4 0.248890 0.749988 0.000000
O O5 0.252868 0.642758 0.500000
O O6 0.169974 0.603839 0.738188
O O7 0.341048 0.600924 0.719727
O O8 0.500000 0.196721 0.806269
O O9 0.591497 0.108526 0.752717
O O10 0.616031 0.158648 0.000000
O O11 0.356078 0.926961 0.500000
O O12 0.252774 0.931895 0.732026
O O13 0.386559 0.000000 0.712604
O O14 0.847395 0.057096 0.500000
O O15 0.899454 0.114107 0.269832
O O16 0.881641 0.000000 0.262587
O O17 0.100292 0.438692 0.500000
O O18 0.113598 0.500000 0.738173
O O19 0.000000 0.417114 0.728173
O O20 0.125970 0.182398 0.500000
O O21 0.000000 0.200826 0.694353
O O22 0.500000 0.420112 0.204547
O O23 0.617186 0.500000 0.204086
O O24 0.622104 0.420993 0.000000
#
# Coordination Sequence:
#
# PCOD8198806 Si02
#       8
#     8   8   8   8   8   8   8   8
#     4  11  24  41  57  75 106 149 192 235 282 334
#     4  11  22  35  57  87 115 145 188 240 286 329
#     4  10  22  39  57  76 100 137 185 232 277 327
#     4   9  17  31  54  82 110 138 169 213 272 335
#     4   8  14  27  50  80 111 138 167 212 272 335
#     4   8  15  30  53  82 115 146 174 210 263 323
#     4  10  20  35  58  84 109 141 183 231 280 331
#     4   9  19  37  60  86 119 158 193 225 271 334
#
# _framework density 19.308771
#
# number of rings (size 3 to 8) (size 9 to 14) (size 15 to 20)
#    0.000    2.500    1.250    2.625    0.000    3.750 
#    0.000    5.625    0.000    1.500    0.000    5.250 
#    0.000    0.000    0.000    0.000    0.000    0.000 
#
# Total GULP energy -793326.677360 kJ/mol
# GULP energy per Si atom -12395.729334 kJ/mol
# Density = 1.926482 g / cm^3
# Si number density = 19.308771 Si / 1000 Ang^3
#
#
#
# Elastic Constant Matrix: (Units=GPa)
#
#
# Indices 1 2 3 4 5 6 
#
# 1 119.9621 69.4602 37.3322 0.0000 0.0000 0.0000
# 2 69.4602 127.6143 41.0017 0.0000 0.0000 0.0000
# 3 37.3322 41.0017 48.9986 0.0000 0.0000 0.0000
# 4 0.0000 0.0000 0.0000 26.9318 0.0000 0.0000
# 5 0.0000 0.0000 0.0000 0.0000 25.7366 0.0000
# 6 0.0000 0.0000 0.0000 0.0000 0.0000 16.4601
#
#
#
# Elastic Compliance Matrix: (Units=1/GPa)
#
#
# Indices 1 2 3 4 5 6 
#
# 1 0.013182 -0.005400 -0.005525 0.000000 0.000000 0.000000
# 2 -0.005400 0.012930 -0.006705 0.000000 0.000000 0.000000
# 3 -0.005525 -0.006705 0.030229 0.000000 0.000000 0.000000
# 4 0.000000 0.000000 0.000000 0.037131 0.000000 0.000000
# 5 0.000000 0.000000 0.000000 0.000000 0.038855 0.000000
# 6 0.000000 0.000000 0.000000 0.000000 0.000000 0.060753
#
#
# Mechanical properties :
#
#
# Convention : Reuss Voigt Hill
#
# Bulk Modulus (GPa) = 47.43659 65.79590 56.61624
# Shear Modulus (GPa) = 21.24352 23.74443 22.49398
#
# Velocity S-wave (km/s) = 3.32053 3.51054 3.41686
# Velocity P-wave (km/s) = 6.27072 7.11207 6.70460
#
# Compressibility (1/GPa) = 0.02108078
#
# Stress axis : x y z
#
# Youngs Moduli (GPa) = 75.86187 77.34227 33.08073
#
# Poissons Ratio (x) = 0.41763 0.18277
# Poissons Ratio (y) = 0.40964 0.22181
# Poissons Ratio (z) = 0.41912 0.51860
#
# Static dielectric constant tensor:
#      x y z
#    x 3.662800 0.000000 0.000000 
#    y 0.000000 -4.694850 0.000000 
#    z 0.000000 0.000000 3.179840 
# 
# 
# High freq. dielectric constant tensor:
#      x y z
#    x 1.757810 0.000000 0.000000 
#    y 0.000000 1.754320 0.000000 
#    z 0.000000 0.000000 1.716340 
# 
# From -- ./inp_files/7825.got.cif
#   From: 2010.03.12/outbox.cif.g09.slc.cpg/sg47_4_cif.got.tgz:7825.got - 2010.04.14 03:12:58.
