data_PCOD8198668
_publ_section_title
;
Structure prediction by ZEFSAII (Michael W. Deem and Ramdas Pophale) SiO2 
 PCOD8198668
Probable space group: P M M M
;
_chemical_formula_sum "Si O2"
_cell_formula_units_Z 52
_cell_length_a 12.037474
_cell_length_b 25.041273
_cell_length_c 9.617270
_cell_angle_alpha 90.000000
_cell_angle_beta 90.000000
_cell_angle_gamma 90.000000
_cell_volume 2898.969017
_symmetry_space_group_name_H-M "P M M M"
_symmetry_group_IT_number 47
_symmetry_cell_setting 'orthorhombic'
loop_
_space_group_symop_operation_xyz
x,y,z
-x,-y,z
x,-y,-z
-x,y,-z
-x,-y,-z
x,y,-z
-x,y,z
x,-y,z
loop_
_atom_site_type_symbol
_atom_site_label
_atom_site_fract_x
_atom_site_fract_y
_atom_site_fract_z
Si Si1 0.799264 0.559488 0.156958
Si Si2 0.000000 0.437502 0.347746
Si Si3 0.724589 0.328289 0.160127
Si Si4 0.873353 0.061485 0.160991
Si Si5 0.869924 0.253110 0.337511
Si Si6 0.254176 0.144805 0.658412
Si Si7 0.500000 0.722841 0.164397
Si Si8 0.500000 0.823966 0.655164
O O1 0.751795 0.500000 0.195181
O O2 0.893490 0.579250 0.261202
O O3 0.710785 0.607129 0.171538
O O4 0.847144 0.557622 0.000000
O O5 0.000000 0.500000 0.369036
O O6 0.000000 0.409254 0.500000
O O7 0.824976 0.303701 0.250503
O O8 0.608558 0.307252 0.219676
O O9 0.744954 0.311488 0.000000
O O10 0.791222 0.097112 0.249752
O O11 0.000000 0.074634 0.202143
O O12 0.846476 0.000000 0.193096
O O13 0.853369 0.074285 0.000000
O O14 0.852559 0.265358 0.500000
O O15 0.798698 0.201121 0.291884
O O16 0.000000 0.244104 0.302921
O O17 0.217687 0.134800 0.500000
O O18 0.387699 0.141987 0.674156
O O19 0.500000 0.781222 0.224787
O O20 0.500000 0.726540 0.000000
O O21 0.500000 0.798021 0.500000
#
# Coordination Sequence:
#
# PCOD8198668 Si02
#       8
#     8   4   8   8   8   8   4   4
#     4   9  18  33  50  69  98 135 170 207 258 318
#     4   9  17  29  47  71  97 127 165 207 250 301
#     4  10  21  35  53  76 102 134 174 217 262 316
#     4   9  19  36  57  82 113 148 184 221 263 312
#     4  10  21  35  52  78 109 138 171 216 267 317
#     4  10  20  35  56  81 108 141 182 223 264 313
#     4  10  20  36  55  77 103 132 176 226 262 307
#     4  10  20  36  57  78 105 142 182 219 262 317
#
# _framework density 17.937411999999998
#
# number of rings (size 3 to 8) (size 9 to 14) (size 15 to 20)
#    0.000    2.385    1.538    1.154    1.077    4.308 
#    0.000    1.538    0.000    4.615    0.000    0.000 
#    0.000    4.308    0.000    0.000    0.000    0.000 
#
# Total GULP energy -644535.227435 kJ/mol
# GULP energy per Si atom -12394.908220 kJ/mol
# Density = 1.789659 g / cm^3
# Si number density = 17.937412 Si / 1000 Ang^3
#
#
#
# Elastic Constant Matrix: (Units=GPa)
#
#
# Indices 1 2 3 4 5 6 
#
# 1 107.9563 49.4743 37.8163 0.0000 0.0000 0.0000
# 2 49.4743 100.9206 40.5008 0.0000 0.0000 0.0000
# 3 37.8163 40.5008 56.2064 0.0000 0.0000 0.0000
# 4 0.0000 0.0000 0.0000 22.8914 0.0000 0.0000
# 5 0.0000 0.0000 0.0000 0.0000 26.0208 0.0000
# 6 0.0000 0.0000 0.0000 0.0000 0.0000 -14.1813
#
#
#
# Elastic Compliance Matrix: (Units=1/GPa)
#
#
# Indices 1 2 3 4 5 6 
#
# 1 0.013223 -0.004097 -0.005945 0.000000 0.000000 0.000000
# 2 -0.004097 0.015209 -0.008203 0.000000 0.000000 0.000000
# 3 -0.005945 -0.008203 0.027702 0.000000 0.000000 0.000000
# 4 0.000000 0.000000 0.000000 0.043684 0.000000 0.000000
# 5 0.000000 0.000000 0.000000 0.000000 0.038431 0.000000
# 6 0.000000 0.000000 0.000000 0.000000 0.000000 -0.070515
#
#
# Mechanical properties :
#
#
# Convention : Reuss Voigt Hill
#
# Bulk Modulus (GPa) = 50.90210 57.85178 54.37694
# Shear Modulus (GPa) = 45.13851 16.09898 30.61874
#
# Velocity S-wave (km/s) = 5.02186 2.99909 4.13604
# Velocity P-wave (km/s) = 7.87811 6.65694 7.29313
#
# Compressibility (1/GPa) = 0.01964555
#
# Stress axis : x y z
#
# Youngs Moduli (GPa) = 75.62745 65.75049 36.09849
#
# Poissons Ratio (x) = 0.26935 0.21459
# Poissons Ratio (y) = 0.30981 0.29612
# Poissons Ratio (z) = 0.44957 0.53935
#
# Static dielectric constant tensor:
#      x y z
#    x 3.360360 0.000000 0.000000 
#    y 0.000000 3.219120 0.000000 
#    z 0.000000 0.000000 3.416230 
# 
# 
# High freq. dielectric constant tensor:
#      x y z
#    x 1.684230 0.000000 0.000000 
#    y 0.000000 1.689870 0.000000 
#    z 0.000000 0.000000 1.695460 
# 
# From -- ./inp_files/4661.got.cif
#   From: 2010.03.12/outbox.cif.g09.slc.cpg/sg47_3_cif.got.tgz:4661.got - 2010.04.14 03:12:58.
