data_PCOD8198399
_publ_section_title
;
Structure prediction by ZEFSAII (Michael W. Deem and Ramdas Pophale) SiO2 
 PCOD8198399
Probable space group: P M M M
;
_chemical_formula_sum "Si O2"
_cell_formula_units_Z 56
_cell_length_a 16.869108
_cell_length_b 20.267579
_cell_length_c 8.612948
_cell_angle_alpha 90.000000
_cell_angle_beta 90.000000
_cell_angle_gamma 90.000000
_cell_volume 2944.732289
_symmetry_space_group_name_H-M "P M M M"
_symmetry_group_IT_number 47
_symmetry_cell_setting 'orthorhombic'
loop_
_space_group_symop_operation_xyz
x,y,z
-x,-y,z
x,-y,-z
-x,y,-z
-x,-y,-z
x,y,-z
-x,y,z
x,-y,z
loop_
_atom_site_type_symbol
_atom_site_label
_atom_site_fract_x
_atom_site_fract_y
_atom_site_fract_z
Si Si1 0.255230 0.425672 0.677599
Si Si2 0.734574 0.185693 0.181247
Si Si3 0.000000 0.733465 0.680966
Si Si4 0.000000 0.877499 0.816687
Si Si5 0.161697 0.924027 0.322032
Si Si6 0.841314 0.309457 0.818782
Si Si7 0.410768 0.617317 0.180792
Si Si8 0.411376 0.757061 0.677888
O O1 0.246097 0.403054 0.500000
O O2 0.223316 0.500000 0.701092
O O3 0.205102 0.376928 0.785347
O O4 0.347974 0.425259 0.723249
O O5 0.775930 0.117382 0.223044
O O6 0.789230 0.246889 0.234688
O O7 0.651249 0.187397 0.272358
O O8 0.717321 0.188621 0.000000
O O9 0.922892 0.690572 0.723126
O O10 0.000000 0.750823 0.500000
O O11 0.000000 0.800226 0.779728
O O12 0.074893 0.913784 0.745367
O O13 0.000000 0.886599 0.000000
O O14 0.163091 0.900276 0.500000
O O15 0.186096 0.000000 0.306720
O O16 0.861078 0.305243 0.000000
O O17 0.500000 0.596837 0.231043
O O18 0.396321 0.694254 0.213384
O O19 0.397102 0.604085 0.000000
O O20 0.398180 0.735794 0.500000
O O21 0.500000 0.785373 0.702490
#
# Coordination Sequence:
#
# PCOD8198399 Si02
#       8
#     8   8   4   4   8   8   8   8
#     4  11  24  40  59  84 115 153 196 242 293 349
#     4  11  22  36  60  89 118 155 196 240 288 342
#     4  12  24  39  64  91 118 152 190 242 292 337
#     4  12  23  37  58  88 123 159 196 235 285 344
#     4  11  24  40  59  86 121 160 199 238 285 344
#     4  11  23  40  62  89 117 150 193 241 290 345
#     4  10  20  34  54  82 116 153 193 237 289 349
#     4  10  20  34  56  86 118 152 192 241 293 342
#
# _framework density 19.017008000000001
#
# number of rings (size 3 to 8) (size 9 to 14) (size 15 to 20)
#    0.000    1.143    2.857    4.071    0.000    6.286 
#    0.000    1.786    0.000    2.571    0.000    3.000 
#    0.000    0.000    0.000    0.000    0.000    0.000 
#
# Total GULP energy -694722.115249 kJ/mol
# GULP energy per Si atom -12405.752058 kJ/mol
# Density = 1.897372 g / cm^3
# Si number density = 19.017008 Si / 1000 Ang^3
#
#
#
# Elastic Constant Matrix: (Units=GPa)
#
#
# Indices 1 2 3 4 5 6 
#
# 1 109.4690 36.6824 31.0349 0.0000 0.0000 0.0000
# 2 36.6824 80.2627 20.2109 0.0000 0.0000 0.0000
# 3 31.0349 20.2109 64.9288 0.0000 0.0000 0.0000
# 4 0.0000 0.0000 0.0000 26.4714 0.0000 0.0000
# 5 0.0000 0.0000 0.0000 0.0000 35.1131 0.0000
# 6 0.0000 0.0000 0.0000 0.0000 0.0000 66.3618
#
#
#
# Elastic Compliance Matrix: (Units=1/GPa)
#
#
# Indices 1 2 3 4 5 6 
#
# 1 0.011798 -0.004310 -0.004298 0.000000 0.000000 0.000000
# 2 -0.004310 0.015093 -0.002638 0.000000 0.000000 0.000000
# 3 -0.004298 -0.002638 0.018277 0.000000 0.000000 0.000000
# 4 0.000000 0.000000 0.000000 0.037777 0.000000 0.000000
# 5 0.000000 0.000000 0.000000 0.000000 0.028479 0.000000
# 6 0.000000 0.000000 0.000000 0.000000 0.000000 0.015069
#
#
# Mechanical properties :
#
#
# Convention : Reuss Voigt Hill
#
# Bulk Modulus (GPa) = 44.09816 47.83521 45.96669
# Shear Modulus (GPa) = 31.94032 36.70474 34.32253
#
# Velocity S-wave (km/s) = 4.10270 4.39806 4.25294
# Velocity P-wave (km/s) = 6.75884 7.14136 6.95273
#
# Compressibility (1/GPa) = 0.02267668
#
# Stress axis : x y z
#
# Youngs Moduli (GPa) = 84.76366 66.25568 54.71405
#
# Poissons Ratio (x) = 0.28554 0.23513
# Poissons Ratio (y) = 0.36530 0.14435
# Poissons Ratio (z) = 0.36427 0.17479
#
# Static dielectric constant tensor:
#      x y z
#    x 3.590180 0.000000 0.000000 
#    y 0.000000 3.251280 0.000000 
#    z 0.000000 0.000000 3.544840 
# 
# 
# High freq. dielectric constant tensor:
#      x y z
#    x 1.742620 0.000000 0.000000 
#    y 0.000000 1.717010 0.000000 
#    z 0.000000 0.000000 1.755310 
# 
# From -- ./inp_files/7390.got.cif
#   From: 2010.03.12/outbox.cif.g09.slc.cpg/sg47_4_cif.got.tgz:7390.got - 2010.04.14 03:12:58.
