data_PCOD8198422
_publ_section_title
;
Structure prediction by ZEFSAII (Michael W. Deem and Ramdas Pophale) SiO2 
 PCOD8198422
Probable space group: P M M M
;
_chemical_formula_sum "Si O2"
_cell_formula_units_Z 52
_cell_length_a 9.479663
_cell_length_b 15.621828
_cell_length_c 19.377203
_cell_angle_alpha 90.000000
_cell_angle_beta 90.000000
_cell_angle_gamma 90.000000
_cell_volume 2869.563499
_symmetry_space_group_name_H-M "P M M M"
_symmetry_group_IT_number 47
_symmetry_cell_setting 'orthorhombic'
loop_
_space_group_symop_operation_xyz
x,y,z
-x,-y,z
x,-y,-z
-x,y,-z
-x,-y,-z
x,y,-z
-x,y,z
x,-y,z
loop_
_atom_site_type_symbol
_atom_site_label
_atom_site_fract_x
_atom_site_fract_y
_atom_site_fract_z
Si Si1 0.834714 0.903755 0.780419
Si Si2 0.833044 0.843560 0.074394
Si Si3 0.661546 0.339430 0.421751
Si Si4 0.337405 0.756700 0.710520
Si Si5 0.158270 0.500000 0.581850
Si Si6 0.162983 0.648467 0.077841
Si Si7 0.662738 0.594044 0.798457
O O1 0.778684 0.897003 0.859682
O O2 0.754199 0.838309 0.731188
O O3 0.000000 0.881447 0.777097
O O4 0.804972 0.000000 0.754434
O O5 0.784993 0.746104 0.084707
O O6 0.000000 0.848638 0.070493
O O7 0.773380 0.877954 0.000000
O O8 0.699901 0.311635 0.500000
O O9 0.500000 0.371823 0.417226
O O10 0.683744 0.258219 0.371521
O O11 0.759437 0.415680 0.393703
O O12 0.500000 0.776091 0.728193
O O13 0.284222 0.670296 0.748803
O O14 0.153634 0.500000 0.500000
O O15 0.000000 0.500000 0.612971
O O16 0.253325 0.592283 0.129892
O O17 0.000000 0.640238 0.098648
O O18 0.187012 0.615059 0.000000
O O19 0.500000 0.608387 0.816170
O O20 0.686038 0.500000 0.763552
#
# Coordination Sequence:
#
# PCOD8198422 Si02
#       7
#     8   8   8   8   4   8   8
#     4  10  20  34  55  81 106 133 168 211 258 312
#     4   8  14  27  48  73 100 128 161 205 253 300
#     4   9  18  33  54  77 102 138 181 217 252 300
#     4  10  21  36  55  76 103 137 170 212 261 307
#     4   9  17  29  47  77 113 141 168 205 252 303
#     4   9  17  31  51  71  94 129 173 218 256 292
#     4  10  21  34  48  70 101 136 172 209 253 304
#
# _framework density 18.121221999999999
#
# number of rings (size 3 to 8) (size 9 to 14) (size 15 to 20)
#    0.000    2.692    1.538    1.154    1.077    3.077 
#    0.000    3.077    0.000    0.923    0.000    4.308 
#    0.000    0.000    0.000    0.000    0.000    0.000 
#
# Total GULP energy -644500.435468 kJ/mol
# GULP energy per Si atom -12394.239144 kJ/mol
# Density = 1.807998 g / cm^3
# Si number density = 18.121222 Si / 1000 Ang^3
#
#
#
# Elastic Constant Matrix: (Units=GPa)
#
#
# Indices 1 2 3 4 5 6 
#
# 1 57.5952 46.7517 39.5253 0.0000 0.0000 0.0000
# 2 46.7517 109.0100 55.9048 0.0000 0.0000 0.0000
# 3 39.5253 55.9048 97.0920 0.0000 0.0000 0.0000
# 4 0.0000 0.0000 0.0000 20.2699 0.0000 0.0000
# 5 0.0000 0.0000 0.0000 0.0000 21.9805 0.0000
# 6 0.0000 0.0000 0.0000 0.0000 0.0000 27.1207
#
#
#
# Elastic Compliance Matrix: (Units=1/GPa)
#
#
# Indices 1 2 3 4 5 6 
#
# 1 0.029402 -0.009183 -0.006682 0.000000 0.000000 0.000000
# 2 -0.009183 0.015886 -0.005408 0.000000 0.000000 0.000000
# 3 -0.006682 -0.005408 0.016134 0.000000 0.000000 0.000000
# 4 0.000000 0.000000 0.000000 0.049334 0.000000 0.000000
# 5 0.000000 0.000000 0.000000 0.000000 0.045495 0.000000
# 6 0.000000 0.000000 0.000000 0.000000 0.000000 0.036872
#
#
# Mechanical properties :
#
#
# Convention : Reuss Voigt Hill
#
# Bulk Modulus (GPa) = 52.98070 60.89564 56.93817
# Shear Modulus (GPa) = 20.66447 21.97525 21.31986
#
# Velocity S-wave (km/s) = 3.38057 3.48613 3.43376
# Velocity P-wave (km/s) = 6.67367 7.06270 6.87094
#
# Compressibility (1/GPa) = 0.01887480
#
# Stress axis : x y z
#
# Youngs Moduli (GPa) = 34.01097 62.95026 61.98204
#
# Poissons Ratio (x) = 0.57809 0.41415
# Poissons Ratio (y) = 0.31233 0.33522
# Poissons Ratio (z) = 0.22725 0.34046
#
# Static dielectric constant tensor:
#      x y z
#    x 3.174880 0.000000 0.000000 
#    y 0.000000 3.197970 0.000000 
#    z 0.000000 0.000000 3.553630 
# 
# 
# High freq. dielectric constant tensor:
#      x y z
#    x 1.678490 0.000000 0.000000 
#    y 0.000000 1.683480 0.000000 
#    z 0.000000 0.000000 1.698690 
# 
# From -- ./inp_files/11079.got.cif
#   From: 2010.03.12/outbox.cif.g09.slc.cpg/sg47_6_cif.got.tgz:11079.got - 2010.04.14 03:12:58.
