data_PCOD8198715
_publ_section_title
;
Structure prediction by ZEFSAII (Michael W. Deem and Ramdas Pophale) SiO2 
 PCOD8198715
Probable space group: P M M M
;
_chemical_formula_sum "Si O2"
_cell_formula_units_Z 48
_cell_length_a 9.210417
_cell_length_b 30.950904
_cell_length_c 9.009431
_cell_angle_alpha 90.000000
_cell_angle_beta 90.000000
_cell_angle_gamma 90.000000
_cell_volume 2568.325093
_symmetry_space_group_name_H-M "P M M M"
_symmetry_group_IT_number 47
_symmetry_cell_setting 'orthorhombic'
loop_
_space_group_symop_operation_xyz
x,y,z
-x,-y,z
x,-y,-z
-x,y,-z
-x,-y,-z
x,y,-z
-x,y,z
x,-y,z
loop_
_atom_site_type_symbol
_atom_site_label
_atom_site_fract_x
_atom_site_fract_y
_atom_site_fract_z
Si Si1 0.829603 0.500000 0.827474
Si Si2 0.169850 0.750145 0.828303
Si Si3 0.668440 0.422265 0.673699
Si Si4 0.827527 0.835055 0.333160
Si Si5 0.830288 0.078492 0.173842
Si Si6 0.670379 0.000000 0.673458
Si Si7 0.668916 0.334831 0.170524
O O1 0.763394 0.457633 0.754967
O O2 0.000000 0.500000 0.798277
O O3 0.790604 0.500000 0.000000
O O4 0.233221 0.791005 0.738644
O O5 0.246720 0.706963 0.769118
O O6 0.000000 0.744342 0.801023
O O7 0.206289 0.758145 0.000000
O O8 0.698664 0.425033 0.500000
O O9 0.500000 0.430663 0.711252
O O10 0.717910 0.375492 0.731673
O O11 0.766755 0.839591 0.500000
O O12 0.775047 0.875687 0.236486
O O13 0.000000 0.833291 0.332282
O O14 0.739342 0.042020 0.254297
O O15 0.000000 0.071095 0.207602
O O16 0.798275 0.077014 0.000000
O O17 0.500000 0.000000 0.705383
O O18 0.706093 0.000000 0.500000
O O19 0.500000 0.325199 0.189416
O O20 0.709850 0.344617 0.000000
#
# Coordination Sequence:
#
# PCOD8198715 Si02
#       7
#     4   8   8   8   8   4   8
#     4  11  24  39  56  80 108 137 172 215 262 312
#     4   9  17  30  49  73 101 133 170 213 258 304
#     4  10  21  37  57  80 106 138 176 216 260 311
#     4   9  17  30  50  76 104 134 170 213 260 308
#     4  10  20  35  57  82 105 134 176 220 260 308
#     4  11  24  39  54  76 108 141 172 211 262 316
#     4   9  18  33  52  74 102 137 175 213 255 305
#
# _framework density 18.689221
#
# number of rings (size 3 to 8) (size 9 to 14) (size 15 to 20)
#    0.000    2.333    0.000    2.500    0.000    8.667 
#    0.000    2.500    0.000    3.000    0.000    0.000 
#    0.000    0.000    0.000    0.000    0.000    0.000 
#
# Total GULP energy -595330.539896 kJ/mol
# GULP energy per Si atom -12402.719581 kJ/mol
# Density = 1.864668 g / cm^3
# Si number density = 18.689221 Si / 1000 Ang^3
#
#
#
# Elastic Constant Matrix: (Units=GPa)
#
#
# Indices 1 2 3 4 5 6 
#
# 1 55.4626 70.3017 58.5947 0.0000 0.0000 0.0000
# 2 70.3017 193.8534 96.2379 0.0000 0.0000 0.0000
# 3 58.5947 96.2379 126.6315 0.0000 0.0000 0.0000
# 4 0.0000 0.0000 0.0000 230.8800 0.0000 0.0000
# 5 0.0000 0.0000 0.0000 0.0000 22.7941 0.0000
# 6 0.0000 0.0000 0.0000 0.0000 0.0000 117.8706
#
#
#
# Elastic Compliance Matrix: (Units=1/GPa)
#
#
# Indices 1 2 3 4 5 6 
#
# 1 0.043767 -0.009344 -0.013151 0.000000 0.000000 0.000000
# 2 -0.009344 0.010279 -0.003488 0.000000 0.000000 0.000000
# 3 -0.013151 -0.003488 0.016633 0.000000 0.000000 0.000000
# 4 0.000000 0.000000 0.000000 0.004331 0.000000 0.000000
# 5 0.000000 0.000000 0.000000 0.000000 0.043871 0.000000
# 6 0.000000 0.000000 0.000000 0.000000 0.000000 0.008484
#
#
# Mechanical properties :
#
#
# Convention : Reuss Voigt Hill
#
# Bulk Modulus (GPa) = 53.43706 91.80178 72.61942
# Shear Modulus (GPa) = 26.94422 84.36317 55.65369
#
# Velocity S-wave (km/s) = 3.80109 6.72592 5.46289
# Velocity P-wave (km/s) = 6.92235 10.46633 8.87308
#
# Compressibility (1/GPa) = 0.01871360
#
# Stress axis : x y z
#
# Youngs Moduli (GPa) = 22.84812 97.28800 60.12119
#
# Poissons Ratio (x) = 0.90903 0.79065
# Poissons Ratio (y) = 0.21348 0.20972
# Poissons Ratio (z) = 0.30047 0.33936
#
# Static dielectric constant tensor:
#      x y z
#    x 3.222460 0.000000 0.000000 
#    y 0.000000 3.743250 0.000000 
#    z 0.000000 0.000000 3.559580 
# 
# 
# High freq. dielectric constant tensor:
#      x y z
#    x 1.699000 0.000000 0.000000 
#    y 0.000000 1.743420 0.000000 
#    z 0.000000 0.000000 1.733560 
# 
# From -- ./inp_files/2687.got.cif
#   From: 2010.03.12/outbox.cif.g09.slc.cpg/sg47_2_cif.got.tgz:2687.got - 2010.04.14 03:12:58.
