data_PCOD8198602
_publ_section_title
;
Structure prediction by ZEFSAII (Michael W. Deem and Ramdas Pophale) SiO2 
 PCOD8198602
Probable space group: P M M M
;
_chemical_formula_sum "Si O2"
_cell_formula_units_Z 48
_cell_length_a 33.818627
_cell_length_b 7.897185
_cell_length_c 9.233457
_cell_angle_alpha 90.000000
_cell_angle_beta 90.000000
_cell_angle_gamma 90.000000
_cell_volume 2465.997402
_symmetry_space_group_name_H-M "P M M M"
_symmetry_group_IT_number 47
_symmetry_cell_setting 'orthorhombic'
loop_
_space_group_symop_operation_xyz
x,y,z
-x,-y,z
x,-y,-z
-x,y,-z
-x,-y,-z
x,y,-z
-x,y,z
x,-y,z
loop_
_atom_site_type_symbol
_atom_site_label
_atom_site_fract_x
_atom_site_fract_y
_atom_site_fract_z
Si Si1 0.095453 0.000000 0.826720
Si Si2 0.690347 0.192489 0.664090
Si Si3 0.382349 0.306869 0.163222
Si Si4 0.815743 0.000000 0.828086
Si Si5 0.544767 0.801253 0.664717
Si Si6 0.955521 0.687971 0.827861
Si Si7 0.763241 0.689047 0.832776
O O1 0.139952 0.000000 0.764674
O O2 0.073624 0.167976 0.765759
O O3 0.095131 0.000000 0.000000
O O4 0.686063 0.258650 0.500000
O O5 0.647872 0.200152 0.740274
O O6 0.722328 0.305926 0.746267
O O7 0.705303 0.000000 0.667779
O O8 0.368244 0.500000 0.164136
O O9 0.426252 0.295934 0.227764
O O10 0.382531 0.234510 0.000000
O O11 0.793824 0.829655 0.772751
O O12 0.817704 0.000000 0.000000
O O13 0.553672 0.745798 0.500000
O O14 0.500000 0.751665 0.706511
O O15 0.551428 0.000000 0.682218
O O16 0.941767 0.500000 0.776224
O O17 0.000000 0.724372 0.772044
O O18 0.955180 0.694691 0.000000
O O19 0.781497 0.500000 0.814190
O O20 0.753376 0.726924 0.000000
#
# Coordination Sequence:
#
# PCOD8198602 Si02
#       7
#     4   8   8   4   8   8   8
#     4   9  15  22  35  53  77 113 158 207 259 308
#     4  11  23  38  58  82 105 131 168 214 262 312
#     4  11  24  38  53  79 112 142 173 210 256 309
#     4   9  18  31  45  66  95 127 167 217 264 312
#     4   9  19  37  59  81 106 138 177 218 258 303
#     4   8  13  20  30  47  74 110 155 208 260 306
#     4  10  20  35  55  76 101 135 171 209 261 320
#
# _framework density 19.464742000000001
#
# number of rings (size 3 to 8) (size 9 to 14) (size 15 to 20)
#    0.000    2.333    0.833    3.250    0.000    9.333 
#    0.000    5.833    0.000    0.000    0.000    0.000 
#    0.000    0.000    0.000    0.000    0.000    6.667 
#
# Total GULP energy -595172.068729 kJ/mol
# GULP energy per Si atom -12399.418099 kJ/mol
# Density = 1.942044 g / cm^3
# Si number density = 19.464742 Si / 1000 Ang^3
#
#
#
# Elastic Constant Matrix: (Units=GPa)
#
#
# Indices 1 2 3 4 5 6 
#
# 1 135.8775 60.9693 43.5244 0.0000 0.0000 0.0000
# 2 60.9693 114.6452 31.1592 0.0000 0.0000 0.0000
# 3 43.5244 31.1592 75.8442 0.0000 0.0000 0.0000
# 4 0.0000 0.0000 0.0000 16.1744 0.0000 0.0000
# 5 0.0000 0.0000 0.0000 0.0000 2.6724 0.0000
# 6 0.0000 0.0000 0.0000 0.0000 0.0000 24.7095
#
#
#
# Elastic Compliance Matrix: (Units=1/GPa)
#
#
# Indices 1 2 3 4 5 6 
#
# 1 0.010791 -0.004565 -0.004317 0.000000 0.000000 0.000000
# 2 -0.004565 0.011750 -0.002208 0.000000 0.000000 0.000000
# 3 -0.004317 -0.002208 0.016569 0.000000 0.000000 0.000000
# 4 0.000000 0.000000 0.000000 0.061826 0.000000 0.000000
# 5 0.000000 0.000000 0.000000 0.000000 0.374198 0.000000
# 6 0.000000 0.000000 0.000000 0.000000 0.000000 0.040470
#
#
# Mechanical properties :
#
#
# Convention : Reuss Voigt Hill
#
# Bulk Modulus (GPa) = 59.06383 66.40808 62.73596
# Shear Modulus (GPa) = 9.20086 21.42552 15.31319
#
# Velocity S-wave (km/s) = 2.17651 3.32133 2.80789
# Velocity P-wave (km/s) = 6.06021 6.99282 6.54315
#
# Compressibility (1/GPa) = 0.01693083
#
# Stress axis : x y z
#
# Youngs Moduli (GPa) = 92.67063 85.10306 60.35297
#
# Poissons Ratio (x) = 0.38853 0.26054
# Poissons Ratio (y) = 0.42308 0.13323
# Poissons Ratio (z) = 0.40005 0.18787
#
# Static dielectric constant tensor:
#      x y z
#    x 3.568960 0.000000 0.000000 
#    y 0.000000 3.669380 0.000000 
#    z 0.000000 0.000000 3.175230 
# 
# 
# High freq. dielectric constant tensor:
#      x y z
#    x 1.752660 0.000000 0.000000 
#    y 0.000000 1.768220 0.000000 
#    z 0.000000 0.000000 1.712070 
# 
# From -- ./inp_files/2576.got.cif
#   From: 2010.03.12/outbox.cif.g09.slc.cpg/sg47_2_cif.got.tgz:2576.got - 2010.04.14 03:12:58.
