data_PCOD8198835
_publ_section_title
;
Structure prediction by ZEFSAII (Michael W. Deem and Ramdas Pophale) SiO2 
 PCOD8198835
Probable space group: P M M M
;
_chemical_formula_sum "Si O2"
_cell_formula_units_Z 52
_cell_length_a 7.909189
_cell_length_b 12.641557
_cell_length_c 27.758270
_cell_angle_alpha 90.000000
_cell_angle_beta 90.000000
_cell_angle_gamma 90.000000
_cell_volume 2775.395736
_symmetry_space_group_name_H-M "P M M M"
_symmetry_group_IT_number 47
_symmetry_cell_setting 'orthorhombic'
loop_
_space_group_symop_operation_xyz
x,y,z
-x,-y,z
x,-y,-z
-x,y,-z
-x,-y,-z
x,y,-z
-x,y,z
x,-y,z
loop_
_atom_site_type_symbol
_atom_site_label
_atom_site_fract_x
_atom_site_fract_y
_atom_site_fract_z
Si Si1 0.799011 0.381163 0.447295
Si Si2 0.192706 0.879472 0.177118
Si Si3 0.692440 0.882613 0.279806
Si Si4 0.301568 0.500000 0.812839
Si Si5 0.701737 0.500000 0.705039
Si Si6 0.195624 0.708433 0.650343
Si Si7 0.694081 0.688559 0.880867
Si Si8 0.000000 0.623581 0.056519
O O1 0.741850 0.337404 0.500000
O O2 0.727439 0.500000 0.440290
O O3 0.731099 0.306837 0.404084
O O4 0.000000 0.386056 0.444282
O O5 0.204204 0.843449 0.233053
O O6 0.302635 0.804869 0.142574
O O7 0.000000 0.869986 0.160332
O O8 0.259440 0.000000 0.171907
O O9 0.500000 0.883677 0.262886
O O10 0.710182 0.805827 0.325138
O O11 0.752496 0.000000 0.295583
O O12 0.500000 0.500000 0.807580
O O13 0.225035 0.500000 0.759353
O O14 0.243182 0.395376 0.840982
O O15 0.500000 0.500000 0.702887
O O16 0.775890 0.397867 0.679648
O O17 0.000000 0.737195 0.648997
O O18 0.500000 0.666056 0.898272
O O19 0.827821 0.678721 0.924302
O O20 0.000000 0.500000 0.070160
O O21 0.000000 0.641749 0.000000
#
# Coordination Sequence:
#
# PCOD8198835 Si02
#       8
#     8   8   8   4   4   8   8   4
#     4   8  14  27  48  71  97 129 169 220 276 332
#     4  10  20  35  58  87 116 149 191 234 276 329
#     4  10  21  36  52  74 108 150 188 220 266 330
#     4   9  20  34  50  76 108 147 187 224 268 330
#     4  11  21  33  48  72 110 146 172 205 266 338
#     4  11  20  32  50  76 104 133 176 226 276 326
#     4  11  21  38  61  86 118 153 193 237 286 339
#     4  11  24  42  63  91 123 155 196 241 289 340
#
# _framework density 18.736066000000001
#
# number of rings (size 3 to 8) (size 9 to 14) (size 15 to 20)
#    0.000    1.923    2.308    3.000    0.000    3.385 
#    2.769    0.769    0.000    3.692    0.000    4.308 
#    0.000    0.000    0.000    0.000    0.000    0.000 
#
# Total GULP energy -644664.847395 kJ/mol
# GULP energy per Si atom -12397.400911 kJ/mol
# Density = 1.869342 g / cm^3
# Si number density = 18.736066 Si / 1000 Ang^3
#
#
#
# Elastic Constant Matrix: (Units=GPa)
#
#
# Indices 1 2 3 4 5 6 
#
# 1 64.4507 19.1309 29.5866 0.0000 0.0000 0.0000
# 2 19.1309 100.9706 56.1316 0.0000 0.0000 0.0000
# 3 29.5866 56.1316 123.5228 0.0000 0.0000 0.0000
# 4 0.0000 0.0000 0.0000 21.1019 0.0000 0.0000
# 5 0.0000 0.0000 0.0000 0.0000 11.2207 0.0000
# 6 0.0000 0.0000 0.0000 0.0000 0.0000 26.1576
#
#
#
# Elastic Compliance Matrix: (Units=1/GPa)
#
#
# Indices 1 2 3 4 5 6 
#
# 1 0.017564 -0.001323 -0.003606 0.000000 0.000000 0.000000
# 2 -0.001323 0.013351 -0.005750 0.000000 0.000000 0.000000
# 3 -0.003606 -0.005750 0.011572 0.000000 0.000000 0.000000
# 4 0.000000 0.000000 0.000000 0.047389 0.000000 0.000000
# 5 0.000000 0.000000 0.000000 0.000000 0.089121 0.000000
# 6 0.000000 0.000000 0.000000 0.000000 0.000000 0.038230
#
#
# Mechanical properties :
#
#
# Convention : Reuss Voigt Hill
#
# Bulk Modulus (GPa) = 47.32815 55.40472 51.36643
# Shear Modulus (GPa) = 20.35599 23.96905 22.16252
#
# Velocity S-wave (km/s) = 3.29973 3.58061 3.44303
# Velocity P-wave (km/s) = 6.31133 6.83591 6.57885
#
# Compressibility (1/GPa) = 0.02112908
#
# Stress axis : x y z
#
# Youngs Moduli (GPa) = 56.93560 74.89950 86.41355
#
# Poissons Ratio (x) = 0.09912 0.31157
# Poissons Ratio (y) = 0.07535 0.49689
# Poissons Ratio (z) = 0.20528 0.43068
#
# Static dielectric constant tensor:
#      x y z
#    x 3.321170 0.000000 0.000000 
#    y 0.000000 3.454910 0.000000 
#    z 0.000000 0.000000 3.526450 
# 
# 
# High freq. dielectric constant tensor:
#      x y z
#    x 1.724240 0.000000 0.000000 
#    y 0.000000 1.714250 0.000000 
#    z 0.000000 0.000000 1.715250 
# 
# From -- ./inp_files/33263.got.cif
#   From: 2010.03.12/outbox.cif.g09.slc.cpg/sg47_17_cif.got.tgz:33263.got - 2010.04.14 03:12:58.
