data_PCOD8198053
_publ_section_title
;
Structure prediction by ZEFSAII (Michael W. Deem and Ramdas Pophale) SiO2 
 PCOD8198053
Probable space group: P M M M
;
_chemical_formula_sum "Si O2"
_cell_formula_units_Z 52
_cell_length_a 27.819249
_cell_length_b 11.554461
_cell_length_c 8.900798
_cell_angle_alpha 90.000000
_cell_angle_beta 90.000000
_cell_angle_gamma 90.000000
_cell_volume 2861.040712
_symmetry_space_group_name_H-M "P M M M"
_symmetry_group_IT_number 47
_symmetry_cell_setting 'orthorhombic'
loop_
_space_group_symop_operation_xyz
x,y,z
-x,-y,z
x,-y,-z
-x,y,-z
-x,-y,-z
x,y,-z
-x,y,z
x,-y,z
loop_
_atom_site_type_symbol
_atom_site_label
_atom_site_fract_x
_atom_site_fract_y
_atom_site_fract_z
Si Si1 0.142369 0.232022 0.322242
Si Si2 0.223682 0.634327 0.824627
Si Si3 0.054956 0.132175 0.824807
Si Si4 0.700983 0.000000 0.676983
Si Si5 0.500000 0.638057 0.669246
Si Si6 0.405131 0.637029 0.168259
Si Si7 0.315507 0.252117 0.322231
Si Si8 0.807040 0.000000 0.321755
O O1 0.144115 0.249436 0.500000
O O2 0.171461 0.336395 0.244599
O O3 0.087314 0.224258 0.266732
O O4 0.166303 0.113651 0.263856
O O5 0.234482 0.500000 0.796092
O O6 0.264544 0.708838 0.743002
O O7 0.224170 0.664150 0.000000
O O8 0.000000 0.166111 0.791935
O O9 0.064402 0.000000 0.770779
O O10 0.066677 0.143252 0.000000
O O11 0.673908 0.881874 0.724947
O O12 0.753955 0.000000 0.749373
O O13 0.707627 0.000000 0.500000
O O14 0.500000 0.500000 0.670517
O O15 0.500000 0.685937 0.500000
O O16 0.547229 0.687165 0.752118
O O17 0.407982 0.500000 0.163954
O O18 0.358103 0.670828 0.259152
O O19 0.402390 0.687612 0.000000
O O20 0.313125 0.267814 0.500000
O O21 0.805761 0.000000 0.500000
#
# Coordination Sequence:
#
# PCOD8198053 Si02
#       8
#     8   8   8   4   4   8   8   4
#     4  11  20  33  55  79 106 138 175 218 263 312
#     4  11  24  39  53  74 106 141 177 217 264 317
#     4   9  18  32  50  76 110 143 174 210 256 311
#     4   9  18  34  52  74 106 138 171 214 261 306
#     4   9  17  31  53  80 105 134 179 225 263 311
#     4  10  20  34  52  77 111 145 175 215 268 316
#     4  11  21  35  56  79 106 140 178 218 261 311
#     4   9  16  30  49  75 105 134 167 210 261 307
#
# _framework density 18.175204999999998
#
# number of rings (size 3 to 8) (size 9 to 14) (size 15 to 20)
#    0.000    1.923    2.308    3.000    0.000    5.231 
#    0.000    3.077    0.000    0.923    0.000    6.462 
#    0.000    0.000    0.000    0.000    0.000    0.000 
#
# Total GULP energy -644759.982788 kJ/mol
# GULP energy per Si atom -12399.230438 kJ/mol
# Density = 1.813384 g / cm^3
# Si number density = 18.175205 Si / 1000 Ang^3
#
#
#
# Elastic Constant Matrix: (Units=GPa)
#
#
# Indices 1 2 3 4 5 6 
#
# 1 108.9895 17.0744 49.9401 0.0000 0.0000 0.0000
# 2 17.0744 46.0386 36.6042 0.0000 0.0000 0.0000
# 3 49.9401 36.6042 110.2703 0.0000 0.0000 0.0000
# 4 0.0000 0.0000 0.0000 19.3069 0.0000 0.0000
# 5 0.0000 0.0000 0.0000 0.0000 34.9816 0.0000
# 6 0.0000 0.0000 0.0000 0.0000 0.0000 21.2194
#
#
#
# Elastic Compliance Matrix: (Units=1/GPa)
#
#
# Indices 1 2 3 4 5 6 
#
# 1 0.011579 -0.000170 -0.005188 0.000000 0.000000 0.000000
# 2 -0.000170 0.029512 -0.009719 0.000000 0.000000 0.000000
# 3 -0.005188 -0.009719 0.014644 0.000000 0.000000 0.000000
# 4 0.000000 0.000000 0.000000 0.051795 0.000000 0.000000
# 5 0.000000 0.000000 0.000000 0.000000 0.028586 0.000000
# 6 0.000000 0.000000 0.000000 0.000000 0.000000 0.047127
#
#
# Mechanical properties :
#
#
# Convention : Reuss Voigt Hill
#
# Bulk Modulus (GPa) = 39.09123 52.50400 45.79761
# Shear Modulus (GPa) = 22.53028 25.88022 24.20525
#
# Velocity S-wave (km/s) = 3.52464 3.77759 3.65331
# Velocity P-wave (km/s) = 6.17404 6.92657 6.56110
#
# Compressibility (1/GPa) = 0.02558119
#
# Stress axis : x y z
#
# Youngs Moduli (GPa) = 86.36499 33.88499 68.28563
#
# Poissons Ratio (x) = 0.00575 0.35423
# Poissons Ratio (y) = 0.01466 0.66370
# Poissons Ratio (z) = 0.44802 0.32934
#
# Static dielectric constant tensor:
#      x y z
#    x 3.409660 0.000000 0.000000 
#    y 0.000000 3.243120 0.000000 
#    z 0.000000 0.000000 3.335070 
# 
# 
# High freq. dielectric constant tensor:
#      x y z
#    x 1.708030 0.000000 0.000000 
#    y 0.000000 1.674250 0.000000 
#    z 0.000000 0.000000 1.705400 
# 
# From -- ./inp_files/13309.got.cif
#   From: 2010.03.12/outbox.cif.g09.slc.cpg/sg47_7_cif.got.tgz:13309.got - 2010.04.14 03:12:58.
