data_PCOD8198989
_publ_section_title
;
Structure prediction by ZEFSAII (Michael W. Deem and Ramdas Pophale) SiO2 
 PCOD8198989
Probable space group: P M M M
;
_chemical_formula_sum "Si O2"
_cell_formula_units_Z 48
_cell_length_a 34.395377
_cell_length_b 7.800731
_cell_length_c 9.039840
_cell_angle_alpha 90.000000
_cell_angle_beta 90.000000
_cell_angle_gamma 90.000000
_cell_volume 2425.471186
_symmetry_space_group_name_H-M "P M M M"
_symmetry_group_IT_number 47
_symmetry_cell_setting 'orthorhombic'
loop_
_space_group_symop_operation_xyz
x,y,z
-x,-y,z
x,-y,-z
-x,y,-z
-x,-y,-z
x,y,-z
-x,y,z
x,-y,z
loop_
_atom_site_type_symbol
_atom_site_label
_atom_site_fract_x
_atom_site_fract_y
_atom_site_fract_z
Si Si1 0.423521 0.200562 0.837006
Si Si2 0.347253 0.803406 0.328188
Si Si3 0.000000 0.200784 0.334526
Si Si4 0.162849 0.807098 0.673812
Si Si5 0.207829 0.500000 0.824434
Si Si6 0.918943 0.303362 0.330508
Si Si7 0.500000 0.700754 0.336265
Si Si8 0.710824 0.500000 0.672101
O O1 0.385183 0.269221 0.755139
O O2 0.461969 0.240642 0.747868
O O3 0.419211 0.000000 0.852174
O O4 0.426212 0.285176 0.000000
O O5 0.357578 0.795599 0.500000
O O6 0.312480 0.673928 0.289743
O O7 0.336142 0.000000 0.282650
O O8 0.960375 0.261941 0.250691
O O9 0.000000 0.282146 0.500000
O O10 0.000000 0.000000 0.341058
O O11 0.164360 0.759167 0.500000
O O12 0.188692 0.672835 0.762283
O O13 0.118146 0.799248 0.732962
O O14 0.178579 0.000000 0.701270
O O15 0.252420 0.500000 0.777832
O O16 0.203962 0.500000 0.000000
O O17 0.924365 0.247191 0.500000
O O18 0.908082 0.500000 0.311292
O O19 0.500000 0.500000 0.348866
O O20 0.500000 0.783612 0.500000
O O21 0.723323 0.500000 0.500000
#
# Coordination Sequence:
#
# PCOD8198989 Si02
#       8
#     8   8   4   8   4   8   4   4
#     4  10  21  37  57  82 114 151 190 234 285 339
#     4   9  19  37  61  88 117 150 188 232 282 337
#     4   9  15  21  33  65 111 150 185 229 289 349
#     4  10  20  37  62  87 114 153 199 245 293 349
#     4  12  26  42  60  87 122 155 191 238 298 360
#     4   9  15  25  44  72 109 148 188 236 291 347
#     4  11  24  37  52  78 112 151 198 245 286 330
#     4  10  22  40  64  89 116 149 192 238 284 348
#
# _framework density 19.78997
#
# number of rings (size 3 to 8) (size 9 to 14) (size 15 to 20)
#    0.000    2.167    0.833    2.500    1.167    7.333 
#    0.000    1.667    0.000    0.000    0.000    1.167 
#    0.000    2.000    0.000    0.000    0.000    0.000 
#
# Total GULP energy -594964.224100 kJ/mol
# GULP energy per Si atom -12395.088002 kJ/mol
# Density = 1.974493 g / cm^3
# Si number density = 19.789970 Si / 1000 Ang^3
#
#
#
# Elastic Constant Matrix: (Units=GPa)
#
#
# Indices 1 2 3 4 5 6 
#
# 1 157.9315 60.4612 68.3912 0.0000 0.0000 0.0000
# 2 60.4612 95.1167 39.4097 0.0000 0.0000 0.0000
# 3 68.3912 39.4097 93.7990 0.0000 0.0000 0.0000
# 4 0.0000 0.0000 0.0000 12.7013 0.0000 0.0000
# 5 0.0000 0.0000 0.0000 0.0000 -12.7201 0.0000
# 6 0.0000 0.0000 0.0000 0.0000 0.0000 27.1080
#
#
#
# Elastic Compliance Matrix: (Units=1/GPa)
#
#
# Indices 1 2 3 4 5 6 
#
# 1 0.010498 -0.004240 -0.005873 0.000000 0.000000 0.000000
# 2 -0.004240 0.014442 -0.002976 0.000000 0.000000 0.000000
# 3 -0.005873 -0.002976 0.016194 0.000000 0.000000 0.000000
# 4 0.000000 0.000000 0.000000 0.078732 0.000000 0.000000
# 5 0.000000 0.000000 0.000000 0.000000 -0.078616 0.000000
# 6 0.000000 0.000000 0.000000 0.000000 0.000000 0.036889
#
#
# Mechanical properties :
#
#
# Convention : Reuss Voigt Hill
#
# Bulk Modulus (GPa) = 66.86656 75.93015 71.39835
# Shear Modulus (GPa) = 45.74424 17.32353 31.53388
#
# Velocity S-wave (km/s) = 4.81301 2.96187 3.99611
# Velocity P-wave (km/s) = 8.04663 7.08154 7.57946
#
# Compressibility (1/GPa) = 0.01495516
#
# Stress axis : x y z
#
# Youngs Moduli (GPa) = 95.25275 69.24424 61.75161
#
# Poissons Ratio (x) = 0.29359 0.36268
# Poissons Ratio (y) = 0.40386 0.18379
# Poissons Ratio (z) = 0.55944 0.20609
#
# Static dielectric constant tensor:
#      x y z
#    x 3.767790 0.000000 0.000000 
#    y 0.000000 3.717820 0.000000 
#    z 0.000000 0.000000 3.549500 
# 
# 
# High freq. dielectric constant tensor:
#      x y z
#    x 1.781970 0.000000 0.000000 
#    y 0.000000 1.780290 0.000000 
#    z 0.000000 0.000000 1.728030 
# 
# From -- ./inp_files/14016.got.cif
#   From: 2010.03.12/outbox.cif.g09.slc.cpg/sg47_8_cif.got.tgz:14016.got - 2010.04.14 03:12:58.
