data_PCOD8198783
_publ_section_title
;
Structure prediction by ZEFSAII (Michael W. Deem and Ramdas Pophale) SiO2 
 PCOD8198783
Probable space group: P M M M
;
_chemical_formula_sum "Si O2"
_cell_formula_units_Z 52
_cell_length_a 17.708491
_cell_length_b 17.036577
_cell_length_c 9.076742
_cell_angle_alpha 90.000000
_cell_angle_beta 90.000000
_cell_angle_gamma 90.000000
_cell_volume 2738.381087
_symmetry_space_group_name_H-M "P M M M"
_symmetry_group_IT_number 47
_symmetry_cell_setting 'orthorhombic'
loop_
_space_group_symop_operation_xyz
x,y,z
-x,-y,z
x,-y,-z
-x,y,-z
-x,-y,-z
x,y,-z
-x,y,z
x,-y,z
loop_
_atom_site_type_symbol
_atom_site_label
_atom_site_fract_x
_atom_site_fract_y
_atom_site_fract_z
Si Si1 0.213645 0.349918 0.839019
Si Si2 0.917778 0.587221 0.326685
Si Si3 0.000000 0.093422 0.168207
Si Si4 0.629305 0.588237 0.172987
Si Si5 0.151156 0.906874 0.668089
Si Si6 0.414762 0.742553 0.669252
Si Si7 0.281637 0.179913 0.166093
O O1 0.144558 0.352818 0.727910
O O2 0.282064 0.405697 0.787299
O O3 0.239235 0.261333 0.841512
O O4 0.185938 0.376781 0.000000
O O5 0.916988 0.586712 0.500000
O O6 0.899905 0.500000 0.266521
O O7 0.000000 0.614531 0.269480
O O8 0.075817 0.125052 0.249170
O O9 0.000000 0.000000 0.171441
O O10 0.000000 0.124440 0.000000
O O11 0.601208 0.500000 0.213793
O O12 0.585222 0.654588 0.263168
O O13 0.616800 0.605407 0.000000
O O14 0.149631 0.875694 0.500000
O O15 0.228462 0.880191 0.746492
O O16 0.151009 0.000000 0.671307
O O17 0.388152 0.736829 0.500000
O O18 0.500000 0.774798 0.681236
O O19 0.361599 0.805266 0.752722
O O20 0.296606 0.148160 0.000000
#
# Coordination Sequence:
#
# PCOD8198783 Si02
#       7
#     8   8   4   8   8   8   8
#     4   9  18  32  48  68  94 125 165 211 256 303
#     4   9  18  31  45  63  89 123 165 211 257 305
#     4   9  17  31  53  81 113 147 180 213 252 301
#     4   9  18  32  50  73 101 133 171 216 265 319
#     4  10  20  35  57  85 115 145 179 219 263 313
#     4  10  21  36  54  77 106 139 175 219 270 323
#     4  10  21  37  56  78 105 139 177 216 261 318
#
# _framework density 18.989322999999999
#
# number of rings (size 3 to 8) (size 9 to 14) (size 15 to 20)
#    0.000    2.538    0.000    3.462    0.000    8.000 
#    1.385    2.308    0.000    0.462    0.000    3.231 
#    0.000    0.000    0.000    0.000    0.000    0.000 
#
# Total GULP energy -644589.233282 kJ/mol
# GULP energy per Si atom -12395.946794 kJ/mol
# Density = 1.894610 g / cm^3
# Si number density = 18.989323 Si / 1000 Ang^3
#
#
#
# Elastic Constant Matrix: (Units=GPa)
#
#
# Indices 1 2 3 4 5 6 
#
# 1 118.0916 20.5888 60.1847 0.0000 0.0000 0.0000
# 2 20.5888 22.7588 21.6217 0.0000 0.0000 0.0000
# 3 60.1847 21.6217 121.0728 0.0000 0.0000 0.0000
# 4 0.0000 0.0000 0.0000 27.1116 0.0000 0.0000
# 5 0.0000 0.0000 0.0000 0.0000 56.7162 0.0000
# 6 0.0000 0.0000 0.0000 0.0000 0.0000 15.6962
#
#
#
# Elastic Compliance Matrix: (Units=1/GPa)
#
#
# Indices 1 2 3 4 5 6 
#
# 1 0.012041 -0.006270 -0.004866 0.000000 0.000000 0.000000
# 2 -0.006270 0.056182 -0.006916 0.000000 0.000000 0.000000
# 3 -0.004866 -0.006916 0.011913 0.000000 0.000000 0.000000
# 4 0.000000 0.000000 0.000000 0.036885 0.000000 0.000000
# 5 0.000000 0.000000 0.000000 0.000000 0.017632 0.000000
# 6 0.000000 0.000000 0.000000 0.000000 0.000000 0.063710
#
#
# Mechanical properties :
#
#
# Convention : Reuss Voigt Hill
#
# Bulk Modulus (GPa) = 22.71082 51.85707 37.28394
# Shear Modulus (GPa) = 20.06866 30.54000 25.30433
#
# Velocity S-wave (km/s) = 3.25443 4.01468 3.65438
# Velocity P-wave (km/s) = 5.10955 6.98985 6.12232
#
# Compressibility (1/GPa) = 0.04403188
#
# Stress axis : x y z
#
# Youngs Moduli (GPa) = 83.04950 17.79923 83.93919
#
# Poissons Ratio (x) = 0.11161 0.40843
# Poissons Ratio (y) = 0.52074 0.58055
# Poissons Ratio (z) = 0.40410 0.12311
#
# Static dielectric constant tensor:
#      x y z
#    x 3.568080 0.000000 0.000000 
#    y 0.000000 3.265260 0.000000 
#    z 0.000000 0.000000 3.698180 
# 
# 
# High freq. dielectric constant tensor:
#      x y z
#    x 1.740970 0.000000 0.000000 
#    y 0.000000 1.704340 0.000000 
#    z 0.000000 0.000000 1.743720 
# 
# From -- ./inp_files/9551.got.cif
#   From: 2010.03.12/outbox.cif.g09.slc.cpg/sg47_5_cif.got.tgz:9551.got - 2010.04.14 03:12:58.
