data_PCOD8198776
_publ_section_title
;
Structure prediction by ZEFSAII (Michael W. Deem and Ramdas Pophale) SiO2 
 PCOD8198776
Probable space group: P M M M
;
_chemical_formula_sum "Si O2"
_cell_formula_units_Z 48
_cell_length_a 8.936676
_cell_length_b 30.977495
_cell_length_c 8.995248
_cell_angle_alpha 90.000000
_cell_angle_beta 90.000000
_cell_angle_gamma 90.000000
_cell_volume 2490.207001
_symmetry_space_group_name_H-M "P M M M"
_symmetry_group_IT_number 47
_symmetry_cell_setting 'orthorhombic'
loop_
_space_group_symop_operation_xyz
x,y,z
-x,-y,z
x,-y,-z
-x,y,-z
-x,-y,-z
x,y,-z
-x,y,z
x,-y,z
loop_
_atom_site_type_symbol
_atom_site_label
_atom_site_fract_x
_atom_site_fract_y
_atom_site_fract_z
Si Si1 0.669842 0.000000 0.324475
Si Si2 0.824708 0.920445 0.171873
Si Si3 0.677667 0.252604 0.332976
Si Si4 0.673772 0.832507 0.827274
Si Si5 0.824720 0.419157 0.673102
Si Si6 0.677025 0.500000 0.829069
Si Si7 0.325351 0.660904 0.174319
O O1 0.750335 0.042433 0.266896
O O2 0.500000 0.000000 0.266747
O O3 0.678393 0.000000 0.500000
O O4 0.762842 0.874504 0.226998
O O5 0.000000 0.921669 0.199544
O O6 0.783596 0.927970 0.000000
O O7 0.740489 0.257419 0.500000
O O8 0.500000 0.250785 0.332418
O O9 0.739345 0.208421 0.261747
O O10 0.731153 0.293039 0.234984
O O11 0.500000 0.840370 0.792369
O O12 0.700833 0.823089 0.000000
O O13 0.784043 0.419053 0.500000
O O14 0.738906 0.457846 0.750568
O O15 0.772226 0.374663 0.743965
O O16 0.000000 0.425294 0.699842
O O17 0.500000 0.500000 0.815084
O O18 0.728500 0.500000 0.000000
O O19 0.500000 0.653252 0.209992
O O20 0.293970 0.658827 0.000000
#
# Coordination Sequence:
#
# PCOD8198776 Si02
#       7
#     4   8   8   8   8   4   8
#     4  11  24  39  56  80 108 139 178 223 270 322
#     4  10  21  37  57  81 109 142 180 221 268 324
#     4   9  17  30  51  79 109 142 182 229 277 321
#     4   9  17  31  52  77 105 139 180 225 271 320
#     4  11  24  40  58  83 115 149 185 226 275 330
#     4  11  24  41  62  88 114 143 184 229 272 324
#     4  10  20  35  57  84 112 145 188 233 275 324
#
# _framework density 19.275504999999999
#
# number of rings (size 3 to 8) (size 9 to 14) (size 15 to 20)
#    0.000    2.000    0.000    3.500    0.000   11.333 
#    0.000    2.500    0.000    3.000    0.000    0.000 
#    0.000    0.000    0.000    0.000    0.000    0.000 
#
# Total GULP energy -595378.590845 kJ/mol
# GULP energy per Si atom -12403.720643 kJ/mol
# Density = 1.923163 g / cm^3
# Si number density = 19.275505 Si / 1000 Ang^3
#
#
#
# Elastic Constant Matrix: (Units=GPa)
#
#
# Indices 1 2 3 4 5 6 
#
# 1 53.1970 46.4063 44.7918 0.0000 0.0000 0.0000
# 2 46.4063 164.4201 70.7282 0.0000 0.0000 0.0000
# 3 44.7918 70.7282 113.6118 0.0000 0.0000 0.0000
# 4 0.0000 0.0000 0.0000 53.7417 0.0000 0.0000
# 5 0.0000 0.0000 0.0000 0.0000 24.5373 0.0000
# 6 0.0000 0.0000 0.0000 0.0000 0.0000 -74.2328
#
#
#
# Elastic Compliance Matrix: (Units=1/GPa)
#
#
# Indices 1 2 3 4 5 6 
#
# 1 0.030592 -0.004707 -0.009131 0.000000 0.000000 0.000000
# 2 -0.004707 0.009031 -0.003766 0.000000 0.000000 0.000000
# 3 -0.009131 -0.003766 0.014747 0.000000 0.000000 0.000000
# 4 0.000000 0.000000 0.000000 0.018608 0.000000 0.000000
# 5 0.000000 0.000000 0.000000 0.000000 0.040754 0.000000
# 6 0.000000 0.000000 0.000000 0.000000 0.000000 -0.013471
#
#
# Mechanical properties :
#
#
# Convention : Reuss Voigt Hill
#
# Bulk Modulus (GPa) = 52.18823 72.78684 62.48754
# Shear Modulus (GPa) = 35.24740 12.09609 23.67175
#
# Velocity S-wave (km/s) = 4.28087 2.50779 3.50819
# Velocity P-wave (km/s) = 7.18109 6.79916 6.99274
#
# Compressibility (1/GPa) = 0.01916141
#
# Stress axis : x y z
#
# Youngs Moduli (GPa) = 32.68826 110.73571 67.81262
#
# Poissons Ratio (x) = 0.52118 0.61920
# Poissons Ratio (y) = 0.15385 0.25540
# Poissons Ratio (z) = 0.29848 0.41707
#
# Static dielectric constant tensor:
#      x y z
#    x 3.403320 0.000000 0.000000 
#    y 0.000000 3.856000 0.000000 
#    z 0.000000 0.000000 3.659360 
# 
# 
# High freq. dielectric constant tensor:
#      x y z
#    x 1.733000 0.000000 0.000000 
#    y 0.000000 1.769870 0.000000 
#    z 0.000000 0.000000 1.757430 
# 
# From -- ./inp_files/2770.got.cif
#   From: 2010.03.12/outbox.cif.g09.slc.cpg/sg47_2_cif.got.tgz:2770.got - 2010.04.14 03:12:58.
