data_PCOD8198621
_publ_section_title
;
Structure prediction by ZEFSAII (Michael W. Deem and Ramdas Pophale) SiO2 
 PCOD8198621
Probable space group: P M M M
;
_chemical_formula_sum "Si O2"
_cell_formula_units_Z 40
_cell_length_a 9.797950
_cell_length_b 8.633860
_cell_length_c 24.158040
_cell_angle_alpha 90.000000
_cell_angle_beta 90.000000
_cell_angle_gamma 90.000000
_cell_volume 2043.628342
_symmetry_space_group_name_H-M "P M M M"
_symmetry_group_IT_number 47
_symmetry_cell_setting 'orthorhombic'
loop_
_space_group_symop_operation_xyz
x,y,z
-x,-y,z
x,-y,-z
-x,y,-z
-x,-y,-z
x,y,-z
-x,y,z
x,-y,z
loop_
_atom_site_type_symbol
_atom_site_label
_atom_site_fract_x
_atom_site_fract_y
_atom_site_fract_z
Si Si1 0.753574 0.815603 0.368113
Si Si2 0.000000 0.815166 0.438992
Si Si3 0.154628 0.179559 0.064604
Si Si4 0.500000 0.814992 0.436631
Si Si5 0.843842 0.183825 0.750619
Si Si6 0.342220 0.318407 0.846542
O O1 0.872596 0.750859 0.406073
O O2 0.622924 0.750027 0.399753
O O3 0.775273 0.751859 0.305932
O O4 0.750641 0.000000 0.365930
O O5 0.000000 0.743475 0.500000
O O6 0.000000 0.000000 0.441674
O O7 0.269032 0.279814 0.095503
O O8 0.000000 0.227512 0.082265
O O9 0.177207 0.000000 0.079115
O O10 0.175057 0.210558 0.000000
O O11 0.500000 0.750256 0.500000
O O12 0.500000 0.000000 0.440023
O O13 0.745762 0.236305 0.799491
O O14 0.000000 0.246671 0.757315
O O15 0.849256 0.000000 0.749689
O O16 0.500000 0.259237 0.846750
O O17 0.338942 0.500000 0.836310
#
# Coordination Sequence:
#
# PCOD8198621 Si02
#       6
#     8   4   8   4   8   8
#     4   9  16  26  40  64  96 132 172 213 263 323
#     4   9  14  22  38  60  93 133 166 203 260 325
#     4   9  19  38  64  92 119 147 182 222 264 315
#     4   9  16  24  36  60  97 137 172 207 256 323
#     4  10  20  35  55  78 105 139 184 233 277 327
#     4  11  25  40  54  79 114 149 187 229 273 321
#
# _framework density 19.573032000000001
#
# number of rings (size 3 to 8) (size 9 to 14) (size 15 to 20)
#    0.000    2.400    1.000    2.400    1.400    8.000 
#    0.000    3.000    0.000    0.000    0.000    0.000 
#    0.000    4.800    0.000    0.000    0.000    0.000 
#
# Total GULP energy -495728.969793 kJ/mol
# GULP energy per Si atom -12393.224245 kJ/mol
# Density = 1.952848 g / cm^3
# Si number density = 19.573032 Si / 1000 Ang^3
#
#
#
# Elastic Constant Matrix: (Units=GPa)
#
#
# Indices 1 2 3 4 5 6 
#
# 1 185.4482 16.9107 79.8683 0.0000 0.0000 0.0000
# 2 16.9107 15.7723 11.4938 0.0000 0.0000 0.0000
# 3 79.8683 11.4938 129.4380 0.0000 0.0000 0.0000
# 4 0.0000 0.0000 0.0000 -3.2065 0.0000 0.0000
# 5 0.0000 0.0000 0.0000 0.0000 42.7727 0.0000
# 6 0.0000 0.0000 0.0000 0.0000 0.0000 18.8204
#
#
#
# Elastic Compliance Matrix: (Units=1/GPa)
#
#
# Indices 1 2 3 4 5 6 
#
# 1 0.007714 -0.005135 -0.004304 0.000000 0.000000 0.000000
# 2 -0.005135 0.071207 -0.003155 0.000000 0.000000 0.000000
# 3 -0.004304 -0.003155 0.010662 0.000000 0.000000 0.000000
# 4 0.000000 0.000000 0.000000 -0.311866 0.000000 0.000000
# 5 0.000000 0.000000 0.000000 0.000000 0.023379 0.000000
# 6 0.000000 0.000000 0.000000 0.000000 0.000000 0.053134
#
#
# Mechanical properties :
#
#
# Convention : Reuss Voigt Hill
#
# Bulk Modulus (GPa) = 15.52899 60.80045 38.16472
# Shear Modulus (GPa) = -50.44457 26.50303 -11.97077
#
# Velocity S-wave (km/s) = -5.08217 3.68375 -2.47573
# Velocity P-wave (km/s) = 5.14654 7.01599 3.37174
#
# Compressibility (1/GPa) = 0.06439571
#
# Stress axis : x y z
#
# Youngs Moduli (GPa) = 129.63116 14.04365 93.79464
#
# Poissons Ratio (x) = 0.07211 0.40369
# Poissons Ratio (y) = 0.66559 0.29590
# Poissons Ratio (z) = 0.55794 0.04430
#
# Static dielectric constant tensor:
#      x y z
#    x 3.869970 0.000000 0.000000 
#    y 0.000000 2.997100 0.000000 
#    z 0.000000 0.000000 3.799820 
# 
# 
# High freq. dielectric constant tensor:
#      x y z
#    x 1.776500 0.000000 0.000000 
#    y 0.000000 1.703470 0.000000 
#    z 0.000000 0.000000 1.781110 
# 
# From -- ./inp_files/33077.got.cif
#   From: 2010.03.12/outbox.cif.g09.slc.cpg/sg47_17_cif.got.tgz:33077.got - 2010.04.14 03:12:58.
