data_PCOD8198268
_publ_section_title
;
Structure prediction by ZEFSAII (Michael W. Deem and Ramdas Pophale) SiO2 
 PCOD8198268
Probable space group: P M M M
;
_chemical_formula_sum "Si O2"
_cell_formula_units_Z 48
_cell_length_a 9.396798
_cell_length_b 8.980193
_cell_length_c 30.727870
_cell_angle_alpha 90.000000
_cell_angle_beta 90.000000
_cell_angle_gamma 90.000000
_cell_volume 2592.973142
_symmetry_space_group_name_H-M "P M M M"
_symmetry_group_IT_number 47
_symmetry_cell_setting 'orthorhombic'
loop_
_space_group_symop_operation_xyz
x,y,z
-x,-y,z
x,-y,-z
-x,y,-z
-x,-y,-z
x,y,-z
-x,y,z
x,-y,z
loop_
_atom_site_type_symbol
_atom_site_label
_atom_site_fract_x
_atom_site_fract_y
_atom_site_fract_z
Si Si1 0.330829 0.832051 0.500000
Si Si2 0.335489 0.825433 0.076561
Si Si3 0.834472 0.675218 0.000000
Si Si4 0.165324 0.328642 0.750953
Si Si5 0.334950 0.325644 0.413292
Si Si6 0.664815 0.329102 0.834808
Si Si7 0.833250 0.172059 0.662997
O O1 0.500000 0.827057 0.500000
O O2 0.273547 0.750019 0.543011
O O3 0.272290 0.000000 0.500000
O O4 0.500000 0.785293 0.067062
O O5 0.237034 0.741978 0.042613
O O6 0.290842 0.771665 0.124427
O O7 0.308409 0.000000 0.072620
O O8 0.810212 0.500000 0.000000
O O9 0.000000 0.717815 0.000000
O O10 0.202781 0.500000 0.740563
O O11 0.248858 0.271155 0.793177
O O12 0.214497 0.229652 0.710272
O O13 0.000000 0.307273 0.760887
O O14 0.500000 0.285788 0.406452
O O15 0.310451 0.500000 0.417945
O O16 0.249291 0.265923 0.372534
O O17 0.500000 0.310563 0.823556
O O18 0.703290 0.500000 0.845734
O O19 0.000000 0.199024 0.656041
O O20 0.791535 0.000000 0.658715
#
# Coordination Sequence:
#
# PCOD8198268 Si02
#       7
#     4   8   4   8   8   8   8
#     4   9  17  31  52  77 106 137 168 208 260 313
#     4  10  21  37  57  81 109 141 176 214 260 313
#     4  11  24  39  56  80 108 139 178 221 262 308
#     4   9  18  33  52  73 100 136 175 214 257 306
#     4  10  20  34  54  79 105 135 173 215 259 310
#     4   9  18  33  53  77 105 137 174 215 257 304
#     4  10  21  36  53  75 105 140 177 217 262 312
#
# _framework density 18.511566999999999
#
# number of rings (size 3 to 8) (size 9 to 14) (size 15 to 20)
#    0.000    2.333    0.000    2.250    0.000    7.667 
#    0.000    3.750    0.000    2.500    0.000    0.000 
#    0.000    0.000    0.000    0.000    0.000    0.000 
#
# Total GULP energy -595374.973334 kJ/mol
# GULP energy per Si atom -12403.645278 kJ/mol
# Density = 1.846943 g / cm^3
# Si number density = 18.511567 Si / 1000 Ang^3
#
#
#
# Elastic Constant Matrix: (Units=GPa)
#
#
# Indices 1 2 3 4 5 6 
#
# 1 61.2976 44.7667 68.9338 0.0000 0.0000 0.0000
# 2 44.7667 86.7130 61.5348 0.0000 0.0000 0.0000
# 3 68.9338 61.5348 154.5762 0.0000 0.0000 0.0000
# 4 0.0000 0.0000 0.0000 -52.3663 0.0000 0.0000
# 5 0.0000 0.0000 0.0000 0.0000 163.5962 0.0000
# 6 0.0000 0.0000 0.0000 0.0000 0.0000 24.6440
#
#
#
# Elastic Compliance Matrix: (Units=1/GPa)
#
#
# Indices 1 2 3 4 5 6 
#
# 1 0.038862 -0.010822 -0.013023 0.000000 0.000000 0.000000
# 2 -0.010822 0.019086 -0.002772 0.000000 0.000000 0.000000
# 3 -0.013023 -0.002772 0.013380 0.000000 0.000000 0.000000
# 4 0.000000 0.000000 0.000000 -0.019096 0.000000 0.000000
# 5 0.000000 0.000000 0.000000 0.000000 0.006113 0.000000
# 6 0.000000 0.000000 0.000000 0.000000 0.000000 0.040578
#
#
# Mechanical properties :
#
#
# Convention : Reuss Voigt Hill
#
# Bulk Modulus (GPa) = 55.26119 72.56193 63.91156
# Shear Modulus (GPa) = 31.60795 35.66488 33.63642
#
# Velocity S-wave (km/s) = 4.13664 4.39410 4.26731
# Velocity P-wave (km/s) = 7.26173 8.06396 7.67333
#
# Compressibility (1/GPa) = 0.01809588
#
# Stress axis : x y z
#
# Youngs Moduli (GPa) = 25.73192 52.39366 74.73638
#
# Poissons Ratio (x) = 0.56699 0.97328
# Poissons Ratio (y) = 0.27846 0.20717
# Poissons Ratio (z) = 0.33510 0.14524
#
# Static dielectric constant tensor:
#      x y z
#    x 3.289720 0.000000 0.000000 
#    y 0.000000 3.496580 0.000000 
#    z 0.000000 0.000000 3.551900 
# 
# 
# High freq. dielectric constant tensor:
#      x y z
#    x 1.702050 0.000000 0.000000 
#    y 0.000000 1.725810 0.000000 
#    z 0.000000 0.000000 1.731690 
# 
# From -- ./inp_files/2579.got.cif
#   From: 2010.03.12/outbox.cif.g09.slc.cpg/sg47_2_cif.got.tgz:2579.got - 2010.04.14 03:12:58.
