data_PCOD8198258
_publ_section_title
;
Structure prediction by ZEFSAII (Michael W. Deem and Ramdas Pophale) SiO2 
 PCOD8198258
Probable space group: P M M M
;
_chemical_formula_sum "Si O2"
_cell_formula_units_Z 44
_cell_length_a 28.440492
_cell_length_b 9.432583
_cell_length_c 9.140228
_cell_angle_alpha 90.000000
_cell_angle_beta 90.000000
_cell_angle_gamma 90.000000
_cell_volume 2452.024299
_symmetry_space_group_name_H-M "P M M M"
_symmetry_group_IT_number 47
_symmetry_cell_setting 'orthorhombic'
loop_
_space_group_symop_operation_xyz
x,y,z
-x,-y,z
x,-y,-z
-x,y,-z
-x,-y,-z
x,y,-z
-x,y,z
x,-y,z
loop_
_atom_site_type_symbol
_atom_site_label
_atom_site_fract_x
_atom_site_fract_y
_atom_site_fract_z
Si Si1 0.325989 0.165473 0.829956
Si Si2 0.768735 0.164392 0.331770
Si Si3 0.141680 0.662525 0.328440
Si Si4 0.592835 0.666885 0.329755
Si Si5 0.500000 0.331653 0.834700
Si Si6 0.948701 0.331524 0.165292
O O1 0.275082 0.207389 0.768464
O O2 0.363462 0.254498 0.740515
O O3 0.336153 0.000000 0.804636
O O4 0.328451 0.206484 0.000000
O O5 0.757020 0.203674 0.500000
O O6 0.813307 0.251124 0.271935
O O7 0.781078 0.000000 0.315966
O O8 0.136272 0.678181 0.500000
O O9 0.148706 0.500000 0.280017
O O10 0.094181 0.729771 0.260641
O O11 0.589029 0.705388 0.500000
O O12 0.599581 0.500000 0.305827
O O13 0.545898 0.723387 0.250272
O O14 0.500000 0.500000 0.836767
O O15 0.500000 0.270821 0.000000
O O16 0.947943 0.500000 0.173774
O O17 0.000000 0.277988 0.222841
O O18 0.941386 0.279312 0.000000
#
# Coordination Sequence:
#
# PCOD8198258 Si02
#       6
#     8   8   8   8   4   8
#     4  10  21  36  53  74 100 130 166 207 249 293
#     4   9  18  33  50  66  90 126 160 190 234 291
#     4   9  17  28  44  68  93 115 147 193 235 271
#     4  10  20  34  54  79 105 134 168 204 243 290
#     4   9  17  31  52  77 106 137 166 200 244 291
#     4   8  14  25  41  62  89 119 148 180 224 277
#
# _framework density 17.944358000000001
#
# number of rings (size 3 to 8) (size 9 to 14) (size 15 to 20)
#    0.000    2.818    0.000    1.909    0.000    5.091 
#    0.000    4.091    0.000    3.273    0.000    3.818 
#    0.000    0.000    0.000    0.000    0.000    0.000 
#
# Total GULP energy -545530.570778 kJ/mol
# GULP energy per Si atom -12398.422063 kJ/mol
# Density = 1.790352 g / cm^3
# Si number density = 17.944358 Si / 1000 Ang^3
#
#
#
# Elastic Constant Matrix: (Units=GPa)
#
#
# Indices 1 2 3 4 5 6 
#
# 1 182.1700 56.7237 86.0601 0.0000 0.0000 0.0000
# 2 56.7237 36.8987 37.5184 0.0000 0.0000 0.0000
# 3 86.0601 37.5184 107.2420 0.0000 0.0000 0.0000
# 4 0.0000 0.0000 0.0000 19.5011 0.0000 0.0000
# 5 0.0000 0.0000 0.0000 0.0000 33.5790 0.0000
# 6 0.0000 0.0000 0.0000 0.0000 0.0000 -6.4972
#
#
#
# Elastic Compliance Matrix: (Units=1/GPa)
#
#
# Indices 1 2 3 4 5 6 
#
# 1 0.012003 -0.013439 -0.004931 0.000000 0.000000 0.000000
# 2 -0.013439 0.057110 -0.009196 0.000000 0.000000 0.000000
# 3 -0.004931 -0.009196 0.016499 0.000000 0.000000 0.000000
# 4 0.000000 0.000000 0.000000 0.051279 0.000000 0.000000
# 5 0.000000 0.000000 0.000000 0.000000 0.029781 0.000000
# 6 0.000000 0.000000 0.000000 0.000000 0.000000 -0.153912
#
#
# Mechanical properties :
#
#
# Convention : Reuss Voigt Hill
#
# Bulk Modulus (GPa) = 32.80629 76.32389 54.56509
# Shear Modulus (GPa) = 64.05997 19.05047 41.55522
#
# Velocity S-wave (km/s) = 5.98136 3.26182 4.81748
# Velocity P-wave (km/s) = 8.12553 7.53737 7.83697
#
# Compressibility (1/GPa) = 0.03048196
#
# Stress axis : x y z
#
# Youngs Moduli (GPa) = 83.30955 17.50995 60.61037
#
# Poissons Ratio (x) = 0.23531 0.29887
# Poissons Ratio (y) = 1.11958 0.55734
# Poissons Ratio (z) = 0.41080 0.16101
#
# Static dielectric constant tensor:
#      x y z
#    x 3.662910 0.000000 0.000000 
#    y 0.000000 3.019070 0.000000 
#    z 0.000000 0.000000 3.407570 
# 
# 
# High freq. dielectric constant tensor:
#      x y z
#    x 1.711640 0.000000 0.000000 
#    y 0.000000 1.655680 0.000000 
#    z 0.000000 0.000000 1.697590 
# 
# From -- ./inp_files/2293.got.cif
#   From: 2010.03.12/outbox.cif.g09.slc.cpg/sg47_2_cif.got.tgz:2293.got - 2010.04.14 03:12:58.
