data_PCOD8198229
_publ_section_title
;
Structure prediction by ZEFSAII (Michael W. Deem and Ramdas Pophale) SiO2 
 PCOD8198229
Probable space group: P M M M
;
_chemical_formula_sum "Si O2"
_cell_formula_units_Z 32
_cell_length_a 8.990723
_cell_length_b 22.123951
_cell_length_c 9.014985
_cell_angle_alpha 90.000000
_cell_angle_beta 90.000000
_cell_angle_gamma 90.000000
_cell_volume 1793.173507
_symmetry_space_group_name_H-M "P M M M"
_symmetry_group_IT_number 47
_symmetry_cell_setting 'orthorhombic'
loop_
_space_group_symop_operation_xyz
x,y,z
-x,-y,z
x,-y,-z
-x,y,-z
-x,-y,-z
x,y,-z
-x,y,z
x,-y,z
loop_
_atom_site_type_symbol
_atom_site_label
_atom_site_fract_x
_atom_site_fract_y
_atom_site_fract_z
Si Si1 0.173431 0.769678 0.328923
Si Si2 0.824184 0.569458 0.000000
Si Si3 0.672058 0.120161 0.826224
Si Si4 0.331618 0.333976 0.836233
Si Si5 0.323231 0.000000 0.332888
O O1 0.208556 0.783340 0.500000
O O2 0.233924 0.823801 0.230289
O O3 0.251801 0.707434 0.284068
O O4 0.000000 0.762256 0.298278
O O5 0.755532 0.601921 0.852941
O O6 0.775447 0.500000 0.000000
O O7 0.000000 0.577438 0.000000
O O8 0.500000 0.131303 0.784851
O O9 0.735612 0.059719 0.749454
O O10 0.694308 0.112193 0.000000
O O11 0.500000 0.346248 0.783451
O O12 0.330847 0.301972 0.000000
O O13 0.500000 0.000000 0.329135
O O14 0.261212 0.000000 0.500000
#
# Coordination Sequence:
#
# PCOD8198229 Si02
#       5
#     8   4   8   8   4
#     4  11  23  36  51  74 105 141 179 222 275 328
#     4   9  17  31  55  85 115 146 177 212 257 307
#     4  10  20  34  54  78 104 134 175 223 271 325
#     4   9  19  33  53  80 107 138 178 219 261 308
#     4   9  17  31  52  77 104 137 174 216 270 327
#
# _framework density 17.845457
#
# number of rings (size 3 to 8) (size 9 to 14) (size 15 to 20)
#    0.750    1.500    0.000    3.375    0.000    9.000 
#    0.000    0.625    0.000    4.500    0.000    5.250 
#    0.000    0.000    0.000    0.000    0.000    0.000 
#
# Total GULP energy -396721.591214 kJ/mol
# GULP energy per Si atom -12397.549725 kJ/mol
# Density = 1.780484 g / cm^3
# Si number density = 17.845457 Si / 1000 Ang^3
#
#
#
# Elastic Constant Matrix: (Units=GPa)
#
#
# Indices 1 2 3 4 5 6 
#
# 1 95.2261 54.4328 38.5296 0.0000 0.0000 0.0000
# 2 54.4328 137.7113 40.3328 0.0000 0.0000 0.0000
# 3 38.5296 40.3328 71.4191 0.0000 0.0000 0.0000
# 4 0.0000 0.0000 0.0000 17.3019 0.0000 0.0000
# 5 0.0000 0.0000 0.0000 0.0000 24.7420 0.0000
# 6 0.0000 0.0000 0.0000 0.0000 0.0000 -6.6494
#
#
#
# Elastic Compliance Matrix: (Units=1/GPa)
#
#
# Indices 1 2 3 4 5 6 
#
# 1 0.015349 -0.004363 -0.005816 0.000000 0.000000 0.000000
# 2 -0.004363 0.009941 -0.003260 0.000000 0.000000 0.000000
# 3 -0.005816 -0.003260 0.018981 0.000000 0.000000 0.000000
# 4 0.000000 0.000000 0.000000 0.057797 0.000000 0.000000
# 5 0.000000 0.000000 0.000000 0.000000 0.040417 0.000000
# 6 0.000000 0.000000 0.000000 0.000000 0.000000 -0.150390
#
#
# Mechanical properties :
#
#
# Convention : Reuss Voigt Hill
#
# Bulk Modulus (GPa) = 57.50074 63.43854 60.46964
# Shear Modulus (GPa) = 201.84125 18.48300 110.16213
#
# Velocity S-wave (km/s) = 10.64663 3.22176 7.86544
# Velocity P-wave (km/s) = 13.54347 7.03318 10.79100
#
# Compressibility (1/GPa) = 0.01739108
#
# Stress axis : x y z
#
# Youngs Moduli (GPa) = 65.15132 100.59258 52.68494
#
# Poissons Ratio (x) = 0.43893 0.30643
# Poissons Ratio (y) = 0.28428 0.17176
# Poissons Ratio (z) = 0.37894 0.32794
#
# Static dielectric constant tensor:
#      x y z
#    x 3.227030 0.000000 0.000000 
#    y 0.000000 3.264780 0.000000 
#    z 0.000000 0.000000 3.228400 
# 
# 
# High freq. dielectric constant tensor:
#      x y z
#    x 1.687060 0.000000 0.000000 
#    y 0.000000 1.688280 0.000000 
#    z 0.000000 0.000000 1.679210 
# 
# From -- ./inp_files/1297.got.cif
#   From: 2010.03.12/outbox.cif.g09.slc.cpg/sg47_1_cif.got.tgz:1297.got - 2010.04.14 03:12:58.
