data_PCOD8198690
_publ_section_title
;
Structure prediction by ZEFSAII (Michael W. Deem and Ramdas Pophale) SiO2 
 PCOD8198690
Probable space group: P M M M
;
_chemical_formula_sum "Si O2"
_cell_formula_units_Z 48
_cell_length_a 14.094046
_cell_length_b 8.853398
_cell_length_c 18.349653
_cell_angle_alpha 90.000000
_cell_angle_beta 90.000000
_cell_angle_gamma 90.000000
_cell_volume 2289.673347
_symmetry_space_group_name_H-M "P M M M"
_symmetry_group_IT_number 47
_symmetry_cell_setting 'orthorhombic'
loop_
_space_group_symop_operation_xyz
x,y,z
-x,-y,z
x,-y,-z
-x,y,-z
-x,-y,-z
x,y,-z
-x,y,z
x,-y,z
loop_
_atom_site_type_symbol
_atom_site_label
_atom_site_fract_x
_atom_site_fract_y
_atom_site_fract_z
Si Si1 0.612483 0.829097 0.000000
Si Si2 0.894376 0.323342 0.285580
Si Si3 0.891728 0.834823 0.137291
Si Si4 0.294126 0.175995 0.291978
Si Si5 0.389800 0.321337 0.848731
Si Si6 0.388496 0.332552 0.580074
Si Si7 0.886128 0.331589 0.000000
O O1 0.646488 0.744807 0.926069
O O2 0.500000 0.828087 0.000000
O O3 0.652060 0.000000 0.000000
O O4 0.881024 0.500000 0.298765
O O5 0.882833 0.286060 0.200865
O O6 0.808967 0.231461 0.322686
O O7 0.000000 0.272289 0.312990
O O8 0.841894 0.758502 0.068119
O O9 0.000000 0.862647 0.116665
O O10 0.846153 0.000000 0.156546
O O11 0.325435 0.255479 0.216721
O O12 0.363842 0.212256 0.358135
O O13 0.292846 0.000000 0.276994
O O14 0.500000 0.278002 0.834175
O O15 0.376603 0.500000 0.850174
O O16 0.348627 0.284557 0.500000
O O17 0.500000 0.340330 0.575388
O O18 0.349179 0.500000 0.600671
O O19 0.844572 0.500000 0.000000
O O20 0.000000 0.338202 0.000000
#
# Coordination Sequence:
#
# PCOD8198690 Si02
#       7
#     4   8   8   8   8   8   4
#     4   9  17  31  52  79 113 151 192 241 297 351
#     4  10  21  38  58  77 101 139 188 238 286 338
#     4   9  16  27  44  66  92 122 161 215 278 335
#     4  12  24  36  56  87 121 155 192 238 291 344
#     4  10  20  35  56  82 115 156 200 242 286 343
#     4   9  19  38  64  93 126 162 195 228 272 331
#     4   9  15  23  38  61  88 121 164 211 264 331
#
# _framework density 20.963688999999999
#
# number of rings (size 3 to 8) (size 9 to 14) (size 15 to 20)
#    0.000    2.167    0.000    4.500    0.000    8.667 
#    0.000    1.667    0.000    0.500    0.000    3.500 
#    0.000    0.000    0.000    0.000    0.000    0.000 
#
# Total GULP energy -594836.507366 kJ/mol
# GULP energy per Si atom -12392.427237 kJ/mol
# Density = 2.091597 g / cm^3
# Si number density = 20.963689 Si / 1000 Ang^3
#
#
#
# Elastic Constant Matrix: (Units=GPa)
#
#
# Indices 1 2 3 4 5 6 
#
# 1 70.7588 35.2170 22.1815 0.0000 0.0000 0.0000
# 2 35.2170 122.0150 38.6036 0.0000 0.0000 0.0000
# 3 22.1815 38.6036 101.6243 0.0000 0.0000 0.0000
# 4 0.0000 0.0000 0.0000 18.2488 0.0000 0.0000
# 5 0.0000 0.0000 0.0000 0.0000 -1.8673 0.0000
# 6 0.0000 0.0000 0.0000 0.0000 0.0000 20.0862
#
#
#
# Elastic Compliance Matrix: (Units=1/GPa)
#
#
# Indices 1 2 3 4 5 6 
#
# 1 0.016883 -0.004213 -0.002085 0.000000 0.000000 0.000000
# 2 -0.004213 0.010367 -0.003018 0.000000 0.000000 0.000000
# 3 -0.002085 -0.003018 0.011442 0.000000 0.000000 0.000000
# 4 0.000000 0.000000 0.000000 0.054798 0.000000 0.000000
# 5 0.000000 0.000000 0.000000 0.000000 -0.535527 0.000000
# 6 0.000000 0.000000 0.000000 0.000000 0.000000 0.049785
#
#
# Mechanical properties :
#
#
# Convention : Reuss Voigt Hill
#
# Bulk Modulus (GPa) = 49.85294 54.04469 51.94882
# Shear Modulus (GPa) = -13.62648 20.51993 3.44673
#
# Velocity S-wave (km/s) = -2.55228 3.13202 1.28363
# Velocity P-wave (km/s) = 3.89188 6.23823 5.19915
#
# Compressibility (1/GPa) = 0.02005900
#
# Stress axis : x y z
#
# Youngs Moduli (GPa) = 59.23111 96.46210 87.39951
#
# Poissons Ratio (x) = 0.40643 0.18219
# Poissons Ratio (y) = 0.24956 0.26380
# Poissons Ratio (z) = 0.12347 0.29115
#
# Static dielectric constant tensor:
#      x y z
#    x 3.971370 0.000000 0.000000 
#    y 0.000000 3.943170 0.000000 
#    z 0.000000 0.000000 3.656500 
# 
# 
# High freq. dielectric constant tensor:
#      x y z
#    x 1.816910 0.000000 0.000000 
#    y 0.000000 1.827100 0.000000 
#    z 0.000000 0.000000 1.794550 
# 
# From -- ./inp_files/28049.got.cif
#   From: 2010.03.12/outbox.cif.g09.slc.cpg/sg47_15_cif.got.tgz:28049.got - 2010.04.14 03:12:58.
