data_PCOD8198357
_publ_section_title
;
Structure prediction by ZEFSAII (Michael W. Deem and Ramdas Pophale) SiO2 
 PCOD8198357
Probable space group: P M M M
;
_chemical_formula_sum "Si O2"
_cell_formula_units_Z 38
_cell_length_a 11.220867
_cell_length_b 15.761026
_cell_length_c 12.296881
_cell_angle_alpha 90.000000
_cell_angle_beta 90.000000
_cell_angle_gamma 90.000000
_cell_volume 2174.732629
_symmetry_space_group_name_H-M "P M M M"
_symmetry_group_IT_number 47
_symmetry_cell_setting 'orthorhombic'
loop_
_space_group_symop_operation_xyz
x,y,z
-x,-y,z
x,-y,-z
-x,y,-z
-x,-y,-z
x,y,-z
-x,y,z
x,-y,z
loop_
_atom_site_type_symbol
_atom_site_label
_atom_site_fract_x
_atom_site_fract_y
_atom_site_fract_z
Si Si1 0.500000 0.900730 0.128589
Si Si2 0.692175 0.209016 0.750928
Si Si3 0.866445 0.329785 0.871694
Si Si4 0.263930 0.500000 0.871635
Si Si5 0.500000 0.318406 0.370862
Si Si6 0.131260 0.094155 0.628252
Si Si7 0.500000 0.500000 0.269503
O O1 0.615656 0.855794 0.177651
O O2 0.500000 0.000000 0.160009
O O3 0.500000 0.887568 0.000000
O O4 0.782605 0.255114 0.831032
O O5 0.615468 0.276626 0.683808
O O6 0.766654 0.157097 0.664160
O O7 0.812776 0.419427 0.834925
O O8 0.000000 0.321179 0.823207
O O9 0.871280 0.323799 0.000000
O O10 0.387532 0.500000 0.809147
O O11 0.291552 0.500000 0.000000
O O12 0.500000 0.302412 0.500000
O O13 0.500000 0.418430 0.347422
O O14 0.133099 0.091328 0.500000
O O15 0.000000 0.124122 0.668708
O O16 0.157125 0.000000 0.674756
#
# Coordination Sequence:
#
# PCOD8198357 Si02
#       7
#     4   8   8   4   4   8   2
#     4  10  22  37  52  74 107 144 177 215 265 317
#     4  11  20  35  55  78 104 137 179 217 262 305
#     4  10  20  34  54  81 110 138 170 211 259 312
#     4  10  20  35  56  82 109 138 172 211 256 314
#     4  11  24  37  54  76 104 139 181 222 262 307
#     4   9  18  33  54  79 105 134 170 214 262 309
#     4  12  20  40  54  80 102 148 174 210 266 310
#
# _framework density 17.473413000000001
#
# number of rings (size 3 to 8) (size 9 to 14) (size 15 to 20)
#    0.000    1.789    2.105    3.789    0.000    1.263 
#    0.000    0.000    0.000    5.053    0.000   10.316 
#    0.000    0.000    0.000    0.000    0.000    0.000 
#
# Total GULP energy -471183.654851 kJ/mol
# GULP energy per Si atom -12399.569864 kJ/mol
# Density = 1.743364 g / cm^3
# Si number density = 17.473413 Si / 1000 Ang^3
#
#
#
# Elastic Constant Matrix: (Units=GPa)
#
#
# Indices 1 2 3 4 5 6 
#
# 1 144.5520 72.2762 37.0278 0.0000 0.0000 0.0000
# 2 72.2762 127.4440 37.9615 0.0000 0.0000 0.0000
# 3 37.0278 37.9615 49.3235 0.0000 0.0000 0.0000
# 4 0.0000 0.0000 0.0000 31.4208 0.0000 0.0000
# 5 0.0000 0.0000 0.0000 0.0000 33.5558 0.0000
# 6 0.0000 0.0000 0.0000 0.0000 0.0000 29.4279
#
#
#
# Elastic Compliance Matrix: (Units=1/GPa)
#
#
# Indices 1 2 3 4 5 6 
#
# 1 0.010283 -0.004583 -0.004193 0.000000 0.000000 0.000000
# 2 -0.004583 0.012223 -0.005967 0.000000 0.000000 0.000000
# 3 -0.004193 -0.005967 0.028014 0.000000 0.000000 0.000000
# 4 0.000000 0.000000 0.000000 0.031826 0.000000 0.000000
# 5 0.000000 0.000000 0.000000 0.000000 0.029801 0.000000
# 6 0.000000 0.000000 0.000000 0.000000 0.000000 0.033981
#
#
# Mechanical properties :
#
#
# Convention : Reuss Voigt Hill
#
# Bulk Modulus (GPa) = 47.53846 68.42783 57.98314
# Shear Modulus (GPa) = 27.37839 30.48451 28.93145
#
# Velocity S-wave (km/s) = 3.96265 4.18140 4.07349
# Velocity P-wave (km/s) = 6.94277 7.90938 7.44178
#
# Compressibility (1/GPa) = 0.02103560
#
# Stress axis : x y z
#
# Youngs Moduli (GPa) = 97.24371 81.81235 35.69644
#
# Poissons Ratio (x) = 0.37496 0.14966
# Poissons Ratio (y) = 0.44568 0.21299
# Poissons Ratio (z) = 0.40770 0.48816
#
# Static dielectric constant tensor:
#      x y z
#    x 4.901200 0.000000 0.000000 
#    y 0.000000 3.467320 0.000000 
#    z 0.000000 0.000000 3.026970 
# 
# 
# High freq. dielectric constant tensor:
#      x y z
#    x 1.692590 0.000000 0.000000 
#    y 0.000000 1.688180 0.000000 
#    z 0.000000 0.000000 1.661290 
# 
# From -- ./inp_files/16149.got.cif
#   From: 2010.03.12/outbox.cif.g09.slc.cpg/sg47_9_cif.got.tgz:16149.got - 2010.04.14 03:12:58.
