data_PCOD8198912
_publ_section_title
;
Structure prediction by ZEFSAII (Michael W. Deem and Ramdas Pophale) SiO2 
 PCOD8198912
Probable space group: P M M M
;
_chemical_formula_sum "Si O2"
_cell_formula_units_Z 44
_cell_length_a 9.454975
_cell_length_b 29.271643
_cell_length_c 8.022913
_cell_angle_alpha 90.000000
_cell_angle_beta 90.000000
_cell_angle_gamma 90.000000
_cell_volume 2220.442685
_symmetry_space_group_name_H-M "P M M M"
_symmetry_group_IT_number 47
_symmetry_cell_setting 'orthorhombic'
loop_
_space_group_symop_operation_xyz
x,y,z
-x,-y,z
x,-y,-z
-x,y,-z
-x,-y,-z
x,y,-z
-x,y,z
x,-y,z
loop_
_atom_site_type_symbol
_atom_site_label
_atom_site_fract_x
_atom_site_fract_y
_atom_site_fract_z
Si Si1 0.836588 0.053999 0.000000
Si Si2 0.657357 0.191634 0.811762
Si Si3 0.837702 0.727831 0.310420
Si Si4 0.666288 0.095080 0.310196
Si Si5 0.843198 0.367148 0.809678
Si Si6 0.662080 0.551129 0.694171
O O1 0.759359 0.069747 0.170485
O O2 0.000000 0.071621 0.000000
O O3 0.832766 0.000000 0.000000
O O4 0.500000 0.208234 0.764151
O O5 0.758089 0.235010 0.798543
O O6 0.701966 0.149139 0.696267
O O7 0.663737 0.173074 0.000000
O O8 0.819641 0.742764 0.500000
O O9 0.776180 0.676520 0.285825
O O10 0.000000 0.727432 0.252051
O O11 0.702458 0.078387 0.500000
O O12 0.500000 0.086787 0.271379
O O13 0.750825 0.412326 0.795001
O O14 0.000000 0.377953 0.738815
O O15 0.850781 0.352471 0.000000
O O16 0.681306 0.560754 0.500000
O O17 0.500000 0.556310 0.747577
O O18 0.715080 0.500000 0.738432
#
# Coordination Sequence:
#
# PCOD8198912 Si02
#       6
#     4   8   8   8   8   8
#     4  11  25  43  63  91 129 169 207 255 312 367
#     4  10  20  36  59  86 117 152 191 237 288 343
#     4  10  21  36  54  78 109 146 187 229 276 333
#     4  10  21  40  66  93 123 162 209 259 308 362
#     4  10  21  36  53  75 105 140 178 221 269 325
#     4   9  19  36  56  77 101 131 170 217 269 326
#
# _framework density 19.815867000000001
#
# number of rings (size 3 to 8) (size 9 to 14) (size 15 to 20)
#    0.000    2.091    0.909    2.455    0.000    7.273 
#    0.000    4.545    0.000    0.000    0.000    0.000 
#    0.000    0.000    0.000    0.000    0.000    0.000 
#
# Total GULP energy -545501.484445 kJ/mol
# GULP energy per Si atom -12397.761010 kJ/mol
# Density = 1.977076 g / cm^3
# Si number density = 19.815867 Si / 1000 Ang^3
#
#
#
# Elastic Constant Matrix: (Units=GPa)
#
#
# Indices 1 2 3 4 5 6 
#
# 1 80.0339 52.8491 44.3350 0.0000 0.0000 0.0000
# 2 52.8491 101.8711 37.3026 0.0000 0.0000 0.0000
# 3 44.3350 37.3026 92.7770 0.0000 0.0000 0.0000
# 4 0.0000 0.0000 0.0000 30.6033 0.0000 0.0000
# 5 0.0000 0.0000 0.0000 0.0000 27.4141 0.0000
# 6 0.0000 0.0000 0.0000 0.0000 0.0000 37.5897
#
#
#
# Elastic Compliance Matrix: (Units=1/GPa)
#
#
# Indices 1 2 3 4 5 6 
#
# 1 0.022357 -0.009014 -0.007060 0.000000 0.000000 0.000000
# 2 -0.009014 0.015145 -0.001782 0.000000 0.000000 0.000000
# 3 -0.007060 -0.001782 0.014869 0.000000 0.000000 0.000000
# 4 0.000000 0.000000 0.000000 0.032676 0.000000 0.000000
# 5 0.000000 0.000000 0.000000 0.000000 0.036478 0.000000
# 6 0.000000 0.000000 0.000000 0.000000 0.000000 0.026603
#
#
# Mechanical properties :
#
#
# Convention : Reuss Voigt Hill
#
# Bulk Modulus (GPa) = 60.02297 60.40617 60.21457
# Shear Modulus (GPa) = 26.40024 28.46776 27.43400
#
# Velocity S-wave (km/s) = 3.65400 3.79438 3.72485
# Velocity P-wave (km/s) = 6.93962 7.05311 6.99660
#
# Compressibility (1/GPa) = 0.01666029
#
# Stress axis : x y z
#
# Youngs Moduli (GPa) = 44.72777 66.02865 67.25548
#
# Poissons Ratio (x) = 0.59515 0.47481
# Poissons Ratio (y) = 0.40316 0.11985
# Poissons Ratio (z) = 0.31577 0.11766
#
# Static dielectric constant tensor:
#      x y z
#    x 3.573600 0.000000 0.000000 
#    y 0.000000 3.498410 0.000000 
#    z 0.000000 0.000000 3.591440 
# 
# 
# High freq. dielectric constant tensor:
#      x y z
#    x 1.758990 0.000000 0.000000 
#    y 0.000000 1.774110 0.000000 
#    z 0.000000 0.000000 1.779650 
# 
# From -- ./inp_files/2320.got.cif
#   From: 2010.03.12/outbox.cif.g09.slc.cpg/sg47_2_cif.got.tgz:2320.got - 2010.04.14 03:12:58.
