data_PCOD8198291
_publ_section_title
;
Structure prediction by ZEFSAII (Michael W. Deem and Ramdas Pophale) SiO2 
 PCOD8198291
Probable space group: P M M M
;
_chemical_formula_sum "Si O2"
_cell_formula_units_Z 48
_cell_length_a 9.182791
_cell_length_b 9.075244
_cell_length_c 31.164673
_cell_angle_alpha 90.000000
_cell_angle_beta 90.000000
_cell_angle_gamma 90.000000
_cell_volume 2597.141337
_symmetry_space_group_name_H-M "P M M M"
_symmetry_group_IT_number 47
_symmetry_cell_setting 'orthorhombic'
loop_
_space_group_symop_operation_xyz
x,y,z
-x,-y,z
x,-y,-z
-x,y,-z
-x,-y,-z
x,y,-z
-x,y,z
x,-y,z
loop_
_atom_site_type_symbol
_atom_site_label
_atom_site_fract_x
_atom_site_fract_y
_atom_site_fract_z
Si Si1 0.672901 0.334220 0.836212
Si Si2 0.169353 0.671363 0.584029
Si Si3 0.326375 0.166309 0.246884
Si Si4 0.670420 0.827425 0.077753
Si Si5 0.329840 0.329502 0.331357
Si Si6 0.826664 0.833628 0.500000
Si Si7 0.171839 0.671567 0.000000
O O1 0.500000 0.339038 0.833557
O O2 0.735790 0.500000 0.839715
O O3 0.736357 0.257064 0.793551
O O4 0.722423 0.239350 0.877058
O O5 0.200256 0.500000 0.576769
O O6 0.250508 0.730495 0.626237
O O7 0.233832 0.754554 0.542597
O O8 0.000000 0.705114 0.590285
O O9 0.500000 0.169165 0.245881
O O10 0.269204 0.240062 0.290630
O O11 0.267227 0.000000 0.244328
O O12 0.500000 0.798146 0.069535
O O13 0.761871 0.747271 0.041579
O O14 0.705633 0.000000 0.077476
O O15 0.500000 0.303145 0.337870
O O16 0.293233 0.500000 0.323249
O O17 0.000000 0.823365 0.500000
O O18 0.769850 0.000000 0.500000
O O19 0.213757 0.500000 0.000000
O O20 0.000000 0.695921 0.000000
#
# Coordination Sequence:
#
# PCOD8198291 Si02
#       7
#     8   8   8   8   8   4   4
#     4   9  16  27  46  72 100 129 161 199 242 285
#     4   9  17  30  48  67  87 114 149 187 226 270
#     4   9  16  26  42  66  96 127 157 191 232 278
#     4  10  20  34  54  80 106 131 164 208 254 296
#     4   9  17  29  45  66  92 121 152 186 226 273
#     4   9  17  29  46  67  88 112 146 187 228 270
#     4  11  24  39  54  74 102 137 174 207 244 296
#
# _framework density 18.481857999999999
#
# number of rings (size 3 to 8) (size 9 to 14) (size 15 to 20)
#    0.000    2.667    0.000    2.250    0.000    8.333 
#    0.000    0.417    0.000    3.500    0.000    2.333 
#    0.000    0.000    0.000    0.000    0.000    0.000 
#
# Total GULP energy -595224.885816 kJ/mol
# GULP energy per Si atom -12400.518455 kJ/mol
# Density = 1.843979 g / cm^3
# Si number density = 18.481858 Si / 1000 Ang^3
#
#
#
# Elastic Constant Matrix: (Units=GPa)
#
#
# Indices 1 2 3 4 5 6 
#
# 1 27.5664 36.4790 44.2551 0.0000 0.0000 0.0000
# 2 36.4790 142.6263 103.3077 0.0000 0.0000 0.0000
# 3 44.2551 103.3077 208.2972 0.0000 0.0000 0.0000
# 4 0.0000 0.0000 0.0000 23.9869 0.0000 0.0000
# 5 0.0000 0.0000 0.0000 0.0000 -11.6939 0.0000
# 6 0.0000 0.0000 0.0000 0.0000 0.0000 15.4172
#
#
#
# Elastic Compliance Matrix: (Units=1/GPa)
#
#
# Indices 1 2 3 4 5 6 
#
# 1 0.063077 -0.010029 -0.008428 0.000000 0.000000 0.000000
# 2 -0.010029 0.012537 -0.004087 0.000000 0.000000 0.000000
# 3 -0.008428 -0.004087 0.008618 0.000000 0.000000 0.000000
# 4 0.000000 0.000000 0.000000 0.041689 0.000000 0.000000
# 5 0.000000 0.000000 0.000000 0.000000 -0.085515 0.000000
# 6 0.000000 0.000000 0.000000 0.000000 0.000000 0.064863
#
#
# Mechanical properties :
#
#
# Convention : Reuss Voigt Hill
#
# Bulk Modulus (GPa) = 25.54583 82.95262 54.24923
# Shear Modulus (GPa) = 30.59906 18.50525 24.55215
#
# Velocity S-wave (km/s) = 4.07335 3.16771 3.64874
# Velocity P-wave (km/s) = 5.99792 7.63936 6.86786
#
# Compressibility (1/GPa) = 0.03914533
#
# Stress axis : x y z
#
# Youngs Moduli (GPa) = 15.85373 79.76628 116.03124
#
# Poissons Ratio (x) = 0.79994 0.97786
# Poissons Ratio (y) = 0.15899 0.47422
# Poissons Ratio (z) = 0.13361 0.32601
#
# Static dielectric constant tensor:
#      x y z
#    x 2.909240 0.000000 0.000000 
#    y 0.000000 3.540880 0.000000 
#    z 0.000000 0.000000 3.727630 
# 
# 
# High freq. dielectric constant tensor:
#      x y z
#    x 1.659480 0.000000 0.000000 
#    y 0.000000 1.726110 0.000000 
#    z 0.000000 0.000000 1.737080 
# 
# From -- ./inp_files/34046.got.cif
#   From: 2010.03.12/outbox.cif.g09.slc.cpg/sg47_18_cif.got.tgz:34046.got - 2010.04.14 03:12:58.
