data_PCOD8198130
_publ_section_title
;
Structure prediction by ZEFSAII (Michael W. Deem and Ramdas Pophale) SiO2 
 PCOD8198130
Probable space group: P M M M
;
_chemical_formula_sum "Si O2"
_cell_formula_units_Z 52
_cell_length_a 14.126833
_cell_length_b 8.902292
_cell_length_c 23.197335
_cell_angle_alpha 90.000000
_cell_angle_beta 90.000000
_cell_angle_gamma 90.000000
_cell_volume 2917.324510
_symmetry_space_group_name_H-M "P M M M"
_symmetry_group_IT_number 47
_symmetry_cell_setting 'orthorhombic'
loop_
_space_group_symop_operation_xyz
x,y,z
-x,-y,z
x,-y,-z
-x,y,-z
-x,-y,-z
x,y,-z
-x,y,z
x,-y,z
loop_
_atom_site_type_symbol
_atom_site_label
_atom_site_fract_x
_atom_site_fract_y
_atom_site_fract_z
Si Si1 0.212221 0.177347 0.278998
Si Si2 0.887316 0.830455 0.500000
Si Si3 0.393121 0.324078 0.756247
Si Si4 0.606779 0.172216 0.876966
Si Si5 0.887561 0.670695 0.615073
Si Si6 0.108719 0.324828 0.173321
Si Si7 0.770203 0.327805 0.064406
O O1 0.319603 0.238168 0.285052
O O2 0.150435 0.237858 0.331135
O O3 0.168044 0.230073 0.218859
O O4 0.212865 0.000000 0.281479
O O5 0.848853 0.745050 0.556371
O O6 0.000000 0.830178 0.500000
O O7 0.847858 0.000000 0.500000
O O8 0.500000 0.282760 0.736976
O O9 0.373876 0.500000 0.751754
O O10 0.374746 0.275000 0.821619
O O11 0.500000 0.192613 0.900146
O O12 0.678133 0.224419 0.926526
O O13 0.626318 0.000000 0.859635
O O14 0.851052 0.500000 0.617718
O O15 0.000000 0.677223 0.617334
O O16 0.119602 0.500000 0.188647
O O17 0.147044 0.287856 0.109479
O O18 0.000000 0.274133 0.175743
O O19 0.738459 0.500000 0.071779
O O20 0.809356 0.297392 0.000000
#
# Coordination Sequence:
#
# PCOD8198130 Si02
#       7
#     8   4   8   8   8   8   8
#     4  12  23  34  53  81 111 141 175 218 267 316
#     4   9  17  31  51  77 112 149 186 229 273 313
#     4  10  20  35  56  79 104 135 170 211 261 318
#     4  10  20  34  53  77 103 131 163 204 260 320
#     4  10  20  34  53  78 111 152 193 227 262 309
#     4  10  21  37  55  74 100 135 175 219 266 316
#     4  10  21  36  54  75  99 132 174 216 261 317
#
# _framework density 17.824551
#
# number of rings (size 3 to 8) (size 9 to 14) (size 15 to 20)
#    0.000    1.769    1.538    3.462    0.000    6.769 
#    0.000    3.077    0.000    0.000    0.000    2.692 
#    0.000    4.308    0.000    0.000    0.000    0.000 
#
# Total GULP energy -644941.851285 kJ/mol
# GULP energy per Si atom -12402.727909 kJ/mol
# Density = 1.778398 g / cm^3
# Si number density = 17.824551 Si / 1000 Ang^3
#
#
#
# Elastic Constant Matrix: (Units=GPa)
#
#
# Indices 1 2 3 4 5 6 
#
# 1 72.7758 43.2894 22.2417 0.0000 0.0000 0.0000
# 2 43.2894 118.0233 46.5318 0.0000 0.0000 0.0000
# 3 22.2417 46.5318 89.4408 0.0000 0.0000 0.0000
# 4 0.0000 0.0000 0.0000 8.0027 0.0000 0.0000
# 5 0.0000 0.0000 0.0000 0.0000 14.1202 0.0000
# 6 0.0000 0.0000 0.0000 0.0000 0.0000 24.4779
#
#
#
# Elastic Compliance Matrix: (Units=1/GPa)
#
#
# Indices 1 2 3 4 5 6 
#
# 1 0.017692 -0.005982 -0.001288 0.000000 0.000000 0.000000
# 2 -0.005982 0.012682 -0.005110 0.000000 0.000000 0.000000
# 3 -0.001288 -0.005110 0.014159 0.000000 0.000000 0.000000
# 4 0.000000 0.000000 0.000000 0.124958 0.000000 0.000000
# 5 0.000000 0.000000 0.000000 0.000000 0.070821 0.000000
# 6 0.000000 0.000000 0.000000 0.000000 0.000000 0.040853
#
#
# Mechanical properties :
#
#
# Convention : Reuss Voigt Hill
#
# Bulk Modulus (GPa) = 50.57042 56.04064 53.30553
# Shear Modulus (GPa) = 15.99919 20.53195 18.26557
#
# Velocity S-wave (km/s) = 2.99924 3.39764 3.20463
# Velocity P-wave (km/s) = 6.35820 6.84838 6.60784
#
# Compressibility (1/GPa) = 0.01977441
#
# Stress axis : x y z
#
# Youngs Moduli (GPa) = 56.52124 78.85423 70.62465
#
# Poissons Ratio (x) = 0.47168 0.09094
# Poissons Ratio (y) = 0.33809 0.36090
# Poissons Ratio (z) = 0.07278 0.40296
#
# Static dielectric constant tensor:
#      x y z
#    x 3.352740 0.000000 0.000000 
#    y 0.000000 3.413890 0.000000 
#    z 0.000000 0.000000 3.227690 
# 
# 
# High freq. dielectric constant tensor:
#      x y z
#    x 1.678500 0.000000 0.000000 
#    y 0.000000 1.700500 0.000000 
#    z 0.000000 0.000000 1.674460 
# 
# From -- ./inp_files/6927.got.cif
#   From: 2010.03.12/outbox.cif.g09.slc.cpg/sg47_4_cif.got.tgz:6927.got - 2010.04.14 03:12:58.
