data_PCOD8198875
_publ_section_title
;
Structure prediction by ZEFSAII (Michael W. Deem and Ramdas Pophale) SiO2 
 PCOD8198875
Probable space group: P M M M
;
_chemical_formula_sum "Si O2"
_cell_formula_units_Z 48
_cell_length_a 13.732778
_cell_length_b 14.717641
_cell_length_c 12.340642
_cell_angle_alpha 90.000000
_cell_angle_beta 90.000000
_cell_angle_gamma 90.000000
_cell_volume 2494.217709
_symmetry_space_group_name_H-M "P M M M"
_symmetry_group_IT_number 47
_symmetry_cell_setting 'orthorhombic'
loop_
_space_group_symop_operation_xyz
x,y,z
-x,-y,z
x,-y,-z
-x,y,-z
-x,-y,-z
x,y,-z
-x,y,z
x,-y,z
loop_
_atom_site_type_symbol
_atom_site_label
_atom_site_fract_x
_atom_site_fract_y
_atom_site_fract_z
Si Si1 0.649821 0.598153 0.500000
Si Si2 0.886086 0.239013 0.626493
Si Si3 0.773903 0.598536 0.713037
Si Si4 0.609460 0.137347 0.121739
Si Si5 0.391765 0.648273 0.123034
Si Si6 0.605662 0.200705 0.500000
Si Si7 0.270670 0.898127 0.675751
O O1 0.591874 0.500000 0.500000
O O2 0.717121 0.601918 0.602716
O O3 0.586853 0.690276 0.500000
O O4 0.857825 0.256569 0.500000
O O5 0.854288 0.322137 0.705159
O O6 0.835873 0.147062 0.670768
O O7 0.000000 0.224596 0.639621
O O8 0.825933 0.500000 0.727068
O O9 0.695811 0.607090 0.808831
O O10 0.500000 0.104264 0.151195
O O11 0.614913 0.244510 0.130470
O O12 0.687884 0.094235 0.202824
O O13 0.635850 0.105464 0.000000
O O14 0.500000 0.617449 0.164807
O O15 0.378436 0.614960 0.000000
O O16 0.500000 0.154329 0.500000
O O17 0.660087 0.168118 0.607301
O O18 0.264609 0.000000 0.626960
#
# Coordination Sequence:
#
# PCOD8198875 Si02
#       7
#     4   8   8   8   8   4   8
#     4  10  20  36  57  82 113 153 195 233 279 335
#     4  11  23  42  64  85 112 147 192 246 302 353
#     4  11  20  35  59  86 118 150 189 240 293 349
#     4   9  18  34  58  86 117 156 198 236 277 333
#     4   9  18  34  57  85 119 161 202 235 275 335
#     4  12  23  37  56  83 123 159 190 230 283 347
#     4  12  23  38  59  85 118 153 192 238 291 349
#
# _framework density 19.244510999999999
#
# number of rings (size 3 to 8) (size 9 to 14) (size 15 to 20)
#    0.000    1.500    5.000    1.750    0.000    5.500 
#    0.000    5.000    0.000    2.000    0.000    2.333 
#    0.000    0.000    0.000    0.000    0.000    0.000 
#
# Total GULP energy -594859.868474 kJ/mol
# GULP energy per Si atom -12392.913927 kJ/mol
# Density = 1.920071 g / cm^3
# Si number density = 19.244511 Si / 1000 Ang^3
#
#
#
# Elastic Constant Matrix: (Units=GPa)
#
#
# Indices 1 2 3 4 5 6 
#
# 1 107.1745 48.2848 46.4024 0.0000 0.0000 0.0000
# 2 48.2848 136.2549 27.1388 0.0000 0.0000 0.0000
# 3 46.4024 27.1388 92.2919 0.0000 0.0000 0.0000
# 4 0.0000 0.0000 0.0000 13.2629 0.0000 0.0000
# 5 0.0000 0.0000 0.0000 0.0000 27.2912 0.0000
# 6 0.0000 0.0000 0.0000 0.0000 0.0000 -15.8365
#
#
#
# Elastic Compliance Matrix: (Units=1/GPa)
#
#
# Indices 1 2 3 4 5 6 
#
# 1 0.013425 -0.003625 -0.005684 0.000000 0.000000 0.000000
# 2 -0.003625 0.008775 -0.000758 0.000000 0.000000 0.000000
# 3 -0.005684 -0.000758 0.013916 0.000000 0.000000 0.000000
# 4 0.000000 0.000000 0.000000 0.075398 0.000000 0.000000
# 5 0.000000 0.000000 0.000000 0.000000 0.036642 0.000000
# 6 0.000000 0.000000 0.000000 0.000000 0.000000 -0.063145
#
#
# Mechanical properties :
#
#
# Convention : Reuss Voigt Hill
#
# Bulk Modulus (GPa) = 62.56994 64.37481 63.47238
# Shear Modulus (GPa) = 45.26126 19.20322 32.23224
#
# Velocity S-wave (km/s) = 4.85491 3.16231 4.09697
# Velocity P-wave (km/s) = 8.00066 6.84523 7.44539
#
# Compressibility (1/GPa) = 0.01598211
#
# Stress axis : x y z
#
# Youngs Moduli (GPa) = 74.48999 113.96327 71.86218
#
# Poissons Ratio (x) = 0.41315 0.40844
# Poissons Ratio (y) = 0.27005 0.05444
# Poissons Ratio (z) = 0.42337 0.08633
#
# Static dielectric constant tensor:
#      x y z
#    x 3.311460 0.000000 0.000000 
#    y 0.000000 3.839290 0.000000 
#    z 0.000000 0.000000 3.646560 
# 
# 
# High freq. dielectric constant tensor:
#      x y z
#    x 1.717170 0.000000 0.000000 
#    y 0.000000 1.763150 0.000000 
#    z 0.000000 0.000000 1.743990 
# 
# From -- ./inp_files/17605.got.cif
#   From: 2010.03.12/outbox.cif.g09.slc.cpg/sg47_9_cif.got.tgz:17605.got - 2010.04.14 03:12:58.
