data_PCOD8198162
_publ_section_title
;
Structure prediction by ZEFSAII (Michael W. Deem and Ramdas Pophale) SiO2 
 PCOD8198162
Probable space group: P M M M
;
_chemical_formula_sum "Si O2"
_cell_formula_units_Z 56
_cell_length_a 14.394277
_cell_length_b 23.080591
_cell_length_c 8.684252
_cell_angle_alpha 90.000000
_cell_angle_beta 90.000000
_cell_angle_gamma 90.000000
_cell_volume 2885.155322
_symmetry_space_group_name_H-M "P M M M"
_symmetry_group_IT_number 47
_symmetry_cell_setting 'orthorhombic'
loop_
_space_group_symop_operation_xyz
x,y,z
-x,-y,z
x,-y,-z
-x,y,-z
-x,-y,-z
x,y,-z
-x,y,z
x,-y,z
loop_
_atom_site_type_symbol
_atom_site_label
_atom_site_fract_x
_atom_site_fract_y
_atom_site_fract_z
Si Si1 0.777521 0.434514 0.176979
Si Si2 0.394266 0.613392 0.679832
Si Si3 0.893496 0.665644 0.677603
Si Si4 0.106386 0.213936 0.180634
Si Si5 0.721347 0.164650 0.320538
Si Si6 0.605965 0.067250 0.178070
Si Si7 0.393321 0.733370 0.177180
O O1 0.812322 0.500000 0.205026
O O2 0.669677 0.430863 0.225887
O O3 0.836293 0.391305 0.281270
O O4 0.789296 0.416790 0.000000
O O5 0.381180 0.602355 0.500000
O O6 0.500000 0.602541 0.732529
O O7 0.363702 0.678955 0.718695
O O8 0.877145 0.681198 0.500000
O O9 0.860823 0.720961 0.776692
O O10 0.000000 0.651116 0.713826
O O11 0.170569 0.167475 0.269759
O O12 0.000000 0.204042 0.233916
O O13 0.117795 0.204648 0.000000
O O14 0.711317 0.177523 0.500000
O O15 0.678489 0.102099 0.282687
O O16 0.667068 0.211941 0.222142
O O17 0.500000 0.082569 0.224823
O O18 0.625663 0.000000 0.207648
O O19 0.621975 0.083205 0.000000
O O20 0.500000 0.750127 0.206669
O O21 0.375175 0.717096 0.000000
#
# Coordination Sequence:
#
# PCOD8198162 Si02
#       7
#     8   8   8   8   8   8   8
#     4  11  24  39  55  76 103 137 177 219 261 313
#     4  10  21  37  56  77 103 135 172 218 271 323
#     4  10  21  38  60  84 110 138 169 213 271 328
#     4  10  21  38  60  83 108 141 181 223 267 320
#     4  12  23  33  52  82 116 149 180 222 273 322
#     4   9  19  37  59  82 112 152 195 234 269 310
#     4  10  20  34  53  77 107 142 179 219 263 316
#
# _framework density 19.409699
#
# number of rings (size 3 to 8) (size 9 to 14) (size 15 to 20)
#    0.000    1.714    0.000    5.143    0.000    7.429 
#    0.000    3.571    0.000    0.429    0.000    3.000 
#    0.000    0.000    0.000    0.000    0.000    0.000 
#
# Total GULP energy -694670.489296 kJ/mol
# GULP energy per Si atom -12404.830166 kJ/mol
# Density = 1.936552 g / cm^3
# Si number density = 19.409699 Si / 1000 Ang^3
#
#
#
# Elastic Constant Matrix: (Units=GPa)
#
#
# Indices 1 2 3 4 5 6 
#
# 1 87.3100 44.9339 28.0822 0.0000 0.0000 0.0000
# 2 44.9339 69.6355 19.7456 0.0000 0.0000 0.0000
# 3 28.0822 19.7456 59.5331 0.0000 0.0000 0.0000
# 4 0.0000 0.0000 0.0000 25.7445 0.0000 0.0000
# 5 0.0000 0.0000 0.0000 0.0000 30.3310 0.0000
# 6 0.0000 0.0000 0.0000 0.0000 0.0000 27.7142
#
#
#
# Elastic Compliance Matrix: (Units=1/GPa)
#
#
# Indices 1 2 3 4 5 6 
#
# 1 0.018535 -0.010465 -0.005272 0.000000 0.000000 0.000000
# 2 -0.010465 0.021760 -0.002281 0.000000 0.000000 0.000000
# 3 -0.005272 -0.002281 0.020041 0.000000 0.000000 0.000000
# 4 0.000000 0.000000 0.000000 0.038843 0.000000 0.000000
# 5 0.000000 0.000000 0.000000 0.000000 0.032970 0.000000
# 6 0.000000 0.000000 0.000000 0.000000 0.000000 0.036083
#
#
# Mechanical properties :
#
#
# Convention : Reuss Voigt Hill
#
# Bulk Modulus (GPa) = 41.15260 44.66689 42.90975
# Shear Modulus (GPa) = 23.54409 25.00573 24.27491
#
# Velocity S-wave (km/s) = 3.48660 3.59320 3.54030
# Velocity P-wave (km/s) = 6.12018 6.34645 6.23434
#
# Compressibility (1/GPa) = 0.02429980
#
# Stress axis : x y z
#
# Youngs Moduli (GPa) = 53.95172 45.95552 49.89842
#
# Poissons Ratio (x) = 0.48094 0.26307
# Poissons Ratio (y) = 0.56462 0.11380
# Poissons Ratio (z) = 0.28444 0.10481
#
# Static dielectric constant tensor:
#      x y z
#    x 3.748540 0.000000 0.000000 
#    y 0.000000 3.369840 0.000000 
#    z 0.000000 0.000000 3.521180 
# 
# 
# High freq. dielectric constant tensor:
#      x y z
#    x 1.760530 0.000000 0.000000 
#    y 0.000000 1.736490 0.000000 
#    z 0.000000 0.000000 1.762960 
# 
# From -- ./inp_files/7222.got.cif
#   From: 2010.03.12/outbox.cif.g09.slc.cpg/sg47_4_cif.got.tgz:7222.got - 2010.04.14 03:12:58.
