data_PCOD8198352
_publ_section_title
;
Structure prediction by ZEFSAII (Michael W. Deem and Ramdas Pophale) SiO2 
 PCOD8198352
Probable space group: P M M M
;
_chemical_formula_sum "Si O2"
_cell_formula_units_Z 40
_cell_length_a 9.265724
_cell_length_b 7.968312
_cell_length_c 27.330821
_cell_angle_alpha 90.000000
_cell_angle_beta 90.000000
_cell_angle_gamma 90.000000
_cell_volume 2017.894088
_symmetry_space_group_name_H-M "P M M M"
_symmetry_group_IT_number 47
_symmetry_cell_setting 'orthorhombic'
loop_
_space_group_symop_operation_xyz
x,y,z
-x,-y,z
x,-y,-z
-x,y,-z
-x,-y,-z
x,y,-z
-x,y,z
x,-y,z
loop_
_atom_site_type_symbol
_atom_site_label
_atom_site_fract_x
_atom_site_fract_y
_atom_site_fract_z
Si Si1 0.160945 0.697405 0.905755
Si Si2 0.167522 0.687502 0.618204
Si Si3 0.333429 0.193035 0.708372
Si Si4 0.171719 0.000000 0.554822
Si Si5 0.336455 0.699157 0.186268
Si Si6 0.336784 0.197660 0.000000
O O1 0.149197 0.500000 0.900228
O O2 0.238572 0.772009 0.857593
O O3 0.000000 0.775317 0.910651
O O4 0.254784 0.738165 0.952701
O O5 0.192205 0.500000 0.596028
O O6 0.246438 0.695178 0.670139
O O7 0.000000 0.721116 0.628019
O O8 0.228342 0.830680 0.581579
O O9 0.500000 0.247027 0.705490
O O10 0.275086 0.227554 0.762953
O O11 0.310193 0.000000 0.694579
O O12 0.235658 0.000000 0.500000
O O13 0.000000 0.000000 0.552964
O O14 0.500000 0.762044 0.177366
O O15 0.330529 0.500000 0.188447
O O16 0.500000 0.269678 0.000000
O O17 0.338940 0.000000 0.000000
#
# Coordination Sequence:
#
# PCOD8198352 Si02
#       6
#     8   8   8   4   8   4
#     4  10  21  37  57  81 108 138 175 220 271 327
#     4  10  20  34  55  82 111 146 188 233 282 336
#     4  10  20  34  54  80 111 148 186 226 275 330
#     4   9  18  34  55  81 115 149 185 234 285 334
#     4   9  18  33  52  75 105 141 180 220 263 318
#     4  11  24  39  56  78 104 137 178 223 270 324
#
# _framework density 19.822645000000001
#
# number of rings (size 3 to 8) (size 9 to 14) (size 15 to 20)
#    0.000    2.200    1.000    1.800    0.000    6.400 
#    0.000    6.000    0.000    1.200    0.000    1.400 
#    0.000    0.000    0.000    0.000    0.000    0.000 
#
# Total GULP energy -496005.559837 kJ/mol
# GULP energy per Si atom -12400.138996 kJ/mol
# Density = 1.977753 g / cm^3
# Si number density = 19.822645 Si / 1000 Ang^3
#
#
#
# Elastic Constant Matrix: (Units=GPa)
#
#
# Indices 1 2 3 4 5 6 
#
# 1 92.4245 27.1628 63.8769 0.0000 0.0000 0.0000
# 2 27.1628 73.6863 48.4052 0.0000 0.0000 0.0000
# 3 63.8769 48.4052 165.1480 0.0000 0.0000 0.0000
# 4 0.0000 0.0000 0.0000 30.8153 0.0000 0.0000
# 5 0.0000 0.0000 0.0000 0.0000 58.3369 0.0000
# 6 0.0000 0.0000 0.0000 0.0000 0.0000 18.5888
#
#
#
# Elastic Compliance Matrix: (Units=1/GPa)
#
#
# Indices 1 2 3 4 5 6 
#
# 1 0.015033 -0.002133 -0.005189 0.000000 0.000000 0.000000
# 2 -0.002133 0.017110 -0.004190 0.000000 0.000000 0.000000
# 3 -0.005189 -0.004190 0.009290 0.000000 0.000000 0.000000
# 4 0.000000 0.000000 0.000000 0.032451 0.000000 0.000000
# 5 0.000000 0.000000 0.000000 0.000000 0.017142 0.000000
# 6 0.000000 0.000000 0.000000 0.000000 0.000000 0.053796
#
#
# Mechanical properties :
#
#
# Convention : Reuss Voigt Hill
#
# Bulk Modulus (GPa) = 54.32133 67.79430 61.05782
# Shear Modulus (GPa) = 28.73852 34.33579 31.53716
#
# Velocity S-wave (km/s) = 3.81173 4.16643 3.99302
# Velocity P-wave (km/s) = 6.84365 7.57761 7.21996
#
# Compressibility (1/GPa) = 0.01840897
#
# Stress axis : x y z
#
# Youngs Moduli (GPa) = 66.52049 58.44661 107.63687
#
# Poissons Ratio (x) = 0.12464 0.55858
# Poissons Ratio (y) = 0.14186 0.45100
# Poissons Ratio (z) = 0.34521 0.24489
#
# Static dielectric constant tensor:
#      x y z
#    x 3.693290 0.000000 0.000000 
#    y 0.000000 3.620080 0.000000 
#    z 0.000000 0.000000 3.695860 
# 
# 
# High freq. dielectric constant tensor:
#      x y z
#    x 1.757120 0.000000 0.000000 
#    y 0.000000 1.772860 0.000000 
#    z 0.000000 0.000000 1.775180 
# 
# From -- ./inp_files/33009.got.cif
#   From: 2010.03.12/outbox.cif.g09.slc.cpg/sg47_17_cif.got.tgz:33009.got - 2010.04.14 03:12:58.
