data_PCOD8198963
_publ_section_title
;
Structure prediction by ZEFSAII (Michael W. Deem and Ramdas Pophale) SiO2 
 PCOD8198963
Probable space group: P M M M
;
_chemical_formula_sum "Si O2"
_cell_formula_units_Z 40
_cell_length_a 9.750757
_cell_length_b 9.412139
_cell_length_c 23.849958
_cell_angle_alpha 90.000000
_cell_angle_beta 90.000000
_cell_angle_gamma 90.000000
_cell_volume 2188.841349
_symmetry_space_group_name_H-M "P M M M"
_symmetry_group_IT_number 47
_symmetry_cell_setting 'orthorhombic'
loop_
_space_group_symop_operation_xyz
x,y,z
-x,-y,z
x,-y,-z
-x,y,-z
-x,-y,-z
x,y,-z
-x,y,z
x,-y,z
loop_
_atom_site_type_symbol
_atom_site_label
_atom_site_fract_x
_atom_site_fract_y
_atom_site_fract_z
Si Si1 0.774010 0.334760 0.378394
Si Si2 0.153197 0.831440 0.062313
Si Si3 0.500000 0.666726 0.562865
Si Si4 0.000000 0.843787 0.434492
Si Si5 0.659480 0.831323 0.837086
Si Si6 0.158989 0.334444 0.749301
O O1 0.803712 0.500000 0.389622
O O2 0.625417 0.285890 0.398500
O O3 0.798845 0.298290 0.313835
O O4 0.868733 0.242652 0.417134
O O5 0.267837 0.776635 0.105720
O O6 0.000000 0.778477 0.079823
O O7 0.153727 0.000000 0.061343
O O8 0.189454 0.773745 0.000000
O O9 0.500000 0.500000 0.554059
O O10 0.500000 0.736431 0.500000
O O11 0.000000 0.861051 0.500000
O O12 0.000000 0.000000 0.406187
O O13 0.500000 0.784853 0.837980
O O14 0.739105 0.757967 0.786538
O O15 0.673273 0.000000 0.830246
O O16 0.181636 0.500000 0.762741
O O17 0.000000 0.291846 0.759450
#
# Coordination Sequence:
#
# PCOD8198963 Si02
#       6
#     8   8   4   4   8   8
#     4  10  20  37  59  81 105 139 182 224 266 316
#     4   8  14  27  49  76 106 142 183 224 264 308
#     4   9  18  32  55  85 107 129 170 221 268 314
#     4  11  23  37  55  83 115 143 174 215 268 325
#     4  10  21  34  51  80 113 145 181 218 267 327
#     4  10  21  37  56  78 103 137 184 229 271 318
#
# _framework density 18.274508999999998
#
# number of rings (size 3 to 8) (size 9 to 14) (size 15 to 20)
#    0.000    2.400    1.000    2.100    1.400    4.400 
#    0.000    2.500    0.000    2.400    0.000    4.200 
#    0.000    0.000    0.000    0.000    0.000    0.000 
#
# Total GULP energy -495817.874593 kJ/mol
# GULP energy per Si atom -12395.446865 kJ/mol
# Density = 1.823292 g / cm^3
# Si number density = 18.274509 Si / 1000 Ang^3
#
#
#
# Elastic Constant Matrix: (Units=GPa)
#
#
# Indices 1 2 3 4 5 6 
#
# 1 173.7484 43.4028 78.3370 0.0000 0.0000 0.0000
# 2 43.4028 39.3880 37.4219 0.0000 0.0000 0.0000
# 3 78.3370 37.4219 110.6167 0.0000 0.0000 0.0000
# 4 0.0000 0.0000 0.0000 2612.7210 0.0000 0.0000
# 5 0.0000 0.0000 0.0000 0.0000 42.0514 0.0000
# 6 0.0000 0.0000 0.0000 0.0000 0.0000 15.2935
#
#
#
# Elastic Compliance Matrix: (Units=1/GPa)
#
#
# Indices 1 2 3 4 5 6 
#
# 1 0.009295 -0.005878 -0.004594 0.000000 0.000000 0.000000
# 2 -0.005878 0.041131 -0.009752 0.000000 0.000000 0.000000
# 3 -0.004594 -0.009752 0.015593 0.000000 0.000000 0.000000
# 4 0.000000 0.000000 0.000000 0.000383 0.000000 0.000000
# 5 0.000000 0.000000 0.000000 0.000000 0.023780 0.000000
# 6 0.000000 0.000000 0.000000 0.000000 0.000000 0.065387
#
#
# Mechanical properties :
#
#
# Convention : Reuss Voigt Hill
#
# Bulk Modulus (GPa) = 39.10737 71.34185 55.22461
# Shear Modulus (GPa) = 24.44507 544.98595 284.71551
#
# Velocity S-wave (km/s) = 3.66137 17.28784 12.49550
# Velocity P-wave (km/s) = 6.27061 20.91928 15.44242
#
# Compressibility (1/GPa) = 0.02557063
#
# Stress axis : x y z
#
# Youngs Moduli (GPa) = 107.58402 24.31284 64.13167
#
# Poissons Ratio (x) = 0.14290 0.29463
# Poissons Ratio (y) = 0.63234 0.62542
# Poissons Ratio (z) = 0.49426 0.23710
#
# Static dielectric constant tensor:
#      x y z
#    x 3.371710 0.000000 0.000000 
#    y 0.000000 3.093630 0.000000 
#    z 0.000000 0.000000 3.597450 
# 
# 
# High freq. dielectric constant tensor:
#      x y z
#    x 1.721120 0.000000 0.000000 
#    y 0.000000 1.671200 0.000000 
#    z 0.000000 0.000000 1.719670 
# 
# From -- ./inp_files/33084.got.cif
#   From: 2010.03.12/outbox.cif.g09.slc.cpg/sg47_17_cif.got.tgz:33084.got - 2010.04.14 03:12:58.
