data_PCOD8198025
_publ_section_title
;
Structure prediction by ZEFSAII (Michael W. Deem and Ramdas Pophale) SiO2 
 PCOD8198025
Probable space group: P M M M
;
_chemical_formula_sum "Si O2"
_cell_formula_units_Z 44
_cell_length_a 14.076230
_cell_length_b 18.061868
_cell_length_c 9.163848
_cell_angle_alpha 90.000000
_cell_angle_beta 90.000000
_cell_angle_gamma 90.000000
_cell_volume 2329.844282
_symmetry_space_group_name_H-M "P M M M"
_symmetry_group_IT_number 47
_symmetry_cell_setting 'orthorhombic'
loop_
_space_group_symop_operation_xyz
x,y,z
-x,-y,z
x,-y,-z
-x,y,-z
-x,-y,-z
x,y,-z
-x,y,z
x,-y,z
loop_
_atom_site_type_symbol
_atom_site_label
_atom_site_fract_x
_atom_site_fract_y
_atom_site_fract_z
Si Si1 0.389733 0.584916 0.833107
Si Si2 0.387509 0.852952 0.831310
Si Si3 0.887071 0.079888 0.163837
Si Si4 0.613342 0.000000 0.667700
Si Si5 0.105049 0.219949 0.667333
Si Si6 0.296752 0.714566 0.669337
O O1 0.500000 0.600496 0.804354
O O2 0.364801 0.500000 0.798802
O O3 0.328807 0.634820 0.725076
O O4 0.364225 0.604247 0.000000
O O5 0.500000 0.848660 0.816177
O O6 0.346429 0.779277 0.759227
O O7 0.347813 0.926479 0.750015
O O8 0.356324 0.856789 0.000000
O O9 0.848320 0.147312 0.259055
O O10 0.000000 0.081548 0.167425
O O11 0.851532 0.000000 0.224859
O O12 0.849615 0.090831 0.000000
O O13 0.500000 0.000000 0.674754
O O14 0.648655 0.000000 0.500000
O O15 0.093611 0.199343 0.500000
O O16 0.181979 0.284573 0.691348
O O17 0.000000 0.241901 0.730559
O O18 0.324082 0.723979 0.500000
#
# Coordination Sequence:
#
# PCOD8198025 Si02
#       6
#     8   8   8   4   8   8
#     4   9  19  37  60  85 113 142 168 200 252 318
#     4  10  20  34  52  74 103 140 178 214 258 316
#     4   8  14  26  45  68  92 120 161 216 271 315
#     4   9  17  31  51  73 100 135 176 223 267 304
#     4   9  19  35  51  69  98 137 178 218 263 313
#     4  11  22  34  52  80 108 137 176 220 263 308
#
# _framework density 18.885382
#
# number of rings (size 3 to 8) (size 9 to 14) (size 15 to 20)
#    0.000    2.636    0.000    3.000    0.000    6.909 
#    1.636    2.727    0.000    0.545    0.000    3.818 
#    0.000    0.000    0.000    0.000    0.000    0.000 
#
# Total GULP energy -545430.804000 kJ/mol
# GULP energy per Si atom -12396.154636 kJ/mol
# Density = 1.884240 g / cm^3
# Si number density = 18.885382 Si / 1000 Ang^3
#
#
#
# Elastic Constant Matrix: (Units=GPa)
#
#
# Indices 1 2 3 4 5 6 
#
# 1 55.0891 52.6382 41.3638 0.0000 0.0000 0.0000
# 2 52.6382 115.5685 63.2975 0.0000 0.0000 0.0000
# 3 41.3638 63.2975 110.5540 0.0000 0.0000 0.0000
# 4 0.0000 0.0000 0.0000 -7.4127 0.0000 0.0000
# 5 0.0000 0.0000 0.0000 0.0000 13.2144 0.0000
# 6 0.0000 0.0000 0.0000 0.0000 0.0000 24.5053
#
#
#
# Elastic Compliance Matrix: (Units=1/GPa)
#
#
# Indices 1 2 3 4 5 6 
#
# 1 0.034431 -0.012568 -0.005687 0.000000 0.000000 0.000000
# 2 -0.012568 0.017193 -0.005142 0.000000 0.000000 0.000000
# 3 -0.005687 -0.005142 0.014117 0.000000 0.000000 0.000000
# 4 0.000000 0.000000 0.000000 -0.134904 0.000000 0.000000
# 5 0.000000 0.000000 0.000000 0.000000 0.075675 0.000000
# 6 0.000000 0.000000 0.000000 0.000000 0.000000 0.040808
#
#
# Mechanical properties :
#
#
# Convention : Reuss Voigt Hill
#
# Bulk Modulus (GPa) = 52.77393 66.20119 59.48756
# Shear Modulus (GPa) = 49.78684 14.32221 32.05453
#
# Velocity S-wave (km/s) = 5.14003 2.75685 4.12432
# Velocity P-wave (km/s) = 7.95182 6.72785 7.36530
#
# Compressibility (1/GPa) = 0.01894875
#
# Stress axis : x y z
#
# Youngs Moduli (GPa) = 29.04377 58.16242 70.83676
#
# Poissons Ratio (x) = 0.73096 0.40283
# Poissons Ratio (y) = 0.36501 0.36423
# Poissons Ratio (z) = 0.16516 0.29906
#
# Static dielectric constant tensor:
#      x y z
#    x 3.480550 0.000000 0.000000 
#    y 0.000000 3.466110 0.000000 
#    z 0.000000 0.000000 3.544890 
# 
# 
# High freq. dielectric constant tensor:
#      x y z
#    x 1.731570 0.000000 0.000000 
#    y 0.000000 1.715760 0.000000 
#    z 0.000000 0.000000 1.735690 
# 
# From -- ./inp_files/6196.got.cif
#   From: 2010.03.12/outbox.cif.g09.slc.cpg/sg47_4_cif.got.tgz:6196.got - 2010.04.14 03:12:58.
