data_PCOD8198650
_publ_section_title
;
Structure prediction by ZEFSAII (Michael W. Deem and Ramdas Pophale) SiO2 
 PCOD8198650
Probable space group: P M M M
;
_chemical_formula_sum "Si O2"
_cell_formula_units_Z 52
_cell_length_a 8.703939
_cell_length_b 20.683957
_cell_length_c 16.204914
_cell_angle_alpha 90.000000
_cell_angle_beta 90.000000
_cell_angle_gamma 90.000000
_cell_volume 2917.401457
_symmetry_space_group_name_H-M "P M M M"
_symmetry_group_IT_number 47
_symmetry_cell_setting 'orthorhombic'
loop_
_space_group_symop_operation_xyz
x,y,z
-x,-y,z
x,-y,-z
-x,y,-z
-x,-y,-z
x,y,-z
-x,y,z
x,-y,z
loop_
_atom_site_type_symbol
_atom_site_label
_atom_site_fract_x
_atom_site_fract_y
_atom_site_fract_z
Si Si1 0.680861 0.869094 0.347790
Si Si2 0.181925 0.000000 0.404721
Si Si3 0.822700 0.637886 0.337294
Si Si4 0.677874 0.659422 0.500000
Si Si5 0.179540 0.426610 0.170176
Si Si6 0.819735 0.795743 0.500000
Si Si7 0.821513 0.232781 0.759594
Si Si8 0.322706 0.305859 0.094631
O O1 0.500000 0.877813 0.352122
O O2 0.757902 0.938880 0.354024
O O3 0.740919 0.825207 0.420939
O O4 0.728513 0.832189 0.263738
O O5 0.242336 0.000000 0.500000
O O6 0.000000 0.000000 0.404760
O O7 0.718120 0.620022 0.416647
O O8 0.778609 0.587642 0.265421
O O9 0.786091 0.710448 0.306033
O O10 0.000000 0.631053 0.362274
O O11 0.500000 0.679636 0.500000
O O12 0.793028 0.719789 0.500000
O O13 0.224350 0.500000 0.148856
O O14 0.272568 0.379885 0.109696
O O15 0.000000 0.412979 0.156089
O O16 0.000000 0.811864 0.500000
O O17 0.773612 0.255843 0.850500
O O18 0.000000 0.215539 0.759961
O O19 0.500000 0.299012 0.118513
O O20 0.291952 0.287900 0.000000
#
# Coordination Sequence:
#
# PCOD8198650 Si02
#       8
#     8   4   8   4   8   4   8   8
#     4  12  23  35  53  78 108 143 185 227 268 313
#     4  11  23  37  53  73 109 154 191 228 266 308
#     4   9  18  32  50  70  97 130 170 218 266 312
#     4  12  22  30  46  72  98 131 175 224 271 313
#     4   9  19  36  56  76 100 134 175 215 260 319
#     4  12  22  33  49  71 103 142 182 221 266 315
#     4  10  20  35  56  78 104 138 176 217 264 319
#     4  10  21  36  55  82 113 139 167 210 264 319
#
# _framework density 17.824081
#
# number of rings (size 3 to 8) (size 9 to 14) (size 15 to 20)
#    0.000    1.615    2.308    4.846    0.000    4.615 
#    0.000    1.923    0.000    2.308    0.000    0.538 
#    0.000    4.308    0.000    0.000    0.000    0.000 
#
# Total GULP energy -644900.359116 kJ/mol
# GULP energy per Si atom -12401.929983 kJ/mol
# Density = 1.778351 g / cm^3
# Si number density = 17.824081 Si / 1000 Ang^3
#
#
#
# Elastic Constant Matrix: (Units=GPa)
#
#
# Indices 1 2 3 4 5 6 
#
# 1 82.1752 20.5237 33.3978 0.0000 0.0000 0.0000
# 2 20.5237 73.6632 24.1386 0.0000 0.0000 0.0000
# 3 33.3978 24.1386 78.2755 0.0000 0.0000 0.0000
# 4 0.0000 0.0000 0.0000 26.4155 0.0000 0.0000
# 5 0.0000 0.0000 0.0000 0.0000 29.1945 0.0000
# 6 0.0000 0.0000 0.0000 0.0000 0.0000 23.6378
#
#
#
# Elastic Compliance Matrix: (Units=1/GPa)
#
#
# Indices 1 2 3 4 5 6 
#
# 1 0.015072 -0.002327 -0.005713 0.000000 0.000000 0.000000
# 2 -0.002327 0.015461 -0.003775 0.000000 0.000000 0.000000
# 3 -0.005713 -0.003775 0.016377 0.000000 0.000000 0.000000
# 4 0.000000 0.000000 0.000000 0.037857 0.000000 0.000000
# 5 0.000000 0.000000 0.000000 0.000000 0.034253 0.000000
# 6 0.000000 0.000000 0.000000 0.000000 0.000000 0.042305
#
#
# Mechanical properties :
#
#
# Convention : Reuss Voigt Hill
#
# Bulk Modulus (GPa) = 42.95609 43.35936 43.15772
# Shear Modulus (GPa) = 25.94501 26.25315 26.09908
#
# Velocity S-wave (km/s) = 3.81939 3.84201 3.83072
# Velocity P-wave (km/s) = 6.60323 6.63780 6.62054
#
# Compressibility (1/GPa) = 0.02327959
#
# Stress axis : x y z
#
# Youngs Moduli (GPa) = 66.34664 64.68030 61.06068
#
# Poissons Ratio (x) = 0.15053 0.34886
# Poissons Ratio (y) = 0.15440 0.23049
# Poissons Ratio (z) = 0.37906 0.24416
#
# Static dielectric constant tensor:
#      x y z
#    x 3.323790 0.000000 0.000000 
#    y 0.000000 3.270420 0.000000 
#    z 0.000000 0.000000 3.264320 
# 
# 
# High freq. dielectric constant tensor:
#      x y z
#    x 1.698770 0.000000 0.000000 
#    y 0.000000 1.669280 0.000000 
#    z 0.000000 0.000000 1.677790 
# 
# From -- ./inp_files/21509.got.cif
#   From: 2010.03.12/outbox.cif.g09.slc.cpg/sg47_11_cif.got.tgz:21509.got - 2010.04.14 03:12:58.
