data_PCOD8198322
_publ_section_title
;
Structure prediction by ZEFSAII (Michael W. Deem and Ramdas Pophale) SiO2 
 PCOD8198322
Probable space group: P M M M
;
_chemical_formula_sum "Si O2"
_cell_formula_units_Z 48
_cell_length_a 9.120677
_cell_length_b 30.937862
_cell_length_c 8.997590
_cell_angle_alpha 90.000000
_cell_angle_beta 90.000000
_cell_angle_gamma 90.000000
_cell_volume 2538.888177
_symmetry_space_group_name_H-M "P M M M"
_symmetry_group_IT_number 47
_symmetry_cell_setting 'orthorhombic'
loop_
_space_group_symop_operation_xyz
x,y,z
-x,-y,z
x,-y,-z
-x,y,-z
-x,-y,-z
x,y,-z
-x,y,z
x,-y,z
loop_
_atom_site_type_symbol
_atom_site_label
_atom_site_fract_x
_atom_site_fract_y
_atom_site_fract_z
Si Si1 0.674416 0.500000 0.167782
Si Si2 0.669620 0.414331 0.674444
Si Si3 0.831709 0.832480 0.173604
Si Si4 0.169852 0.921676 0.673499
Si Si5 0.673289 0.000000 0.829586
Si Si6 0.672225 0.244625 0.328347
Si Si7 0.165238 0.669945 0.323293
O O1 0.500000 0.500000 0.177259
O O2 0.734567 0.542852 0.248351
O O3 0.732098 0.500000 0.000000
O O4 0.692801 0.420151 0.500000
O O5 0.500000 0.407115 0.714292
O O6 0.757072 0.373154 0.738209
O O7 0.785575 0.875813 0.258274
O O8 0.727343 0.794775 0.229868
O O9 0.000000 0.820261 0.208981
O O10 0.806248 0.840033 0.000000
O O11 0.205861 0.920828 0.500000
O O12 0.266791 0.957703 0.750329
O O13 0.000000 0.932200 0.703740
O O14 0.500000 0.000000 0.815664
O O15 0.725275 0.000000 0.000000
O O16 0.714262 0.236160 0.500000
O O17 0.500000 0.250234 0.307910
O O18 0.748142 0.288017 0.266747
O O19 0.168497 0.668819 0.500000
O O20 0.000000 0.671891 0.261655
#
# Coordination Sequence:
#
# PCOD8198322 Si02
#       7
#     4   8   8   8   4   8   8
#     4   9  17  29  46  69  96 126 160 199 246 300
#     4   9  16  28  48  72  96 124 162 206 249 297
#     4  10  21  37  57  81 109 142 179 219 265 316
#     4  10  21  38  61  86 110 141 183 226 268 317
#     4  11  24  39  56  82 116 151 184 221 268 318
#     4  10  20  34  54  80 108 139 175 215 261 313
#     4   9  17  30  50  75 101 130 167 212 258 303
#
# _framework density 18.905912000000001
#
# number of rings (size 3 to 8) (size 9 to 14) (size 15 to 20)
#    0.000    2.333    0.000    2.750    0.000    8.333 
#    0.000    1.250    0.000    6.000    0.000    0.000 
#    0.000    0.000    0.000    0.000    0.000    0.000 
#
# Total GULP energy -595344.437536 kJ/mol
# GULP energy per Si atom -12403.009115 kJ/mol
# Density = 1.886288 g / cm^3
# Si number density = 18.905912 Si / 1000 Ang^3
#
#
#
# Elastic Constant Matrix: (Units=GPa)
#
#
# Indices 1 2 3 4 5 6 
#
# 1 85.6943 71.3261 42.5820 0.0000 0.0000 0.0000
# 2 71.3261 174.5652 65.4314 0.0000 0.0000 0.0000
# 3 42.5820 65.4314 82.7864 0.0000 0.0000 0.0000
# 4 0.0000 0.0000 0.0000 -40.5087 0.0000 0.0000
# 5 0.0000 0.0000 0.0000 0.0000 21.9133 0.0000
# 6 0.0000 0.0000 0.0000 0.0000 0.0000 34.4263
#
#
#
# Elastic Compliance Matrix: (Units=1/GPa)
#
#
# Indices 1 2 3 4 5 6 
#
# 1 0.019142 -0.005870 -0.005207 0.000000 0.000000 0.000000
# 2 -0.005870 0.009940 -0.004837 0.000000 0.000000 0.000000
# 3 -0.005207 -0.004837 0.018580 0.000000 0.000000 0.000000
# 4 0.000000 0.000000 0.000000 -0.024686 0.000000 0.000000
# 5 0.000000 0.000000 0.000000 0.000000 0.045634 0.000000
# 6 0.000000 0.000000 0.000000 0.000000 0.000000 0.029048
#
#
# Mechanical properties :
#
#
# Convention : Reuss Voigt Hill
#
# Bulk Modulus (GPa) = 63.14898 77.96941 70.55920
# Shear Modulus (GPa) = 37.10195 14.07994 25.59094
#
# Velocity S-wave (km/s) = 4.43476 2.73195 3.68311
# Velocity P-wave (km/s) = 7.72639 7.16112 7.44912
#
# Compressibility (1/GPa) = 0.01583557
#
# Stress axis : x y z
#
# Youngs Moduli (GPa) = 52.24046 100.60503 53.82025
#
# Poissons Ratio (x) = 0.59053 0.28023
# Poissons Ratio (y) = 0.30664 0.26033
# Poissons Ratio (z) = 0.27200 0.48662
#
# Static dielectric constant tensor:
#      x y z
#    x 3.392980 0.000000 0.000000 
#    y 0.000000 3.490040 0.000000 
#    z 0.000000 0.000000 3.339670 
# 
# 
# High freq. dielectric constant tensor:
#      x y z
#    x 1.724150 0.000000 0.000000 
#    y 0.000000 1.752050 0.000000 
#    z 0.000000 0.000000 1.718680 
# 
# From -- ./inp_files/2553.got.cif
#   From: 2010.03.12/outbox.cif.g09.slc.cpg/sg47_2_cif.got.tgz:2553.got - 2010.04.14 03:12:58.
