data_PCOD8198006
_publ_section_title
;
Structure prediction by ZEFSAII (Michael W. Deem and Ramdas Pophale) SiO2 
 PCOD8198006
Probable space group: P M M M
;
_chemical_formula_sum "Si O2"
_cell_formula_units_Z 44
_cell_length_a 13.454155
_cell_length_b 9.110830
_cell_length_c 19.233407
_cell_angle_alpha 90.000000
_cell_angle_beta 90.000000
_cell_angle_gamma 90.000000
_cell_volume 2357.602545
_symmetry_space_group_name_H-M "P M M M"
_symmetry_group_IT_number 47
_symmetry_cell_setting 'orthorhombic'
loop_
_space_group_symop_operation_xyz
x,y,z
-x,-y,z
x,-y,-z
-x,y,-z
-x,-y,-z
x,y,-z
-x,y,z
x,-y,z
loop_
_atom_site_type_symbol
_atom_site_label
_atom_site_fract_x
_atom_site_fract_y
_atom_site_fract_z
Si Si1 0.615576 0.666176 0.288942
Si Si2 0.321024 0.827493 0.157645
Si Si3 0.107963 0.826227 0.813246
Si Si4 0.726125 0.328207 0.576725
Si Si5 0.500000 0.669122 0.081949
Si Si6 0.886778 0.164806 0.342166
O O1 0.500000 0.677511 0.275546
O O2 0.652925 0.500000 0.273582
O O3 0.666943 0.781736 0.237752
O O4 0.639629 0.711937 0.368164
O O5 0.204908 0.786421 0.139085
O O6 0.398846 0.742115 0.109567
O O7 0.341163 0.000000 0.148821
O O8 0.123105 0.764389 0.735127
O O9 0.000000 0.769312 0.843447
O O10 0.101386 0.000000 0.806256
O O11 0.696973 0.267687 0.500000
O O12 0.742505 0.500000 0.572722
O O13 0.828910 0.260058 0.601827
O O14 0.500000 0.500000 0.105754
O O15 0.500000 0.686594 0.000000
O O16 0.000000 0.165378 0.366541
O O17 0.843456 0.000000 0.342394
#
# Coordination Sequence:
#
# PCOD8198006 Si02
#       6
#     8   8   8   8   4   8
#     4  10  20  34  52  73 101 139 180 223 275 336
#     4  11  20  33  60  90 114 143 182 230 270 314
#     4   8  15  29  51  81 113 142 175 222 278 326
#     4  10  21  34  47  67  98 137 182 231 278 327
#     4  11  25  43  61  85 122 159 182 209 259 320
#     4   9  17  31  50  70  96 132 175 222 274 333
#
# _framework density 18.663027
#
# number of rings (size 3 to 8) (size 9 to 14) (size 15 to 20)
#    0.000    2.273    2.727    1.909    0.000    2.182 
#    0.000    3.636    0.000    2.727    0.000    6.364 
#    0.000    0.000    0.000    0.000    0.000    0.000 
#
# Total GULP energy -545183.152896 kJ/mol
# GULP energy per Si atom -12390.526202 kJ/mol
# Density = 1.862055 g / cm^3
# Si number density = 18.663027 Si / 1000 Ang^3
#
#
#
# Elastic Constant Matrix: (Units=GPa)
#
#
# Indices 1 2 3 4 5 6 
#
# 1 126.7610 43.3376 46.1647 0.0000 0.0000 0.0000
# 2 43.3376 51.7459 30.0863 0.0000 0.0000 0.0000
# 3 46.1647 30.0863 63.4430 0.0000 0.0000 0.0000
# 4 0.0000 0.0000 0.0000 18.1193 0.0000 0.0000
# 5 0.0000 0.0000 0.0000 0.0000 19.1082 0.0000
# 6 0.0000 0.0000 0.0000 0.0000 0.0000 23.5187
#
#
#
# Elastic Compliance Matrix: (Units=1/GPa)
#
#
# Indices 1 2 3 4 5 6 
#
# 1 0.012361 -0.007073 -0.005640 0.000000 0.000000 0.000000
# 2 -0.007073 0.030729 -0.009426 0.000000 0.000000 0.000000
# 3 -0.005640 -0.009426 0.024336 0.000000 0.000000 0.000000
# 4 0.000000 0.000000 0.000000 0.055190 0.000000 0.000000
# 5 0.000000 0.000000 0.000000 0.000000 0.052334 0.000000
# 6 0.000000 0.000000 0.000000 0.000000 0.000000 0.042519
#
#
# Mechanical properties :
#
#
# Convention : Reuss Voigt Hill
#
# Bulk Modulus (GPa) = 43.19986 53.45856 48.32921
# Shear Modulus (GPa) = 18.55528 20.30664 19.43096
#
# Velocity S-wave (km/s) = 3.15656 3.30217 3.23018
# Velocity P-wave (km/s) = 6.04009 6.57612 6.31380
#
# Compressibility (1/GPa) = 0.02314822
#
# Stress axis : x y z
#
# Youngs Moduli (GPa) = 80.89802 32.54206 41.09055
#
# Poissons Ratio (x) = 0.23017 0.23177
# Poissons Ratio (y) = 0.57220 0.38731
# Poissons Ratio (z) = 0.45630 0.30674
#
# Static dielectric constant tensor:
#      x y z
#    x 3.780370 0.000000 0.000000 
#    y 0.000000 3.305810 0.000000 
#    z 0.000000 0.000000 3.291120 
# 
# 
# High freq. dielectric constant tensor:
#      x y z
#    x 1.739670 0.000000 0.000000 
#    y 0.000000 1.704440 0.000000 
#    z 0.000000 0.000000 1.694050 
# 
# From -- ./inp_files/24310.got.cif
#   From: 2010.03.12/outbox.cif.g09.slc.cpg/sg47_13_cif.got.tgz:24310.got - 2010.04.14 03:12:58.
