data_PCOD8198826
_publ_section_title
;
Structure prediction by ZEFSAII (Michael W. Deem and Ramdas Pophale) SiO2 
 PCOD8198826
Probable space group: P M M M
;
_chemical_formula_sum "Si O2"
_cell_formula_units_Z 40
_cell_length_a 8.032931
_cell_length_b 9.304747
_cell_length_c 26.878780
_cell_angle_alpha 90.000000
_cell_angle_beta 90.000000
_cell_angle_gamma 90.000000
_cell_volume 2009.038032
_symmetry_space_group_name_H-M "P M M M"
_symmetry_group_IT_number 47
_symmetry_cell_setting 'orthorhombic'
loop_
_space_group_symop_operation_xyz
x,y,z
-x,-y,z
x,-y,-z
-x,y,-z
-x,-y,-z
x,y,-z
-x,y,z
x,-y,z
loop_
_atom_site_type_symbol
_atom_site_label
_atom_site_fract_x
_atom_site_fract_y
_atom_site_fract_z
Si Si1 0.307376 0.331955 0.000000
Si Si2 0.190025 0.663778 0.289343
Si Si3 0.309508 0.836295 0.199689
Si Si4 0.313054 0.833043 0.380057
Si Si5 0.807958 0.161360 0.906126
Si Si6 0.000000 0.829379 0.444359
O O1 0.224470 0.267533 0.951207
O O2 0.272631 0.500000 0.000000
O O3 0.500000 0.292958 0.000000
O O4 0.252270 0.500000 0.286337
O O5 0.202722 0.734099 0.235054
O O6 0.303573 0.748338 0.328420
O O7 0.000000 0.672398 0.307398
O O8 0.500000 0.823939 0.216041
O O9 0.291220 0.785489 0.142565
O O10 0.244406 0.000000 0.204804
O O11 0.500000 0.809983 0.402485
O O12 0.169802 0.775525 0.417516
O O13 0.281969 0.000000 0.368225
O O14 0.000000 0.164260 0.891805
O O15 0.751715 0.000000 0.921367
O O16 0.000000 0.764650 0.500000
O O17 0.000000 0.000000 0.446543
#
# Coordination Sequence:
#
# PCOD8198826 Si02
#       6
#     4   8   8   8   8   4
#     4  11  24  39  56  80 110 145 182 223 274 330
#     4  11  23  37  55  81 114 153 193 234 284 340
#     4  10  21  37  58  84 112 144 184 230 282 339
#     4  10  20  35  58  86 115 152 195 237 287 345
#     4  10  21  38  60  84 108 139 181 227 276 332
#     4   9  18  34  57  87 121 153 189 240 293 336
#
# _framework density 19.910025999999998
#
# number of rings (size 3 to 8) (size 9 to 14) (size 15 to 20)
#    0.000    1.800    1.000    3.000    0.000    9.600 
#    0.000    2.000    0.000    1.200    0.000    1.400 
#    0.000    0.000    0.000    0.000    0.000    0.000 
#
# Total GULP energy -496105.041448 kJ/mol
# GULP energy per Si atom -12402.626036 kJ/mol
# Density = 1.986471 g / cm^3
# Si number density = 19.910026 Si / 1000 Ang^3
#
#
#
# Elastic Constant Matrix: (Units=GPa)
#
#
# Indices 1 2 3 4 5 6 
#
# 1 100.8049 35.1651 41.6867 0.0000 0.0000 0.0000
# 2 35.1651 74.4076 48.0487 0.0000 0.0000 0.0000
# 3 41.6867 48.0487 123.3493 0.0000 0.0000 0.0000
# 4 0.0000 0.0000 0.0000 7.6690 0.0000 0.0000
# 5 0.0000 0.0000 0.0000 0.0000 29.6613 0.0000
# 6 0.0000 0.0000 0.0000 0.0000 0.0000 22.7611
#
#
#
# Elastic Compliance Matrix: (Units=1/GPa)
#
#
# Indices 1 2 3 4 5 6 
#
# 1 0.012456 -0.004233 -0.002561 0.000000 0.000000 0.000000
# 2 -0.004233 0.019395 -0.006124 0.000000 0.000000 0.000000
# 3 -0.002561 -0.006124 0.011358 0.000000 0.000000 0.000000
# 4 0.000000 0.000000 0.000000 0.130396 0.000000 0.000000
# 5 0.000000 0.000000 0.000000 0.000000 0.033714 0.000000
# 6 0.000000 0.000000 0.000000 0.000000 0.000000 0.043935
#
#
# Mechanical properties :
#
#
# Convention : Reuss Voigt Hill
#
# Bulk Modulus (GPa) = 57.56186 60.92923 59.24555
# Shear Modulus (GPa) = 17.67535 23.59569 20.63552
#
# Velocity S-wave (km/s) = 2.98276 3.44629 3.22287
# Velocity P-wave (km/s) = 6.39033 6.81943 6.60836
#
# Compressibility (1/GPa) = 0.01737261
#
# Stress axis : x y z
#
# Youngs Moduli (GPa) = 80.28433 51.56001 88.04323
#
# Poissons Ratio (x) = 0.21826 0.22544
# Poissons Ratio (y) = 0.33985 0.53921
# Poissons Ratio (z) = 0.20557 0.31577
#
# Static dielectric constant tensor:
#      x y z
#    x 3.742890 0.000000 0.000000 
#    y 0.000000 3.454320 0.000000 
#    z 0.000000 0.000000 3.544650 
# 
# 
# High freq. dielectric constant tensor:
#      x y z
#    x 1.789370 0.000000 0.000000 
#    y 0.000000 1.755400 0.000000 
#    z 0.000000 0.000000 1.773070 
# 
# From -- ./inp_files/33038.got.cif
#   From: 2010.03.12/outbox.cif.g09.slc.cpg/sg47_17_cif.got.tgz:33038.got - 2010.04.14 03:12:58.
