data_PCOD8198684
_publ_section_title
;
Structure prediction by ZEFSAII (Michael W. Deem and Ramdas Pophale) SiO2 
 PCOD8198684
Probable space group: P M M M
;
_chemical_formula_sum "Si O2"
_cell_formula_units_Z 48
_cell_length_a 9.858707
_cell_length_b 9.019290
_cell_length_c 28.934747
_cell_angle_alpha 90.000000
_cell_angle_beta 90.000000
_cell_angle_gamma 90.000000
_cell_volume 2572.835385
_symmetry_space_group_name_H-M "P M M M"
_symmetry_group_IT_number 47
_symmetry_cell_setting 'orthorhombic'
loop_
_space_group_symop_operation_xyz
x,y,z
-x,-y,z
x,-y,-z
-x,y,-z
-x,-y,-z
x,y,-z
-x,y,z
x,-y,z
loop_
_atom_site_type_symbol
_atom_site_label
_atom_site_fract_x
_atom_site_fract_y
_atom_site_fract_z
Si Si1 0.655850 0.324642 0.124717
Si Si2 0.760847 0.324200 0.606101
Si Si3 0.844528 0.673126 0.791123
Si Si4 0.847312 0.171872 0.053898
Si Si5 0.000000 0.169289 0.554727
Si Si6 0.841686 0.828876 0.303742
Si Si7 0.500000 0.675011 0.551408
O O1 0.500000 0.266667 0.127761
O O2 0.657497 0.500000 0.120657
O O3 0.741452 0.272616 0.169317
O O4 0.730723 0.261542 0.079911
O O5 0.778660 0.500000 0.608969
O O6 0.758835 0.259569 0.657681
O O7 0.626169 0.270948 0.580949
O O8 0.873069 0.254706 0.574018
O O9 0.827095 0.500000 0.780454
O O10 0.802991 0.763153 0.745807
O O11 0.000000 0.708516 0.805959
O O12 0.000000 0.225026 0.067645
O O13 0.831454 0.000000 0.066310
O O14 0.823659 0.199768 0.000000
O O15 0.000000 0.177152 0.500000
O O16 0.000000 0.000000 0.572672
O O17 0.000000 0.806537 0.314383
O O18 0.799703 0.000000 0.304602
O O19 0.500000 0.500000 0.546008
O O20 0.500000 0.746946 0.500000
#
# Coordination Sequence:
#
# PCOD8198684 Si02
#       7
#     8   8   8   8   4   8   4
#     4  10  21  36  54  81 116 150 185 231 283 333
#     4  11  21  36  60  84 109 144 185 227 273 327
#     4   9  18  34  56  78 103 140 187 230 272 326
#     4   9  19  36  57  81 110 147 192 238 282 333
#     4  11  23  37  55  83 117 147 179 225 276 325
#     4  10  20  35  56  82 113 142 176 226 279 329
#     4   9  20  38  57  81 111 141 181 229 270 317
#
# _framework density 18.656459999999999
#
# number of rings (size 3 to 8) (size 9 to 14) (size 15 to 20)
#    0.000    2.167    0.833    2.750    0.000    4.667 
#    1.500    5.833    0.000    3.000    0.000    0.000 
#    0.000    0.000    0.000    0.000    0.000    0.000 
#
# Total GULP energy -595213.589840 kJ/mol
# GULP energy per Si atom -12400.283122 kJ/mol
# Density = 1.861400 g / cm^3
# Si number density = 18.656460 Si / 1000 Ang^3
#
#
#
# Elastic Constant Matrix: (Units=GPa)
#
#
# Indices 1 2 3 4 5 6 
#
# 1 150.6647 45.4732 80.7349 0.0000 0.0000 0.0000
# 2 45.4732 67.5815 50.5064 0.0000 0.0000 0.0000
# 3 80.7349 50.5064 125.4808 0.0000 0.0000 0.0000
# 4 0.0000 0.0000 0.0000 30.9353 0.0000 0.0000
# 5 0.0000 0.0000 0.0000 0.0000 36.8062 0.0000
# 6 0.0000 0.0000 0.0000 0.0000 0.0000 22.1177
#
#
#
# Elastic Compliance Matrix: (Units=1/GPa)
#
#
# Indices 1 2 3 4 5 6 
#
# 1 0.010509 -0.002886 -0.005600 0.000000 0.000000 0.000000
# 2 -0.002886 0.021956 -0.006980 0.000000 0.000000 0.000000
# 3 -0.005600 -0.006980 0.014382 0.000000 0.000000 0.000000
# 4 0.000000 0.000000 0.000000 0.032326 0.000000 0.000000
# 5 0.000000 0.000000 0.000000 0.000000 0.027169 0.000000
# 6 0.000000 0.000000 0.000000 0.000000 0.000000 0.045213
#
#
# Mechanical properties :
#
#
# Convention : Reuss Voigt Hill
#
# Bulk Modulus (GPa) = 62.83776 77.46176 70.14976
# Shear Modulus (GPa) = 26.62531 29.10601 27.86566
#
# Velocity S-wave (km/s) = 3.78184 3.95410 3.86893
# Velocity P-wave (km/s) = 7.26804 7.90296 7.59214
#
# Compressibility (1/GPa) = 0.01591400
#
# Stress axis : x y z
#
# Youngs Moduli (GPa) = 95.15555 45.54662 69.53184
#
# Poissons Ratio (x) = 0.13145 0.38937
# Poissons Ratio (y) = 0.27463 0.48535
# Poissons Ratio (z) = 0.53286 0.31792
#
# Static dielectric constant tensor:
#      x y z
#    x 3.503610 0.000000 0.000000 
#    y 0.000000 3.350740 0.000000 
#    z 0.000000 0.000000 3.495290 
# 
# 
# High freq. dielectric constant tensor:
#      x y z
#    x 1.719520 0.000000 0.000000 
#    y 0.000000 1.717990 0.000000 
#    z 0.000000 0.000000 1.736930 
# 
# From -- ./inp_files/2541.got.cif
#   From: 2010.03.12/outbox.cif.g09.slc.cpg/sg47_2_cif.got.tgz:2541.got - 2010.04.14 03:12:58.
