data_PCOD8198599
_publ_section_title
;
Structure prediction by ZEFSAII (Michael W. Deem and Ramdas Pophale) SiO2 
 PCOD8198599
Probable space group: P M M M
;
_chemical_formula_sum "Si O2"
_cell_formula_units_Z 52
_cell_length_a 9.066286
_cell_length_b 29.638655
_cell_length_c 10.709095
_cell_angle_alpha 90.000000
_cell_angle_beta 90.000000
_cell_angle_gamma 90.000000
_cell_volume 2877.667935
_symmetry_space_group_name_H-M "P M M M"
_symmetry_group_IT_number 47
_symmetry_cell_setting 'orthorhombic'
loop_
_space_group_symop_operation_xyz
x,y,z
-x,-y,z
x,-y,-z
-x,y,-z
-x,-y,-z
x,y,-z
-x,y,z
x,-y,z
loop_
_atom_site_type_symbol
_atom_site_label
_atom_site_fract_x
_atom_site_fract_y
_atom_site_fract_z
Si Si1 0.327939 0.388794 0.707880
Si Si2 0.835239 0.049222 0.852175
Si Si3 0.326980 0.792445 0.643030
Si Si4 0.326215 0.137988 0.142844
Si Si5 0.832641 0.300750 0.645378
Si Si6 0.161814 0.450903 0.855747
Si Si7 0.174179 0.447777 0.500000
O O1 0.500000 0.386707 0.676324
O O2 0.264978 0.338362 0.712855
O O3 0.289415 0.413093 0.837785
O O4 0.240875 0.422290 0.617592
O O5 0.729750 0.089479 0.808317
O O6 0.000000 0.058435 0.801097
O O7 0.779329 0.000000 0.802796
O O8 0.837986 0.047880 0.000000
O O9 0.292406 0.809239 0.500000
O O10 0.500000 0.782564 0.656189
O O11 0.272829 0.827016 0.750687
O O12 0.238549 0.747356 0.673237
O O13 0.500000 0.135949 0.139973
O O14 0.269273 0.149498 0.000000
O O15 0.829422 0.312242 0.500000
O O16 0.000000 0.300892 0.696338
O O17 0.202956 0.500000 0.795452
O O18 0.000000 0.435842 0.802110
O O19 0.146422 0.458094 0.000000
O O20 0.222174 0.500000 0.500000
O O21 0.000000 0.441905 0.500000
#
# Coordination Sequence:
#
# PCOD8198599 Si02
#       7
#     8   8   8   8   8   8   4
#     4  12  23  34  53  79 106 132 161 203 253 300
#     4   8  14  25  42  66  97 132 168 206 249 297
#     4   9  18  33  52  72  97 129 166 207 255 309
#     4   9  17  29  47  73 102 130 162 206 257 303
#     4  10  20  35  55  75  97 128 168 209 248 295
#     4   9  19  37  58  76  98 133 172 205 241 291
#     4  11  23  37  53  75 105 137 165 197 242 297
#
# _framework density 18.070187000000001
#
# number of rings (size 3 to 8) (size 9 to 14) (size 15 to 20)
#    0.000    2.385    0.769    3.462    0.000    4.615 
#    0.000    3.077    0.000    3.231    0.000    3.231 
#    0.000    0.000    0.000    0.000    0.000    0.000 
#
# Total GULP energy -644241.510994 kJ/mol
# GULP energy per Si atom -12389.259827 kJ/mol
# Density = 1.802906 g / cm^3
# Si number density = 18.070187 Si / 1000 Ang^3
#
#
#
# Elastic Constant Matrix: (Units=GPa)
#
#
# Indices 1 2 3 4 5 6 
#
# 1 75.8434 59.7730 27.6941 0.0000 0.0000 0.0000
# 2 59.7730 144.8563 53.5468 0.0000 0.0000 0.0000
# 3 27.6941 53.5468 61.8393 0.0000 0.0000 0.0000
# 4 0.0000 0.0000 0.0000 46.3311 0.0000 0.0000
# 5 0.0000 0.0000 0.0000 0.0000 6.3040 0.0000
# 6 0.0000 0.0000 0.0000 0.0000 0.0000 35.7327
#
#
#
# Elastic Compliance Matrix: (Units=1/GPa)
#
#
# Indices 1 2 3 4 5 6 
#
# 1 0.019828 -0.007206 -0.002640 0.000000 0.000000 0.000000
# 2 -0.007206 0.012772 -0.007832 0.000000 0.000000 0.000000
# 3 -0.002640 -0.007832 0.024135 0.000000 0.000000 0.000000
# 4 0.000000 0.000000 0.000000 0.021584 0.000000 0.000000
# 5 0.000000 0.000000 0.000000 0.000000 0.158629 0.000000
# 6 0.000000 0.000000 0.000000 0.000000 0.000000 0.027986
#
#
# Mechanical properties :
#
#
# Convention : Reuss Voigt Hill
#
# Bulk Modulus (GPa) = 46.77542 62.72963 54.75253
# Shear Modulus (GPa) = 16.26455 27.10858 21.68656
#
# Velocity S-wave (km/s) = 3.00338 3.87742 3.46805
# Velocity P-wave (km/s) = 6.16187 7.40511 6.81191
#
# Compressibility (1/GPa) = 0.02137875
#
# Stress axis : x y z
#
# Youngs Moduli (GPa) = 50.43343 78.29631 41.43306
#
# Poissons Ratio (x) = 0.56419 0.10940
# Poissons Ratio (y) = 0.36341 0.32451
# Poissons Ratio (z) = 0.13316 0.61324
#
# Static dielectric constant tensor:
#      x y z
#    x 3.344040 0.000000 0.000000 
#    y 0.000000 3.558710 0.000000 
#    z 0.000000 0.000000 3.751510 
# 
# 
# High freq. dielectric constant tensor:
#      x y z
#    x 1.696900 0.000000 0.000000 
#    y 0.000000 1.703960 0.000000 
#    z 0.000000 0.000000 1.673860 
# 
# From -- ./inp_files/13267.got.cif
#   From: 2010.03.12/outbox.cif.g09.slc.cpg/sg47_7_cif.got.tgz:13267.got - 2010.04.14 03:12:58.
