data_PCOD8198982
_publ_section_title
;
Structure prediction by ZEFSAII (Michael W. Deem and Ramdas Pophale) SiO2 
 PCOD8198982
Probable space group: P M M M
;
_chemical_formula_sum "Si O2"
_cell_formula_units_Z 44
_cell_length_a 9.373234
_cell_length_b 7.683586
_cell_length_c 31.580142
_cell_angle_alpha 90.000000
_cell_angle_beta 90.000000
_cell_angle_gamma 90.000000
_cell_volume 2274.403391
_symmetry_space_group_name_H-M "P M M M"
_symmetry_group_IT_number 47
_symmetry_cell_setting 'orthorhombic'
loop_
_space_group_symop_operation_xyz
x,y,z
-x,-y,z
x,-y,-z
-x,y,-z
-x,-y,-z
x,y,-z
-x,y,z
x,-y,z
loop_
_atom_site_type_symbol
_atom_site_label
_atom_site_fract_x
_atom_site_fract_y
_atom_site_fract_z
Si Si1 0.340306 0.793626 0.546436
Si Si2 0.658234 0.301609 0.079887
Si Si3 0.831778 0.198937 0.626627
Si Si4 0.831243 0.500000 0.687631
Si Si5 0.837970 0.204328 0.000000
Si Si6 0.334996 0.195338 0.171011
Si Si7 0.829236 0.500000 0.216301
O O1 0.290652 0.724431 0.500000
O O2 0.500000 0.725860 0.556065
O O3 0.235426 0.727549 0.583123
O O4 0.338832 0.000000 0.545732
O O5 0.500000 0.245993 0.064277
O O6 0.659223 0.500000 0.094913
O O7 0.766821 0.278077 0.041897
O O8 0.703469 0.192053 0.121052
O O9 0.777108 0.324460 0.664259
O O10 0.000000 0.210257 0.620860
O O11 0.784030 0.000000 0.636763
O O12 0.774323 0.500000 0.735387
O O13 0.000000 0.500000 0.687861
O O14 0.000000 0.268373 0.000000
O O15 0.823561 0.000000 0.000000
O O16 0.500000 0.252799 0.177114
O O17 0.231017 0.325802 0.195169
O O18 0.309750 0.000000 0.188526
O O19 0.000000 0.500000 0.212263
#
# Coordination Sequence:
#
# PCOD8198982 Si02
#       7
#     8   8   8   4   4   8   4
#     4   8  14  26  45  70 102 137 170 209 260 314
#     4  10  20  37  61  84 109 147 194 235 274 329
#     4   9  17  31  52  74  98 133 177 220 258 306
#     4   9  20  37  54  76 106 139 174 216 272 330
#     4  11  24  37  50  78 120 157 190 232 279 327
#     4  10  21  40  65  89 116 151 191 237 286 339
#     4  11  23  39  61  87 117 149 184 234 291 352
#
# _framework density 19.345732999999999
#
# number of rings (size 3 to 8) (size 9 to 14) (size 15 to 20)
#    0.000    2.455    0.909    1.909    0.000    5.091 
#    0.000    6.364    0.000    4.909    0.000    0.000 
#    0.000    0.000    0.000    0.000    0.000    0.000 
#
# Total GULP energy -545463.105690 kJ/mol
# GULP energy per Si atom -12396.888766 kJ/mol
# Density = 1.930170 g / cm^3
# Si number density = 19.345733 Si / 1000 Ang^3
#
#
#
# Elastic Constant Matrix: (Units=GPa)
#
#
# Indices 1 2 3 4 5 6 
#
# 1 76.9942 42.6640 61.1614 0.0000 0.0000 0.0000
# 2 42.6640 97.2220 56.3086 0.0000 0.0000 0.0000
# 3 61.1614 56.3086 138.5657 0.0000 0.0000 0.0000
# 4 0.0000 0.0000 0.0000 11.4917 0.0000 0.0000
# 5 0.0000 0.0000 0.0000 0.0000 13.5965 0.0000
# 6 0.0000 0.0000 0.0000 0.0000 0.0000 17.8322
#
#
#
# Elastic Compliance Matrix: (Units=1/GPa)
#
#
# Indices 1 2 3 4 5 6 
#
# 1 0.021867 -0.005239 -0.007523 0.000000 0.000000 0.000000
# 2 -0.005239 0.014707 -0.003664 0.000000 0.000000 0.000000
# 3 -0.007523 -0.003664 0.012026 0.000000 0.000000 0.000000
# 4 0.000000 0.000000 0.000000 0.087019 0.000000 0.000000
# 5 0.000000 0.000000 0.000000 0.000000 0.073548 0.000000
# 6 0.000000 0.000000 0.000000 0.000000 0.000000 0.056078
#
#
# Mechanical properties :
#
#
# Convention : Reuss Voigt Hill
#
# Bulk Modulus (GPa) = 63.49822 70.33889 66.91856
# Shear Modulus (GPa) = 16.48281 18.76061 17.62171
#
# Velocity S-wave (km/s) = 2.92209 3.11747 3.02136
# Velocity P-wave (km/s) = 6.65424 7.02822 6.84379
#
# Compressibility (1/GPa) = 0.01574847
#
# Stress axis : x y z
#
# Youngs Moduli (GPa) = 45.73145 67.99588 83.15125
#
# Poissons Ratio (x) = 0.35621 0.62554
# Poissons Ratio (y) = 0.23957 0.30467
# Poissons Ratio (z) = 0.34403 0.24914
#
# Static dielectric constant tensor:
#      x y z
#    x 3.455540 0.000000 0.000000 
#    y 0.000000 3.589590 0.000000 
#    z 0.000000 0.000000 3.691560 
# 
# 
# High freq. dielectric constant tensor:
#      x y z
#    x 1.735590 0.000000 0.000000 
#    y 0.000000 1.755760 0.000000 
#    z 0.000000 0.000000 1.750370 
# 
# From -- ./inp_files/33991.got.cif
#   From: 2010.03.12/outbox.cif.g09.slc.cpg/sg47_17_cif.got.tgz:33991.got - 2010.04.14 03:12:58.
