data_PCOD8198566
_publ_section_title
;
Structure prediction by ZEFSAII (Michael W. Deem and Ramdas Pophale) SiO2 
 PCOD8198566
Probable space group: P M M M
;
_chemical_formula_sum "Si O2"
_cell_formula_units_Z 52
_cell_length_a 7.862127
_cell_length_b 17.356935
_cell_length_c 23.818113
_cell_angle_alpha 90.000000
_cell_angle_beta 90.000000
_cell_angle_gamma 90.000000
_cell_volume 3250.277514
_symmetry_space_group_name_H-M "P M M M"
_symmetry_group_IT_number 47
_symmetry_cell_setting 'orthorhombic'
loop_
_space_group_symop_operation_xyz
x,y,z
-x,-y,z
x,-y,-z
-x,y,-z
-x,-y,-z
x,y,-z
-x,y,z
x,-y,z
loop_
_atom_site_type_symbol
_atom_site_label
_atom_site_fract_x
_atom_site_fract_y
_atom_site_fract_z
Si Si1 0.500000 0.909617 0.174188
Si Si2 0.701628 0.678107 0.275860
Si Si3 0.800756 0.587689 0.500000
Si Si4 0.500000 0.812796 0.061203
Si Si5 0.189186 0.820391 0.784756
Si Si6 0.701404 0.586944 0.166434
Si Si7 0.697491 0.413704 0.381415
Si Si8 0.188500 0.725050 0.897868
O O1 0.500000 0.874032 0.111542
O O2 0.667245 0.886208 0.209971
O O3 0.500000 0.000000 0.165970
O O4 0.500000 0.687083 0.276710
O O5 0.778815 0.763831 0.268137
O O6 0.760540 0.621339 0.226093
O O7 0.775230 0.641845 0.333621
O O8 0.735692 0.500000 0.500000
O O9 0.729594 0.625367 0.557436
O O10 0.000000 0.595670 0.500000
O O11 0.667405 0.758848 0.061683
O O12 0.500000 0.854608 0.000000
O O13 0.205942 0.768236 0.839229
O O14 0.000000 0.857540 0.779767
O O15 0.500000 0.591347 0.161310
O O16 0.769037 0.500000 0.162031
O O17 0.781449 0.634791 0.114797
O O18 0.500000 0.421527 0.369180
O O19 0.780122 0.500000 0.378676
O O20 0.000000 0.736721 0.924301
#
# Coordination Sequence:
#
# PCOD8198566 Si02
#       8
#     4   8   4   4   8   8   8   8
#     4  10  20  35  54  75  99 121 141 168 204 256
#     4   9  15  25  41  63  90 117 149 190 232 271
#     4   9  17  27  35  45  71 115 163 208 247 278
#     4  10  20  35  53  72  92 115 146 180 212 248
#     4   9  17  30  48  69  94 122 148 175 214 265
#     4   9  15  24  41  64  89 115 145 186 233 274
#     4   9  16  25  38  56  80 116 162 205 241 274
#     4   9  17  30  47  66  89 119 151 181 219 265
#
# _framework density 15.998633
#
# number of rings (size 3 to 8) (size 9 to 14) (size 15 to 20)
#    0.000    2.846    1.538    0.692    0.000    4.462 
#    0.000    0.000    0.000    3.692    0.000    5.385 
#    0.000    0.000    0.000    1.385    0.000    3.231 
#
# Total GULP energy -644414.928155 kJ/mol
# GULP energy per Si atom -12392.594772 kJ/mol
# Density = 1.596222 g / cm^3
# Si number density = 15.998633 Si / 1000 Ang^3
#
#
#
# Elastic Constant Matrix: (Units=GPa)
#
#
# Indices 1 2 3 4 5 6 
#
# 1 82.0951 37.2712 25.7091 0.0000 0.0000 0.0000
# 2 37.2712 84.9704 35.7730 0.0000 0.0000 0.0000
# 3 25.7091 35.7730 77.7595 0.0000 0.0000 0.0000
# 4 0.0000 0.0000 0.0000 11.8916 0.0000 0.0000
# 5 0.0000 0.0000 0.0000 0.0000 4.2900 0.0000
# 6 0.0000 0.0000 0.0000 0.0000 0.0000 10.0734
#
#
#
# Elastic Compliance Matrix: (Units=1/GPa)
#
#
# Indices 1 2 3 4 5 6 
#
# 1 0.015589 -0.005789 -0.002491 0.000000 0.000000 0.000000
# 2 -0.005789 0.016746 -0.005790 0.000000 0.000000 0.000000
# 3 -0.002491 -0.005790 0.016347 0.000000 0.000000 0.000000
# 4 0.000000 0.000000 0.000000 0.084093 0.000000 0.000000
# 5 0.000000 0.000000 0.000000 0.000000 0.233101 0.000000
# 6 0.000000 0.000000 0.000000 0.000000 0.000000 0.099271
#
#
# Mechanical properties :
#
#
# Convention : Reuss Voigt Hill
#
# Bulk Modulus (GPa) = 48.67961 49.14794 48.91378
# Shear Modulus (GPa) = 9.99729 14.98911 12.49320
#
# Velocity S-wave (km/s) = 2.50248 3.06420 2.79748
# Velocity P-wave (km/s) = 6.23244 6.58072 6.40895
#
# Compressibility (1/GPa) = 0.02054248
#
# Stress axis : x y z
#
# Youngs Moduli (GPa) = 64.14601 59.71649 61.17243
#
# Poissons Ratio (x) = 0.34573 0.15237
# Poissons Ratio (y) = 0.37137 0.35417
# Poissons Ratio (z) = 0.15977 0.34574
#
# Static dielectric constant tensor:
#      x y z
#    x 3.112060 0.000000 0.000000 
#    y 0.000000 2.753320 0.000000 
#    z 0.000000 0.000000 2.987990 
# 
# 
# High freq. dielectric constant tensor:
#      x y z
#    x 1.623170 0.000000 0.000000 
#    y 0.000000 1.568550 0.000000 
#    z 0.000000 0.000000 1.592000 
# 
# From -- ./inp_files/32049.got.cif
#   From: 2010.03.12/outbox.cif.g09.slc.cpg/sg47_17_cif.got.tgz:32049.got - 2010.04.14 03:12:58.
