data_PCOD8198712
_publ_section_title
;
Structure prediction by ZEFSAII (Michael W. Deem and Ramdas Pophale) SiO2 
 PCOD8198712
Probable space group: P M M M
;
_chemical_formula_sum "Si O2"
_cell_formula_units_Z 40
_cell_length_a 25.941629
_cell_length_b 9.077673
_cell_length_c 9.169568
_cell_angle_alpha 90.000000
_cell_angle_beta 90.000000
_cell_angle_gamma 90.000000
_cell_volume 2159.338131
_symmetry_space_group_name_H-M "P M M M"
_symmetry_group_IT_number 47
_symmetry_cell_setting 'orthorhombic'
loop_
_space_group_symop_operation_xyz
x,y,z
-x,-y,z
x,-y,-z
-x,y,-z
-x,-y,-z
x,y,-z
-x,y,z
x,-y,z
loop_
_atom_site_type_symbol
_atom_site_label
_atom_site_fract_x
_atom_site_fract_y
_atom_site_fract_z
Si Si1 0.406373 0.672363 0.171013
Si Si2 0.696323 0.165715 0.173194
Si Si3 0.000000 0.166323 0.326425
Si Si4 0.500000 0.171746 0.671883
Si Si5 0.899052 0.328605 0.330510
Si Si6 0.797108 0.329824 0.828998
O O1 0.407458 0.500000 0.206545
O O2 0.352062 0.737754 0.225490
O O3 0.450040 0.753599 0.260761
O O4 0.415346 0.701804 0.000000
O O5 0.748671 0.238720 0.233504
O O6 0.691247 0.000000 0.234968
O O7 0.698246 0.164866 0.000000
O O8 0.948825 0.245430 0.265950
O O9 0.000000 0.176510 0.500000
O O10 0.000000 0.000000 0.269460
O O11 0.500000 0.198004 0.500000
O O12 0.500000 0.000000 0.712257
O O13 0.891307 0.294213 0.500000
O O14 0.907932 0.500000 0.300495
O O15 0.848486 0.269937 0.248230
O O16 0.787314 0.500000 0.790457
O O17 0.804096 0.305703 0.000000
#
# Coordination Sequence:
#
# PCOD8198712 Si02
#       6
#     8   8   4   4   8   8
#     4  10  20  35  57  82 104 131 172 215 250 292
#     4   9  17  30  50  75 101 130 164 202 244 289
#     4   9  17  29  46  67  90 118 154 195 236 278
#     4  11  24  39  54  76 108 141 170 205 254 306
#     4   9  17  30  48  68  90 119 156 195 235 282
#     4   9  17  30  48  70  96 125 157 195 239 286
#
# _framework density 18.524194999999999
#
# number of rings (size 3 to 8) (size 9 to 14) (size 15 to 20)
#    0.000    2.600    0.000    2.100    0.000    7.600 
#    0.000    1.500    0.000    6.600    0.000    0.000 
#    0.000    0.000    0.000    0.000    0.000    0.000 
#
# Total GULP energy -496040.998290 kJ/mol
# GULP energy per Si atom -12401.024957 kJ/mol
# Density = 1.848203 g / cm^3
# Si number density = 18.524195 Si / 1000 Ang^3
#
#
#
# Elastic Constant Matrix: (Units=GPa)
#
#
# Indices 1 2 3 4 5 6 
#
# 1 209.6121 101.1391 51.5289 0.0000 0.0000 0.0000
# 2 101.1391 130.9304 42.7715 0.0000 0.0000 0.0000
# 3 51.5289 42.7715 35.7594 0.0000 0.0000 0.0000
# 4 0.0000 0.0000 0.0000 18.3506 0.0000 0.0000
# 5 0.0000 0.0000 0.0000 0.0000 -165.2836 0.0000
# 6 0.0000 0.0000 0.0000 0.0000 0.0000 16.3529
#
#
#
# Elastic Compliance Matrix: (Units=1/GPa)
#
#
# Indices 1 2 3 4 5 6 
#
# 1 0.008636 -0.004277 -0.007329 0.000000 0.000000 0.000000
# 2 -0.004277 0.014654 -0.011364 0.000000 0.000000 0.000000
# 3 -0.007329 -0.011364 0.052118 0.000000 0.000000 0.000000
# 4 0.000000 0.000000 0.000000 0.054494 0.000000 0.000000
# 5 0.000000 0.000000 0.000000 0.000000 -0.006050 0.000000
# 6 0.000000 0.000000 0.000000 0.000000 0.000000 0.061151
#
#
# Mechanical properties :
#
#
# Convention : Reuss Voigt Hill
#
# Bulk Modulus (GPa) = 33.93516 85.24232 59.58874
# Shear Modulus (GPa) = 20.76702 -14.05854 3.35424
#
# Velocity S-wave (km/s) = 3.35188 -2.75785 1.34710
# Velocity P-wave (km/s) = 5.77402 5.99797 5.88706
#
# Compressibility (1/GPa) = 0.02946796
#
# Stress axis : x y z
#
# Youngs Moduli (GPa) = 115.79483 68.24158 19.18707
#
# Poissons Ratio (x) = 0.29186 0.14062
# Poissons Ratio (y) = 0.49524 0.21805
# Poissons Ratio (z) = 0.84864 0.77553
#
# Static dielectric constant tensor:
#      x y z
#    x 3.747050 0.000000 0.000000 
#    y 0.000000 3.525500 0.000000 
#    z 0.000000 0.000000 3.043890 
# 
# 
# High freq. dielectric constant tensor:
#      x y z
#    x 1.738140 0.000000 0.000000 
#    y 0.000000 1.724630 0.000000 
#    z 0.000000 0.000000 1.675990 
# 
# From -- ./inp_files/13054.got.cif
#   From: 2010.03.12/outbox.cif.g09.slc.cpg/sg47_7_cif.got.tgz:13054.got - 2010.04.14 03:12:58.
