data_PCOD8198423
_publ_section_title
;
Structure prediction by ZEFSAII (Michael W. Deem and Ramdas Pophale) SiO2 
 PCOD8198423
Probable space group: P M M M
;
_chemical_formula_sum "Si O2"
_cell_formula_units_Z 52
_cell_length_a 13.313199
_cell_length_b 9.245887
_cell_length_c 22.888733
_cell_angle_alpha 90.000000
_cell_angle_beta 90.000000
_cell_angle_gamma 90.000000
_cell_volume 2817.427557
_symmetry_space_group_name_H-M "P M M M"
_symmetry_group_IT_number 47
_symmetry_cell_setting 'orthorhombic'
loop_
_space_group_symop_operation_xyz
x,y,z
-x,-y,z
x,-y,-z
-x,y,-z
-x,-y,-z
x,y,-z
-x,y,z
x,-y,z
loop_
_atom_site_type_symbol
_atom_site_label
_atom_site_fract_x
_atom_site_fract_y
_atom_site_fract_z
Si Si1 0.200992 0.329324 0.565675
Si Si2 0.888893 0.165527 0.667204
Si Si3 0.312480 0.827434 0.127533
Si Si4 0.300033 0.169455 0.739104
Si Si5 0.389092 0.334853 0.638121
Si Si6 0.500000 0.669165 0.069137
Si Si7 0.110633 0.171573 0.934136
O O1 0.188019 0.269817 0.500000
O O2 0.185438 0.500000 0.566999
O O3 0.119349 0.257602 0.607876
O O4 0.311343 0.283161 0.588670
O O5 0.811223 0.215982 0.717159
O O6 0.000000 0.187555 0.693372
O O7 0.868572 0.000000 0.649955
O O8 0.316997 0.779848 0.194897
O O9 0.400851 0.746057 0.093916
O O10 0.203763 0.772116 0.104521
O O11 0.325409 0.000000 0.119277
O O12 0.381276 0.244695 0.697769
O O13 0.316195 0.000000 0.734095
O O14 0.500000 0.313568 0.611740
O O15 0.367633 0.500000 0.655134
O O16 0.500000 0.500000 0.086491
O O17 0.500000 0.689779 0.000000
O O18 0.000000 0.224597 0.911047
O O19 0.111582 0.000000 0.933410
O O20 0.126439 0.228621 0.000000
#
# Coordination Sequence:
#
# PCOD8198423 Si02
#       7
#     8   8   8   8   8   4   8
#     4   9  18  32  49  71  98 126 163 212 257 298
#     4   9  18  33  51  71 100 137 169 200 246 302
#     4  10  20  34  55  81 106 136 175 217 260 308
#     4   9  19  33  49  73 101 128 162 204 247 292
#     4   9  18  32  50  70  93 126 164 201 249 303
#     4  11  25  41  55  75 107 145 180 217 262 311
#     4   8  14  26  47  76 105 129 158 203 256 303
#
# _framework density 18.456551999999999
#
# number of rings (size 3 to 8) (size 9 to 14) (size 15 to 20)
#    0.000    2.846    0.000    1.154    1.077    4.000 
#    0.000    6.154    0.000    0.462    0.000    8.615 
#    0.000    0.000    0.000    0.000    0.000    0.000 
#
# Total GULP energy -644576.580305 kJ/mol
# GULP energy per Si atom -12395.703467 kJ/mol
# Density = 1.841454 g / cm^3
# Si number density = 18.456552 Si / 1000 Ang^3
#
#
#
# Elastic Constant Matrix: (Units=GPa)
#
#
# Indices 1 2 3 4 5 6 
#
# 1 105.0476 24.7086 29.6586 0.0000 0.0000 0.0000
# 2 24.7086 31.7659 29.8166 0.0000 0.0000 0.0000
# 3 29.6586 29.8166 95.8023 0.0000 0.0000 0.0000
# 4 0.0000 0.0000 0.0000 23.7763 0.0000 0.0000
# 5 0.0000 0.0000 0.0000 0.0000 17.2729 0.0000
# 6 0.0000 0.0000 0.0000 0.0000 0.0000 18.8660
#
#
#
# Elastic Compliance Matrix: (Units=1/GPa)
#
#
# Indices 1 2 3 4 5 6 
#
# 1 0.011735 -0.008078 -0.001119 0.000000 0.000000 0.000000
# 2 -0.008078 0.050032 -0.013071 0.000000 0.000000 0.000000
# 3 -0.001119 -0.013071 0.014853 0.000000 0.000000 0.000000
# 4 0.000000 0.000000 0.000000 0.042059 0.000000 0.000000
# 5 0.000000 0.000000 0.000000 0.000000 0.057894 0.000000
# 6 0.000000 0.000000 0.000000 0.000000 0.000000 0.053005
#
#
# Mechanical properties :
#
#
# Convention : Reuss Voigt Hill
#
# Bulk Modulus (GPa) = 31.16724 44.55371 37.86048
# Shear Modulus (GPa) = 17.55563 21.87852 19.71707
#
# Velocity S-wave (km/s) = 3.08748 3.44671 3.27203
# Velocity P-wave (km/s) = 5.44367 6.32708 5.90192
#
# Compressibility (1/GPa) = 0.03208497
#
# Stress axis : x y z
#
# Youngs Moduli (GPa) = 85.21182 19.98708 67.32830
#
# Poissons Ratio (x) = 0.16145 0.07534
# Poissons Ratio (y) = 0.68834 0.88003
# Poissons Ratio (z) = 0.09535 0.26125
#
# Static dielectric constant tensor:
#      x y z
#    x 3.631330 0.000000 0.000000 
#    y 0.000000 3.176000 0.000000 
#    z 0.000000 0.000000 3.459700 
# 
# 
# High freq. dielectric constant tensor:
#      x y z
#    x 1.728230 0.000000 0.000000 
#    y 0.000000 1.687730 0.000000 
#    z 0.000000 0.000000 1.710050 
# 
# From -- ./inp_files/30858.got.cif
#   From: 2010.03.12/outbox.cif.g09.slc.cpg/sg47_16_cif.got.tgz:30858.got - 2010.04.14 03:12:58.
