data_PCOD8198221
_publ_section_title
;
Structure prediction by ZEFSAII (Michael W. Deem and Ramdas Pophale) SiO2 
 PCOD8198221
Probable space group: P M M M
;
_chemical_formula_sum "Si O2"
_cell_formula_units_Z 44
_cell_length_a 9.300735
_cell_length_b 9.152139
_cell_length_c 28.255026
_cell_angle_alpha 90.000000
_cell_angle_beta 90.000000
_cell_angle_gamma 90.000000
_cell_volume 2405.113573
_symmetry_space_group_name_H-M "P M M M"
_symmetry_group_IT_number 47
_symmetry_cell_setting 'orthorhombic'
loop_
_space_group_symop_operation_xyz
x,y,z
-x,-y,z
x,-y,-z
-x,y,-z
-x,-y,-z
x,y,-z
-x,y,z
x,-y,z
loop_
_atom_site_type_symbol
_atom_site_label
_atom_site_fract_x
_atom_site_fract_y
_atom_site_fract_z
Si Si1 0.838781 0.325464 0.500000
Si Si2 0.329066 0.662492 0.691672
Si Si3 0.832794 0.671391 0.866737
Si Si4 0.660285 0.325951 0.588278
Si Si5 0.668999 0.169370 0.216793
Si Si6 0.335134 0.167891 0.054949
O O1 0.835492 0.500000 0.500000
O O2 0.761227 0.263307 0.546899
O O3 0.000000 0.264951 0.500000
O O4 0.500000 0.655035 0.690131
O O5 0.267435 0.500000 0.702059
O O6 0.277298 0.720226 0.639999
O O7 0.275684 0.771161 0.732590
O O8 0.805600 0.500000 0.863262
O O9 0.752016 0.747736 0.823951
O O10 0.770274 0.728098 0.916212
O O11 0.000000 0.711192 0.864338
O O12 0.500000 0.262509 0.580421
O O13 0.654236 0.500000 0.586309
O O14 0.500000 0.198145 0.210150
O O15 0.707151 0.000000 0.213971
O O16 0.500000 0.207850 0.066706
O O17 0.305921 0.000000 0.068964
O O18 0.302535 0.193672 0.000000
#
# Coordination Sequence:
#
# PCOD8198221 Si02
#       6
#     4   8   8   8   8   8
#     4   9  15  21  31  53  86 117 144 182 234 283
#     4   8  14  26  45  68  93 122 157 197 241 289
#     4  11  24  38  52  75 107 140 173 209 249 294
#     4   8  13  22  37  56  80 114 153 188 226 279
#     4  10  20  34  54  78 101 128 165 208 253 302
#     4   9  19  37  60  84 108 135 170 210 250 295
#
# _framework density 18.294353999999998
#
# number of rings (size 3 to 8) (size 9 to 14) (size 15 to 20)
#    0.000    2.818    0.000    3.545    0.000    6.909 
#    0.000    3.636    0.000    3.273    0.000    0.636 
#    0.000    5.091    0.000    0.000    0.000    0.000 
#
# Total GULP energy -545480.702945 kJ/mol
# GULP energy per Si atom -12397.288703 kJ/mol
# Density = 1.825271 g / cm^3
# Si number density = 18.294354 Si / 1000 Ang^3
#
#
#
# Elastic Constant Matrix: (Units=GPa)
#
#
# Indices 1 2 3 4 5 6 
#
# 1 81.1617 46.6443 64.7771 0.0000 0.0000 0.0000
# 2 46.6443 73.6234 59.0940 0.0000 0.0000 0.0000
# 3 64.7771 59.0940 150.3643 0.0000 0.0000 0.0000
# 4 0.0000 0.0000 0.0000 0.2687 0.0000 0.0000
# 5 0.0000 0.0000 0.0000 0.0000 1.3286 0.0000
# 6 0.0000 0.0000 0.0000 0.0000 0.0000 19.5922
#
#
#
# Elastic Compliance Matrix: (Units=1/GPa)
#
#
# Indices 1 2 3 4 5 6 
#
# 1 0.022548 -0.009479 -0.005989 0.000000 0.000000 0.000000
# 2 -0.009479 0.023826 -0.005280 0.000000 0.000000 0.000000
# 3 -0.005989 -0.005280 0.011306 0.000000 0.000000 0.000000
# 4 0.000000 0.000000 0.000000 3.721501 0.000000 0.000000
# 5 0.000000 0.000000 0.000000 0.000000 0.752687 0.000000
# 6 0.000000 0.000000 0.000000 0.000000 0.000000 0.051041
#
#
# Mechanical properties :
#
#
# Convention : Reuss Voigt Hill
#
# Bulk Modulus (GPa) = 61.78693 71.79779 66.79236
# Shear Modulus (GPa) = 1.07996 13.21349 7.14672
#
# Velocity S-wave (km/s) = 0.76916 2.69043 1.97864
# Velocity P-wave (km/s) = 5.88523 6.99873 6.46599
#
# Compressibility (1/GPa) = 0.01618465
#
# Stress axis : x y z
#
# Youngs Moduli (GPa) = 44.34933 41.97049 88.45135
#
# Poissons Ratio (x) = 0.39783 0.52970
# Poissons Ratio (y) = 0.42038 0.46706
# Poissons Ratio (z) = 0.26559 0.22162
#
# Static dielectric constant tensor:
#      x y z
#    x 3.243140 0.000000 0.000000 
#    y 0.000000 3.143470 0.000000 
#    z 0.000000 0.000000 3.748480 
# 
# 
# High freq. dielectric constant tensor:
#      x y z
#    x 1.684410 0.000000 0.000000 
#    y 0.000000 1.676790 0.000000 
#    z 0.000000 0.000000 1.730260 
# 
# From -- ./inp_files/33949.got.cif
#   From: 2010.03.12/outbox.cif.g09.slc.cpg/sg47_17_cif.got.tgz:33949.got - 2010.04.14 03:12:58.
