data_PCOD8198316
_publ_section_title
;
Structure prediction by ZEFSAII (Michael W. Deem and Ramdas Pophale) SiO2 
 PCOD8198316
Probable space group: P M M M
;
_chemical_formula_sum "Si O2"
_cell_formula_units_Z 48
_cell_length_a 8.955713
_cell_length_b 16.281392
_cell_length_c 18.267640
_cell_angle_alpha 90.000000
_cell_angle_beta 90.000000
_cell_angle_gamma 90.000000
_cell_volume 2663.631515
_symmetry_space_group_name_H-M "P M M M"
_symmetry_group_IT_number 47
_symmetry_cell_setting 'orthorhombic'
loop_
_space_group_symop_operation_xyz
x,y,z
-x,-y,z
x,-y,-z
-x,y,-z
-x,-y,-z
x,y,-z
-x,y,z
x,-y,z
loop_
_atom_site_type_symbol
_atom_site_label
_atom_site_fract_x
_atom_site_fract_y
_atom_site_fract_z
Si Si1 0.175368 0.336226 0.584286
Si Si2 0.826682 0.906646 0.221192
Si Si3 0.325271 0.660861 0.851987
Si Si4 0.674845 0.242045 0.292811
Si Si5 0.333216 0.500000 0.413163
Si Si6 0.822760 0.500000 0.914990
Si Si7 0.169376 0.191016 0.081151
O O1 0.218951 0.319867 0.500000
O O2 0.240199 0.262791 0.632365
O O3 0.247407 0.419975 0.614836
O O4 0.000000 0.343261 0.594345
O O5 0.726975 0.849187 0.272327
O O6 0.796687 0.882929 0.136739
O O7 0.000000 0.894961 0.241637
O O8 0.774975 0.000000 0.233059
O O9 0.500000 0.643340 0.859691
O O10 0.283269 0.692057 0.770290
O O11 0.237213 0.578764 0.871678
O O12 0.279164 0.732313 0.907920
O O13 0.500000 0.241155 0.307871
O O14 0.500000 0.500000 0.379922
O O15 0.337384 0.500000 0.500000
O O16 0.000000 0.500000 0.911256
O O17 0.768887 0.500000 0.000000
O O18 0.000000 0.223357 0.091844
O O19 0.194419 0.155426 0.000000
#
# Coordination Sequence:
#
# PCOD8198316 Si02
#       7
#     8   8   8   8   4   4   8
#     4  10  20  34  54  80 108 138 173 211 252 300
#     4   9  18  33  53  76 102 133 168 206 251 304
#     4  10  21  35  50  70  97 132 173 212 252 299
#     4  10  21  36  54  76 103 135 170 209 254 306
#     4   9  17  30  49  74 105 138 168 199 238 284
#     4  11  23  36  51  72  98 132 176 221 261 299
#     4   9  17  30  49  73 101 131 164 205 252 301
#
# _framework density 18.020510999999999
#
# number of rings (size 3 to 8) (size 9 to 14) (size 15 to 20)
#    0.000    2.333    0.000    2.500    0.000    8.333 
#    0.000    2.500    0.000    0.500    0.000    8.167 
#    0.000    0.000    0.000    0.000    0.000    0.000 
#
# Total GULP energy -595251.076755 kJ/mol
# GULP energy per Si atom -12401.064099 kJ/mol
# Density = 1.797950 g / cm^3
# Si number density = 18.020511 Si / 1000 Ang^3
#
#
#
# Elastic Constant Matrix: (Units=GPa)
#
#
# Indices 1 2 3 4 5 6 
#
# 1 81.4282 48.3303 47.4208 0.0000 0.0000 0.0000
# 2 48.3303 119.0578 55.1813 0.0000 0.0000 0.0000
# 3 47.4208 55.1813 92.1666 0.0000 0.0000 0.0000
# 4 0.0000 0.0000 0.0000 17.5859 0.0000 0.0000
# 5 0.0000 0.0000 0.0000 0.0000 26.3149 0.0000
# 6 0.0000 0.0000 0.0000 0.0000 0.0000 23.9314
#
#
#
# Elastic Compliance Matrix: (Units=1/GPa)
#
#
# Indices 1 2 3 4 5 6 
#
# 1 0.019081 -0.004423 -0.007169 0.000000 0.000000 0.000000
# 2 -0.004423 0.012650 -0.005298 0.000000 0.000000 0.000000
# 3 -0.007169 -0.005298 0.017711 0.000000 0.000000 0.000000
# 4 0.000000 0.000000 0.000000 0.056864 0.000000 0.000000
# 5 0.000000 0.000000 0.000000 0.000000 0.038001 0.000000
# 6 0.000000 0.000000 0.000000 0.000000 0.000000 0.041786
#
#
# Mechanical properties :
#
#
# Convention : Reuss Voigt Hill
#
# Bulk Modulus (GPa) = 63.85252 66.05748 64.95500
# Shear Modulus (GPa) = 22.21285 23.01446 22.61366
#
# Velocity S-wave (km/s) = 3.51471 3.57757 3.54628
# Velocity P-wave (km/s) = 7.20979 7.33497 7.27265
#
# Compressibility (1/GPa) = 0.01566109
#
# Stress axis : x y z
#
# Youngs Moduli (GPa) = 52.40796 79.04896 56.46263
#
# Poissons Ratio (x) = 0.34962 0.40480
# Poissons Ratio (y) = 0.23179 0.29916
# Poissons Ratio (z) = 0.37573 0.41883
#
# Static dielectric constant tensor:
#      x y z
#    x 3.397050 0.000000 0.000000 
#    y 0.000000 3.245800 0.000000 
#    z 0.000000 0.000000 3.277520 
# 
# 
# High freq. dielectric constant tensor:
#      x y z
#    x 1.705870 0.000000 0.000000 
#    y 0.000000 1.686730 0.000000 
#    z 0.000000 0.000000 1.687530 
# 
# From -- ./inp_files/6386.got.cif
#   From: 2010.03.12/outbox.cif.g09.slc.cpg/sg47_4_cif.got.tgz:6386.got - 2010.04.14 03:12:58.
