data_PCOD8198473
_publ_section_title
;
Structure prediction by ZEFSAII (Michael W. Deem and Ramdas Pophale) SiO2 
 PCOD8198473
Probable space group: P M M M
;
_chemical_formula_sum "Si O2"
_cell_formula_units_Z 44
_cell_length_a 18.193227
_cell_length_b 14.331579
_cell_length_c 8.795247
_cell_angle_alpha 90.000000
_cell_angle_beta 90.000000
_cell_angle_gamma 90.000000
_cell_volume 2293.252210
_symmetry_space_group_name_H-M "P M M M"
_symmetry_group_IT_number 47
_symmetry_cell_setting 'orthorhombic'
loop_
_space_group_symop_operation_xyz
x,y,z
-x,-y,z
x,-y,-z
-x,y,-z
-x,-y,-z
x,y,-z
-x,y,z
x,-y,z
loop_
_atom_site_type_symbol
_atom_site_label
_atom_site_fract_x
_atom_site_fract_y
_atom_site_fract_z
Si Si1 0.136328 0.712721 0.679413
Si Si2 0.719051 0.395422 0.680972
Si Si3 0.336157 0.103980 0.673831
Si Si4 0.580614 0.283730 0.679481
Si Si5 0.181920 0.105085 0.822534
Si Si6 0.000000 0.392470 0.179302
O O1 0.127216 0.707091 0.500000
O O2 0.212979 0.667572 0.736162
O O3 0.132495 0.820524 0.731791
O O4 0.071730 0.655439 0.754813
O O5 0.716883 0.396193 0.500000
O O6 0.728086 0.500000 0.745461
O O7 0.642936 0.352630 0.746489
O O8 0.309893 0.122038 0.500000
O O9 0.399139 0.176883 0.720164
O O10 0.266888 0.119283 0.781631
O O11 0.368904 0.000000 0.692592
O O12 0.576820 0.297097 0.500000
O O13 0.500000 0.306080 0.750040
O O14 0.156722 0.000000 0.777802
O O15 0.171334 0.122935 0.000000
O O16 0.000000 0.500000 0.229837
O O17 0.000000 0.381077 0.000000
#
# Coordination Sequence:
#
# PCOD8198473 Si02
#       6
#     8   8   8   8   8   4
#     4  11  21  37  61  86 114 148 188 233 278 330
#     4   9  17  29  47  74 106 140 180 227 277 326
#     4   9  16  28  47  72 103 139 182 231 281 334
#     4   9  16  26  42  70 107 142 180 228 280 330
#     4  10  20  34  55  83 113 146 184 227 279 339
#     4  11  25  43  62  89 124 155 185 226 278 331
#
# _framework density 19.186724999999999
#
# number of rings (size 3 to 8) (size 9 to 14) (size 15 to 20)
#    0.000    2.273    1.818    1.909    0.000    3.273 
#    0.000    4.091    0.000    3.273    0.000    2.545 
#    0.000    1.455    0.000    0.000    0.000    0.000 
#
# Total GULP energy -545507.602190 kJ/mol
# GULP energy per Si atom -12397.900050 kJ/mol
# Density = 1.914306 g / cm^3
# Si number density = 19.186725 Si / 1000 Ang^3
#
#
#
# Elastic Constant Matrix: (Units=GPa)
#
#
# Indices 1 2 3 4 5 6 
#
# 1 129.9568 76.1231 31.2518 0.0000 0.0000 0.0000
# 2 76.1231 157.5010 35.8854 0.0000 0.0000 0.0000
# 3 31.2518 35.8854 34.6244 0.0000 0.0000 0.0000
# 4 0.0000 0.0000 0.0000 21.2352 0.0000 0.0000
# 5 0.0000 0.0000 0.0000 0.0000 9.2902 0.0000
# 6 0.0000 0.0000 0.0000 0.0000 0.0000 27.3041
#
#
#
# Elastic Compliance Matrix: (Units=1/GPa)
#
#
# Indices 1 2 3 4 5 6 
#
# 1 0.011648 -0.004234 -0.006125 0.000000 0.000000 0.000000
# 2 -0.004234 0.009851 -0.006388 0.000000 0.000000 0.000000
# 3 -0.006125 -0.006388 0.041031 0.000000 0.000000 0.000000
# 4 0.000000 0.000000 0.000000 0.047092 0.000000 0.000000
# 5 0.000000 0.000000 0.000000 0.000000 0.107640 0.000000
# 6 0.000000 0.000000 0.000000 0.000000 0.000000 0.036625
#
#
# Mechanical properties :
#
#
# Convention : Reuss Voigt Hill
#
# Bulk Modulus (GPa) = 34.44117 67.62253 51.03185
# Shear Modulus (GPa) = 16.83167 23.48735 20.15951
#
# Velocity S-wave (km/s) = 2.96506 3.50258 3.24497
# Velocity P-wave (km/s) = 5.45084 7.18876 6.37926
#
# Compressibility (1/GPa) = 0.02903502
#
# Stress axis : x y z
#
# Youngs Moduli (GPa) = 85.85173 101.51154 24.37199
#
# Poissons Ratio (x) = 0.42981 0.14928
# Poissons Ratio (y) = 0.36351 0.15569
# Poissons Ratio (z) = 0.52585 0.64847
#
# Static dielectric constant tensor:
#      x y z
#    x 3.605220 0.000000 0.000000 
#    y 0.000000 3.880030 0.000000 
#    z 0.000000 0.000000 3.165270 
# 
# 
# High freq. dielectric constant tensor:
#      x y z
#    x 1.733960 0.000000 0.000000 
#    y 0.000000 1.764590 0.000000 
#    z 0.000000 0.000000 1.707040 
# 
# From -- ./inp_files/6051.got.cif
#   From: 2010.03.12/outbox.cif.g09.slc.cpg/sg47_4_cif.got.tgz:6051.got - 2010.04.14 03:12:58.
