data_PCOD8198181
_publ_section_title
;
Structure prediction by ZEFSAII (Michael W. Deem and Ramdas Pophale) SiO2 
 PCOD8198181
Probable space group: P M M M
;
_chemical_formula_sum "Si O2"
_cell_formula_units_Z 56
_cell_length_a 14.626844
_cell_length_b 22.848312
_cell_length_c 9.358023
_cell_angle_alpha 90.000000
_cell_angle_beta 90.000000
_cell_angle_gamma 90.000000
_cell_volume 3127.439077
_symmetry_space_group_name_H-M "P M M M"
_symmetry_group_IT_number 47
_symmetry_cell_setting 'orthorhombic'
loop_
_space_group_symop_operation_xyz
x,y,z
-x,-y,z
x,-y,-z
-x,y,-z
-x,-y,-z
x,y,-z
-x,y,z
x,-y,z
loop_
_atom_site_type_symbol
_atom_site_label
_atom_site_fract_x
_atom_site_fract_y
_atom_site_fract_z
Si Si1 0.777896 0.707717 0.830942
Si Si2 0.891435 0.500000 0.837030
Si Si3 0.790329 0.840568 0.154558
Si Si4 0.398466 0.720255 0.660510
Si Si5 0.601663 0.149411 0.745237
Si Si6 0.891565 0.613476 0.334421
Si Si7 0.392460 0.936007 0.500000
Si Si8 0.895416 0.934595 0.667543
O O1 0.809448 0.774013 0.797235
O O2 0.675575 0.695208 0.772063
O O3 0.849532 0.668902 0.745199
O O4 0.779489 0.694144 0.000000
O O5 0.856031 0.443711 0.749870
O O6 0.000000 0.500000 0.841851
O O7 0.852693 0.500000 0.000000
O O8 0.680250 0.848028 0.135403
O O9 0.831698 0.885748 0.265002
O O10 0.834640 0.852400 0.000000
O O11 0.374170 0.699042 0.500000
O O12 0.500000 0.697443 0.704786
O O13 0.399710 0.790451 0.657731
O O14 0.500000 0.136989 0.810198
O O15 0.636477 0.098280 0.641089
O O16 0.860104 0.610282 0.500000
O O17 0.000000 0.619044 0.324766
O O18 0.500000 0.942643 0.500000
O O19 0.344752 0.000000 0.500000
O O20 0.878722 0.931945 0.500000
O O21 0.000000 0.919978 0.705484
O O22 0.871098 0.000000 0.723753
#
# Coordination Sequence:
#
# PCOD8198181 Si02
#       8
#     8   4   8   8   8   8   4   8
#     4  10  21  34  48  72 107 141 172 209 256 310
#     4   9  17  31  53  79 108 143 178 211 251 301
#     4  10  22  35  50  75 102 131 165 204 254 309
#     4   9  16  29  50  71  94 128 170 214 257 300
#     4   9  17  30  47  68  97 129 160 196 241 296
#     4  10  20  34  53  78 108 142 180 218 254 296
#     4   9  16  26  42  66  91 117 155 198 240 289
#     4   9  20  39  59  75  90 115 158 210 259 307
#
# _framework density 17.906023999999999
#
# number of rings (size 3 to 8) (size 9 to 14) (size 15 to 20)
#    0.000    2.571    0.714    1.500    1.000    5.143 
#    0.000    6.429    0.000    0.000    0.000    3.500 
#    0.000    4.000    0.000    0.000    0.000    0.000 
#
# Total GULP energy -694018.013520 kJ/mol
# GULP energy per Si atom -12393.178813 kJ/mol
# Density = 1.786527 g / cm^3
# Si number density = 17.906024 Si / 1000 Ang^3
#
#
#
# Elastic Constant Matrix: (Units=GPa)
#
#
# Indices 1 2 3 4 5 6 
#
# 1 65.6474 41.1880 42.3894 0.0000 0.0000 0.0000
# 2 41.1880 98.9368 51.1943 0.0000 0.0000 0.0000
# 3 42.3894 51.1943 103.6390 0.0000 0.0000 0.0000
# 4 0.0000 0.0000 0.0000 27.5007 0.0000 0.0000
# 5 0.0000 0.0000 0.0000 0.0000 19.8822 0.0000
# 6 0.0000 0.0000 0.0000 0.0000 0.0000 9.0860
#
#
#
# Elastic Compliance Matrix: (Units=1/GPa)
#
#
# Indices 1 2 3 4 5 6 
#
# 1 0.023396 -0.006433 -0.006392 0.000000 0.000000 0.000000
# 2 -0.006433 0.015347 -0.004950 0.000000 0.000000 0.000000
# 3 -0.006392 -0.004950 0.014708 0.000000 0.000000 0.000000
# 4 0.000000 0.000000 0.000000 0.036363 0.000000 0.000000
# 5 0.000000 0.000000 0.000000 0.000000 0.050296 0.000000
# 6 0.000000 0.000000 0.000000 0.000000 0.000000 0.110059
#
#
# Mechanical properties :
#
#
# Convention : Reuss Voigt Hill
#
# Bulk Modulus (GPa) = 55.85742 59.75183 57.80463
# Shear Modulus (GPa) = 17.14182 20.19055 18.66619
#
# Velocity S-wave (km/s) = 3.09742 3.36160 3.23221
# Velocity P-wave (km/s) = 6.63735 6.96486 6.80308
#
# Compressibility (1/GPa) = 0.01790272
#
# Stress axis : x y z
#
# Youngs Moduli (GPa) = 42.74244 65.16111 67.98938
#
# Poissons Ratio (x) = 0.41915 0.43457
# Poissons Ratio (y) = 0.27494 0.33653
# Poissons Ratio (z) = 0.27320 0.32253
#
# Static dielectric constant tensor:
#      x y z
#    x 3.287390 0.000000 0.000000 
#    y 0.000000 3.300550 0.000000 
#    z 0.000000 0.000000 3.334240 
# 
# 
# High freq. dielectric constant tensor:
#      x y z
#    x 1.684190 0.000000 0.000000 
#    y 0.000000 1.673930 0.000000 
#    z 0.000000 0.000000 1.692050 
# 
# From -- ./inp_files/7387.got.cif
#   From: 2010.03.12/outbox.cif.g09.slc.cpg/sg47_4_cif.got.tgz:7387.got - 2010.04.14 03:12:58.
