data_PCOD8198948
_publ_section_title
;
Structure prediction by ZEFSAII (Michael W. Deem and Ramdas Pophale) SiO2 
 PCOD8198948
Probable space group: P M M M
;
_chemical_formula_sum "Si O2"
_cell_formula_units_Z 52
_cell_length_a 7.959175
_cell_length_b 14.322021
_cell_length_c 22.130858
_cell_angle_alpha 90.000000
_cell_angle_beta 90.000000
_cell_angle_gamma 90.000000
_cell_volume 2522.729069
_symmetry_space_group_name_H-M "P M M M"
_symmetry_group_IT_number 47
_symmetry_cell_setting 'orthorhombic'
loop_
_space_group_symop_operation_xyz
x,y,z
-x,-y,z
x,-y,-z
-x,y,-z
-x,-y,-z
x,y,-z
-x,y,z
x,-y,z
loop_
_atom_site_type_symbol
_atom_site_label
_atom_site_fract_x
_atom_site_fract_y
_atom_site_fract_z
Si Si1 0.697975 0.287364 0.565688
Si Si2 0.691957 0.898696 0.616455
Si Si3 0.500000 0.108353 0.071366
Si Si4 0.814068 0.609461 0.317305
Si Si5 0.192503 0.104903 0.254815
Si Si6 0.693455 0.605645 0.187595
Si Si7 0.194833 0.789068 0.864615
O O1 0.765047 0.323109 0.500000
O O2 0.500000 0.277813 0.563715
O O3 0.776490 0.183937 0.577490
O O4 0.740497 0.356062 0.619657
O O5 0.500000 0.909298 0.597425
O O6 0.699141 0.868740 0.686729
O O7 0.782329 0.000000 0.606467
O O8 0.329389 0.163271 0.090598
O O9 0.500000 0.000000 0.094895
O O10 0.500000 0.108334 0.000000
O O11 0.815846 0.500000 0.323880
O O12 0.711641 0.638657 0.257503
O O13 0.000000 0.650892 0.308522
O O14 0.243126 0.172469 0.200952
O O15 0.000000 0.117119 0.273535
O O16 0.230986 0.000000 0.232810
O O17 0.500000 0.606602 0.170018
O O18 0.767300 0.500000 0.179413
O O19 0.785762 0.676523 0.141209
O O20 0.000000 0.812645 0.883189
#
# Coordination Sequence:
#
# PCOD8198948 Si02
#       7
#     8   8   4   8   8   8   8
#     4  10  21  35  50  68  94 135 187 239 291 354
#     4   9  18  31  48  71  99 133 173 224 288 354
#     4  11  26  46  67  95 133 177 221 260 300 350
#     4  10  21  36  54  79 111 145 183 234 298 363
#     4   9  18  31  49  78 112 143 180 233 299 364
#     4  10  20  36  61  94 129 161 197 248 311 376
#     4  11  22  38  64  95 128 169 214 260 309 362
#
# _framework density 20.612597999999998
#
# number of rings (size 3 to 8) (size 9 to 14) (size 15 to 20)
#    0.000    2.077    0.769    2.308    1.077    7.077 
#    0.000    3.846    0.000    0.923    0.000    4.308 
#    0.000    0.000    0.000    0.000    0.000    0.000 
#
# Total GULP energy -644339.831505 kJ/mol
# GULP energy per Si atom -12391.150606 kJ/mol
# Density = 2.056568 g / cm^3
# Si number density = 20.612598 Si / 1000 Ang^3
#
#
#
# Elastic Constant Matrix: (Units=GPa)
#
#
# Indices 1 2 3 4 5 6 
#
# 1 71.5101 29.9731 27.2371 0.0000 0.0000 0.0000
# 2 29.9731 78.2307 46.5659 0.0000 0.0000 0.0000
# 3 27.2371 46.5659 61.6944 0.0000 0.0000 0.0000
# 4 0.0000 0.0000 0.0000 19.7818 0.0000 0.0000
# 5 0.0000 0.0000 0.0000 0.0000 -0.7706 0.0000
# 6 0.0000 0.0000 0.0000 0.0000 0.0000 22.4271
#
#
#
# Elastic Compliance Matrix: (Units=1/GPa)
#
#
# Indices 1 2 3 4 5 6 
#
# 1 0.017413 -0.003805 -0.004815 0.000000 0.000000 0.000000
# 2 -0.003805 0.024042 -0.016467 0.000000 0.000000 0.000000
# 3 -0.004815 -0.016467 0.030764 0.000000 0.000000 0.000000
# 4 0.000000 0.000000 0.000000 0.050551 0.000000 0.000000
# 5 0.000000 0.000000 0.000000 0.000000 -1.297688 0.000000
# 6 0.000000 0.000000 0.000000 0.000000 0.000000 0.044589
#
#
# Mechanical properties :
#
#
# Convention : Reuss Voigt Hill
#
# Bulk Modulus (GPa) = 45.36350 46.55415 45.95883
# Shear Modulus (GPa) = -4.66068 15.46494 5.40213
#
# Velocity S-wave (km/s) = -1.50532 2.74207 1.62064
# Velocity P-wave (km/s) = 4.36281 5.71486 5.08398
#
# Compressibility (1/GPa) = 0.02204415
#
# Stress axis : x y z
#
# Youngs Moduli (GPa) = 57.42786 41.59335 32.50583
#
# Poissons Ratio (x) = 0.15828 0.15653
# Poissons Ratio (y) = 0.21853 0.53527
# Poissons Ratio (z) = 0.27654 0.68491
#
# Static dielectric constant tensor:
#      x y z
#    x 3.685640 0.000000 0.000000 
#    y 0.000000 4.105650 0.000000 
#    z 0.000000 0.000000 3.552950 
# 
# 
# High freq. dielectric constant tensor:
#      x y z
#    x 1.795800 0.000000 0.000000 
#    y 0.000000 1.820880 0.000000 
#    z 0.000000 0.000000 1.772120 
# 
# From -- ./inp_files/29585.got.cif
#   From: 2010.03.12/outbox.cif.g09.slc.cpg/sg47_15_cif.got.tgz:29585.got - 2010.04.14 03:12:58.
