data_PCOD8198748
_publ_section_title
;
Structure prediction by ZEFSAII (Michael W. Deem and Ramdas Pophale) SiO2 
 PCOD8198748
Probable space group: P M M M
;
_chemical_formula_sum "Si O2"
_cell_formula_units_Z 56
_cell_length_a 8.860382
_cell_length_b 14.821662
_cell_length_c 22.200106
_cell_angle_alpha 90.000000
_cell_angle_beta 90.000000
_cell_angle_gamma 90.000000
_cell_volume 2915.441956
_symmetry_space_group_name_H-M "P M M M"
_symmetry_group_IT_number 47
_symmetry_cell_setting 'orthorhombic'
loop_
_space_group_symop_operation_xyz
x,y,z
-x,-y,z
x,-y,-z
-x,y,-z
-x,-y,-z
x,y,-z
-x,y,z
x,-y,z
loop_
_atom_site_type_symbol
_atom_site_label
_atom_site_fract_x
_atom_site_fract_y
_atom_site_fract_z
Si Si1 0.672824 0.344543 0.877863
Si Si2 0.823322 0.897864 0.712750
Si Si3 0.321769 0.000000 0.933444
Si Si4 0.173577 0.397551 0.569965
Si Si5 0.672278 0.858603 0.837634
Si Si6 0.827894 0.600255 0.763804
Si Si7 0.322062 0.275413 0.666659
Si Si8 0.822941 0.605106 0.000000
O O1 0.500000 0.376365 0.883521
O O2 0.686619 0.245251 0.851899
O O3 0.761112 0.407714 0.830999
O O4 0.750429 0.348311 0.942308
O O5 0.775107 0.884006 0.781499
O O6 0.741669 0.826425 0.668673
O O7 0.000000 0.880201 0.707914
O O8 0.782580 0.000000 0.692193
O O9 0.269582 0.087874 0.896347
O O10 0.500000 0.000000 0.941602
O O11 0.245897 0.000000 0.000000
O O12 0.192584 0.374694 0.500000
O O13 0.228316 0.500000 0.582854
O O14 0.272137 0.325755 0.606090
O O15 0.000000 0.387693 0.590116
O O16 0.500000 0.885460 0.821928
O O17 0.819715 0.500000 0.735024
O O18 0.732050 0.669378 0.724607
O O19 0.000000 0.634504 0.766291
O O20 0.500000 0.269561 0.668779
O O21 0.783392 0.500000 0.000000
O O22 0.000000 0.623102 0.000000
#
# Coordination Sequence:
#
# PCOD8198748 Si02
#       8
#     8   8   4   8   8   8   8   4
#     4  11  23  37  57  84 110 140 184 238 294 353
#     4  11  23  39  61  86 115 153 198 247 301 359
#     4   9  18  32  55  81 107 141 178 221 282 357
#     4   9  19  38  64  93 128 171 212 248 292 348
#     4  10  20  35  57  83 110 142 181 231 293 355
#     4  11  23  38  57  82 115 153 192 238 292 351
#     4  12  24  37  58  90 125 161 201 247 299 351
#     4  11  25  43  59  74  99 144 194 236 288 353
#
# _framework density 19.208065000000001
#
# number of rings (size 3 to 8) (size 9 to 14) (size 15 to 20)
#    0.000    1.429    2.143    4.071    1.000    7.143 
#    0.000    0.714    0.000    0.857    0.000    3.000 
#    0.000    0.000    0.000    0.000    0.000    0.000 
#
# Total GULP energy -694527.474642 kJ/mol
# GULP energy per Si atom -12402.276333 kJ/mol
# Density = 1.916435 g / cm^3
# Si number density = 19.208065 Si / 1000 Ang^3
#
#
#
# Elastic Constant Matrix: (Units=GPa)
#
#
# Indices 1 2 3 4 5 6 
#
# 1 127.7895 62.4757 46.5812 0.0000 0.0000 0.0000
# 2 62.4757 115.8293 44.0675 0.0000 0.0000 0.0000
# 3 46.5812 44.0675 92.8776 0.0000 0.0000 0.0000
# 4 0.0000 0.0000 0.0000 36.7958 0.0000 0.0000
# 5 0.0000 0.0000 0.0000 0.0000 30.0369 0.0000
# 6 0.0000 0.0000 0.0000 0.0000 0.0000 20.1128
#
#
#
# Elastic Compliance Matrix: (Units=1/GPa)
#
#
# Indices 1 2 3 4 5 6 
#
# 1 0.011461 -0.004875 -0.003435 0.000000 0.000000 0.000000
# 2 -0.004875 0.012609 -0.003538 0.000000 0.000000 0.000000
# 3 -0.003435 -0.003538 0.014168 0.000000 0.000000 0.000000
# 4 0.000000 0.000000 0.000000 0.027177 0.000000 0.000000
# 5 0.000000 0.000000 0.000000 0.000000 0.033292 0.000000
# 6 0.000000 0.000000 0.000000 0.000000 0.000000 0.049720
#
#
# Mechanical properties :
#
#
# Convention : Reuss Voigt Hill
#
# Bulk Modulus (GPa) = 68.76265 71.41613 70.08939
# Shear Modulus (GPa) = 28.25357 29.61389 28.93373
#
# Velocity S-wave (km/s) = 3.83942 3.93076 3.88536
# Velocity P-wave (km/s) = 7.45194 7.60672 7.52973
#
# Compressibility (1/GPa) = 0.01454278
#
# Stress axis : x y z
#
# Youngs Moduli (GPa) = 87.25431 79.31085 70.58127
#
# Poissons Ratio (x) = 0.38663 0.24245
# Poissons Ratio (y) = 0.42535 0.24968
# Poissons Ratio (z) = 0.29972 0.28056
#
# Static dielectric constant tensor:
#      x y z
#    x 3.516370 0.000000 0.000000 
#    y 0.000000 3.719590 0.000000 
#    z 0.000000 0.000000 3.506970 
# 
# 
# High freq. dielectric constant tensor:
#      x y z
#    x 1.745820 0.000000 0.000000 
#    y 0.000000 1.756130 0.000000 
#    z 0.000000 0.000000 1.736860 
# 
# From -- ./inp_files/29758.got.cif
#   From: 2010.03.12/outbox.cif.g09.slc.cpg/sg47_15_cif.got.tgz:29758.got - 2010.04.14 03:12:58.
