data_PCOD8198249
_publ_section_title
;
Structure prediction by ZEFSAII (Michael W. Deem and Ramdas Pophale) SiO2 
 PCOD8198249
Probable space group: P M M M
;
_chemical_formula_sum "Si O2"
_cell_formula_units_Z 44
_cell_length_a 9.141522
_cell_length_b 28.399830
_cell_length_c 9.328757
_cell_angle_alpha 90.000000
_cell_angle_beta 90.000000
_cell_angle_gamma 90.000000
_cell_volume 2421.910163
_symmetry_space_group_name_H-M "P M M M"
_symmetry_group_IT_number 47
_symmetry_cell_setting 'orthorhombic'
loop_
_space_group_symop_operation_xyz
x,y,z
-x,-y,z
x,-y,-z
-x,y,-z
-x,-y,-z
x,y,-z
-x,y,z
x,-y,z
loop_
_atom_site_type_symbol
_atom_site_label
_atom_site_fract_x
_atom_site_fract_y
_atom_site_fract_z
Si Si1 0.336606 0.822973 0.169943
Si Si2 0.163153 0.734196 0.170845
Si Si3 0.334571 0.552683 0.331211
Si Si4 0.828330 0.083378 0.167635
Si Si5 0.826637 0.630796 0.840416
Si Si6 0.671748 0.000000 0.330956
O O1 0.500000 0.829894 0.232822
O O2 0.268964 0.774673 0.233311
O O3 0.233588 0.866101 0.215707
O O4 0.343393 0.819555 0.000000
O O5 0.223228 0.682514 0.216358
O O6 0.000000 0.742688 0.232350
O O7 0.156678 0.736488 0.000000
O O8 0.320154 0.557186 0.500000
O O9 0.500000 0.563034 0.282052
O O10 0.288922 0.500000 0.282556
O O11 0.228122 0.590261 0.262495
O O12 0.744732 0.045488 0.261812
O O13 0.000000 0.081580 0.201358
O O14 0.798207 0.073452 0.000000
O O15 0.000000 0.629720 0.843715
O O16 0.764127 0.621936 0.000000
O O17 0.500000 0.000000 0.295985
O O18 0.701799 0.000000 0.500000
#
# Coordination Sequence:
#
# PCOD8198249 Si02
#       6
#     8   8   8   8   8   4
#     4   9  16  26  44  72 102 130 162 201 243 285
#     4   8  14  26  43  65  97 131 158 190 237 290
#     4   9  19  35  51  67  91 125 164 204 246 293
#     4  10  20  34  54  79 104 132 168 207 246 290
#     4   9  18  31  48  73 102 129 159 198 243 290
#     4  11  24  39  54  74 102 135 168 205 252 300
#
# _framework density 18.167480000000001
#
# number of rings (size 3 to 8) (size 9 to 14) (size 15 to 20)
#    0.000    2.818    0.000    3.273    0.000    7.273 
#    0.000    4.545    0.000    1.091    0.000    5.091 
#    0.000    0.000    0.000    0.000    0.000    0.000 
#
# Total GULP energy -545439.435972 kJ/mol
# GULP energy per Si atom -12396.350818 kJ/mol
# Density = 1.812613 g / cm^3
# Si number density = 18.167480 Si / 1000 Ang^3
#
#
#
# Elastic Constant Matrix: (Units=GPa)
#
#
# Indices 1 2 3 4 5 6 
#
# 1 100.2754 71.6903 34.1043 0.0000 0.0000 0.0000
# 2 71.6903 165.6993 45.5011 0.0000 0.0000 0.0000
# 3 34.1043 45.5011 36.5246 0.0000 0.0000 0.0000
# 4 0.0000 0.0000 0.0000 -12.4629 0.0000 0.0000
# 5 0.0000 0.0000 0.0000 0.0000 22.6471 0.0000
# 6 0.0000 0.0000 0.0000 0.0000 0.0000 15.9983
#
#
#
# Elastic Compliance Matrix: (Units=1/GPa)
#
#
# Indices 1 2 3 4 5 6 
#
# 1 0.016500 -0.004420 -0.009900 0.000000 0.000000 0.000000
# 2 -0.004420 0.010357 -0.008775 0.000000 0.000000 0.000000
# 3 -0.009900 -0.008775 0.047555 0.000000 0.000000 0.000000
# 4 0.000000 0.000000 0.000000 -0.080238 0.000000 0.000000
# 5 0.000000 0.000000 0.000000 0.000000 0.044156 0.000000
# 6 0.000000 0.000000 0.000000 0.000000 0.000000 0.062507
#
#
# Mechanical properties :
#
#
# Convention : Reuss Voigt Hill
#
# Bulk Modulus (GPa) = 35.43481 67.23230 51.33356
# Shear Modulus (GPa) = 31.96240 15.31672 23.63956
#
# Velocity S-wave (km/s) = 4.19897 2.90674 3.61113
# Velocity P-wave (km/s) = 6.56166 6.95362 6.76048
#
# Compressibility (1/GPa) = 0.02822084
#
# Stress axis : x y z
#
# Youngs Moduli (GPa) = 60.60736 96.55202 21.02837
#
# Poissons Ratio (x) = 0.42677 0.20818
# Poissons Ratio (y) = 0.26789 0.18453
# Poissons Ratio (z) = 0.60001 0.84728
#
# Static dielectric constant tensor:
#      x y z
#    x 3.473700 0.000000 0.000000 
#    y 0.000000 3.659870 0.000000 
#    z 0.000000 0.000000 2.946810 
# 
# 
# High freq. dielectric constant tensor:
#      x y z
#    x 1.707170 0.000000 0.000000 
#    y 0.000000 1.722970 0.000000 
#    z 0.000000 0.000000 1.653310 
# 
# From -- ./inp_files/2210.got.cif
#   From: 2010.03.12/outbox.cif.g09.slc.cpg/sg47_2_cif.got.tgz:2210.got - 2010.04.14 03:12:58.
