data_PCOD8198747
_publ_section_title
;
Structure prediction by ZEFSAII (Michael W. Deem and Ramdas Pophale) SiO2 
 PCOD8198747
Probable space group: P M M M
;
_chemical_formula_sum "Si O2"
_cell_formula_units_Z 48
_cell_length_a 9.114028
_cell_length_b 9.011952
_cell_length_c 30.361578
_cell_angle_alpha 90.000000
_cell_angle_beta 90.000000
_cell_angle_gamma 90.000000
_cell_volume 2493.753761
_symmetry_space_group_name_H-M "P M M M"
_symmetry_group_IT_number 47
_symmetry_cell_setting 'orthorhombic'
loop_
_space_group_symop_operation_xyz
x,y,z
-x,-y,z
x,-y,-z
-x,y,-z
-x,-y,-z
x,y,-z
-x,y,z
x,-y,z
loop_
_atom_site_type_symbol
_atom_site_label
_atom_site_fract_x
_atom_site_fract_y
_atom_site_fract_z
Si Si1 0.669881 0.673666 0.587326
Si Si2 0.827456 0.829876 0.333381
Si Si3 0.170773 0.827041 0.080278
Si Si4 0.330835 0.675002 0.000000
Si Si5 0.331208 0.329049 0.156006
Si Si6 0.325509 0.167480 0.500000
Si Si7 0.669391 0.670020 0.257702
O O1 0.500000 0.714315 0.594475
O O2 0.693137 0.500000 0.581484
O O3 0.758104 0.728621 0.629206
O O4 0.734140 0.751458 0.543592
O O5 0.769047 0.779255 0.286005
O O6 0.000000 0.807656 0.334158
O O7 0.782613 0.000000 0.341482
O O8 0.226611 0.776690 0.128008
O O9 0.000000 0.790216 0.076074
O O10 0.201900 0.000000 0.073965
O O11 0.256417 0.738103 0.043335
O O12 0.311424 0.500000 0.000000
O O13 0.500000 0.722354 0.000000
O O14 0.500000 0.296012 0.144039
O O15 0.294482 0.500000 0.145578
O O16 0.300802 0.293146 0.206868
O O17 0.500000 0.174149 0.500000
O O18 0.266036 0.000000 0.500000
O O19 0.500000 0.697348 0.269670
O O20 0.711394 0.500000 0.268064
#
# Coordination Sequence:
#
# PCOD8198747 Si02
#       7
#     8   8   8   4   8   4   8
#     4  10  20  35  57  83 109 139 179 225 270 320
#     4  11  24  38  52  76 111 147 183 225 273 325
#     4  11  24  39  56  83 118 151 184 224 271 325
#     4  11  24  41  62  86 110 141 186 235 278 324
#     4   9  19  37  60  85 112 143 183 228 272 323
#     4   9  17  31  54  83 112 141 174 216 268 323
#     4   9  19  37  60  84 109 140 182 230 275 322
#
# _framework density 19.248093000000001
#
# number of rings (size 3 to 8) (size 9 to 14) (size 15 to 20)
#    0.000    2.000    0.000    4.250    0.000   12.333 
#    0.000    5.417    0.000    2.500    0.000    0.000 
#    0.000    0.000    0.000    0.000    0.000    0.000 
#
# Total GULP energy -595414.561077 kJ/mol
# GULP energy per Si atom -12404.470022 kJ/mol
# Density = 1.920428 g / cm^3
# Si number density = 19.248093 Si / 1000 Ang^3
#
#
#
# Elastic Constant Matrix: (Units=GPa)
#
#
# Indices 1 2 3 4 5 6 
#
# 1 84.5090 57.4005 52.3229 0.0000 0.0000 0.0000
# 2 57.4005 82.4994 48.8490 0.0000 0.0000 0.0000
# 3 52.3229 48.8490 114.0206 0.0000 0.0000 0.0000
# 4 0.0000 0.0000 0.0000 23.4306 0.0000 0.0000
# 5 0.0000 0.0000 0.0000 0.0000 -11.8896 0.0000
# 6 0.0000 0.0000 0.0000 0.0000 0.0000 31.7095
#
#
#
# Elastic Compliance Matrix: (Units=1/GPa)
#
#
# Indices 1 2 3 4 5 6 
#
# 1 0.024618 -0.013988 -0.005304 0.000000 0.000000 0.000000
# 2 -0.013988 0.024189 -0.003944 0.000000 0.000000 0.000000
# 3 -0.005304 -0.003944 0.012894 0.000000 0.000000 0.000000
# 4 0.000000 0.000000 0.000000 0.042679 0.000000 0.000000
# 5 0.000000 0.000000 0.000000 0.000000 -0.084107 0.000000
# 6 0.000000 0.000000 0.000000 0.000000 0.000000 0.031536
#
#
# Mechanical properties :
#
#
# Convention : Reuss Voigt Hill
#
# Bulk Modulus (GPa) = 65.66570 66.46374 66.06472
# Shear Modulus (GPa) = 48.37549 16.81388 32.59469
#
# Velocity S-wave (km/s) = 5.01868 2.95877 4.11956
# Velocity P-wave (km/s) = 8.23240 6.80275 7.55148
#
# Compressibility (1/GPa) = 0.01522865
#
# Stress axis : x y z
#
# Youngs Moduli (GPa) = 40.62092 41.34126 77.55390
#
# Poissons Ratio (x) = 0.57826 0.41137
# Poissons Ratio (y) = 0.56819 0.30590
# Poissons Ratio (z) = 0.21546 0.16306
#
# Static dielectric constant tensor:
#      x y z
#    x 3.411220 0.000000 0.000000 
#    y 0.000000 3.570910 0.000000 
#    z 0.000000 0.000000 3.630770 
# 
# 
# High freq. dielectric constant tensor:
#      x y z
#    x 1.736920 0.000000 0.000000 
#    y 0.000000 1.756090 0.000000 
#    z 0.000000 0.000000 1.764890 
# 
# From -- ./inp_files/13809.got.cif
#   From: 2010.03.12/outbox.cif.g09.slc.cpg/sg47_7_cif.got.tgz:13809.got - 2010.04.14 03:12:58.
