data_PCOD8198935
_publ_section_title
;
Structure prediction by ZEFSAII (Michael W. Deem and Ramdas Pophale) SiO2 
 PCOD8198935
Probable space group: P M M M
;
_chemical_formula_sum "Si O2"
_cell_formula_units_Z 44
_cell_length_a 7.816553
_cell_length_b 9.010106
_cell_length_c 32.003952
_cell_angle_alpha 90.000000
_cell_angle_beta 90.000000
_cell_angle_gamma 90.000000
_cell_volume 2253.973406
_symmetry_space_group_name_H-M "P M M M"
_symmetry_group_IT_number 47
_symmetry_cell_setting 'orthorhombic'
loop_
_space_group_symop_operation_xyz
x,y,z
-x,-y,z
x,-y,-z
-x,y,-z
-x,-y,-z
x,y,-z
-x,y,z
x,-y,z
loop_
_atom_site_type_symbol
_atom_site_label
_atom_site_fract_x
_atom_site_fract_y
_atom_site_fract_z
Si Si1 0.307345 0.824219 0.954899
Si Si2 0.807984 0.823471 0.329221
Si Si3 0.197614 0.839060 0.580234
Si Si4 0.308382 0.326127 0.500000
Si Si5 0.192014 0.826018 0.133272
Si Si6 0.500000 0.323350 0.818541
Si Si7 0.500000 0.822935 0.271023
O O1 0.500000 0.765135 0.948265
O O2 0.195831 0.772526 0.915263
O O3 0.307753 0.000000 0.956608
O O4 0.236139 0.764691 0.000000
O O5 0.739310 0.771365 0.375284
O O6 0.670656 0.768815 0.295265
O O7 0.000000 0.761459 0.318860
O O8 0.814037 0.000000 0.329818
O O9 0.221246 0.728870 0.542040
O O10 0.000000 0.867210 0.586986
O O11 0.284695 0.000000 0.570655
O O12 0.293583 0.500000 0.500000
O O13 0.500000 0.267155 0.500000
O O14 0.328070 0.733005 0.159304
O O15 0.000000 0.796288 0.150266
O O16 0.239105 0.000000 0.137079
O O17 0.500000 0.500000 0.818361
O O18 0.500000 0.261292 0.772208
O O19 0.500000 0.000000 0.264248
#
# Coordination Sequence:
#
# PCOD8198935 Si02
#       7
#     8   8   8   4   8   4   4
#     4   8  13  24  48  83 119 148 178 228 289 339
#     4   8  16  32  56  87 113 131 166 223 278 329
#     4   9  18  34  56  80 105 135 174 219 265 315
#     4  11  24  35  44  70 110 149 186 221 254 302
#     4  10  20  36  61  88 114 149 195 243 285 332
#     4  12  26  42  57  79 117 158 190 232 287 347
#     4  10  20  36  62  86 106 138 179 227 284 339
#
# _framework density 19.521082
#
# number of rings (size 3 to 8) (size 9 to 14) (size 15 to 20)
#    0.000    2.636    0.909    3.000    1.273    3.636 
#    0.000    4.545    0.000    2.182    0.000    1.273 
#    0.000    0.000    0.000    0.000    0.000    0.000 
#
# Total GULP energy -545133.359459 kJ/mol
# GULP energy per Si atom -12389.394533 kJ/mol
# Density = 1.947665 g / cm^3
# Si number density = 19.521082 Si / 1000 Ang^3
#
#
#
# Elastic Constant Matrix: (Units=GPa)
#
#
# Indices 1 2 3 4 5 6 
#
# 1 105.4364 33.5595 70.2348 0.0000 0.0000 0.0000
# 2 33.5595 47.7197 43.7322 0.0000 0.0000 0.0000
# 3 70.2348 43.7322 168.6034 0.0000 0.0000 0.0000
# 4 0.0000 0.0000 0.0000 -4.9783 0.0000 0.0000
# 5 0.0000 0.0000 0.0000 0.0000 3196.0636 0.0000
# 6 0.0000 0.0000 0.0000 0.0000 0.0000 15.0917
#
#
#
# Elastic Compliance Matrix: (Units=1/GPa)
#
#
# Indices 1 2 3 4 5 6 
#
# 1 0.014346 -0.006050 -0.004407 0.000000 0.000000 0.000000
# 2 -0.006050 0.030042 -0.005272 0.000000 0.000000 0.000000
# 3 -0.004407 -0.005272 0.009134 0.000000 0.000000 0.000000
# 4 0.000000 0.000000 0.000000 -0.200873 0.000000 0.000000
# 5 0.000000 0.000000 0.000000 0.000000 0.000313 0.000000
# 6 0.000000 0.000000 0.000000 0.000000 0.000000 0.066262
#
#
# Mechanical properties :
#
#
# Convention : Reuss Voigt Hill
#
# Bulk Modulus (GPa) = 45.32245 68.53472 56.92859
# Shear Modulus (GPa) = -119.14780 652.85094 266.85157
#
# Velocity S-wave (km/s) = -7.82099 18.30737 11.70453
# Velocity P-wave (km/s) = 7.63477 21.95596 14.55634
#
# Compressibility (1/GPa) = 0.02206412
#
# Stress axis : x y z
#
# Youngs Moduli (GPa) = 69.70826 33.28665 109.47944
#
# Poissons Ratio (x) = 0.20140 0.48243
# Poissons Ratio (y) = 0.42176 0.57717
# Poissons Ratio (z) = 0.30717 0.17548
#
# Static dielectric constant tensor:
#      x y z
#    x 3.723840 0.000000 0.000000 
#    y 0.000000 3.016210 0.000000 
#    z 0.000000 0.000000 3.331070 
# 
# 
# High freq. dielectric constant tensor:
#      x y z
#    x 1.761800 0.000000 0.000000 
#    y 0.000000 1.700470 0.000000 
#    z 0.000000 0.000000 1.773250 
# 
# From -- ./inp_files/33981.got.cif
#   From: 2010.03.12/outbox.cif.g09.slc.cpg/sg47_17_cif.got.tgz:33981.got - 2010.04.14 03:12:58.
