data_PCOD8198410
_publ_section_title
;
Structure prediction by ZEFSAII (Michael W. Deem and Ramdas Pophale) SiO2 
 PCOD8198410
Probable space group: P M M M
;
_chemical_formula_sum "Si O2"
_cell_formula_units_Z 48
_cell_length_a 13.620556
_cell_length_b 9.211592
_cell_length_c 19.918248
_cell_angle_alpha 90.000000
_cell_angle_beta 90.000000
_cell_angle_gamma 90.000000
_cell_volume 2499.082915
_symmetry_space_group_name_H-M "P M M M"
_symmetry_group_IT_number 47
_symmetry_cell_setting 'orthorhombic'
loop_
_space_group_symop_operation_xyz
x,y,z
-x,-y,z
x,-y,-z
-x,y,-z
-x,-y,-z
x,y,-z
-x,y,z
x,-y,z
loop_
_atom_site_type_symbol
_atom_site_label
_atom_site_fract_x
_atom_site_fract_y
_atom_site_fract_z
Si Si1 0.500000 0.658495 0.357776
Si Si2 0.699942 0.335240 0.576146
Si Si3 0.000000 0.659126 0.421878
Si Si4 0.890596 0.171917 0.196491
Si Si5 0.314110 0.172999 0.868298
Si Si6 0.500000 0.829372 0.221926
Si Si7 0.385240 0.328107 0.000000
Si Si8 0.844090 0.828800 0.345399
O O1 0.500000 0.500000 0.322728
O O2 0.585917 0.674129 0.410939
O O3 0.500000 0.771346 0.297059
O O4 0.723076 0.283820 0.500000
O O5 0.740469 0.500000 0.586362
O O6 0.736884 0.224835 0.634159
O O7 0.093667 0.750940 0.402177
O O8 0.000000 0.500000 0.387316
O O9 0.000000 0.637873 0.500000
O O10 0.795560 0.225472 0.154486
O O11 0.876046 0.227390 0.272337
O O12 0.000000 0.225893 0.170910
O O13 0.889674 0.000000 0.195602
O O14 0.399819 0.220479 0.816162
O O15 0.333455 0.257137 0.936451
O O16 0.316923 0.000000 0.879988
O O17 0.500000 0.000000 0.227067
O O18 0.367956 0.500000 0.000000
O O19 0.500000 0.288683 0.000000
O O20 0.855115 0.000000 0.350221
#
# Coordination Sequence:
#
# PCOD8198410 Si02
#       8
#     4   8   4   8   8   4   4   8
#     4  10  21  36  55  77 106 149 193 231 282 352
#     4  10  21  37  54  74 105 146 191 238 289 350
#     4  11  23  37  53  77 111 148 189 238 291 349
#     4   9  18  35  58  85 115 149 190 234 278 329
#     4  10  20  36  62  88 116 154 191 227 271 334
#     4  10  20  34  54  87 119 143 182 239 294 337
#     4  11  23  39  60  89 126 156 183 228 281 326
#     4  11  21  36  58  82 109 142 186 242 296 340
#
# _framework density 19.207046999999999
#
# number of rings (size 3 to 8) (size 9 to 14) (size 15 to 20)
#    0.000    1.833    1.667    2.750    0.000    7.000 
#    0.000    2.083    0.000    4.000    0.000    0.000 
#    0.000    0.000    0.000    0.000    0.000    0.000 
#
# Total GULP energy -594782.372526 kJ/mol
# GULP energy per Si atom -12391.299428 kJ/mol
# Density = 1.916333 g / cm^3
# Si number density = 19.207047 Si / 1000 Ang^3
#
#
#
# Elastic Constant Matrix: (Units=GPa)
#
#
# Indices 1 2 3 4 5 6 
#
# 1 144.3179 32.2129 50.6935 0.0000 0.0000 0.0000
# 2 32.2129 56.3863 36.2966 0.0000 0.0000 0.0000
# 3 50.6935 36.2966 104.7041 0.0000 0.0000 0.0000
# 4 0.0000 0.0000 0.0000 17.3402 0.0000 0.0000
# 5 0.0000 0.0000 0.0000 0.0000 26.6549 0.0000
# 6 0.0000 0.0000 0.0000 0.0000 0.0000 22.1993
#
#
#
# Elastic Compliance Matrix: (Units=1/GPa)
#
#
# Indices 1 2 3 4 5 6 
#
# 1 0.008705 -0.002909 -0.003206 0.000000 0.000000 0.000000
# 2 -0.002909 0.023801 -0.006842 0.000000 0.000000 0.000000
# 3 -0.003206 -0.006842 0.013475 0.000000 0.000000 0.000000
# 4 0.000000 0.000000 0.000000 0.057670 0.000000 0.000000
# 5 0.000000 0.000000 0.000000 0.000000 0.037517 0.000000
# 6 0.000000 0.000000 0.000000 0.000000 0.000000 0.045046
#
#
# Mechanical properties :
#
#
# Convention : Reuss Voigt Hill
#
# Bulk Modulus (GPa) = 49.83610 60.42381 55.12995
# Shear Modulus (GPa) = 22.85012 25.65255 24.25134
#
# Velocity S-wave (km/s) = 3.45291 3.65852 3.55720
# Velocity P-wave (km/s) = 6.47301 7.02665 6.75551
#
# Compressibility (1/GPa) = 0.02006577
#
# Stress axis : x y z
#
# Youngs Moduli (GPa) = 114.88151 42.01445 74.21194
#
# Poissons Ratio (x) = 0.12223 0.23792
# Poissons Ratio (y) = 0.33421 0.50779
# Poissons Ratio (z) = 0.36830 0.28748
#
# Static dielectric constant tensor:
#      x y z
#    x 3.674080 0.000000 0.000000 
#    y 0.000000 3.371860 0.000000 
#    z 0.000000 0.000000 3.392550 
# 
# 
# High freq. dielectric constant tensor:
#      x y z
#    x 1.767780 0.000000 0.000000 
#    y 0.000000 1.726930 0.000000 
#    z 0.000000 0.000000 1.737870 
# 
# From -- ./inp_files/28074.got.cif
#   From: 2010.03.12/outbox.cif.g09.slc.cpg/sg47_15_cif.got.tgz:28074.got - 2010.04.14 03:12:58.
