data_PCOD8198326
_publ_section_title
;
Structure prediction by ZEFSAII (Michael W. Deem and Ramdas Pophale) SiO2 
 PCOD8198326
Probable space group: P M M M
;
_chemical_formula_sum "Si O2"
_cell_formula_units_Z 40
_cell_length_a 19.493408
_cell_length_b 8.978723
_cell_length_c 12.622653
_cell_angle_alpha 90.000000
_cell_angle_beta 90.000000
_cell_angle_gamma 90.000000
_cell_volume 2209.291338
_symmetry_space_group_name_H-M "P M M M"
_symmetry_group_IT_number 47
_symmetry_cell_setting 'orthorhombic'
loop_
_space_group_symop_operation_xyz
x,y,z
-x,-y,z
x,-y,-z
-x,y,-z
-x,-y,-z
x,y,-z
-x,y,z
x,-y,z
loop_
_atom_site_type_symbol
_atom_site_label
_atom_site_fract_x
_atom_site_fract_y
_atom_site_fract_z
Si Si1 0.079893 0.327433 0.000000
Si Si2 0.814536 0.827582 0.377009
Si Si3 0.581591 0.668383 0.000000
Si Si4 0.580873 0.172182 0.788373
Si Si5 0.080732 0.325194 0.228647
Si Si6 0.324968 0.325652 0.623074
O O1 0.108014 0.265391 0.887379
O O2 0.095882 0.500000 0.000000
O O3 0.000000 0.297384 0.000000
O O4 0.828292 0.798378 0.500000
O O5 0.881094 0.768597 0.317211
O O6 0.747613 0.738973 0.338090
O O7 0.802713 0.000000 0.351861
O O8 0.609184 0.751895 0.895664
O O9 0.609873 0.500000 0.000000
O O10 0.500000 0.671063 0.000000
O O11 0.500000 0.194746 0.777569
O O12 0.614065 0.248769 0.686740
O O13 0.601387 0.000000 0.792203
O O14 0.096562 0.500000 0.242361
O O15 0.000000 0.295514 0.241113
O O16 0.337162 0.288740 0.500000
O O17 0.325761 0.500000 0.645963
#
# Coordination Sequence:
#
# PCOD8198326 Si02
#       6
#     4   8   4   8   8   8
#     4   7  12  26  48  73 100 129 160 198 246 293
#     4  10  21  36  52  71 100 136 170 208 257 309
#     4   9  17  31  52  77 106 139 174 212 254 299
#     4  10  20  34  54  80 109 139 171 209 255 308
#     4   9  17  31  53  78 102 130 167 209 250 298
#     4  10  21  37  56  76 100 133 174 218 261 307
#
# _framework density 18.105353000000001
#
# number of rings (size 3 to 8) (size 9 to 14) (size 15 to 20)
#    0.000    2.600    0.000    3.300    0.000    6.000 
#    0.000    5.500    0.000    3.000    0.000    0.000 
#    0.000    0.000    0.000    0.000    0.000    0.000 
#
# Total GULP energy -495858.976050 kJ/mol
# GULP energy per Si atom -12396.474401 kJ/mol
# Density = 1.806414 g / cm^3
# Si number density = 18.105353 Si / 1000 Ang^3
#
#
#
# Elastic Constant Matrix: (Units=GPa)
#
#
# Indices 1 2 3 4 5 6 
#
# 1 54.4338 46.5764 51.0691 0.0000 0.0000 0.0000
# 2 46.5764 115.3618 67.4204 0.0000 0.0000 0.0000
# 3 51.0691 67.4204 104.4296 0.0000 0.0000 0.0000
# 4 0.0000 0.0000 0.0000 31.7166 0.0000 0.0000
# 5 0.0000 0.0000 0.0000 0.0000 9.3138 0.0000
# 6 0.0000 0.0000 0.0000 0.0000 0.0000 29.8008
#
#
#
# Elastic Compliance Matrix: (Units=1/GPa)
#
#
# Indices 1 2 3 4 5 6 
#
# 1 0.037199 -0.007046 -0.013643 0.000000 0.000000 0.000000
# 2 -0.007046 0.015255 -0.006403 0.000000 0.000000 0.000000
# 3 -0.013643 -0.006403 0.020382 0.000000 0.000000 0.000000
# 4 0.000000 0.000000 0.000000 0.031529 0.000000 0.000000
# 5 0.000000 0.000000 0.000000 0.000000 0.107367 0.000000
# 6 0.000000 0.000000 0.000000 0.000000 0.000000 0.033556
#
#
# Mechanical properties :
#
#
# Convention : Reuss Voigt Hill
#
# Bulk Modulus (GPa) = 53.61238 67.15079 60.38158
# Shear Modulus (GPa) = 16.35648 21.44353 18.90000
#
# Velocity S-wave (km/s) = 3.00893 3.44521 3.23443
# Velocity P-wave (km/s) = 6.46121 7.27979 6.88268
#
# Compressibility (1/GPa) = 0.01865241
#
# Stress axis : x y z
#
# Youngs Moduli (GPa) = 26.88249 65.55088 49.06400
#
# Poissons Ratio (x) = 0.46185 0.66936
# Poissons Ratio (y) = 0.18941 0.31418
# Poissons Ratio (z) = 0.36675 0.41975
#
# Static dielectric constant tensor:
#      x y z
#    x 3.072640 0.000000 0.000000 
#    y 0.000000 3.348680 0.000000 
#    z 0.000000 0.000000 3.587520 
# 
# 
# High freq. dielectric constant tensor:
#      x y z
#    x 1.675890 0.000000 0.000000 
#    y 0.000000 1.701730 0.000000 
#    z 0.000000 0.000000 1.714260 
# 
# From -- ./inp_files/18969.got.cif
#   From: 2010.03.12/outbox.cif.g09.slc.cpg/sg47_10_cif.got.tgz:18969.got - 2010.04.14 03:12:58.
