data_PCOD8198339
_publ_section_title
;
Structure prediction by ZEFSAII (Michael W. Deem and Ramdas Pophale) SiO2 
 PCOD8198339
Probable space group: P M M M
;
_chemical_formula_sum "Si O2"
_cell_formula_units_Z 48
_cell_length_a 30.811533
_cell_length_b 8.842103
_cell_length_c 9.168990
_cell_angle_alpha 90.000000
_cell_angle_beta 90.000000
_cell_angle_gamma 90.000000
_cell_volume 2497.988159
_symmetry_space_group_name_H-M "P M M M"
_symmetry_group_IT_number 47
_symmetry_cell_setting 'orthorhombic'
loop_
_space_group_symop_operation_xyz
x,y,z
-x,-y,z
x,-y,-z
-x,y,-z
-x,-y,-z
x,y,-z
-x,y,z
x,-y,z
loop_
_atom_site_type_symbol
_atom_site_label
_atom_site_fract_x
_atom_site_fract_y
_atom_site_fract_z
Si Si1 0.165617 0.675037 0.167941
Si Si2 0.587202 0.822084 0.166456
Si Si3 0.500000 0.670533 0.173337
Si Si4 0.000000 0.670768 0.673502
Si Si5 0.666027 0.674808 0.670775
Si Si6 0.912704 0.171962 0.326817
Si Si7 0.744459 0.175189 0.830014
O O1 0.175608 0.500000 0.198876
O O2 0.126043 0.727953 0.266003
O O3 0.207481 0.772002 0.212695
O O4 0.153446 0.703156 0.000000
O O5 0.543223 0.751266 0.232966
O O6 0.627408 0.771640 0.262438
O O7 0.582311 0.000000 0.174680
O O8 0.594853 0.768253 0.000000
O O9 0.500000 0.500000 0.231394
O O10 0.500000 0.680312 0.000000
O O11 0.957708 0.758256 0.731834
O O12 0.000000 0.500000 0.735320
O O13 0.000000 0.668723 0.500000
O O14 0.667729 0.705780 0.500000
O O15 0.658075 0.500000 0.707549
O O16 0.711317 0.725861 0.738175
O O17 0.910827 0.178789 0.500000
O O18 0.908928 0.000000 0.270488
O O19 0.739101 0.000000 0.789001
O O20 0.735178 0.203662 0.000000
#
# Coordination Sequence:
#
# PCOD8198339 Si02
#       7
#     8   8   4   4   8   8   8
#     4  10  21  37  57  81 109 141 177 219 268 320
#     4  10  20  35  57  84 112 143 181 224 269 318
#     4   9  17  31  54  83 112 143 180 222 266 313
#     4   9  17  31  52  77 106 141 180 222 266 313
#     4  11  24  39  55  79 111 145 181 222 268 318
#     4  10  20  34  54  80 109 142 180 221 266 317
#     4  10  21  38  60  83 106 137 178 221 267 321
#
# _framework density 19.215461999999999
#
# number of rings (size 3 to 8) (size 9 to 14) (size 15 to 20)
#    0.000    2.000    0.000    3.500    0.000   10.000 
#    0.000    0.833    0.000    5.000    0.000    0.000 
#    0.000    0.000    0.000    0.000    0.000    0.000 
#
# Total GULP energy -595406.761682 kJ/mol
# GULP energy per Si atom -12404.307535 kJ/mol
# Density = 1.917173 g / cm^3
# Si number density = 19.215462 Si / 1000 Ang^3
#
#
#
# Elastic Constant Matrix: (Units=GPa)
#
#
# Indices 1 2 3 4 5 6 
#
# 1 119.5522 29.4266 37.0875 0.0000 0.0000 0.0000
# 2 29.4266 78.4029 29.3338 0.0000 0.0000 0.0000
# 3 37.0875 29.3338 42.9851 0.0000 0.0000 0.0000
# 4 0.0000 0.0000 0.0000 25.9312 0.0000 0.0000
# 5 0.0000 0.0000 0.0000 0.0000 34.9234 0.0000
# 6 0.0000 0.0000 0.0000 0.0000 0.0000 44.5254
#
#
#
# Elastic Compliance Matrix: (Units=1/GPa)
#
#
# Indices 1 2 3 4 5 6 
#
# 1 0.011460 -0.000808 -0.009336 0.000000 0.000000 0.000000
# 2 -0.000808 0.017185 -0.011030 0.000000 0.000000 0.000000
# 3 -0.009336 -0.011030 0.038846 0.000000 0.000000 0.000000
# 4 0.000000 0.000000 0.000000 0.038564 0.000000 0.000000
# 5 0.000000 0.000000 0.000000 0.000000 0.028634 0.000000
# 6 0.000000 0.000000 0.000000 0.000000 0.000000 0.022459
#
#
# Mechanical properties :
#
#
# Convention : Reuss Voigt Hill
#
# Bulk Modulus (GPa) = 39.77348 48.07068 43.92208
# Shear Modulus (GPa) = 24.05286 30.74881 27.40084
#
# Velocity S-wave (km/s) = 3.54184 4.00460 3.78031
# Velocity P-wave (km/s) = 6.12126 6.81568 6.47778
#
# Compressibility (1/GPa) = 0.02514238
#
# Stress axis : x y z
#
# Youngs Moduli (GPa) = 87.26285 58.19127 25.74278
#
# Poissons Ratio (x) = 0.04703 0.24033
# Poissons Ratio (y) = 0.07052 0.28394
# Poissons Ratio (z) = 0.81467 0.64184
#
# Static dielectric constant tensor:
#      x y z
#    x 3.645060 0.000000 0.000000 
#    y 0.000000 3.724650 0.000000 
#    z 0.000000 0.000000 3.273620 
# 
# 
# High freq. dielectric constant tensor:
#      x y z
#    x 1.763970 0.000000 0.000000 
#    y 0.000000 1.766390 0.000000 
#    z 0.000000 0.000000 1.718380 
# 
# From -- ./inp_files/2731.got.cif
#   From: 2010.03.12/outbox.cif.g09.slc.cpg/sg47_2_cif.got.tgz:2731.got - 2010.04.14 03:12:58.
