data_PCOD8198996
_publ_section_title
;
Structure prediction by ZEFSAII (Michael W. Deem and Ramdas Pophale) SiO2 
 PCOD8198996
Probable space group: P M M M
;
_chemical_formula_sum "Si O2"
_cell_formula_units_Z 44
_cell_length_a 7.776864
_cell_length_b 9.006890
_cell_length_c 31.267995
_cell_angle_alpha 90.000000
_cell_angle_beta 90.000000
_cell_angle_gamma 90.000000
_cell_volume 2190.177922
_symmetry_space_group_name_H-M "P M M M"
_symmetry_group_IT_number 47
_symmetry_cell_setting 'orthorhombic'
loop_
_space_group_symop_operation_xyz
x,y,z
-x,-y,z
x,-y,-z
-x,y,-z
-x,-y,-z
x,y,-z
-x,y,z
x,-y,z
loop_
_atom_site_type_symbol
_atom_site_label
_atom_site_fract_x
_atom_site_fract_y
_atom_site_fract_z
Si Si1 0.500000 0.676222 0.224403
Si Si2 0.500000 0.676719 0.679085
Si Si3 0.190876 0.329272 0.166579
Si Si4 0.701393 0.330507 0.451624
Si Si5 0.805836 0.828778 0.370507
Si Si6 0.303575 0.167994 0.914912
Si Si7 0.799736 0.326651 0.000000
O O1 0.500000 0.500000 0.225980
O O2 0.500000 0.738175 0.272461
O O3 0.670616 0.735219 0.200173
O O4 0.500000 0.500000 0.676566
O O5 0.326424 0.733231 0.657119
O O6 0.234244 0.500000 0.156006
O O7 0.191277 0.241091 0.122222
O O8 0.000000 0.313247 0.186691
O O9 0.744174 0.281269 0.500000
O O10 0.500000 0.315646 0.442201
O O11 0.760162 0.500000 0.444243
O O12 0.802965 0.223618 0.419718
O O13 0.000000 0.806367 0.352925
O O14 0.750596 0.000000 0.368250
O O15 0.500000 0.173139 0.899790
O O16 0.240074 0.000000 0.922236
O O17 0.285987 0.256796 0.958570
O O18 0.760293 0.500000 0.000000
O O19 0.000000 0.290827 0.000000
#
# Coordination Sequence:
#
# PCOD8198996 Si02
#       7
#     4   4   8   8   8   8   4
#     4   9  20  39  63  91 119 147 187 245 301 348
#     4  11  23  41  66  92 118 154 201 254 308 360
#     4  10  20  37  63  91 118 151 191 235 289 351
#     4   9  18  34  58  88 120 156 200 249 300 352
#     4  11  24  40  59  87 124 164 203 245 299 362
#     4  11  23  38  57  84 118 156 196 237 286 342
#     4  11  24  39  56  82 114 153 200 244 289 339
#
# _framework density 20.089691999999999
#
# number of rings (size 3 to 8) (size 9 to 14) (size 15 to 20)
#    0.000    1.727    1.818    3.000    0.000    8.364 
#    0.000    6.364    0.000    0.000    0.000    0.000 
#    0.000    0.000    0.000    0.000    0.000    0.000 
#
# Total GULP energy -545713.752477 kJ/mol
# GULP energy per Si atom -12402.585284 kJ/mol
# Density = 2.004397 g / cm^3
# Si number density = 20.089692 Si / 1000 Ang^3
#
#
#
# Elastic Constant Matrix: (Units=GPa)
#
#
# Indices 1 2 3 4 5 6 
#
# 1 114.3325 44.2703 53.2325 0.0000 0.0000 0.0000
# 2 44.2703 88.6709 40.6655 0.0000 0.0000 0.0000
# 3 53.2325 40.6655 131.1814 0.0000 0.0000 0.0000
# 4 0.0000 0.0000 0.0000 -12.1873 0.0000 0.0000
# 5 0.0000 0.0000 0.0000 0.0000 15.0551 0.0000
# 6 0.0000 0.0000 0.0000 0.0000 0.0000 24.4564
#
#
#
# Elastic Compliance Matrix: (Units=1/GPa)
#
#
# Indices 1 2 3 4 5 6 
#
# 1 0.012107 -0.004420 -0.003543 0.000000 0.000000 0.000000
# 2 -0.004420 0.014760 -0.002782 0.000000 0.000000 0.000000
# 3 -0.003543 -0.002782 0.009923 0.000000 0.000000 0.000000
# 4 0.000000 0.000000 0.000000 -0.082053 0.000000 0.000000
# 5 0.000000 0.000000 0.000000 0.000000 0.066422 0.000000
# 6 0.000000 0.000000 0.000000 0.000000 0.000000 0.040889
#
#
# Mechanical properties :
#
#
# Convention : Reuss Voigt Hill
#
# Bulk Modulus (GPa) = 65.35530 67.83572 66.59551
# Shear Modulus (GPa) = 56.40791 18.53261 37.47026
#
# Velocity S-wave (km/s) = 5.30462 3.04055 4.32342
# Velocity P-wave (km/s) = 8.37383 6.79458 7.62520
#
# Compressibility (1/GPa) = 0.01530098
#
# Stress axis : x y z
#
# Youngs Moduli (GPa) = 82.59387 67.74946 100.77462
#
# Poissons Ratio (x) = 0.29945 0.35704
# Poissons Ratio (y) = 0.36506 0.28036
# Poissons Ratio (z) = 0.29263 0.18848
#
# Static dielectric constant tensor:
#      x y z
#    x 3.698710 0.000000 0.000000 
#    y 0.000000 3.568650 0.000000 
#    z 0.000000 0.000000 3.683290 
# 
# 
# High freq. dielectric constant tensor:
#      x y z
#    x 1.794130 0.000000 0.000000 
#    y 0.000000 1.774920 0.000000 
#    z 0.000000 0.000000 1.779310 
# 
# From -- ./inp_files/33968.got.cif
#   From: 2010.03.12/outbox.cif.g09.slc.cpg/sg47_17_cif.got.tgz:33968.got - 2010.04.14 03:12:58.
