data_PCOD8198753
_publ_section_title
;
Structure prediction by ZEFSAII (Michael W. Deem and Ramdas Pophale) SiO2 
 PCOD8198753
Probable space group: P M M M
;
_chemical_formula_sum "Si O2"
_cell_formula_units_Z 56
_cell_length_a 20.130727
_cell_length_b 9.434807
_cell_length_c 15.075771
_cell_angle_alpha 90.000000
_cell_angle_beta 90.000000
_cell_angle_gamma 90.000000
_cell_volume 2863.334010
_symmetry_space_group_name_H-M "P M M M"
_symmetry_group_IT_number 47
_symmetry_cell_setting 'orthorhombic'
loop_
_space_group_symop_operation_xyz
x,y,z
-x,-y,z
x,-y,-z
-x,y,-z
-x,-y,-z
x,y,-z
-x,y,z
x,-y,z
loop_
_atom_site_type_symbol
_atom_site_label
_atom_site_fract_x
_atom_site_fract_y
_atom_site_fract_z
Si Si1 0.386364 0.664477 0.900116
Si Si2 0.926550 0.833456 0.285156
Si Si3 0.574946 0.836709 0.265477
Si Si4 0.236413 0.659726 0.866982
Si Si5 0.884720 0.163121 0.094750
Si Si6 0.195965 0.339975 0.667457
Si Si7 0.665916 0.664291 0.599986
O O1 0.396901 0.500000 0.873925
O O2 0.424868 0.762633 0.830763
O O3 0.309230 0.705696 0.896426
O O4 0.412973 0.692739 0.000000
O O5 0.924601 0.783131 0.181410
O O6 0.869674 0.757008 0.342922
O O7 0.000000 0.792631 0.320918
O O8 0.914509 0.000000 0.293854
O O9 0.500000 0.826973 0.302642
O O10 0.623604 0.760429 0.334237
O O11 0.597392 0.000000 0.255614
O O12 0.221473 0.500000 0.897033
O O13 0.184883 0.758838 0.916475
O O14 0.229866 0.678145 0.762308
O O15 0.868289 0.000000 0.109592
O O16 0.923480 0.185598 0.000000
O O17 0.171977 0.500000 0.649623
O O18 0.255410 0.295368 0.601244
O O19 0.640100 0.688600 0.500000
O O20 0.657766 0.500000 0.629164
#
# Coordination Sequence:
#
# PCOD8198753 Si02
#       7
#     8   8   8   8   8   8   8
#     4  10  20  35  57  83 112 151 199 245 287 333
#     4   9  18  31  47  70 102 143 187 226 270 328
#     4  11  25  42  59  83 120 160 192 231 283 339
#     4   9  16  29  49  72 101 136 175 224 279 328
#     4   9  17  27  40  63  96 134 178 227 276 324
#     4   9  17  32  55  81 108 137 174 224 280 334
#     4  10  21  40  67  94 116 142 183 234 288 348
#
# _framework density 19.55762
#
# number of rings (size 3 to 8) (size 9 to 14) (size 15 to 20)
#    0.000    2.429    1.429    0.857    0.000    4.857 
#    0.000    4.286    0.000    0.429    0.000    7.000 
#    0.000    0.000    0.000    0.000    0.000    0.000 
#
# Total GULP energy -694069.892113 kJ/mol
# GULP energy per Si atom -12394.105216 kJ/mol
# Density = 1.951311 g / cm^3
# Si number density = 19.557620 Si / 1000 Ang^3
#
#
#
# Elastic Constant Matrix: (Units=GPa)
#
#
# Indices 1 2 3 4 5 6 
#
# 1 103.6169 59.1573 33.2530 0.0000 0.0000 0.0000
# 2 59.1573 84.8436 38.8754 0.0000 0.0000 0.0000
# 3 33.2530 38.8754 71.6241 0.0000 0.0000 0.0000
# 4 0.0000 0.0000 0.0000 17.1415 0.0000 0.0000
# 5 0.0000 0.0000 0.0000 0.0000 70.5961 0.0000
# 6 0.0000 0.0000 0.0000 0.0000 0.0000 26.1603
#
#
#
# Elastic Compliance Matrix: (Units=1/GPa)
#
#
# Indices 1 2 3 4 5 6 
#
# 1 0.016216 -0.010458 -0.001852 0.000000 0.000000 0.000000
# 2 -0.010458 0.022432 -0.007320 0.000000 0.000000 0.000000
# 3 -0.001852 -0.007320 0.018795 0.000000 0.000000 0.000000
# 4 0.000000 0.000000 0.000000 0.058338 0.000000 0.000000
# 5 0.000000 0.000000 0.000000 0.000000 0.014165 0.000000
# 6 0.000000 0.000000 0.000000 0.000000 0.000000 0.038226
#
#
# Mechanical properties :
#
#
# Convention : Reuss Voigt Hill
#
# Bulk Modulus (GPa) = 54.99880 58.07290 56.53585
# Shear Modulus (GPa) = 23.41982 31.36617 27.39300
#
# Velocity S-wave (km/s) = 3.46421 4.00907 3.74656
# Velocity P-wave (km/s) = 6.64707 7.15457 6.90548
#
# Compressibility (1/GPa) = 0.01818221
#
# Stress axis : x y z
#
# Youngs Moduli (GPa) = 61.66719 44.57849 53.20551
#
# Poissons Ratio (x) = 0.46620 0.09856
# Poissons Ratio (y) = 0.64491 0.38948
# Poissons Ratio (z) = 0.11423 0.32633
#
# Static dielectric constant tensor:
#      x y z
#    x 3.513830 0.000000 0.000000 
#    y 0.000000 3.514210 0.000000 
#    z 0.000000 0.000000 3.585890 
# 
# 
# High freq. dielectric constant tensor:
#      x y z
#    x 1.754510 0.000000 0.000000 
#    y 0.000000 1.749740 0.000000 
#    z 0.000000 0.000000 1.751570 
# 
# From -- ./inp_files/11187.got.cif
#   From: 2010.03.12/outbox.cif.g09.slc.cpg/sg47_6_cif.got.tgz:11187.got - 2010.04.14 03:12:58.
