data_PCOD8198927
_publ_section_title
;
Structure prediction by ZEFSAII (Michael W. Deem and Ramdas Pophale) SiO2 
 PCOD8198927
Probable space group: P M M M
;
_chemical_formula_sum "Si O2"
_cell_formula_units_Z 64
_cell_length_a 9.041731
_cell_length_b 15.181845
_cell_length_c 23.774261
_cell_angle_alpha 90.000000
_cell_angle_beta 90.000000
_cell_angle_gamma 90.000000
_cell_volume 3263.496577
_symmetry_space_group_name_H-M "P M M M"
_symmetry_group_IT_number 47
_symmetry_cell_setting 'orthorhombic'
loop_
_space_group_symop_operation_xyz
x,y,z
-x,-y,z
x,-y,-z
-x,y,-z
-x,-y,-z
x,y,-z
-x,y,z
x,-y,z
loop_
_atom_site_type_symbol
_atom_site_label
_atom_site_fract_x
_atom_site_fract_y
_atom_site_fract_z
Si Si1 0.669688 0.400781 0.647257
Si Si2 0.828158 0.752872 0.065657
Si Si3 0.669614 0.400903 0.128272
Si Si4 0.171962 0.101290 0.368269
Si Si5 0.669134 0.900791 0.864216
Si Si6 0.830477 0.851274 0.755626
Si Si7 0.169587 0.355873 0.239667
Si Si8 0.325424 0.249542 0.436505
O O1 0.500000 0.380051 0.663546
O O2 0.685285 0.500000 0.623603
O O3 0.770193 0.390600 0.701633
O O4 0.727154 0.333766 0.599600
O O5 0.754326 0.662933 0.085962
O O6 0.762535 0.837780 0.095941
O O7 0.000000 0.747598 0.081030
O O8 0.799238 0.763822 0.000000
O O9 0.500000 0.370452 0.132182
O O10 0.682588 0.500000 0.104314
O O11 0.737789 0.399848 0.190251
O O12 0.230387 0.122232 0.305621
O O13 0.257445 0.159792 0.413101
O O14 0.000000 0.125526 0.371763
O O15 0.202090 0.000000 0.383425
O O16 0.500000 0.868404 0.863535
O O17 0.730946 0.900591 0.801029
O O18 0.681388 0.000000 0.887898
O O19 0.813482 0.748123 0.765145
O O20 0.000000 0.882271 0.762448
O O21 0.000000 0.385258 0.234162
O O22 0.269082 0.263881 0.500000
O O23 0.500000 0.239555 0.434463
#
# Coordination Sequence:
#
# PCOD8198927 Si02
#       8
#     8   8   8   8   8   8   8   8
#     4  10  21  37  58  84 115 152 193 238 290 348
#     4  11  25  44  65  89 118 157 204 250 295 344
#     4  11  24  41  63  91 123 159 197 240 294 354
#     4  10  21  38  60  85 114 150 190 233 285 345
#     4  11  24  40  62  93 125 158 196 241 295 352
#     4  10  20  36  60  88 119 155 193 237 291 350
#     4  11  21  35  60  91 121 154 192 237 291 349
#     4  10  22  39  58  81 111 149 193 242 292 341
#
# _framework density 19.610866999999999
#
# number of rings (size 3 to 8) (size 9 to 14) (size 15 to 20)
#    0.000    1.500    2.500    2.250    0.000    7.750 
#    0.000    5.000    0.000    0.000    0.000    1.750 
#    0.000    0.000    0.000    0.000    0.000    0.000 
#
# Total GULP energy -793920.037409 kJ/mol
# GULP energy per Si atom -12405.000585 kJ/mol
# Density = 1.956623 g / cm^3
# Si number density = 19.610867 Si / 1000 Ang^3
#
#
#
# Elastic Constant Matrix: (Units=GPa)
#
#
# Indices 1 2 3 4 5 6 
#
# 1 91.2786 45.6004 56.4437 0.0000 0.0000 0.0000
# 2 45.6004 105.8991 42.7439 0.0000 0.0000 0.0000
# 3 56.4437 42.7439 103.2843 0.0000 0.0000 0.0000
# 4 0.0000 0.0000 0.0000 13.5515 0.0000 0.0000
# 5 0.0000 0.0000 0.0000 0.0000 30.2954 0.0000
# 6 0.0000 0.0000 0.0000 0.0000 0.0000 16.5645
#
#
#
# Elastic Compliance Matrix: (Units=1/GPa)
#
#
# Indices 1 2 3 4 5 6 
#
# 1 0.018240 -0.004599 -0.008065 0.000000 0.000000 0.000000
# 2 -0.004599 0.012496 -0.002658 0.000000 0.000000 0.000000
# 3 -0.008065 -0.002658 0.015189 0.000000 0.000000 0.000000
# 4 0.000000 0.000000 0.000000 0.073792 0.000000 0.000000
# 5 0.000000 0.000000 0.000000 0.000000 0.033008 0.000000
# 6 0.000000 0.000000 0.000000 0.000000 0.000000 0.060370
#
#
# Mechanical properties :
#
#
# Convention : Reuss Voigt Hill
#
# Bulk Modulus (GPa) = 65.43747 65.55977 65.49862
# Shear Modulus (GPa) = 20.09375 22.46057 21.27716
#
# Velocity S-wave (km/s) = 3.20445 3.38792 3.29746
# Velocity P-wave (km/s) = 6.86525 6.98619 6.92599
#
# Compressibility (1/GPa) = 0.01528176
#
# Stress axis : x y z
#
# Youngs Moduli (GPa) = 54.82485 80.02414 65.83585
#
# Poissons Ratio (x) = 0.36803 0.53094
# Poissons Ratio (y) = 0.25214 0.17500
# Poissons Ratio (z) = 0.44214 0.21272
#
# Static dielectric constant tensor:
#      x y z
#    x 3.625580 0.000000 0.000000 
#    y 0.000000 3.693630 0.000000 
#    z 0.000000 0.000000 3.573530 
# 
# 
# High freq. dielectric constant tensor:
#      x y z
#    x 1.766030 0.000000 0.000000 
#    y 0.000000 1.779170 0.000000 
#    z 0.000000 0.000000 1.759750 
# 
# From -- ./inp_files/7817.got.cif
#   From: 2010.03.12/outbox.cif.g09.slc.cpg/sg47_4_cif.got.tgz:7817.got - 2010.04.14 03:12:58.
