data_PCOD8198099
_publ_section_title
;
Structure prediction by ZEFSAII (Michael W. Deem and Ramdas Pophale) SiO2 
 PCOD8198099
Probable space group: P M M M
;
_chemical_formula_sum "Si O2"
_cell_formula_units_Z 36
_cell_length_a 9.074918
_cell_length_b 23.324522
_cell_length_c 8.720961
_cell_angle_alpha 90.000000
_cell_angle_beta 90.000000
_cell_angle_gamma 90.000000
_cell_volume 1845.949459
_symmetry_space_group_name_H-M "P M M M"
_symmetry_group_IT_number 47
_symmetry_cell_setting 'orthorhombic'
loop_
_space_group_symop_operation_xyz
x,y,z
-x,-y,z
x,-y,-z
-x,y,-z
-x,-y,-z
x,y,-z
-x,y,z
x,-y,z
loop_
_atom_site_type_symbol
_atom_site_label
_atom_site_fract_x
_atom_site_fract_y
_atom_site_fract_z
Si Si1 0.834411 0.563105 0.317604
Si Si2 0.664509 0.328007 0.317784
Si Si3 0.330577 0.892764 0.820327
Si Si4 0.166429 0.000000 0.681072
Si Si5 0.172259 0.785986 0.320861
O O1 0.835107 0.566683 0.500000
O O2 0.776986 0.500000 0.265757
O O3 0.730663 0.612912 0.249039
O O4 0.000000 0.572788 0.256248
O O5 0.661026 0.331543 0.500000
O O6 0.500000 0.319687 0.252012
O O7 0.765836 0.275181 0.265644
O O8 0.500000 0.890864 0.767141
O O9 0.254109 0.833532 0.777511
O O10 0.250091 0.943880 0.734989
O O11 0.317345 0.903527 0.000000
O O12 0.162326 0.000000 0.500000
O O13 0.000000 0.000000 0.747160
O O14 0.203961 0.796649 0.500000
O O15 0.000000 0.788053 0.284530
#
# Coordination Sequence:
#
# PCOD8198099 Si02
#       5
#     8   8   8   4   8
#     4   8  13  21  33  51  80 120 163 206 254 308
#     4   9  16  25  39  61  90 125 165 210 259 309
#     4  11  24  40  58  82 111 141 174 213 258 306
#     4  11  24  41  62  88 114 141 176 213 250 298
#     4  10  20  34  53  76 102 135 176 218 260 310
#
# _framework density 19.502158999999999
#
# number of rings (size 3 to 8) (size 9 to 14) (size 15 to 20)
#    0.000    2.333    0.000    4.000    0.000   11.111 
#    0.000    2.222    0.000    0.000    0.000    0.000 
#    0.000    0.889    0.000    9.333    0.000   12.889 
#
# Total GULP energy -446377.554931 kJ/mol
# GULP energy per Si atom -12399.376526 kJ/mol
# Density = 1.945777 g / cm^3
# Si number density = 19.502159 Si / 1000 Ang^3
#
#
#
# Elastic Constant Matrix: (Units=GPa)
#
#
# Indices 1 2 3 4 5 6 
#
# 1 152.4609 77.3279 27.6453 0.0000 0.0000 0.0000
# 2 77.3279 159.2855 21.1461 0.0000 0.0000 0.0000
# 3 27.6453 21.1461 26.7398 0.0000 0.0000 0.0000
# 4 0.0000 0.0000 0.0000 13.9167 0.0000 0.0000
# 5 0.0000 0.0000 0.0000 0.0000 18.1177 0.0000
# 6 0.0000 0.0000 0.0000 0.0000 0.0000 55.1741
#
#
#
# Elastic Compliance Matrix: (Units=1/GPa)
#
#
# Indices 1 2 3 4 5 6 
#
# 1 0.009775 -0.003803 -0.007099 0.000000 0.000000 0.000000
# 2 -0.003803 0.008494 -0.002785 0.000000 0.000000 0.000000
# 3 -0.007099 -0.002785 0.046939 0.000000 0.000000 0.000000
# 4 0.000000 0.000000 0.000000 0.071856 0.000000 0.000000
# 5 0.000000 0.000000 0.000000 0.000000 0.055195 0.000000
# 6 0.000000 0.000000 0.000000 0.000000 0.000000 0.018124
#
#
# Mechanical properties :
#
#
# Convention : Reuss Voigt Hill
#
# Bulk Modulus (GPa) = 26.43107 65.63610 46.03359
# Shear Modulus (GPa) = 19.97050 31.59950 25.78500
#
# Velocity S-wave (km/s) = 3.20349 4.02967 3.64010
# Velocity P-wave (km/s) = 5.22164 7.44177 6.42827
#
# Compressibility (1/GPa) = 0.03783426
#
# Stress axis : x y z
#
# Youngs Moduli (GPa) = 102.29984 117.72874 21.30419
#
# Poissons Ratio (x) = 0.44774 0.15123
# Poissons Ratio (y) = 0.38906 0.05934
# Poissons Ratio (z) = 0.72619 0.32791
#
# Static dielectric constant tensor:
#      x y z
#    x 3.864240 0.000000 0.000000 
#    y 0.000000 9.108070 0.000000 
#    z 0.000000 0.000000 3.053200 
# 
# 
# High freq. dielectric constant tensor:
#      x y z
#    x 1.772790 0.000000 0.000000 
#    y 0.000000 1.780820 0.000000 
#    z 0.000000 0.000000 1.704470 
# 
# From -- ./inp_files/1404.got.cif
#   From: 2010.03.12/outbox.cif.g09.slc.cpg/sg47_1_cif.got.tgz:1404.got - 2010.04.14 03:12:58.
