data_PCOD8198394
_publ_section_title
;
Structure prediction by ZEFSAII (Michael W. Deem and Ramdas Pophale) SiO2 
 PCOD8198394
Probable space group: P M M M
;
_chemical_formula_sum "Si O2"
_cell_formula_units_Z 64
_cell_length_a 8.899543
_cell_length_b 14.319635
_cell_length_c 25.348852
_cell_angle_alpha 90.000000
_cell_angle_beta 90.000000
_cell_angle_gamma 90.000000
_cell_volume 3230.412259
_symmetry_space_group_name_H-M "P M M M"
_symmetry_group_IT_number 47
_symmetry_cell_setting 'orthorhombic'
loop_
_space_group_symop_operation_xyz
x,y,z
-x,-y,z
x,-y,-z
-x,y,-z
-x,-y,-z
x,y,-z
-x,y,z
x,-y,z
loop_
_atom_site_type_symbol
_atom_site_label
_atom_site_fract_x
_atom_site_fract_y
_atom_site_fract_z
Si Si1 0.672728 0.270322 0.558900
Si Si2 0.671253 0.608095 0.846112
Si Si3 0.177133 0.284217 0.246446
Si Si4 0.176080 0.699298 0.938205
Si Si5 0.178147 0.901675 0.059291
Si Si6 0.676087 0.105401 0.280268
Si Si7 0.827060 0.105219 0.608943
Si Si8 0.676597 0.393129 0.657326
O O1 0.699145 0.310391 0.500000
O O2 0.500000 0.241539 0.567385
O O3 0.773485 0.177573 0.564721
O O4 0.720014 0.349779 0.600626
O O5 0.500000 0.642073 0.840601
O O6 0.684763 0.500000 0.831958
O O7 0.776431 0.664151 0.806595
O O8 0.728976 0.623991 0.905715
O O9 0.238536 0.178302 0.242807
O O10 0.240878 0.336529 0.297283
O O11 0.000000 0.281746 0.250545
O O12 0.228768 0.802454 0.916053
O O13 0.000000 0.682787 0.928388
O O14 0.213713 0.688442 0.000000
O O15 0.000000 0.899662 0.057502
O O16 0.231762 0.000000 0.087667
O O17 0.240778 0.904366 0.000000
O O18 0.500000 0.124215 0.276665
O O19 0.726370 0.123329 0.339946
O O20 0.717370 0.000000 0.262420
O O21 0.000000 0.123382 0.623992
O O22 0.804578 0.000000 0.587388
O O23 0.500000 0.386806 0.668330
O O24 0.731824 0.500000 0.657764
#
# Coordination Sequence:
#
# PCOD8198394 Si02
#       8
#     8   8   8   8   8   8   8   8
#     4  10  21  36  55  81 114 154 198 242 290 348
#     4  11  25  43  61  82 112 153 200 247 295 349
#     4  12  24  39  63  91 118 148 187 238 293 349
#     4   9  18  34  58  88 120 154 193 239 293 350
#     4   7  10  20  43  76 111 145 181 220 264 319
#     4  10  20  36  61  90 120 154 189 228 279 342
#     4  10  20  34  54  82 115 152 193 236 286 342
#     4  10  21  38  60  84 112 149 193 240 293 353
#
# _framework density 19.811712
#
# number of rings (size 3 to 8) (size 9 to 14) (size 15 to 20)
#    0.000    2.125    1.250    3.750    0.000    5.500 
#    0.000    4.375    0.000    2.625    0.000    3.500 
#    0.000    0.000    0.000    0.000    0.000    0.000 
#
# Total GULP energy -793319.626122 kJ/mol
# GULP energy per Si atom -12395.619158 kJ/mol
# Density = 1.976662 g / cm^3
# Si number density = 19.811712 Si / 1000 Ang^3
#
#
#
# Elastic Constant Matrix: (Units=GPa)
#
#
# Indices 1 2 3 4 5 6 
#
# 1 70.1932 50.9667 35.4451 0.0000 0.0000 0.0000
# 2 50.9667 116.1498 45.8892 0.0000 0.0000 0.0000
# 3 35.4451 45.8892 84.9757 0.0000 0.0000 0.0000
# 4 0.0000 0.0000 0.0000 25.5136 0.0000 0.0000
# 5 0.0000 0.0000 0.0000 0.0000 20.8182 0.0000
# 6 0.0000 0.0000 0.0000 0.0000 0.0000 25.9686
#
#
#
# Elastic Compliance Matrix: (Units=1/GPa)
#
#
# Indices 1 2 3 4 5 6 
#
# 1 0.022562 -0.007859 -0.005167 0.000000 0.000000 0.000000
# 2 -0.007859 0.013682 -0.004111 0.000000 0.000000 0.000000
# 3 -0.005167 -0.004111 0.016143 0.000000 0.000000 0.000000
# 4 0.000000 0.000000 0.000000 0.039195 0.000000 0.000000
# 5 0.000000 0.000000 0.000000 0.000000 0.048035 0.000000
# 6 0.000000 0.000000 0.000000 0.000000 0.000000 0.038508
#
#
# Mechanical properties :
#
#
# Convention : Reuss Voigt Hill
#
# Bulk Modulus (GPa) = 55.20536 59.54676 57.37606
# Shear Modulus (GPa) = 22.89006 23.72793 23.30899
#
# Velocity S-wave (km/s) = 3.40278 3.46449 3.43377
# Velocity P-wave (km/s) = 6.58514 6.79156 6.68914
#
# Compressibility (1/GPa) = 0.01811418
#
# Stress axis : x y z
#
# Youngs Moduli (GPa) = 44.32294 73.08858 61.94554
#
# Poissons Ratio (x) = 0.57438 0.32008
# Poissons Ratio (y) = 0.34832 0.25464
# Poissons Ratio (z) = 0.22902 0.30044
#
# Static dielectric constant tensor:
#      x y z
#    x 3.436440 0.000000 0.000000 
#    y 0.000000 4.006240 0.000000 
#    z 0.000000 0.000000 3.378250 
# 
# 
# High freq. dielectric constant tensor:
#      x y z
#    x 1.757860 0.000000 0.000000 
#    y 0.000000 1.787910 0.000000 
#    z 0.000000 0.000000 1.750930 
# 
# From -- ./inp_files/12727.got.cif
#   From: 2010.03.12/outbox.cif.g09.slc.cpg/sg47_7_cif.got.tgz:12727.got - 2010.04.14 03:12:58.
