data_PCOD8198052
_publ_section_title
;
Structure prediction by ZEFSAII (Michael W. Deem and Ramdas Pophale) SiO2 
 PCOD8198052
Probable space group: P M M M
;
_chemical_formula_sum "Si O2"
_cell_formula_units_Z 40
_cell_length_a 8.808688
_cell_length_b 18.183498
_cell_length_c 14.195141
_cell_angle_alpha 90.000000
_cell_angle_beta 90.000000
_cell_angle_gamma 90.000000
_cell_volume 2273.674922
_symmetry_space_group_name_H-M "P M M M"
_symmetry_group_IT_number 47
_symmetry_cell_setting 'orthorhombic'
loop_
_space_group_symop_operation_xyz
x,y,z
-x,-y,z
x,-y,-z
-x,y,-z
-x,-y,-z
x,y,-z
-x,y,z
x,-y,z
loop_
_atom_site_type_symbol
_atom_site_label
_atom_site_fract_x
_atom_site_fract_y
_atom_site_fract_z
Si Si1 0.678986 0.650208 0.107895
Si Si2 0.169756 0.500000 0.888342
Si Si3 0.179842 0.580925 0.394500
Si Si4 0.677887 0.849895 0.390034
Si Si5 0.170627 0.000000 0.611577
Si Si6 0.180189 0.282072 0.723577
O O1 0.500000 0.648666 0.118740
O O2 0.744166 0.572762 0.146081
O O3 0.750319 0.715250 0.171144
O O4 0.727438 0.664771 0.000000
O O5 0.000000 0.500000 0.844641
O O6 0.163239 0.500000 0.000000
O O7 0.245646 0.590427 0.500000
O O8 0.226675 0.500000 0.354577
O O9 0.245414 0.645986 0.330199
O O10 0.000000 0.587467 0.398462
O O11 0.715236 0.837669 0.500000
O O12 0.500000 0.845524 0.370283
O O13 0.764574 0.789463 0.330146
O O14 0.738765 0.928365 0.353808
O O15 0.163830 0.000000 0.500000
O O16 0.000000 0.000000 0.653613
O O17 0.000000 0.280835 0.729722
#
# Coordination Sequence:
#
# PCOD8198052 Si02
#       6
#     8   4   8   8   4   8
#     4  10  21  36  51  69  97 132 169 213 269 323
#     4   9  17  31  51  71  90 117 160 213 263 311
#     4   8  15  28  44  64  93 128 166 208 251 294
#     4  10  20  34  52  76 109 144 174 206 251 307
#     4   9  17  31  53  79 106 135 170 211 253 299
#     4  11  21  31  50  76 101 132 174 219 262 305
#
# _framework density 17.592665
#
# number of rings (size 3 to 8) (size 9 to 14) (size 15 to 20)
#    0.000    2.400    0.000    3.600    1.400    5.600 
#    0.000    0.000    0.000    0.000    0.000    4.900 
#    0.000    5.600    0.000    0.000    0.000    0.000 
#
# Total GULP energy -495964.306468 kJ/mol
# GULP energy per Si atom -12399.107662 kJ/mol
# Density = 1.755262 g / cm^3
# Si number density = 17.592665 Si / 1000 Ang^3
#
#
#
# Elastic Constant Matrix: (Units=GPa)
#
#
# Indices 1 2 3 4 5 6 
#
# 1 79.5327 38.3773 37.4405 0.0000 0.0000 0.0000
# 2 38.3773 119.7547 54.7919 0.0000 0.0000 0.0000
# 3 37.4405 54.7919 69.3580 0.0000 0.0000 0.0000
# 4 0.0000 0.0000 0.0000 13.1245 0.0000 0.0000
# 5 0.0000 0.0000 0.0000 0.0000 22.7894 0.0000
# 6 0.0000 0.0000 0.0000 0.0000 0.0000 30.7634
#
#
#
# Elastic Compliance Matrix: (Units=1/GPa)
#
#
# Indices 1 2 3 4 5 6 
#
# 1 0.017150 -0.001974 -0.007699 0.000000 0.000000 0.000000
# 2 -0.001974 0.013304 -0.009445 0.000000 0.000000 0.000000
# 3 -0.007699 -0.009445 0.026035 0.000000 0.000000 0.000000
# 4 0.000000 0.000000 0.000000 0.076194 0.000000 0.000000
# 5 0.000000 0.000000 0.000000 0.000000 0.043880 0.000000
# 6 0.000000 0.000000 0.000000 0.000000 0.000000 0.032506
#
#
# Mechanical properties :
#
#
# Convention : Reuss Voigt Hill
#
# Bulk Modulus (GPa) = 54.77914 58.87385 56.82649
# Shear Modulus (GPa) = 19.73260 22.53786 21.13523
#
# Velocity S-wave (km/s) = 3.35272 3.58312 3.46983
# Velocity P-wave (km/s) = 6.79652 7.11730 6.95876
#
# Compressibility (1/GPa) = 0.01825512
#
# Stress axis : x y z
#
# Youngs Moduli (GPa) = 58.30915 75.16448 38.40979
#
# Poissons Ratio (x) = 0.14834 0.29571
# Poissons Ratio (y) = 0.11508 0.36277
# Poissons Ratio (z) = 0.44891 0.70991
#
# Static dielectric constant tensor:
#      x y z
#    x 3.184830 0.000000 0.000000 
#    y 0.000000 3.331130 0.000000 
#    z 0.000000 0.000000 3.236780 
# 
# 
# High freq. dielectric constant tensor:
#      x y z
#    x 1.676780 0.000000 0.000000 
#    y 0.000000 1.668060 0.000000 
#    z 0.000000 0.000000 1.663360 
# 
# From -- ./inp_files/20702.got.cif
#   From: 2010.03.12/outbox.cif.g09.slc.cpg/sg47_11_cif.got.tgz:20702.got - 2010.04.14 03:12:58.
