data_PCOD8198896
_publ_section_title
;
Structure prediction by ZEFSAII (Michael W. Deem and Ramdas Pophale) SiO2 
 PCOD8198896
Probable space group: P M M M
;
_chemical_formula_sum "Si O2"
_cell_formula_units_Z 48
_cell_length_a 8.887498
_cell_length_b 29.342482
_cell_length_c 10.107137
_cell_angle_alpha 90.000000
_cell_angle_beta 90.000000
_cell_angle_gamma 90.000000
_cell_volume 2635.751822
_symmetry_space_group_name_H-M "P M M M"
_symmetry_group_IT_number 47
_symmetry_cell_setting 'orthorhombic'
loop_
_space_group_symop_operation_xyz
x,y,z
-x,-y,z
x,-y,-z
-x,y,-z
-x,-y,-z
x,y,-z
-x,y,z
x,-y,z
loop_
_atom_site_type_symbol
_atom_site_label
_atom_site_fract_x
_atom_site_fract_y
_atom_site_fract_z
Si Si1 0.823976 0.446302 0.500000
Si Si2 0.322578 0.140049 0.350001
Si Si3 0.829735 0.553826 0.000000
Si Si4 0.825538 0.687171 0.846125
Si Si5 0.830652 0.950420 0.657026
Si Si6 0.323821 0.782237 0.848602
Si Si7 0.678805 0.598919 0.247572
O O1 0.796001 0.500000 0.500000
O O2 0.745077 0.424443 0.624631
O O3 0.000000 0.434606 0.500000
O O4 0.261381 0.148665 0.500000
O O5 0.500000 0.139572 0.351102
O O6 0.269692 0.091383 0.291210
O O7 0.263271 0.178945 0.250801
O O8 0.740216 0.570226 0.873765
O O9 0.837132 0.500000 0.000000
O O10 0.000000 0.574131 0.000000
O O11 0.765417 0.736945 0.810311
O O12 0.733466 0.651076 0.759489
O O13 0.000000 0.684493 0.808568
O O14 0.797976 0.675874 0.000000
O O15 0.826776 0.950689 0.500000
O O16 0.000000 0.942989 0.708291
O O17 0.770640 0.000000 0.708098
O O18 0.500000 0.772886 0.828615
O O19 0.289764 0.796934 0.000000
O O20 0.500000 0.597578 0.250158
#
# Coordination Sequence:
#
# PCOD8198896 Si02
#       7
#     4   8   4   8   8   8   8
#     4  11  25  45  65  85 117 157 189 223 274 333
#     4   9  17  29  46  71 100 128 162 211 262 306
#     4  11  23  39  61  89 119 151 187 229 276 323
#     4  10  20  36  59  83 109 141 182 228 271 320
#     4   8  14  25  42  65  94 128 164 204 251 303
#     4   9  18  33  52  72  99 135 173 211 259 318
#     4  12  24  39  62  89 117 149 187 231 277 327
#
# _framework density 18.211124000000002
#
# number of rings (size 3 to 8) (size 9 to 14) (size 15 to 20)
#    0.000    2.167    0.833    3.500    0.000    5.000 
#    1.500    1.667    0.000    0.500    0.000    3.500 
#    0.000    0.000    0.000    0.000    0.000    0.000 
#
# Total GULP energy -595138.118882 kJ/mol
# GULP energy per Si atom -12398.710810 kJ/mol
# Density = 1.816967 g / cm^3
# Si number density = 18.211124 Si / 1000 Ang^3
#
#
#
# Elastic Constant Matrix: (Units=GPa)
#
#
# Indices 1 2 3 4 5 6 
#
# 1 104.2415 74.3944 55.2081 0.0000 0.0000 0.0000
# 2 74.3944 150.8198 72.2473 0.0000 0.0000 0.0000
# 3 55.2081 72.2473 105.1327 0.0000 0.0000 0.0000
# 4 0.0000 0.0000 0.0000 31.1059 0.0000 0.0000
# 5 0.0000 0.0000 0.0000 0.0000 23.1894 0.0000
# 6 0.0000 0.0000 0.0000 0.0000 0.0000 36.9442
#
#
#
# Elastic Compliance Matrix: (Units=1/GPa)
#
#
# Indices 1 2 3 4 5 6 
#
# 1 0.016099 -0.005801 -0.004468 0.000000 0.000000 0.000000
# 2 -0.005801 0.011975 -0.005183 0.000000 0.000000 0.000000
# 3 -0.004468 -0.005183 0.015419 0.000000 0.000000 0.000000
# 4 0.000000 0.000000 0.000000 0.032148 0.000000 0.000000
# 5 0.000000 0.000000 0.000000 0.000000 0.043123 0.000000
# 6 0.000000 0.000000 0.000000 0.000000 0.000000 0.027068
#
#
# Mechanical properties :
#
#
# Convention : Reuss Voigt Hill
#
# Bulk Modulus (GPa) = 79.42500 84.87707 82.15104
# Shear Modulus (GPa) = 27.63465 28.80417 28.21941
#
# Velocity S-wave (km/s) = 3.89968 3.98135 3.94073
# Velocity P-wave (km/s) = 7.99905 8.23670 8.11875
#
# Compressibility (1/GPa) = 0.01259049
#
# Stress axis : x y z
#
# Youngs Moduli (GPa) = 62.11409 83.51034 64.85347
#
# Poissons Ratio (x) = 0.48446 0.28975
# Poissons Ratio (y) = 0.36033 0.33611
# Poissons Ratio (z) = 0.27751 0.43280
#
# Static dielectric constant tensor:
#      x y z
#    x 3.420300 0.000000 0.000000 
#    y 0.000000 3.720480 0.000000 
#    z 0.000000 0.000000 3.262650 
# 
# 
# High freq. dielectric constant tensor:
#      x y z
#    x 1.708250 0.000000 0.000000 
#    y 0.000000 1.721460 0.000000 
#    z 0.000000 0.000000 1.680220 
# 
# From -- ./inp_files/2723.got.cif
#   From: 2010.03.12/outbox.cif.g09.slc.cpg/sg47_2_cif.got.tgz:2723.got - 2010.04.14 03:12:58.
