data_PCOD8198882
_publ_section_title
;
Structure prediction by ZEFSAII (Michael W. Deem and Ramdas Pophale) SiO2 
 PCOD8198882
Probable space group: P M M M
;
_chemical_formula_sum "Si O2"
_cell_formula_units_Z 64
_cell_length_a 25.050806
_cell_length_b 14.324247
_cell_length_c 9.795005
_cell_angle_alpha 90.000000
_cell_angle_beta 90.000000
_cell_angle_gamma 90.000000
_cell_volume 3514.780165
_symmetry_space_group_name_H-M "P M M M"
_symmetry_group_IT_number 47
_symmetry_cell_setting 'orthorhombic'
loop_
_space_group_symop_operation_xyz
x,y,z
-x,-y,z
x,-y,-z
-x,y,-z
-x,-y,-z
x,y,-z
-x,y,z
x,-y,z
loop_
_atom_site_type_symbol
_atom_site_label
_atom_site_fract_x
_atom_site_fract_y
_atom_site_fract_z
Si Si1 0.712251 0.896509 0.844900
Si Si2 0.757784 0.294966 0.156606
Si Si3 0.939434 0.734509 0.656091
Si Si4 0.353005 0.608755 0.842525
Si Si5 0.387688 0.896452 0.344147
Si Si6 0.439319 0.293273 0.342322
Si Si7 0.843401 0.393502 0.342435
Si Si8 0.063441 0.102945 0.847377
O O1 0.756913 0.817245 0.820980
O O2 0.662825 0.874933 0.748694
O O3 0.736417 0.000000 0.815672
O O4 0.691027 0.889644 0.000000
O O5 0.700799 0.337601 0.199184
O O6 0.802970 0.334772 0.252782
O O7 0.771036 0.320907 0.000000
O O8 0.937619 0.767725 0.500000
O O9 0.903455 0.643506 0.680345
O O10 0.914712 0.819425 0.743876
O O11 0.000000 0.709207 0.700160
O O12 0.343589 0.500000 0.814316
O O13 0.401475 0.644267 0.750760
O O14 0.367560 0.628056 0.000000
O O15 0.367908 0.891132 0.500000
O O16 0.431708 0.817504 0.314521
O O17 0.411427 0.000000 0.312430
O O18 0.426861 0.316740 0.500000
O O19 0.500000 0.318570 0.305141
O O20 0.826336 0.383742 0.500000
O O21 0.842395 0.500000 0.293622
O O22 0.000000 0.101767 0.841855
O O23 0.084978 0.000000 0.806007
O O24 0.083094 0.128112 0.000000
#
# Coordination Sequence:
#
# PCOD8198882 Si02
#       8
#     8   8   8   8   8   8   8   8
#     4   9  17  31  54  81 106 133 166 205 252 306
#     4  10  20  36  58  81 106 135 169 213 261 312
#     4   9  18  33  53  77 106 141 178 215 259 311
#     4  10  21  37  56  77 100 131 174 220 267 316
#     4   9  17  30  50  76 105 137 171 207 251 304
#     4  10  21  35  51  75 107 140 175 216 260 309
#     4  10  22  38  55  78 106 136 174 220 266 310
#     4   8  14  26  46  73 104 137 173 212 253 299
#
# _framework density 18.208819999999999
#
# number of rings (size 3 to 8) (size 9 to 14) (size 15 to 20)
#    0.000    2.625    1.250    0.750    0.000    3.750 
#    0.000    5.625    0.000    2.250    0.000    5.250 
#    0.000    0.000    0.000    0.000    0.000    0.000 
#
# Total GULP energy -793441.204952 kJ/mol
# GULP energy per Si atom -12397.518827 kJ/mol
# Density = 1.816738 g / cm^3
# Si number density = 18.208820 Si / 1000 Ang^3
#
#
#
# Elastic Constant Matrix: (Units=GPa)
#
#
# Indices 1 2 3 4 5 6 
#
# 1 83.3866 51.6788 48.4206 0.0000 0.0000 0.0000
# 2 51.6788 116.5136 49.4583 0.0000 0.0000 0.0000
# 3 48.4206 49.4583 70.0121 0.0000 0.0000 0.0000
# 4 0.0000 0.0000 0.0000 29.8323 0.0000 0.0000
# 5 0.0000 0.0000 0.0000 0.0000 17.9852 0.0000
# 6 0.0000 0.0000 0.0000 0.0000 0.0000 24.1047
#
#
#
# Elastic Compliance Matrix: (Units=1/GPa)
#
#
# Indices 1 2 3 4 5 6 
#
# 1 0.021666 -0.004641 -0.011706 0.000000 0.000000 0.000000
# 2 -0.004641 0.013253 -0.006152 0.000000 0.000000 0.000000
# 3 -0.011706 -0.006152 0.026725 0.000000 0.000000 0.000000
# 4 0.000000 0.000000 0.000000 0.033521 0.000000 0.000000
# 5 0.000000 0.000000 0.000000 0.000000 0.055601 0.000000
# 6 0.000000 0.000000 0.000000 0.000000 0.000000 0.041486
#
#
# Mechanical properties :
#
#
# Convention : Reuss Voigt Hill
#
# Bulk Modulus (GPa) = 60.07556 63.22532 61.65044
# Shear Modulus (GPa) = 20.59327 22.40807 21.50067
#
# Velocity S-wave (km/s) = 3.36661 3.51182 3.43998
# Velocity P-wave (km/s) = 6.94091 7.15832 7.05045
#
# Compressibility (1/GPa) = 0.01664570
#
# Stress axis : x y z
#
# Youngs Moduli (GPa) = 46.15593 75.45624 37.41785
#
# Poissons Ratio (x) = 0.35018 0.43800
# Poissons Ratio (y) = 0.21420 0.23021
# Poissons Ratio (z) = 0.54029 0.46424
#
# Static dielectric constant tensor:
#      x y z
#    x 3.091050 0.000000 0.000000 
#    y 0.000000 3.664650 0.000000 
#    z 0.000000 0.000000 3.441090 
# 
# 
# High freq. dielectric constant tensor:
#      x y z
#    x 1.678130 0.000000 0.000000 
#    y 0.000000 1.718780 0.000000 
#    z 0.000000 0.000000 1.705480 
# 
# From -- ./inp_files/12664.got.cif
#   From: 2010.03.12/outbox.cif.g09.slc.cpg/sg47_7_cif.got.tgz:12664.got - 2010.04.14 03:12:58.
