data_PCOD8198635
_publ_section_title
;
Structure prediction by ZEFSAII (Michael W. Deem and Ramdas Pophale) SiO2 
 PCOD8198635
Probable space group: P M M M
;
_chemical_formula_sum "Si O2"
_cell_formula_units_Z 56
_cell_length_a 22.227102
_cell_length_b 14.535898
_cell_length_c 9.118194
_cell_angle_alpha 90.000000
_cell_angle_beta 90.000000
_cell_angle_gamma 90.000000
_cell_volume 2946.005392
_symmetry_space_group_name_H-M "P M M M"
_symmetry_group_IT_number 47
_symmetry_cell_setting 'orthorhombic'
loop_
_space_group_symop_operation_xyz
x,y,z
-x,-y,z
x,-y,-z
-x,y,-z
-x,-y,-z
x,y,-z
-x,y,z
x,-y,z
loop_
_atom_site_type_symbol
_atom_site_label
_atom_site_fract_x
_atom_site_fract_y
_atom_site_fract_z
Si Si1 0.337102 0.894294 0.172006
Si Si2 0.568293 0.227098 0.328610
Si Si3 0.130148 0.316074 0.326817
Si Si4 0.651423 0.394225 0.670645
Si Si5 0.067890 0.500000 0.672861
Si Si6 0.930826 0.169488 0.161167
Si Si7 0.072208 0.000000 0.335745
Si Si8 0.746272 0.273788 0.172880
O O1 0.396766 0.855323 0.248915
O O2 0.281875 0.826192 0.213636
O O3 0.324022 0.000000 0.222886
O O4 0.349241 0.891316 0.000000
O O5 0.572281 0.206548 0.500000
O O6 0.500000 0.226769 0.271799
O O7 0.594773 0.328593 0.293112
O O8 0.138909 0.307443 0.500000
O O9 0.109606 0.416399 0.276274
O O10 0.075111 0.255684 0.268313
O O11 0.188920 0.280006 0.245449
O O12 0.669142 0.387833 0.500000
O O13 0.636217 0.500000 0.713751
O O14 0.707586 0.358279 0.764056
O O15 0.058989 0.500000 0.500000
O O16 0.000000 0.500000 0.742930
O O17 0.000000 0.147582 0.137001
O O18 0.900392 0.085383 0.246952
O O19 0.900445 0.183034 0.000000
O O20 0.098546 0.000000 0.500000
O O21 0.000000 0.000000 0.341843
O O22 0.751422 0.286808 0.000000
#
# Coordination Sequence:
#
# PCOD8198635 Si02
#       8
#     8   8   8   8   4   8   4   8
#     4   9  19  37  58  77 103 144 188 228 273 325
#     4   9  18  32  51  80 115 146 180 225 275 325
#     4  11  22  37  58  82 109 142 182 228 276 332
#     4   9  18  33  54  77 105 144 186 225 269 325
#     4   9  20  38  59  83 109 141 180 221 270 327
#     4  10  20  35  55  80 111 145 179 220 274 330
#     4   9  17  31  53  79 105 137 177 217 258 313
#     4  10  21  37  55  78 107 138 180 230 280 331
#
# _framework density 19.008790999999999
#
# number of rings (size 3 to 8) (size 9 to 14) (size 15 to 20)
#    0.000    2.429    0.000    1.929    1.000    4.286 
#    1.286    3.929    0.000    2.571    0.000    4.000 
#    0.000    0.000    0.000    0.000    0.000    0.000 
#
# Total GULP energy -694134.216433 kJ/mol
# GULP energy per Si atom -12395.253865 kJ/mol
# Density = 1.896553 g / cm^3
# Si number density = 19.008791 Si / 1000 Ang^3
#
#
#
# Elastic Constant Matrix: (Units=GPa)
#
#
# Indices 1 2 3 4 5 6 
#
# 1 84.1212 44.3885 40.3724 0.0000 0.0000 0.0000
# 2 44.3885 166.3290 55.2441 0.0000 0.0000 0.0000
# 3 40.3724 55.2441 71.8458 0.0000 0.0000 0.0000
# 4 0.0000 0.0000 0.0000 22.8725 0.0000 0.0000
# 5 0.0000 0.0000 0.0000 0.0000 27.2890 0.0000
# 6 0.0000 0.0000 0.0000 0.0000 0.0000 22.5764
#
#
#
# Elastic Compliance Matrix: (Units=1/GPa)
#
#
# Indices 1 2 3 4 5 6 
#
# 1 0.016668 -0.001796 -0.007985 0.000000 0.000000 0.000000
# 2 -0.001796 0.008268 -0.005348 0.000000 0.000000 0.000000
# 3 -0.007985 -0.005348 0.022518 0.000000 0.000000 0.000000
# 4 0.000000 0.000000 0.000000 0.043721 0.000000 0.000000
# 5 0.000000 0.000000 0.000000 0.000000 0.036645 0.000000
# 6 0.000000 0.000000 0.000000 0.000000 0.000000 0.044294
#
#
# Mechanical properties :
#
#
# Convention : Reuss Voigt Hill
#
# Bulk Modulus (GPa) = 58.15597 66.92288 62.53942
# Shear Modulus (GPa) = 24.02659 26.70032 25.36346
#
# Velocity S-wave (km/s) = 3.55910 3.75191 3.65677
# Velocity P-wave (km/s) = 6.89567 7.35199 7.12748
#
# Compressibility (1/GPa) = 0.01719514
#
# Stress axis : x y z
#
# Youngs Moduli (GPa) = 59.99671 120.95158 44.40880
#
# Poissons Ratio (x) = 0.21722 0.35461
# Poissons Ratio (y) = 0.10775 0.23750
# Poissons Ratio (z) = 0.47908 0.64686
#
# Static dielectric constant tensor:
#      x y z
#    x 3.352330 0.000000 0.000000 
#    y 0.000000 3.877540 0.000000 
#    z 0.000000 0.000000 3.538350 
# 
# 
# High freq. dielectric constant tensor:
#      x y z
#    x 1.722710 0.000000 0.000000 
#    y 0.000000 1.748620 0.000000 
#    z 0.000000 0.000000 1.738430 
# 
# From -- ./inp_files/11307.got.cif
#   From: 2010.03.12/outbox.cif.g09.slc.cpg/sg47_6_cif.got.tgz:11307.got - 2010.04.14 03:12:58.
