data_PCOD8198481
_publ_section_title
;
Structure prediction by ZEFSAII (Michael W. Deem and Ramdas Pophale) SiO2 
 PCOD8198481
Probable space group: P M M M
;
_chemical_formula_sum "Si O2"
_cell_formula_units_Z 48
_cell_length_a 9.044460
_cell_length_b 9.537388
_cell_length_c 29.312475
_cell_angle_alpha 90.000000
_cell_angle_beta 90.000000
_cell_angle_gamma 90.000000
_cell_volume 2528.509461
_symmetry_space_group_name_H-M "P M M M"
_symmetry_group_IT_number 47
_symmetry_cell_setting 'orthorhombic'
loop_
_space_group_symop_operation_xyz
x,y,z
-x,-y,z
x,-y,-z
-x,y,-z
-x,-y,-z
x,y,-z
-x,y,z
x,-y,z
loop_
_atom_site_type_symbol
_atom_site_label
_atom_site_fract_x
_atom_site_fract_y
_atom_site_fract_z
Si Si1 0.324552 0.843356 0.050604
Si Si2 0.670829 0.663491 0.291731
Si Si3 0.672281 0.000000 0.449212
Si Si4 0.172323 0.500000 0.449981
Si Si5 0.175042 0.163773 0.785363
Si Si6 0.669689 0.728913 0.604169
Si Si7 0.675705 0.337761 0.134538
O O1 0.500000 0.844105 0.050002
O O2 0.268488 0.727399 0.086520
O O3 0.268294 0.000000 0.064135
O O4 0.265224 0.803708 0.000000
O O5 0.500000 0.679164 0.276950
O O6 0.718144 0.500000 0.288447
O O7 0.772244 0.760733 0.260555
O O8 0.696591 0.722716 0.342103
O O9 0.719179 0.125618 0.416949
O O10 0.500000 0.000000 0.458233
O O11 0.748508 0.000000 0.500000
O O12 0.248477 0.500000 0.500000
O O13 0.218886 0.630996 0.421213
O O14 0.000000 0.500000 0.456339
O O15 0.249997 0.245569 0.826676
O O16 0.000000 0.177726 0.789523
O O17 0.223277 0.000000 0.785396
O O18 0.500000 0.688670 0.593283
O O19 0.500000 0.326410 0.139891
O O20 0.726636 0.500000 0.137511
#
# Coordination Sequence:
#
# PCOD8198481 Si02
#       7
#     8   8   4   4   8   8   8
#     4   8  14  26  47  77 113 151 189 230 278 330
#     4  10  21  38  60  86 111 138 180 228 278 334
#     4   9  18  32  55  87 115 141 179 225 272 321
#     4  11  23  37  55  83 117 153 191 225 266 323
#     4  11  25  41  57  80 109 145 188 228 276 337
#     4  10  20  37  60  85 112 145 184 229 276 324
#     4  10  20  34  55  84 115 148 188 233 281 331
#
# _framework density 18.983516000000002
#
# number of rings (size 3 to 8) (size 9 to 14) (size 15 to 20)
#    0.000    2.167    0.833    2.750    1.167    7.000 
#    0.000    2.083    0.000    2.000    0.000    3.500 
#    0.000    0.000    0.000    0.000    0.000    0.000 
#
# Total GULP energy -594939.332088 kJ/mol
# GULP energy per Si atom -12394.569419 kJ/mol
# Density = 1.894031 g / cm^3
# Si number density = 18.983516 Si / 1000 Ang^3
#
#
#
# Elastic Constant Matrix: (Units=GPa)
#
#
# Indices 1 2 3 4 5 6 
#
# 1 40.6065 40.3547 37.3389 0.0000 0.0000 0.0000
# 2 40.3547 176.6201 88.4206 0.0000 0.0000 0.0000
# 3 37.3389 88.4206 142.2864 0.0000 0.0000 0.0000
# 4 0.0000 0.0000 0.0000 38.9739 0.0000 0.0000
# 5 0.0000 0.0000 0.0000 0.0000 7.5983 0.0000
# 6 0.0000 0.0000 0.0000 0.0000 0.0000 24.2923
#
#
#
# Elastic Compliance Matrix: (Units=1/GPa)
#
#
# Indices 1 2 3 4 5 6 
#
# 1 0.035223 -0.004965 -0.006158 0.000000 0.000000 0.000000
# 2 -0.004965 0.008919 -0.004239 0.000000 0.000000 0.000000
# 3 -0.006158 -0.004239 0.011278 0.000000 0.000000 0.000000
# 4 0.000000 0.000000 0.000000 0.025658 0.000000 0.000000
# 5 0.000000 0.000000 0.000000 0.000000 0.131608 0.000000
# 6 0.000000 0.000000 0.000000 0.000000 0.000000 0.041165
#
#
# Mechanical properties :
#
#
# Convention : Reuss Voigt Hill
#
# Bulk Modulus (GPa) = 40.49282 76.86014 58.67648
# Shear Modulus (GPa) = 17.07601 27.06615 22.07108
#
# Velocity S-wave (km/s) = 3.00245 3.78003 3.41346
# Velocity P-wave (km/s) = 5.77896 7.72187 6.81996
#
# Compressibility (1/GPa) = 0.02469573
#
# Stress axis : x y z
#
# Youngs Moduli (GPa) = 28.39033 112.12482 88.66466
#
# Poissons Ratio (x) = 0.55671 0.54598
# Poissons Ratio (y) = 0.14096 0.37588
# Poissons Ratio (z) = 0.17482 0.47533
#
# Static dielectric constant tensor:
#      x y z
#    x 3.137450 0.000000 0.000000 
#    y 0.000000 3.570610 0.000000 
#    z 0.000000 0.000000 3.646730 
# 
# 
# High freq. dielectric constant tensor:
#      x y z
#    x 1.700530 0.000000 0.000000 
#    y 0.000000 1.750600 0.000000 
#    z 0.000000 0.000000 1.757030 
# 
# From -- ./inp_files/2789.got.cif
#   From: 2010.03.12/outbox.cif.g09.slc.cpg/sg47_2_cif.got.tgz:2789.got - 2010.04.14 03:12:58.
