data_PCOD8198902
_publ_section_title
;
Structure prediction by ZEFSAII (Michael W. Deem and Ramdas Pophale) SiO2 
 PCOD8198902
Probable space group: P M M M
;
_chemical_formula_sum "Si O2"
_cell_formula_units_Z 44
_cell_length_a 26.933333
_cell_length_b 10.138341
_cell_length_c 8.711174
_cell_angle_alpha 90.000000
_cell_angle_beta 90.000000
_cell_angle_gamma 90.000000
_cell_volume 2378.667198
_symmetry_space_group_name_H-M "P M M M"
_symmetry_group_IT_number 47
_symmetry_cell_setting 'orthorhombic'
loop_
_space_group_symop_operation_xyz
x,y,z
-x,-y,z
x,-y,-z
-x,y,-z
-x,-y,-z
x,y,-z
-x,y,z
x,-y,z
loop_
_atom_site_type_symbol
_atom_site_label
_atom_site_fract_x
_atom_site_fract_y
_atom_site_fract_z
Si Si1 0.000000 0.845048 0.166236
Si Si2 0.708758 0.348603 0.819745
Si Si3 0.443548 0.000000 0.818620
Si Si4 0.444641 0.500000 0.317683
Si Si5 0.813118 0.651149 0.320230
Si Si6 0.892375 0.848325 0.183278
Si Si7 0.387095 0.244822 0.681491
O O1 0.052297 0.809292 0.248501
O O2 0.000000 0.000000 0.138878
O O3 0.000000 0.774735 0.000000
O O4 0.698768 0.500000 0.771291
O O5 0.763389 0.305916 0.767567
O O6 0.669913 0.253917 0.734206
O O7 0.703661 0.327665 0.000000
O O8 0.414311 0.124743 0.758948
O O9 0.500000 0.000000 0.754776
O O10 0.443701 0.000000 0.000000
O O11 0.500000 0.500000 0.248205
O O12 0.446605 0.500000 0.500000
O O13 0.415718 0.626930 0.257031
O O14 0.803862 0.667343 0.500000
O O15 0.827559 0.500000 0.279136
O O16 0.855747 0.749000 0.266321
O O17 0.879255 0.000000 0.226320
O O18 0.890207 0.830198 0.000000
O O19 0.389429 0.228892 0.500000
#
# Coordination Sequence:
#
# PCOD8198902 Si02
#       7
#     4   8   4   4   8   8   8
#     4   7  12  26  50  77 106 140 178 223 272 325
#     4  10  20  36  59  84 111 143 182 228 279 331
#     4  11  25  43  59  81 117 155 187 224 273 326
#     4   9  18  32  55  87 115 139 175 222 267 318
#     4  10  21  36  54  77 109 147 186 226 273 327
#     4   9  17  32  55  82 109 140 182 229 277 326
#     4  11  21  37  61  86 114 146 184 227 274 328
#
# _framework density 18.497752999999999
#
# number of rings (size 3 to 8) (size 9 to 14) (size 15 to 20)
#    0.000    2.273    0.909    3.545    0.000    3.636 
#    1.636    0.909    0.000    6.545    0.000    0.000 
#    0.000    0.000    0.000    0.000    0.000    0.000 
#
# Total GULP energy -545457.155866 kJ/mol
# GULP energy per Si atom -12396.753542 kJ/mol
# Density = 1.845565 g / cm^3
# Si number density = 18.497753 Si / 1000 Ang^3
#
#
#
# Elastic Constant Matrix: (Units=GPa)
#
#
# Indices 1 2 3 4 5 6 
#
# 1 141.1560 64.9432 24.6711 0.0000 0.0000 0.0000
# 2 64.9432 106.5640 25.5827 0.0000 0.0000 0.0000
# 3 24.6711 25.5827 46.4544 0.0000 0.0000 0.0000
# 4 0.0000 0.0000 0.0000 32.4794 0.0000 0.0000
# 5 0.0000 0.0000 0.0000 0.0000 19.7065 0.0000
# 6 0.0000 0.0000 0.0000 0.0000 0.0000 37.7474
#
#
#
# Elastic Compliance Matrix: (Units=1/GPa)
#
#
# Indices 1 2 3 4 5 6 
#
# 1 0.010047 -0.005580 -0.002263 0.000000 0.000000 0.000000
# 2 -0.005580 0.013912 -0.004698 0.000000 0.000000 0.000000
# 3 -0.002263 -0.004698 0.025316 0.000000 0.000000 0.000000
# 4 0.000000 0.000000 0.000000 0.030789 0.000000 0.000000
# 5 0.000000 0.000000 0.000000 0.000000 0.050745 0.000000
# 6 0.000000 0.000000 0.000000 0.000000 0.000000 0.026492
#
#
# Mechanical properties :
#
#
# Convention : Reuss Voigt Hill
#
# Bulk Modulus (GPa) = 41.33426 58.28539 49.80982
# Shear Modulus (GPa) = 26.25405 29.91849 28.08627
#
# Velocity S-wave (km/s) = 3.77146 4.02607 3.90084
# Velocity P-wave (km/s) = 6.43112 7.29316 6.87566
#
# Compressibility (1/GPa) = 0.02419300
#
# Stress axis : x y z
#
# Youngs Moduli (GPa) = 99.53248 71.87854 39.50109
#
# Poissons Ratio (x) = 0.40106 0.08939
# Poissons Ratio (y) = 0.55535 0.18559
# Poissons Ratio (z) = 0.22525 0.33771
#
# Static dielectric constant tensor:
#      x y z
#    x 3.741720 0.000000 0.000000 
#    y 0.000000 3.273590 0.000000 
#    z 0.000000 0.000000 3.229080 
# 
# 
# High freq. dielectric constant tensor:
#      x y z
#    x 1.735130 0.000000 0.000000 
#    y 0.000000 1.702450 0.000000 
#    z 0.000000 0.000000 1.705950 
# 
# From -- ./inp_files/13705.got.cif
#   From: 2010.03.12/outbox.cif.g09.slc.cpg/sg47_7_cif.got.tgz:13705.got - 2010.04.14 03:12:58.
