data_PCOD8198604
_publ_section_title
;
Structure prediction by ZEFSAII (Michael W. Deem and Ramdas Pophale) SiO2 
 PCOD8198604
Probable space group: P M M M
;
_chemical_formula_sum "Si O2"
_cell_formula_units_Z 56
_cell_length_a 22.814616
_cell_length_b 9.265540
_cell_length_c 14.432006
_cell_angle_alpha 90.000000
_cell_angle_beta 90.000000
_cell_angle_gamma 90.000000
_cell_volume 3050.777955
_symmetry_space_group_name_H-M "P M M M"
_symmetry_group_IT_number 47
_symmetry_cell_setting 'orthorhombic'
loop_
_space_group_symop_operation_xyz
x,y,z
-x,-y,z
x,-y,-z
-x,y,-z
-x,-y,-z
x,y,-z
-x,y,z
x,-y,z
loop_
_atom_site_type_symbol
_atom_site_label
_atom_site_fract_x
_atom_site_fract_y
_atom_site_fract_z
Si Si1 0.734479 0.662125 0.898314
Si Si2 0.000000 0.827710 0.395339
Si Si3 0.851576 0.829895 0.100345
Si Si4 0.666632 0.333106 0.285806
Si Si5 0.568966 0.167996 0.202240
Si Si6 0.564282 0.170850 0.000000
Si Si7 0.885111 0.171082 0.296190
Si Si8 0.234064 0.832562 0.608797
O O1 0.759941 0.500000 0.891511
O O2 0.786918 0.772109 0.883955
O O3 0.688411 0.690117 0.818483
O O4 0.705133 0.687107 0.000000
O O5 0.058134 0.763168 0.346923
O O6 0.000000 0.772680 0.500000
O O7 0.000000 0.000000 0.389564
O O8 0.890706 0.780992 0.188022
O O9 0.845965 0.000000 0.100715
O O10 0.877352 0.777263 0.000000
O O11 0.660550 0.500000 0.314102
O O12 0.602785 0.257654 0.282461
O O13 0.709634 0.257359 0.358710
O O14 0.500000 0.200984 0.211248
O O15 0.593221 0.215423 0.098885
O O16 0.581800 0.000000 0.219414
O O17 0.500000 0.241392 0.000000
O O18 0.557748 0.000000 0.000000
O O19 0.824556 0.228648 0.341105
O O20 0.885653 0.000000 0.307771
O O21 0.225348 0.810240 0.500000
O O22 0.244337 0.000000 0.633772
#
# Coordination Sequence:
#
# PCOD8198604 Si02
#       8
#     8   4   8   8   8   4   8   8
#     4   9  18  31  45  66  99 136 171 204 242 293
#     4   9  16  26  43  69 100 133 167 207 258 308
#     4   9  16  27  45  69  98 131 166 205 249 296
#     4  11  22  33  50  76 105 135 168 209 258 307
#     4   9  18  33  52  73 101 138 176 211 247 294
#     4   7  12  26  47  71  99 133 173 210 243 284
#     4   9  16  28  46  71 102 132 166 206 249 301
#     4  10  20  35  55  76  99 129 167 213 260 306
#
# _framework density 18.355974
#
# number of rings (size 3 to 8) (size 9 to 14) (size 15 to 20)
#    0.000    2.714    1.429    1.714    1.000    2.857 
#    0.000    0.357    0.000    3.857    0.000    5.000 
#    0.000    5.714    0.000    0.000    0.000    0.000 
#
# Total GULP energy -693820.364991 kJ/mol
# GULP energy per Si atom -12389.649375 kJ/mol
# Density = 1.831419 g / cm^3
# Si number density = 18.355974 Si / 1000 Ang^3
#
#
#
# Elastic Constant Matrix: (Units=GPa)
#
#
# Indices 1 2 3 4 5 6 
#
# 1 90.7269 33.0987 53.1560 0.0000 0.0000 0.0000
# 2 33.0987 37.6295 37.1575 0.0000 0.0000 0.0000
# 3 53.1560 37.1575 102.3972 0.0000 0.0000 0.0000
# 4 0.0000 0.0000 0.0000 18.3046 0.0000 0.0000
# 5 0.0000 0.0000 0.0000 0.0000 30.3563 0.0000
# 6 0.0000 0.0000 0.0000 0.0000 0.0000 0.1457
#
#
#
# Elastic Compliance Matrix: (Units=1/GPa)
#
#
# Indices 1 2 3 4 5 6 
#
# 1 0.018105 -0.010354 -0.005641 0.000000 0.000000 0.000000
# 2 -0.010354 0.047337 -0.011802 0.000000 0.000000 0.000000
# 3 -0.005641 -0.011802 0.016977 0.000000 0.000000 0.000000
# 4 0.000000 0.000000 0.000000 0.054631 0.000000 0.000000
# 5 0.000000 0.000000 0.000000 0.000000 0.032942 0.000000
# 6 0.000000 0.000000 0.000000 0.000000 0.000000 6.861287
#
#
# Mechanical properties :
#
#
# Convention : Reuss Voigt Hill
#
# Bulk Modulus (GPa) = 37.28147 53.06424 45.17285
# Shear Modulus (GPa) = 0.70464 16.91743 8.81104
#
# Velocity S-wave (km/s) = 0.62025 3.03913 2.19329
# Velocity P-wave (km/s) = 4.56807 6.42544 5.57466
#
# Compressibility (1/GPa) = 0.02682298
#
# Stress axis : x y z
#
# Youngs Moduli (GPa) = 55.23474 21.12522 58.90336
#
# Poissons Ratio (x) = 0.21874 0.33227
# Poissons Ratio (y) = 0.57192 0.69519
# Poissons Ratio (z) = 0.31158 0.24932
#
# Static dielectric constant tensor:
#      x y z
#    x 3.234860 0.000000 0.000000 
#    y 0.000000 3.093980 0.000000 
#    z 0.000000 0.000000 3.614390 
# 
# 
# High freq. dielectric constant tensor:
#      x y z
#    x 1.693850 0.000000 0.000000 
#    y 0.000000 1.676220 0.000000 
#    z 0.000000 0.000000 1.713920 
# 
# From -- ./inp_files/25229.got.cif
#   From: 2010.03.12/outbox.cif.g09.slc.cpg/sg47_13_cif.got.tgz:25229.got - 2010.04.14 03:12:58.
