data_PCOD8198187
_publ_section_title
;
Structure prediction by ZEFSAII (Michael W. Deem and Ramdas Pophale) SiO2 
 PCOD8198187
Probable space group: P M M M
;
_chemical_formula_sum "Si O2"
_cell_formula_units_Z 64
_cell_length_a 19.071781
_cell_length_b 19.157665
_cell_length_c 9.567106
_cell_angle_alpha 90.000000
_cell_angle_beta 90.000000
_cell_angle_gamma 90.000000
_cell_volume 3495.541090
_symmetry_space_group_name_H-M "P M M M"
_symmetry_group_IT_number 47
_symmetry_cell_setting 'orthorhombic'
loop_
_space_group_symop_operation_xyz
x,y,z
-x,-y,z
x,-y,-z
-x,y,-z
-x,-y,-z
x,y,-z
-x,y,z
x,-y,z
loop_
_atom_site_type_symbol
_atom_site_label
_atom_site_fract_x
_atom_site_fract_y
_atom_site_fract_z
Si Si1 0.799078 0.320118 0.160577
Si Si2 0.419133 0.823025 0.662317
Si Si3 0.582604 0.577603 0.153979
Si Si4 0.339047 0.317817 0.664715
Si Si5 0.812525 0.156822 0.841757
Si Si6 0.921785 0.421398 0.834259
Si Si7 0.672179 0.918627 0.836599
Si Si8 0.919573 0.921436 0.340755
O O1 0.733135 0.334527 0.257988
O O2 0.816719 0.239255 0.171577
O O3 0.864129 0.365917 0.220018
O O4 0.781744 0.340583 0.000000
O O5 0.410672 0.841733 0.500000
O O6 0.500000 0.805933 0.698365
O O7 0.370426 0.757648 0.703656
O O8 0.394564 0.889624 0.752116
O O9 0.500000 0.574421 0.159717
O O10 0.613729 0.500000 0.175554
O O11 0.606565 0.625428 0.281025
O O12 0.606413 0.605837 0.000000
O O13 0.328365 0.325851 0.500000
O O14 0.740228 0.124195 0.783778
O O15 0.877541 0.130419 0.755016
O O16 0.821838 0.131273 0.000000
O O17 0.901783 0.500000 0.784639
O O18 0.000000 0.401892 0.777706
O O19 0.923532 0.418603 0.000000
O O20 0.682530 0.000000 0.802377
O O21 0.658314 0.905907 0.000000
O O22 0.909669 0.897831 0.500000
O O23 0.000000 0.916775 0.295754
O O24 0.891723 0.000000 0.320006
#
# Coordination Sequence:
#
# PCOD8198187 Si02
#       8
#     8   8   8   8   8   8   8   8
#     4  10  20  34  55  81 109 142 183 224 266 321
#     4  10  22  39  57  78 105 140 182 225 273 331
#     4   9  19  36  57  81 109 143 184 227 271 323
#     4  11  22  36  55  80 113 148 181 225 277 329
#     4  10  20  34  53  78 109 141 177 226 276 325
#     4   8  15  30  53  81 111 142 179 224 269 310
#     4  10  21  37  56  79 107 139 177 222 277 337
#     4   9  19  35  53  75 105 141 180 220 266 327
#
# _framework density 18.30904
#
# number of rings (size 3 to 8) (size 9 to 14) (size 15 to 20)
#    0.000    2.375    1.250    2.250    0.000    5.250 
#    0.000    5.000    0.000    0.375    0.000    0.875 
#    0.000    0.000    0.000    0.000    0.000    0.000 
#
# Total GULP energy -793514.508752 kJ/mol
# GULP energy per Si atom -12398.664199 kJ/mol
# Density = 1.826737 g / cm^3
# Si number density = 18.309040 Si / 1000 Ang^3
#
#
#
# Elastic Constant Matrix: (Units=GPa)
#
#
# Indices 1 2 3 4 5 6 
#
# 1 101.7373 59.5357 43.0440 0.0000 0.0000 0.0000
# 2 59.5357 103.1345 43.8824 0.0000 0.0000 0.0000
# 3 43.0440 43.8824 61.6846 0.0000 0.0000 0.0000
# 4 0.0000 0.0000 0.0000 12.6481 0.0000 0.0000
# 5 0.0000 0.0000 0.0000 0.0000 29.3365 0.0000
# 6 0.0000 0.0000 0.0000 0.0000 0.0000 36.4316
#
#
#
# Elastic Compliance Matrix: (Units=1/GPa)
#
#
# Indices 1 2 3 4 5 6 
#
# 1 0.016646 -0.006692 -0.006854 0.000000 0.000000 0.000000
# 2 -0.006692 0.016596 -0.007136 0.000000 0.000000 0.000000
# 3 -0.006854 -0.007136 0.026071 0.000000 0.000000 0.000000
# 4 0.000000 0.000000 0.000000 0.079063 0.000000 0.000000
# 5 0.000000 0.000000 0.000000 0.000000 0.034087 0.000000
# 6 0.000000 0.000000 0.000000 0.000000 0.000000 0.027449
#
#
# Mechanical properties :
#
#
# Convention : Reuss Voigt Hill
#
# Bulk Modulus (GPa) = 55.72111 62.16450 58.94280
# Shear Modulus (GPa) = 20.22164 23.68953 21.95559
#
# Velocity S-wave (km/s) = 3.32695 3.60094 3.46666
# Velocity P-wave (km/s) = 6.72740 7.16350 6.94887
#
# Compressibility (1/GPa) = 0.01794652
#
# Stress axis : x y z
#
# Youngs Moduli (GPa) = 60.07585 60.25658 38.35641
#
# Poissons Ratio (x) = 0.40326 0.26291
# Poissons Ratio (y) = 0.40205 0.27372
# Poissons Ratio (z) = 0.41179 0.43000
#
# Static dielectric constant tensor:
#      x y z
#    x 3.419410 0.000000 0.000000 
#    y 0.000000 3.531680 0.000000 
#    z 0.000000 0.000000 3.228930 
# 
# 
# High freq. dielectric constant tensor:
#      x y z
#    x 1.712100 0.000000 0.000000 
#    y 0.000000 1.712580 0.000000 
#    z 0.000000 0.000000 1.692160 
# 
# From -- ./inp_files/10046.got.cif
#   From: 2010.03.12/outbox.cif.g09.slc.cpg/sg47_6_cif.got.tgz:10046.got - 2010.04.14 03:12:58.
