data_PCOD8198140
_publ_section_title
;
Structure prediction by ZEFSAII (Michael W. Deem and Ramdas Pophale) SiO2 
 PCOD8198140
Probable space group: P M M M
;
_chemical_formula_sum "Si O2"
_cell_formula_units_Z 40
_cell_length_a 9.075827
_cell_length_b 9.082111
_cell_length_c 25.942609
_cell_angle_alpha 90.000000
_cell_angle_beta 90.000000
_cell_angle_gamma 90.000000
_cell_volume 2138.388768
_symmetry_space_group_name_H-M "P M M M"
_symmetry_group_IT_number 47
_symmetry_cell_setting 'orthorhombic'
loop_
_space_group_symop_operation_xyz
x,y,z
-x,-y,z
x,-y,-z
-x,y,-z
-x,-y,-z
x,y,-z
-x,y,z
x,-y,z
loop_
_atom_site_type_symbol
_atom_site_label
_atom_site_fract_x
_atom_site_fract_y
_atom_site_fract_z
Si Si1 0.326958 0.329449 0.602333
Si Si2 0.166007 0.325186 0.500000
Si Si3 0.333704 0.824810 0.000000
Si Si4 0.827666 0.828915 0.101435
Si Si5 0.175099 0.665827 0.797497
Si Si6 0.170267 0.173238 0.304934
O O1 0.500000 0.306905 0.595943
O O2 0.286814 0.500000 0.612241
O O3 0.250046 0.268364 0.550658
O O4 0.268896 0.233215 0.649149
O O5 0.165936 0.500000 0.500000
O O6 0.000000 0.262103 0.500000
O O7 0.252964 0.764905 0.949007
O O8 0.500000 0.766055 0.000000
O O9 0.325947 0.000000 0.000000
O O10 0.764202 0.743110 0.150943
O O11 0.000000 0.801319 0.093558
O O12 0.792775 0.000000 0.110097
O O13 0.236576 0.500000 0.794708
O O14 0.230387 0.754141 0.747571
O O15 0.000000 0.668417 0.799011
O O16 0.000000 0.215562 0.315038
O O17 0.191091 0.000000 0.299892
#
# Coordination Sequence:
#
# PCOD8198140 Si02
#       6
#     8   4   4   8   8   8
#     4  10  20  34  53  78 108 140 173 210 253 302
#     4   9  17  31  54  81 106 135 172 212 254 301
#     4   9  17  29  46  69  96 126 160 197 240 292
#     4   9  16  28  48  72  96 124 161 203 244 289
#     4   9  17  30  50  75 100 127 163 208 254 298
#     4  10  20  34  53  77 104 135 172 213 256 303
#
# _framework density 18.705673999999998
#
# number of rings (size 3 to 8) (size 9 to 14) (size 15 to 20)
#    0.000    2.600    0.000    2.400    0.000    7.200 
#    0.000    2.000    0.000   10.200    0.000    0.000 
#    0.000    0.000    0.000    0.000    0.000    0.000 
#
# Total GULP energy -496051.981658 kJ/mol
# GULP energy per Si atom -12401.299541 kJ/mol
# Density = 1.866310 g / cm^3
# Si number density = 18.705674 Si / 1000 Ang^3
#
#
#
# Elastic Constant Matrix: (Units=GPa)
#
#
# Indices 1 2 3 4 5 6 
#
# 1 72.5987 34.7845 61.5311 0.0000 0.0000 0.0000
# 2 34.7845 75.7349 63.2103 0.0000 0.0000 0.0000
# 3 61.5311 63.2103 194.5145 0.0000 0.0000 0.0000
# 4 0.0000 0.0000 0.0000 32.8064 0.0000 0.0000
# 5 0.0000 0.0000 0.0000 0.0000 5.1359 0.0000
# 6 0.0000 0.0000 0.0000 0.0000 0.0000 17.2332
#
#
#
# Elastic Compliance Matrix: (Units=1/GPa)
#
#
# Indices 1 2 3 4 5 6 
#
# 1 0.020337 -0.005449 -0.004662 0.000000 0.000000 0.000000
# 2 -0.005449 0.019578 -0.004638 0.000000 0.000000 0.000000
# 3 -0.004662 -0.004638 0.008123 0.000000 0.000000 0.000000
# 4 0.000000 0.000000 0.000000 0.030482 0.000000 0.000000
# 5 0.000000 0.000000 0.000000 0.000000 0.194709 0.000000
# 6 0.000000 0.000000 0.000000 0.000000 0.000000 0.058027
#
#
# Mechanical properties :
#
#
# Convention : Reuss Voigt Hill
#
# Bulk Modulus (GPa) = 53.94301 73.54442 63.74372
# Shear Modulus (GPa) = 13.62637 23.25660 18.44148
#
# Velocity S-wave (km/s) = 2.70193 3.52986 3.14327
# Velocity P-wave (km/s) = 6.21565 7.48433 6.87930
#
# Compressibility (1/GPa) = 0.01853808
#
# Stress axis : x y z
#
# Youngs Moduli (GPa) = 49.17176 51.07756 123.10439
#
# Poissons Ratio (x) = 0.27833 0.57396
# Poissons Ratio (y) = 0.26795 0.57101
# Poissons Ratio (z) = 0.22926 0.23692
#
# Static dielectric constant tensor:
#      x y z
#    x 3.238560 0.000000 0.000000 
#    y 0.000000 3.257880 0.000000 
#    z 0.000000 0.000000 3.696500 
# 
# 
# High freq. dielectric constant tensor:
#      x y z
#    x 1.702740 0.000000 0.000000 
#    y 0.000000 1.703330 0.000000 
#    z 0.000000 0.000000 1.745530 
# 
# From -- ./inp_files/1815.got.cif
#   From: 2010.03.12/outbox.cif.g09.slc.cpg/sg47_1_cif.got.tgz:1815.got - 2010.04.14 03:12:58.
