data_PCOD8198563
_publ_section_title
;
Structure prediction by ZEFSAII (Michael W. Deem and Ramdas Pophale) SiO2 
 PCOD8198563
Probable space group: P M M M
;
_chemical_formula_sum "Si O2"
_cell_formula_units_Z 52
_cell_length_a 9.269551
_cell_length_b 22.939120
_cell_length_c 14.017430
_cell_angle_alpha 90.000000
_cell_angle_beta 90.000000
_cell_angle_gamma 90.000000
_cell_volume 2980.601032
_symmetry_space_group_name_H-M "P M M M"
_symmetry_group_IT_number 47
_symmetry_cell_setting 'orthorhombic'
loop_
_space_group_symop_operation_xyz
x,y,z
-x,-y,z
x,-y,-z
-x,y,-z
-x,-y,-z
x,y,-z
-x,y,z
x,-y,z
loop_
_atom_site_type_symbol
_atom_site_label
_atom_site_fract_x
_atom_site_fract_y
_atom_site_fract_z
Si Si1 0.163700 0.433629 0.888818
Si Si2 0.832708 0.841376 0.108259
Si Si3 0.830340 0.242033 0.721897
Si Si4 0.333890 0.850862 0.391411
Si Si5 0.331552 0.065927 0.777686
Si Si6 0.500000 0.568500 0.389463
Si Si7 0.659772 0.357663 0.747772
O O1 0.209529 0.500000 0.867200
O O2 0.270308 0.390094 0.836733
O O3 0.000000 0.422791 0.854033
O O4 0.176051 0.420147 0.000000
O O5 0.792163 0.786915 0.175826
O O6 0.746466 0.898909 0.138395
O O7 0.000000 0.856813 0.118590
O O8 0.792152 0.824229 0.000000
O O9 0.766152 0.203283 0.636815
O O10 0.759593 0.305018 0.715086
O O11 0.000000 0.248327 0.706571
O O12 0.301129 0.868978 0.500000
O O13 0.500000 0.831765 0.378011
O O14 0.296762 0.906294 0.325509
O O15 0.500000 0.067789 0.800092
O O16 0.273011 0.000000 0.776729
O O17 0.500000 0.500000 0.370993
O O18 0.500000 0.584384 0.500000
O O19 0.642640 0.596996 0.340755
O O20 0.500000 0.334944 0.778423
#
# Coordination Sequence:
#
# PCOD8198563 Si02
#       7
#     8   8   8   8   8   4   8
#     4   9  18  33  53  78 109 142 173 209 258 313
#     4   9  19  35  53  71  97 138 178 212 255 305
#     4  10  20  35  52  75 105 134 171 219 266 314
#     4   9  18  33  53  74 100 135 171 211 264 320
#     4   9  18  32  50  75 105 133 169 216 261 308
#     4   9  20  38  57  77 103 137 175 216 262 310
#     4  10  21  33  54  80 105 137 177 217 263 314
#
# _framework density 17.446145000000001
#
# number of rings (size 3 to 8) (size 9 to 14) (size 15 to 20)
#    0.462    2.231    0.000    1.846    0.000    3.692 
#    0.000    5.385    0.000    1.385    0.000    9.692 
#    0.000    0.000    0.000    0.000    0.000    0.000 
#
# Total GULP energy -644737.910836 kJ/mol
# GULP energy per Si atom -12398.805978 kJ/mol
# Density = 1.740644 g / cm^3
# Si number density = 17.446145 Si / 1000 Ang^3
#
#
#
# Elastic Constant Matrix: (Units=GPa)
#
#
# Indices 1 2 3 4 5 6 
#
# 1 66.9087 41.3201 27.8617 0.0000 0.0000 0.0000
# 2 41.3201 106.2834 34.8241 0.0000 0.0000 0.0000
# 3 27.8617 34.8241 84.6714 0.0000 0.0000 0.0000
# 4 0.0000 0.0000 0.0000 16.1825 0.0000 0.0000
# 5 0.0000 0.0000 0.0000 0.0000 26.2255 0.0000
# 6 0.0000 0.0000 0.0000 0.0000 0.0000 32.2269
#
#
#
# Elastic Compliance Matrix: (Units=1/GPa)
#
#
# Indices 1 2 3 4 5 6 
#
# 1 0.020814 -0.006759 -0.004069 0.000000 0.000000 0.000000
# 2 -0.006759 0.013069 -0.003151 0.000000 0.000000 0.000000
# 3 -0.004069 -0.003151 0.014445 0.000000 0.000000 0.000000
# 4 0.000000 0.000000 0.000000 0.061795 0.000000 0.000000
# 5 0.000000 0.000000 0.000000 0.000000 0.038131 0.000000
# 6 0.000000 0.000000 0.000000 0.000000 0.000000 0.031030
#
#
# Mechanical properties :
#
#
# Convention : Reuss Voigt Hill
#
# Bulk Modulus (GPa) = 49.09091 51.76390 50.42741
# Shear Modulus (GPa) = 23.36095 25.18414 24.27255
#
# Velocity S-wave (km/s) = 3.66325 3.80351 3.73404
# Velocity P-wave (km/s) = 6.78912 7.00172 6.89624
#
# Compressibility (1/GPa) = 0.02037037
#
# Stress axis : x y z
#
# Youngs Moduli (GPa) = 48.04431 76.51792 69.22630
#
# Poissons Ratio (x) = 0.51716 0.28170
# Poissons Ratio (y) = 0.32471 0.21814
# Poissons Ratio (z) = 0.19551 0.24111
#
# Static dielectric constant tensor:
#      x y z
#    x 3.236070 0.000000 0.000000 
#    y 0.000000 3.257280 0.000000 
#    z 0.000000 0.000000 3.201340 
# 
# 
# High freq. dielectric constant tensor:
#      x y z
#    x 1.671240 0.000000 0.000000 
#    y 0.000000 1.673260 0.000000 
#    z 0.000000 0.000000 1.669930 
# 
# From -- ./inp_files/21757.got.cif
#   From: 2010.03.12/outbox.cif.g09.slc.cpg/sg47_11_cif.got.tgz:21757.got - 2010.04.14 03:12:58.
