data_PCOD8198993
_publ_section_title
;
Structure prediction by ZEFSAII (Michael W. Deem and Ramdas Pophale) SiO2 
 PCOD8198993
Probable space group: P M M M
;
_chemical_formula_sum "Si O2"
_cell_formula_units_Z 48
_cell_length_a 7.869459
_cell_length_b 15.643284
_cell_length_c 18.887712
_cell_angle_alpha 90.000000
_cell_angle_beta 90.000000
_cell_angle_gamma 90.000000
_cell_volume 2325.156337
_symmetry_space_group_name_H-M "P M M M"
_symmetry_group_IT_number 47
_symmetry_cell_setting 'orthorhombic'
loop_
_space_group_symop_operation_xyz
x,y,z
-x,-y,z
x,-y,-z
-x,y,-z
-x,-y,-z
x,y,-z
-x,y,z
x,-y,z
loop_
_atom_site_type_symbol
_atom_site_label
_atom_site_fract_x
_atom_site_fract_y
_atom_site_fract_z
Si Si1 0.194580 0.833016 0.668558
Si Si2 0.300842 0.500000 0.421109
Si Si3 0.798433 0.240113 0.080519
Si Si4 0.500000 0.099378 0.577717
Si Si5 0.801469 0.358218 0.685905
Si Si6 0.694985 0.903152 0.187136
Si Si7 0.797619 0.406188 0.838247
O O1 0.324979 0.879803 0.617396
O O2 0.265676 0.736708 0.672433
O O3 0.192281 0.873883 0.746624
O O4 0.000000 0.838216 0.639461
O O5 0.500000 0.500000 0.426600
O O6 0.220544 0.500000 0.500000
O O7 0.242266 0.415529 0.381071
O O8 0.724013 0.158428 0.120641
O O9 0.727511 0.329380 0.112885
O O10 0.000000 0.237507 0.086272
O O11 0.735355 0.234959 0.000000
O O12 0.500000 0.144049 0.500000
O O13 0.500000 0.000000 0.567143
O O14 0.722778 0.394701 0.758787
O O15 0.000000 0.354607 0.697103
O O16 0.500000 0.898838 0.211280
O O17 0.745339 0.000000 0.165259
O O18 0.737564 0.500000 0.866207
O O19 0.000000 0.402844 0.837571
#
# Coordination Sequence:
#
# PCOD8198993 Si02
#       7
#     8   4   8   4   8   8   8
#     4  11  23  41  68  97 127 166 215 264 316 381
#     4  11  25  39  55  87 128 165 202 252 314 376
#     4  10  21  37  58  88 124 161 206 259 314 376
#     4  11  26  46  66  93 130 166 207 265 324 380
#     4  10  20  37  62  88 117 159 207 257 308 368
#     4  11  23  39  62  91 123 162 210 265 322 381
#     4   9  16  31  57  85 114 150 197 250 304 363
#
# _framework density 20.643772999999999
#
# number of rings (size 3 to 8) (size 9 to 14) (size 15 to 20)
#    0.000    1.667    3.333    1.250    1.167    5.000 
#    0.000    5.833    0.000    0.000    0.000    1.167 
#    0.000    0.000    0.000    0.000    0.000    0.000 
#
# Total GULP energy -595128.396901 kJ/mol
# GULP energy per Si atom -12398.508269 kJ/mol
# Density = 2.059679 g / cm^3
# Si number density = 20.643773 Si / 1000 Ang^3
#
#
#
# Elastic Constant Matrix: (Units=GPa)
#
#
# Indices 1 2 3 4 5 6 
#
# 1 37.6958 17.9849 10.3351 0.0000 0.0000 0.0000
# 2 17.9849 181.6032 73.0195 0.0000 0.0000 0.0000
# 3 10.3351 73.0195 139.9104 0.0000 0.0000 0.0000
# 4 0.0000 0.0000 0.0000 -19.1057 0.0000 0.0000
# 5 0.0000 0.0000 0.0000 0.0000 19.7538 0.0000
# 6 0.0000 0.0000 0.0000 0.0000 0.0000 31.1362
#
#
#
# Elastic Compliance Matrix: (Units=1/GPa)
#
#
# Indices 1 2 3 4 5 6 
#
# 1 0.027911 -0.002449 -0.000784 0.000000 0.000000 0.000000
# 2 -0.002449 0.007184 -0.003568 0.000000 0.000000 0.000000
# 3 -0.000784 -0.003568 0.009068 0.000000 0.000000 0.000000
# 4 0.000000 0.000000 0.000000 -0.052340 0.000000 0.000000
# 5 0.000000 0.000000 0.000000 0.000000 0.050623 0.000000
# 6 0.000000 0.000000 0.000000 0.000000 0.000000 0.032117
#
#
# Mechanical properties :
#
#
# Convention : Reuss Voigt Hill
#
# Bulk Modulus (GPa) = 32.72163 62.43206 47.57685
# Shear Modulus (GPa) = 50.83797 23.54819 37.19308
#
# Velocity S-wave (km/s) = 4.96787 3.38108 4.24920
# Velocity P-wave (km/s) = 6.98508 6.74911 6.86811
#
# Compressibility (1/GPa) = 0.03056082
#
# Stress axis : x y z
#
# Youngs Moduli (GPa) = 35.82753 139.20166 110.28235
#
# Poissons Ratio (x) = 0.34092 0.08642
# Poissons Ratio (y) = 0.08775 0.39352
# Poissons Ratio (z) = 0.02808 0.49672
#
# Static dielectric constant tensor:
#      x y z
#    x 3.528740 0.000000 0.000000 
#    y 0.000000 4.012570 0.000000 
#    z 0.000000 0.000000 3.943190 
# 
# 
# High freq. dielectric constant tensor:
#      x y z
#    x 1.792480 0.000000 0.000000 
#    y 0.000000 1.824130 0.000000 
#    z 0.000000 0.000000 1.799640 
# 
# From -- ./inp_files/26565.got.cif
#   From: 2010.03.12/outbox.cif.g09.slc.cpg/sg47_14_cif.got.tgz:26565.got - 2010.04.14 03:12:58.
