data_PCOD8198546
_publ_section_title
;
Structure prediction by ZEFSAII (Michael W. Deem and Ramdas Pophale) SiO2 
 PCOD8198546
Probable space group: P M M M
;
_chemical_formula_sum "Si O2"
_cell_formula_units_Z 40
_cell_length_a 14.363303
_cell_length_b 15.542028
_cell_length_c 8.990724
_cell_angle_alpha 90.000000
_cell_angle_beta 90.000000
_cell_angle_gamma 90.000000
_cell_volume 2007.042990
_symmetry_space_group_name_H-M "P M M M"
_symmetry_group_IT_number 47
_symmetry_cell_setting 'orthorhombic'
loop_
_space_group_symop_operation_xyz
x,y,z
-x,-y,z
x,-y,-z
-x,y,-z
-x,-y,-z
x,y,-z
-x,y,z
x,-y,z
loop_
_atom_site_type_symbol
_atom_site_label
_atom_site_fract_x
_atom_site_fract_y
_atom_site_fract_z
Si Si1 0.281243 0.903881 0.329187
Si Si2 0.894888 0.849007 0.826691
Si Si3 0.393054 0.753094 0.824893
Si Si4 0.705868 0.596191 0.671602
Si Si5 0.897377 0.327214 0.668729
O O1 0.277447 0.874918 0.500000
O O2 0.176736 0.907066 0.264695
O O3 0.344455 0.836567 0.242618
O O4 0.323422 0.000000 0.312752
O O5 0.879992 0.750181 0.782063
O O6 0.000000 0.879320 0.789960
O O7 0.872893 0.858600 0.000000
O O8 0.500000 0.754565 0.775589
O O9 0.348656 0.664474 0.769888
O O10 0.380758 0.757754 0.000000
O O11 0.680715 0.613244 0.500000
O O12 0.675760 0.500000 0.719290
O O13 0.817322 0.602738 0.696950
O O14 0.890679 0.291279 0.500000
O O15 0.000000 0.368465 0.696100
#
# Coordination Sequence:
#
# PCOD8198546 Si02
#       5
#     8   8   8   8   8
#     4  11  24  41  63  91 121 155 197 244 297 359
#     4  10  20  34  56  87 123 162 201 241 288 344
#     4  11  25  44  65  88 116 153 197 248 307 365
#     4  10  21  37  60  91 124 160 202 245 293 351
#     4   9  17  31  54  84 120 161 201 240 285 342
#
# _framework density 19.929817
#
# number of rings (size 3 to 8) (size 9 to 14) (size 15 to 20)
#    0.000    1.800    2.000    1.800    0.000    6.400 
#    0.000    8.000    0.000    0.000    0.000    4.200 
#    0.000    0.000    0.000    0.000    0.000    0.000 
#
# Total GULP energy -495981.949089 kJ/mol
# GULP energy per Si atom -12399.548727 kJ/mol
# Density = 1.988446 g / cm^3
# Si number density = 19.929817 Si / 1000 Ang^3
#
#
#
# Elastic Constant Matrix: (Units=GPa)
#
#
# Indices 1 2 3 4 5 6 
#
# 1 132.5054 62.9902 57.6397 0.0000 0.0000 0.0000
# 2 62.9902 113.9835 43.9698 0.0000 0.0000 0.0000
# 3 57.6397 43.9698 78.9387 0.0000 0.0000 0.0000
# 4 0.0000 0.0000 0.0000 -2.2493 0.0000 0.0000
# 5 0.0000 0.0000 0.0000 0.0000 30.3023 0.0000
# 6 0.0000 0.0000 0.0000 0.0000 0.0000 7.8416
#
#
#
# Elastic Compliance Matrix: (Units=1/GPa)
#
#
# Indices 1 2 3 4 5 6 
#
# 1 0.012538 -0.004327 -0.006745 0.000000 0.000000 0.000000
# 2 -0.004327 0.012667 -0.003897 0.000000 0.000000 0.000000
# 3 -0.006745 -0.003897 0.019763 0.000000 0.000000 0.000000
# 4 0.000000 0.000000 0.000000 -0.444585 0.000000 0.000000
# 5 0.000000 0.000000 0.000000 0.000000 0.033001 0.000000
# 6 0.000000 0.000000 0.000000 0.000000 0.000000 0.127526
#
#
# Mechanical properties :
#
#
# Convention : Reuss Voigt Hill
#
# Bulk Modulus (GPa) = 66.52335 72.73633 69.62984
# Shear Modulus (GPa) = -24.49268 17.90077 -3.29596
#
# Velocity S-wave (km/s) = -3.50944 3.00023 -1.28739
# Velocity P-wave (km/s) = 4.12671 6.96974 5.72744
#
# Compressibility (1/GPa) = 0.01503232
#
# Stress axis : x y z
#
# Youngs Moduli (GPa) = 79.75952 78.94254 50.59870
#
# Poissons Ratio (x) = 0.34157 0.34127
# Poissons Ratio (y) = 0.34511 0.19716
# Poissons Ratio (z) = 0.53795 0.30760
#
# Static dielectric constant tensor:
#      x y z
#    x 3.842330 0.000000 0.000000 
#    y 0.000000 3.440050 0.000000 
#    z 0.000000 0.000000 3.662200 
# 
# 
# High freq. dielectric constant tensor:
#      x y z
#    x 1.782620 0.000000 0.000000 
#    y 0.000000 1.767850 0.000000 
#    z 0.000000 0.000000 1.779550 
# 
# From -- ./inp_files/5664.got.cif
#   From: 2010.03.12/outbox.cif.g09.slc.cpg/sg47_3_cif.got.tgz:5664.got - 2010.04.14 03:12:58.
