data_PCOD8198278
_publ_section_title
;
Structure prediction by ZEFSAII (Michael W. Deem and Ramdas Pophale) SiO2 
 PCOD8198278
Probable space group: P M M M
;
_chemical_formula_sum "Si O2"
_cell_formula_units_Z 44
_cell_length_a 9.074853
_cell_length_b 9.390562
_cell_length_c 28.027323
_cell_angle_alpha 90.000000
_cell_angle_beta 90.000000
_cell_angle_gamma 90.000000
_cell_volume 2388.431563
_symmetry_space_group_name_H-M "P M M M"
_symmetry_group_IT_number 47
_symmetry_cell_setting 'orthorhombic'
loop_
_space_group_symop_operation_xyz
x,y,z
-x,-y,z
x,-y,-z
-x,y,-z
-x,-y,-z
x,y,-z
-x,y,z
x,-y,z
loop_
_atom_site_type_symbol
_atom_site_label
_atom_site_fract_x
_atom_site_fract_y
_atom_site_fract_z
Si Si1 0.170117 0.664812 0.725561
Si Si2 0.329004 0.666127 0.177735
Si Si3 0.671337 0.661441 0.445224
Si Si4 0.171254 0.832662 0.905531
Si Si5 0.173974 0.837996 0.365838
Si Si6 0.333677 0.830755 0.000000
O O1 0.191393 0.500000 0.712525
O O2 0.267951 0.709293 0.770604
O O3 0.229684 0.754861 0.680931
O O4 0.000000 0.699586 0.737296
O O5 0.500000 0.707050 0.175045
O O6 0.302562 0.500000 0.167872
O O7 0.239912 0.754514 0.139274
O O8 0.703974 0.700060 0.500000
O O9 0.500000 0.678209 0.433697
O O10 0.722333 0.500000 0.434466
O O11 0.760928 0.770256 0.413284
O O12 0.000000 0.795149 0.909486
O O13 0.197525 0.000000 0.899050
O O14 0.249946 0.774416 0.953205
O O15 0.000000 0.826903 0.369728
O O16 0.228234 0.000000 0.361815
O O17 0.500000 0.770636 0.000000
O O18 0.333078 0.000000 0.000000
#
# Coordination Sequence:
#
# PCOD8198278 Si02
#       6
#     8   8   8   8   8   4
#     4   9  18  34  54  73  98 136 177 213 252 303
#     4  10  21  36  54  78 107 137 171 214 263 311
#     4   9  19  36  56  77 102 135 176 218 258 304
#     4  10  20  34  54  79 106 138 176 216 258 307
#     4  10  21  35  52  78 110 139 169 210 259 309
#     4   9  17  31  52  77 106 139 174 214 260 309
#
# _framework density 18.422129999999999
#
# number of rings (size 3 to 8) (size 9 to 14) (size 15 to 20)
#    0.000    2.455    0.000    2.455    0.000    6.909 
#    0.000    6.818    0.000    2.727    0.000    0.000 
#    0.000    0.000    0.000    0.000    0.000    0.000 
#
# Total GULP energy -545727.181775 kJ/mol
# GULP energy per Si atom -12402.890495 kJ/mol
# Density = 1.838020 g / cm^3
# Si number density = 18.422130 Si / 1000 Ang^3
#
#
#
# Elastic Constant Matrix: (Units=GPa)
#
#
# Indices 1 2 3 4 5 6 
#
# 1 87.8538 45.6262 62.9579 0.0000 0.0000 0.0000
# 2 45.6262 80.9607 71.9272 0.0000 0.0000 0.0000
# 3 62.9579 71.9272 140.8369 0.0000 0.0000 0.0000
# 4 0.0000 0.0000 0.0000 37.1442 0.0000 0.0000
# 5 0.0000 0.0000 0.0000 0.0000 -9.6863 0.0000
# 6 0.0000 0.0000 0.0000 0.0000 0.0000 26.8257
#
#
#
# Elastic Compliance Matrix: (Units=1/GPa)
#
#
# Indices 1 2 3 4 5 6 
#
# 1 0.017984 -0.005478 -0.005241 0.000000 0.000000 0.000000
# 2 -0.005478 0.024280 -0.009951 0.000000 0.000000 0.000000
# 3 -0.005241 -0.009951 0.014526 0.000000 0.000000 0.000000
# 4 0.000000 0.000000 0.000000 0.026922 0.000000 0.000000
# 5 0.000000 0.000000 0.000000 0.000000 -0.103239 0.000000
# 6 0.000000 0.000000 0.000000 0.000000 0.000000 0.037278
#
#
# Mechanical properties :
#
#
# Convention : Reuss Voigt Hill
#
# Bulk Modulus (GPa) = 64.73508 74.51937 69.62723
# Shear Modulus (GPa) = 77.83197 19.46605 48.64901
#
# Velocity S-wave (km/s) = 6.50699 3.25417 5.14444
# Velocity P-wave (km/s) = 9.57448 7.39312 8.55362
#
# Compressibility (1/GPa) = 0.01544757
#
# Stress axis : x y z
#
# Youngs Moduli (GPa) = 55.60567 41.18657 68.84435
#
# Poissons Ratio (x) = 0.22564 0.36084
# Poissons Ratio (y) = 0.30463 0.68507
# Poissons Ratio (z) = 0.29145 0.40985
#
# Static dielectric constant tensor:
#      x y z
#    x 3.415060 0.000000 0.000000 
#    y 0.000000 3.313290 0.000000 
#    z 0.000000 0.000000 3.484480 
# 
# 
# High freq. dielectric constant tensor:
#      x y z
#    x 1.717070 0.000000 0.000000 
#    y 0.000000 1.700810 0.000000 
#    z 0.000000 0.000000 1.726790 
# 
# From -- ./inp_files/33921.got.cif
#   From: 2010.03.12/outbox.cif.g09.slc.cpg/sg47_17_cif.got.tgz:33921.got - 2010.04.14 03:12:58.
