data_PCOD8198847
_publ_section_title
;
Structure prediction by ZEFSAII (Michael W. Deem and Ramdas Pophale) SiO2 
 PCOD8198847
Probable space group: P M M M
;
_chemical_formula_sum "Si O2"
_cell_formula_units_Z 56
_cell_length_a 8.713145
_cell_length_b 22.804855
_cell_length_c 14.403407
_cell_angle_alpha 90.000000
_cell_angle_beta 90.000000
_cell_angle_gamma 90.000000
_cell_volume 2861.985898
_symmetry_space_group_name_H-M "P M M M"
_symmetry_group_IT_number 47
_symmetry_cell_setting 'orthorhombic'
loop_
_space_group_symop_operation_xyz
x,y,z
-x,-y,z
x,-y,-z
-x,y,-z
-x,-y,-z
x,y,-z
-x,y,z
x,-y,z
loop_
_atom_site_type_symbol
_atom_site_label
_atom_site_fract_x
_atom_site_fract_y
_atom_site_fract_z
Si Si1 0.318485 0.606896 0.288223
Si Si2 0.680912 0.934210 0.688961
Si Si3 0.822448 0.631601 0.102133
Si Si4 0.822452 0.820297 0.263373
Si Si5 0.830478 0.931135 0.500000
Si Si6 0.174207 0.500000 0.390349
Si Si7 0.681491 0.725357 0.606376
Si Si8 0.673288 0.244389 0.896586
O O1 0.500000 0.603855 0.275532
O O2 0.237522 0.593245 0.188710
O O3 0.264216 0.557263 0.358050
O O4 0.266298 0.669413 0.331844
O O5 0.500000 0.934549 0.695183
O O6 0.750351 0.884851 0.755555
O O7 0.733618 0.911532 0.588346
O O8 0.743556 0.000000 0.711784
O O9 0.715002 0.687938 0.102467
O O10 0.000000 0.648460 0.117822
O O11 0.803824 0.600532 0.000000
O O12 0.748322 0.784423 0.348468
O O13 0.795610 0.788150 0.166614
O O14 0.000000 0.827136 0.284774
O O15 0.000000 0.901695 0.500000
O O16 0.849916 0.000000 0.500000
O O17 0.175093 0.500000 0.500000
O O18 0.000000 0.500000 0.351931
O O19 0.741424 0.718991 0.500000
O O20 0.500000 0.730379 0.606637
O O21 0.500000 0.237916 0.856604
O O22 0.683082 0.217938 0.000000
#
# Coordination Sequence:
#
# PCOD8198847 Si02
#       8
#     8   8   8   8   4   4   8   8
#     4  11  22  39  64  90 119 157 202 247 292 345
#     4  10  21  37  56  76 105 149 196 239 286 345
#     4  10  20  35  58  89 123 156 191 236 294 353
#     4  12  24  36  56  85 118 152 190 239 295 352
#     4   9  17  31  51  75 103 137 183 234 281 332
#     4  11  25  43  64  89 120 161 205 248 294 347
#     4  10  22  39  58  82 116 156 196 241 291 344
#     4  10  20  36  59  86 116 151 193 238 286 347
#
# _framework density 19.566832999999999
#
# number of rings (size 3 to 8) (size 9 to 14) (size 15 to 20)
#    0.000    1.571    1.429    3.857    1.000    5.429 
#    0.000    0.357    0.000    2.571    0.000    3.000 
#    0.000    0.000    0.000    0.000    0.000    0.000 
#
# Total GULP energy -694251.901075 kJ/mol
# GULP energy per Si atom -12397.355376 kJ/mol
# Density = 1.952230 g / cm^3
# Si number density = 19.566833 Si / 1000 Ang^3
#
#
#
# Elastic Constant Matrix: (Units=GPa)
#
#
# Indices 1 2 3 4 5 6 
#
# 1 71.4757 30.6367 31.6041 0.0000 0.0000 0.0000
# 2 30.6367 87.8531 23.4653 0.0000 0.0000 0.0000
# 3 31.6041 23.4653 102.8953 0.0000 0.0000 0.0000
# 4 0.0000 0.0000 0.0000 20.1979 0.0000 0.0000
# 5 0.0000 0.0000 0.0000 0.0000 27.3324 0.0000
# 6 0.0000 0.0000 0.0000 0.0000 0.0000 27.1743
#
#
#
# Elastic Compliance Matrix: (Units=1/GPa)
#
#
# Indices 1 2 3 4 5 6 
#
# 1 0.018144 -0.005153 -0.004398 0.000000 0.000000 0.000000
# 2 -0.005153 0.013584 -0.001515 0.000000 0.000000 0.000000
# 3 -0.004398 -0.001515 0.011415 0.000000 0.000000 0.000000
# 4 0.000000 0.000000 0.000000 0.049510 0.000000 0.000000
# 5 0.000000 0.000000 0.000000 0.000000 0.036587 0.000000
# 6 0.000000 0.000000 0.000000 0.000000 0.000000 0.036799
#
#
# Mechanical properties :
#
#
# Convention : Reuss Voigt Hill
#
# Bulk Modulus (GPa) = 47.59259 48.18183 47.88721
# Shear Modulus (GPa) = 25.61808 26.70878 26.16343
#
# Velocity S-wave (km/s) = 3.62230 3.69860 3.66065
# Velocity P-wave (km/s) = 6.47075 6.55112 6.51106
#
# Compressibility (1/GPa) = 0.02101167
#
# Stress axis : x y z
#
# Youngs Moduli (GPa) = 55.11496 73.61478 87.60434
#
# Poissons Ratio (x) = 0.37931 0.38527
# Poissons Ratio (y) = 0.28399 0.13274
# Poissons Ratio (z) = 0.24239 0.11155
#
# Static dielectric constant tensor:
#      x y z
#    x 3.599430 0.000000 0.000000 
#    y 0.000000 3.529780 0.000000 
#    z 0.000000 0.000000 3.746640 
# 
# 
# High freq. dielectric constant tensor:
#      x y z
#    x 1.771660 0.000000 0.000000 
#    y 0.000000 1.745270 0.000000 
#    z 0.000000 0.000000 1.762000 
# 
# From -- ./inp_files/21696.got.cif
#   From: 2010.03.12/outbox.cif.g09.slc.cpg/sg47_11_cif.got.tgz:21696.got - 2010.04.14 03:12:58.
