data_PCOD8198520
_publ_section_title
;
Structure prediction by ZEFSAII (Michael W. Deem and Ramdas Pophale) SiO2 
 PCOD8198520
Probable space group: P M M M
;
_chemical_formula_sum "Si O2"
_cell_formula_units_Z 48
_cell_length_a 9.053208
_cell_length_b 7.938202
_cell_length_c 32.570090
_cell_angle_alpha 90.000000
_cell_angle_beta 90.000000
_cell_angle_gamma 90.000000
_cell_volume 2340.688402
_symmetry_space_group_name_H-M "P M M M"
_symmetry_group_IT_number 47
_symmetry_cell_setting 'orthorhombic'
loop_
_space_group_symop_operation_xyz
x,y,z
-x,-y,z
x,-y,-z
-x,y,-z
-x,-y,-z
x,y,-z
-x,y,z
x,-y,z
loop_
_atom_site_type_symbol
_atom_site_label
_atom_site_fract_x
_atom_site_fract_y
_atom_site_fract_z
Si Si1 0.831929 0.698610 0.000000
Si Si2 0.670885 0.189184 0.399540
Si Si3 0.675211 0.500000 0.454186
Si Si4 0.669085 0.698504 0.762112
Si Si5 0.163155 0.195266 0.158088
Si Si6 0.172520 0.304130 0.679637
Si Si7 0.663924 0.802684 0.919138
O O1 0.752585 0.769321 0.039753
O O2 0.823225 0.500000 0.000000
O O3 0.000000 0.763382 0.000000
O O4 0.500000 0.225412 0.389114
O O5 0.730416 0.329937 0.431418
O O6 0.763889 0.198653 0.358024
O O7 0.690502 0.000000 0.418010
O O8 0.500000 0.500000 0.456691
O O9 0.743139 0.500000 0.500000
O O10 0.500000 0.757817 0.760427
O O11 0.683734 0.500000 0.766973
O O12 0.746902 0.784069 0.800348
O O13 0.748920 0.760656 0.720832
O O14 0.250647 0.279088 0.119819
O O15 0.000000 0.278991 0.161830
O O16 0.143673 0.000000 0.148789
O O17 0.207113 0.500000 0.671827
O O18 0.000000 0.268416 0.684088
O O19 0.500000 0.721686 0.921969
O O20 0.648082 0.000000 0.912283
#
# Coordination Sequence:
#
# PCOD8198520 Si02
#       7
#     4   8   4   8   8   8   8
#     4  11  24  39  56  82 112 141 176 221 274 330
#     4  10  20  34  56  85 115 151 194 239 291 349
#     4   9  18  34  57  85 119 155 191 241 297 346
#     4  10  21  36  56  82 112 148 188 230 278 331
#     4  10  21  37  57  81 110 145 184 226 273 326
#     4  10  20  35  56  80 109 148 191 236 287 340
#     4  10  21  38  60  83 107 140 182 226 275 332
#
# _framework density 20.506786000000002
#
# number of rings (size 3 to 8) (size 9 to 14) (size 15 to 20)
#    0.000    2.000    0.833    2.500    0.000    7.333 
#    0.000    1.667    0.000    1.000    0.000    1.167 
#    0.000    0.000    0.000    0.000    0.000    0.000 
#
# Total GULP energy -595260.704216 kJ/mol
# GULP energy per Si atom -12401.264671 kJ/mol
# Density = 2.046011 g / cm^3
# Si number density = 20.506786 Si / 1000 Ang^3
#
#
#
# Elastic Constant Matrix: (Units=GPa)
#
#
# Indices 1 2 3 4 5 6 
#
# 1 143.0115 30.7642 68.5158 0.0000 0.0000 0.0000
# 2 30.7642 63.5336 39.3538 0.0000 0.0000 0.0000
# 3 68.5158 39.3538 170.0166 0.0000 0.0000 0.0000
# 4 0.0000 0.0000 0.0000 25.6267 0.0000 0.0000
# 5 0.0000 0.0000 0.0000 0.0000 -28.8909 0.0000
# 6 0.0000 0.0000 0.0000 0.0000 0.0000 21.0505
#
#
#
# Elastic Compliance Matrix: (Units=1/GPa)
#
#
# Indices 1 2 3 4 5 6 
#
# 1 0.008983 -0.002460 -0.003051 0.000000 0.000000 0.000000
# 2 -0.002460 0.019048 -0.003418 0.000000 0.000000 0.000000
# 3 -0.003051 -0.003418 0.007902 0.000000 0.000000 0.000000
# 4 0.000000 0.000000 0.000000 0.039022 0.000000 0.000000
# 5 0.000000 0.000000 0.000000 0.000000 -0.034613 0.000000
# 6 0.000000 0.000000 0.000000 0.000000 0.000000 0.047505
#
#
# Mechanical properties :
#
#
# Convention : Reuss Voigt Hill
#
# Bulk Modulus (GPa) = 55.32073 72.64768 63.98420
# Shear Modulus (GPa) = 44.75090 19.41912 32.08501
#
# Velocity S-wave (km/s) = 4.67652 3.08061 3.95980
# Velocity P-wave (km/s) = 7.49634 6.93950 7.22329
#
# Compressibility (1/GPa) = 0.01807641
#
# Stress axis : x y z
#
# Youngs Moduli (GPa) = 111.31809 52.49928 126.54574
#
# Poissons Ratio (x) = 0.12916 0.38606
# Poissons Ratio (y) = 0.27386 0.43248
# Poissons Ratio (z) = 0.33960 0.17942
#
# Static dielectric constant tensor:
#      x y z
#    x 3.929460 0.000000 0.000000 
#    y 0.000000 3.577940 0.000000 
#    z 0.000000 0.000000 3.783460 
# 
# 
# High freq. dielectric constant tensor:
#      x y z
#    x 1.804730 0.000000 0.000000 
#    y 0.000000 1.789170 0.000000 
#    z 0.000000 0.000000 1.805110 
# 
# From -- ./inp_files/34086.got.cif
#   From: 2010.03.12/outbox.cif.g09.slc.cpg/sg47_18_cif.got.tgz:34086.got - 2010.04.14 03:12:58.
