data_PCOD8198417
_publ_section_title
;
Structure prediction by ZEFSAII (Michael W. Deem and Ramdas Pophale) SiO2 
 PCOD8198417
Probable space group: P M M M
;
_chemical_formula_sum "Si O2"
_cell_formula_units_Z 64
_cell_length_a 9.135034
_cell_length_b 31.259444
_cell_length_c 14.174262
_cell_angle_alpha 90.000000
_cell_angle_beta 90.000000
_cell_angle_gamma 90.000000
_cell_volume 4047.546747
_symmetry_space_group_name_H-M "P M M M"
_symmetry_group_IT_number 47
_symmetry_cell_setting 'orthorhombic'
loop_
_space_group_symop_operation_xyz
x,y,z
-x,-y,z
x,-y,-z
-x,y,-z
-x,-y,-z
x,y,-z
-x,y,z
x,-y,z
loop_
_atom_site_type_symbol
_atom_site_label
_atom_site_fract_x
_atom_site_fract_y
_atom_site_fract_z
Si Si1 0.834446 0.663540 0.395652
Si Si2 0.661168 0.874108 0.111860
Si Si3 0.169498 0.702571 0.797166
Si Si4 0.329240 0.422862 0.607195
Si Si5 0.836325 0.046495 0.887950
Si Si6 0.669990 0.622494 0.111226
Si Si7 0.168473 0.548085 0.781722
Si Si8 0.672650 0.220704 0.108701
O O1 0.807685 0.683507 0.500000
O O2 0.810703 0.699396 0.316050
O O3 0.720207 0.625823 0.376344
O O4 0.000000 0.645016 0.388455
O O5 0.500000 0.877618 0.155588
O O6 0.751684 0.913264 0.157364
O O7 0.726639 0.827269 0.135631
O O8 0.653120 0.878911 0.000000
O O9 0.251424 0.663984 0.848094
O O10 0.238599 0.747447 0.825618
O O11 0.000000 0.701220 0.826984
O O12 0.297812 0.437512 0.500000
O O13 0.500000 0.426459 0.631592
O O14 0.236726 0.452653 0.676786
O O15 0.000000 0.048678 0.848289
O O16 0.767144 0.000000 0.860010
O O17 0.837152 0.050840 0.000000
O O18 0.500000 0.623637 0.140233
O O19 0.741855 0.579533 0.151199
O O20 0.690551 0.622394 0.000000
O O21 0.179824 0.500000 0.822573
O O22 0.000000 0.563236 0.777143
O O23 0.500000 0.225486 0.126612
O O24 0.708643 0.231072 0.000000
#
# Coordination Sequence:
#
# PCOD8198417 Si02
#       8
#     8   8   8   8   8   8   8   8
#     4   9  18  33  52  73  98 124 147 176 218 265
#     4   8  14  24  36  50  71 103 144 186 225 265
#     4  11  21  32  51  76  96 118 150 185 221 265
#     4  10  20  34  55  81 104 126 152 181 215 259
#     4   8  13  20  30  46  69  98 134 179 230 275
#     4  11  24  40  57  75  96 123 152 186 228 267
#     4  11  24  40  57  77 100 126 154 184 221 264
#     4   9  18  31  44  60  87 122 155 189 231 271
#
# _framework density 15.812046
#
# number of rings (size 3 to 8) (size 9 to 14) (size 15 to 20)
#    0.000    2.375    1.250    3.000    0.000    6.250 
#    0.000    5.000    0.000    0.000    0.000    0.000 
#    0.000    0.000    0.000    0.000    0.000    0.625 
#
# Total GULP energy -793291.401906 kJ/mol
# GULP energy per Si atom -12395.178155 kJ/mol
# Density = 1.577606 g / cm^3
# Si number density = 15.812046 Si / 1000 Ang^3
#
#
#
# Elastic Constant Matrix: (Units=GPa)
#
#
# Indices 1 2 3 4 5 6 
#
# 1 88.1376 57.4918 35.2845 0.0000 0.0000 0.0000
# 2 57.4918 124.5166 40.4025 0.0000 0.0000 0.0000
# 3 35.2845 40.4025 56.5911 0.0000 0.0000 0.0000
# 4 0.0000 0.0000 0.0000 7.8142 0.0000 0.0000
# 5 0.0000 0.0000 0.0000 0.0000 20.3413 0.0000
# 6 0.0000 0.0000 0.0000 0.0000 0.0000 29.2811
#
#
#
# Elastic Compliance Matrix: (Units=1/GPa)
#
#
# Indices 1 2 3 4 5 6 
#
# 1 0.018105 -0.006113 -0.006925 0.000000 0.000000 0.000000
# 2 -0.006113 0.012516 -0.005124 0.000000 0.000000 0.000000
# 3 -0.006925 -0.005124 0.025647 0.000000 0.000000 0.000000
# 4 0.000000 0.000000 0.000000 0.127972 0.000000 0.000000
# 5 0.000000 0.000000 0.000000 0.000000 0.049161 0.000000
# 6 0.000000 0.000000 0.000000 0.000000 0.000000 0.034152
#
#
# Mechanical properties :
#
#
# Convention : Reuss Voigt Hill
#
# Bulk Modulus (GPa) = 50.13882 59.51141 54.82512
# Shear Modulus (GPa) = 16.10177 20.55843 18.33010
#
# Velocity S-wave (km/s) = 3.19458 3.60971 3.40847
# Velocity P-wave (km/s) = 6.73685 7.42238 7.08791
#
# Compressibility (1/GPa) = 0.01994462
#
# Stress axis : x y z
#
# Youngs Moduli (GPa) = 55.23232 79.89635 38.99146
#
# Poissons Ratio (x) = 0.48839 0.27000
# Poissons Ratio (y) = 0.33762 0.19981
# Poissons Ratio (z) = 0.38246 0.40943
#
# Static dielectric constant tensor:
#      x y z
#    x 3.218050 0.000000 0.000000 
#    y 0.000000 3.082310 0.000000 
#    z 0.000000 0.000000 2.861630 
# 
# 
# High freq. dielectric constant tensor:
#      x y z
#    x 1.618030 0.000000 0.000000 
#    y 0.000000 1.599960 0.000000 
#    z 0.000000 0.000000 1.568640 
# 
# From -- ./inp_files/8212.got.cif
#   From: 2010.03.12/outbox.cif.g09.slc.cpg/sg47_5_cif.got.tgz:8212.got - 2010.04.14 03:12:58.
