data_PCOD8198752
_publ_section_title
;
Structure prediction by ZEFSAII (Michael W. Deem and Ramdas Pophale) SiO2 
 PCOD8198752
Probable space group: P M M M
;
_chemical_formula_sum "Si O2"
_cell_formula_units_Z 48
_cell_length_a 28.981979
_cell_length_b 10.026471
_cell_length_c 8.794386
_cell_angle_alpha 90.000000
_cell_angle_beta 90.000000
_cell_angle_gamma 90.000000
_cell_volume 2555.533998
_symmetry_space_group_name_H-M "P M M M"
_symmetry_group_IT_number 47
_symmetry_cell_setting 'orthorhombic'
loop_
_space_group_symop_operation_xyz
x,y,z
-x,-y,z
x,-y,-z
-x,y,-z
-x,-y,-z
x,y,-z
-x,y,z
x,-y,z
loop_
_atom_site_type_symbol
_atom_site_label
_atom_site_fract_x
_atom_site_fract_y
_atom_site_fract_z
Si Si1 0.553074 0.000000 0.319454
Si Si2 0.600062 0.255465 0.820098
Si Si3 0.948552 0.351421 0.820336
Si Si4 0.226187 0.147913 0.319458
Si Si5 0.694568 0.344714 0.320862
Si Si6 0.123130 0.846529 0.676083
Si Si7 0.446229 0.500000 0.669284
O O1 0.580710 0.874960 0.258262
O O2 0.500000 0.000000 0.261496
O O3 0.554338 0.000000 0.500000
O O4 0.651927 0.283989 0.769291
O O5 0.567498 0.373369 0.766193
O O6 0.597903 0.239908 0.000000
O O7 0.935039 0.500000 0.762906
O O8 0.912505 0.244666 0.762854
O O9 0.000000 0.315323 0.760961
O O10 0.948180 0.348440 0.000000
O O11 0.224887 0.144894 0.500000
O O12 0.261077 0.262053 0.262212
O O13 0.174748 0.181354 0.260174
O O14 0.241420 0.000000 0.261031
O O15 0.686437 0.325440 0.500000
O O16 0.701503 0.500000 0.279633
O O17 0.120594 0.809747 0.500000
O O18 0.109751 0.000000 0.704107
O O19 0.500000 0.500000 0.645104
O O20 0.422609 0.500000 0.500000
#
# Coordination Sequence:
#
# PCOD8198752 Si02
#       7
#     4   8   8   8   8   8   4
#     4  11  25  45  67  89 115 151 195 237 278 337
#     4  12  25  40  60  89 124 154 185 234 292 341
#     4   9  19  35  52  72 103 144 189 233 278 333
#     4   8  16  32  54  80 108 143 186 231 277 327
#     4  10  20  35  57  83 112 148 192 232 271 330
#     4   9  18  33  53  80 113 142 178 230 283 334
#     4  11  23  41  65  89 115 153 199 237 274 333
#
# _framework density 18.782767
#
# number of rings (size 3 to 8) (size 9 to 14) (size 15 to 20)
#    0.000    2.167    0.833    4.000    1.167    5.333 
#    0.000    5.000    0.000    1.000    0.000    0.000 
#    0.000    0.000    0.000    0.000    0.000    0.000 
#
# Total GULP energy -595100.990981 kJ/mol
# GULP energy per Si atom -12397.937312 kJ/mol
# Density = 1.874002 g / cm^3
# Si number density = 18.782767 Si / 1000 Ang^3
#
#
#
# Elastic Constant Matrix: (Units=GPa)
#
#
# Indices 1 2 3 4 5 6 
#
# 1 127.4863 78.3064 33.5736 0.0000 0.0000 0.0000
# 2 78.3064 140.2911 35.5073 0.0000 0.0000 0.0000
# 3 33.5736 35.5073 55.4921 0.0000 0.0000 0.0000
# 4 0.0000 0.0000 0.0000 18.5443 0.0000 0.0000
# 5 0.0000 0.0000 0.0000 0.0000 -98.4200 0.0000
# 6 0.0000 0.0000 0.0000 0.0000 0.0000 42.4989
#
#
#
# Elastic Compliance Matrix: (Units=1/GPa)
#
#
# Indices 1 2 3 4 5 6 
#
# 1 0.012545 -0.006063 -0.003710 0.000000 0.000000 0.000000
# 2 -0.006063 0.011436 -0.003649 0.000000 0.000000 0.000000
# 3 -0.003710 -0.003649 0.022600 0.000000 0.000000 0.000000
# 4 0.000000 0.000000 0.000000 0.053925 0.000000 0.000000
# 5 0.000000 0.000000 0.000000 0.000000 -0.010161 0.000000
# 6 0.000000 0.000000 0.000000 0.000000 0.000000 0.023530
#
#
# Mechanical properties :
#
#
# Convention : Reuss Voigt Hill
#
# Bulk Modulus (GPa) = 50.66866 68.67156 59.67011
# Shear Modulus (GPa) = 33.94416 4.25011 19.09714
#
# Velocity S-wave (km/s) = 4.25573 1.50588 3.19209
# Velocity P-wave (km/s) = 7.15423 6.29793 6.73969
#
# Compressibility (1/GPa) = 0.01973607
#
# Stress axis : x y z
#
# Youngs Moduli (GPa) = 79.70989 87.44304 44.24711
#
# Poissons Ratio (x) = 0.53020 0.16418
# Poissons Ratio (y) = 0.48331 0.16146
# Poissons Ratio (z) = 0.29576 0.31908
#
# Static dielectric constant tensor:
#      x y z
#    x 3.776330 0.000000 0.000000 
#    y 0.000000 3.777950 0.000000 
#    z 0.000000 0.000000 3.250260 
# 
# 
# High freq. dielectric constant tensor:
#      x y z
#    x 1.739500 0.000000 0.000000 
#    y 0.000000 1.741750 0.000000 
#    z 0.000000 0.000000 1.708620 
# 
# From -- ./inp_files/13828.got.cif
#   From: 2010.03.12/outbox.cif.g09.slc.cpg/sg47_7_cif.got.tgz:13828.got - 2010.04.14 03:12:58.
