data_PCOD8198280
_publ_section_title
;
Structure prediction by ZEFSAII (Michael W. Deem and Ramdas Pophale) SiO2 
 PCOD8198280
Probable space group: P M M M
;
_chemical_formula_sum "Si O2"
_cell_formula_units_Z 40
_cell_length_a 9.082835
_cell_length_b 9.097780
_cell_length_c 25.628055
_cell_angle_alpha 90.000000
_cell_angle_beta 90.000000
_cell_angle_gamma 90.000000
_cell_volume 2117.739333
_symmetry_space_group_name_H-M "P M M M"
_symmetry_group_IT_number 47
_symmetry_cell_setting 'orthorhombic'
loop_
_space_group_symop_operation_xyz
x,y,z
-x,-y,z
x,-y,-z
-x,y,-z
-x,-y,-z
x,y,-z
-x,y,z
x,-y,z
loop_
_atom_site_type_symbol
_atom_site_label
_atom_site_fract_x
_atom_site_fract_y
_atom_site_fract_z
Si Si1 0.671158 0.171198 0.093836
Si Si2 0.173908 0.668509 0.000000
Si Si3 0.170550 0.671454 0.696151
Si Si4 0.330501 0.669135 0.198968
Si Si5 0.331926 0.174277 0.602354
Si Si6 0.166257 0.175007 0.500000
O O1 0.500000 0.201939 0.082621
O O2 0.716737 0.231097 0.150407
O O3 0.708403 0.000000 0.091323
O O4 0.765775 0.254029 0.051210
O O5 0.225865 0.500000 0.000000
O O6 0.000000 0.682663 0.000000
O O7 0.198280 0.500000 0.686233
O O8 0.230799 0.718165 0.752605
O O9 0.257032 0.761742 0.653259
O O10 0.000000 0.713271 0.693188
O O11 0.500000 0.695478 0.214420
O O12 0.302158 0.500000 0.183729
O O13 0.500000 0.227577 0.599470
O O14 0.248935 0.235125 0.551174
O O15 0.321244 0.000000 0.605196
O O16 0.000000 0.236178 0.500000
O O17 0.167590 0.000000 0.500000
#
# Coordination Sequence:
#
# PCOD8198280 Si02
#       6
#     8   4   8   8   8   4
#     4  10  21  37  58  84 112 141 176 220 268 317
#     4  11  24  39  56  80 110 145 184 223 264 314
#     4  10  21  36  54  78 109 143 178 219 267 317
#     4   9  18  34  55  77 104 141 181 218 259 312
#     4  10  20  34  54  79 106 138 178 222 266 316
#     4   9  17  31  52  77 106 139 174 216 268 323
#
# _framework density 18.888065000000001
#
# number of rings (size 3 to 8) (size 9 to 14) (size 15 to 20)
#    0.000    2.200    0.000    2.700    0.000    8.400 
#    0.000    4.500    0.000    3.000    0.000    0.000 
#    0.000    0.000    0.000    0.000    0.000    0.000 
#
# Total GULP energy -496162.694685 kJ/mol
# GULP energy per Si atom -12404.067367 kJ/mol
# Density = 1.884507 g / cm^3
# Si number density = 18.888065 Si / 1000 Ang^3
#
#
#
# Elastic Constant Matrix: (Units=GPa)
#
#
# Indices 1 2 3 4 5 6 
#
# 1 128.1195 47.2789 84.1080 0.0000 0.0000 0.0000
# 2 47.2789 66.9613 59.3749 0.0000 0.0000 0.0000
# 3 84.1080 59.3749 146.4229 0.0000 0.0000 0.0000
# 4 0.0000 0.0000 0.0000 36.0211 0.0000 0.0000
# 5 0.0000 0.0000 0.0000 0.0000 -34.0803 0.0000
# 6 0.0000 0.0000 0.0000 0.0000 0.0000 26.6642
#
#
#
# Elastic Compliance Matrix: (Units=1/GPa)
#
#
# Indices 1 2 3 4 5 6 
#
# 1 0.013200 -0.004055 -0.005938 0.000000 0.000000 0.000000
# 2 -0.004055 0.024564 -0.007632 0.000000 0.000000 0.000000
# 3 -0.005938 -0.007632 0.013335 0.000000 0.000000 0.000000
# 4 0.000000 0.000000 0.000000 0.027761 0.000000 0.000000
# 5 0.000000 0.000000 0.000000 0.000000 -0.029342 0.000000
# 6 0.000000 0.000000 0.000000 0.000000 0.000000 0.037503
#
#
# Mechanical properties :
#
#
# Convention : Reuss Voigt Hill
#
# Bulk Modulus (GPa) = 63.09110 80.33638 71.71374
# Shear Modulus (GPa) = 39.19952 15.77048 27.48500
#
# Velocity S-wave (km/s) = 4.56055 2.89267 3.81878
# Velocity P-wave (km/s) = 7.82347 7.33362 7.58250
#
# Compressibility (1/GPa) = 0.01585010
#
# Stress axis : x y z
#
# Youngs Moduli (GPa) = 75.75999 40.71034 74.99022
#
# Poissons Ratio (x) = 0.16506 0.44529
# Poissons Ratio (y) = 0.30717 0.57230
# Poissons Ratio (z) = 0.44986 0.31069
#
# Static dielectric constant tensor:
#      x y z
#    x 3.582980 0.000000 0.000000 
#    y 0.000000 3.357920 0.000000 
#    z 0.000000 0.000000 3.585760 
# 
# 
# High freq. dielectric constant tensor:
#      x y z
#    x 1.740740 0.000000 0.000000 
#    y 0.000000 1.720180 0.000000 
#    z 0.000000 0.000000 1.748650 
# 
# From -- ./inp_files/12974.got.cif
#   From: 2010.03.12/outbox.cif.g09.slc.cpg/sg47_7_cif.got.tgz:12974.got - 2010.04.14 03:12:58.
