data_PCOD8198260
_publ_section_title
;
Structure prediction by ZEFSAII (Michael W. Deem and Ramdas Pophale) SiO2 
 PCOD8198260
Probable space group: P M M M
;
_chemical_formula_sum "Si O2"
_cell_formula_units_Z 52
_cell_length_a 9.174483
_cell_length_b 33.577085
_cell_length_c 9.407064
_cell_angle_alpha 90.000000
_cell_angle_beta 90.000000
_cell_angle_gamma 90.000000
_cell_volume 2897.868600
_symmetry_space_group_name_H-M "P M M M"
_symmetry_group_IT_number 47
_symmetry_cell_setting 'orthorhombic'
loop_
_space_group_symop_operation_xyz
x,y,z
-x,-y,z
x,-y,-z
-x,y,-z
-x,-y,-z
x,y,-z
-x,y,z
x,-y,z
loop_
_atom_site_type_symbol
_atom_site_label
_atom_site_fract_x
_atom_site_fract_y
_atom_site_fract_z
Si Si1 0.663820 0.043789 0.830938
Si Si2 0.836473 0.881140 0.830472
Si Si3 0.669709 0.803737 0.164214
Si Si4 0.330498 0.421581 0.167552
Si Si5 0.830672 0.647159 0.666088
Si Si6 0.164822 0.500000 0.168784
Si Si7 0.667113 0.726930 0.664843
O O1 0.500000 0.050332 0.774559
O O2 0.764330 0.078701 0.767007
O O3 0.721147 0.000000 0.782571
O O4 0.664540 0.046098 0.000000
O O5 0.752255 0.842264 0.774526
O O6 0.000000 0.879112 0.772554
O O7 0.830915 0.882223 0.000000
O O8 0.500000 0.811595 0.188481
O O9 0.723381 0.764996 0.248523
O O10 0.707313 0.796484 0.000000
O O11 0.500000 0.424844 0.207550
O O12 0.259678 0.384495 0.245364
O O13 0.250044 0.461194 0.223830
O O14 0.308478 0.415993 0.000000
O O15 0.806414 0.638625 0.500000
O O16 0.769560 0.690324 0.708010
O O17 0.000000 0.644929 0.708051
O O18 0.000000 0.500000 0.229892
O O19 0.162122 0.500000 0.000000
O O20 0.682278 0.737369 0.500000
O O21 0.500000 0.716306 0.704225
#
# Coordination Sequence:
#
# PCOD8198260 Si02
#       7
#     8   8   8   8   8   4   8
#     4   8  13  21  33  49  72 106 145 179 213 259
#     4   9  16  24  35  54  81 111 142 179 223 266
#     4   9  17  29  45  64  87 116 149 185 226 273
#     4  10  20  34  54  79 105 134 169 206 242 284
#     4  10  21  36  53  74 101 132 164 200 245 293
#     4   9  17  31  52  77 106 137 166 200 244 289
#     4   9  18  33  51  69  91 121 156 194 236 281
#
# _framework density 17.944223000000001
#
# number of rings (size 3 to 8) (size 9 to 14) (size 15 to 20)
#    0.000    2.846    0.000    2.077    0.000    6.154 
#    0.000    3.462    0.000    2.308    0.000    0.000 
#    0.000    0.615    0.000    7.077    0.000    9.077 
#
# Total GULP energy -644743.727382 kJ/mol
# GULP energy per Si atom -12398.917834 kJ/mol
# Density = 1.790338 g / cm^3
# Si number density = 17.944223 Si / 1000 Ang^3
#
#
#
# Elastic Constant Matrix: (Units=GPa)
#
#
# Indices 1 2 3 4 5 6 
#
# 1 130.3937 96.8869 33.4956 0.0000 0.0000 0.0000
# 2 96.8869 181.8507 46.7358 0.0000 0.0000 0.0000
# 3 33.4956 46.7358 26.8874 0.0000 0.0000 0.0000
# 4 0.0000 0.0000 0.0000 -4.3816 0.0000 0.0000
# 5 0.0000 0.0000 0.0000 0.0000 16.6911 0.0000
# 6 0.0000 0.0000 0.0000 0.0000 0.0000 22.0409
#
#
#
# Elastic Compliance Matrix: (Units=1/GPa)
#
#
# Indices 1 2 3 4 5 6 
#
# 1 0.013549 -0.005207 -0.007829 0.000000 0.000000 0.000000
# 2 -0.005207 0.011940 -0.014268 0.000000 0.000000 0.000000
# 3 -0.007829 -0.014268 0.071745 0.000000 0.000000 0.000000
# 4 0.000000 0.000000 0.000000 -0.228227 0.000000 0.000000
# 5 0.000000 0.000000 0.000000 0.000000 0.059912 0.000000
# 6 0.000000 0.000000 0.000000 0.000000 0.000000 0.045370
#
#
# Mechanical properties :
#
#
# Convention : Reuss Voigt Hill
#
# Bulk Modulus (GPa) = 23.45881 77.04094 50.24988
# Shear Modulus (GPa) = 115.99887 17.67097 66.83492
#
# Velocity S-wave (km/s) = 8.04888 3.14151 6.10957
# Velocity P-wave (km/s) = 9.97401 7.49570 8.82231
#
# Compressibility (1/GPa) = 0.04262790
#
# Stress axis : x y z
#
# Youngs Moduli (GPa) = 73.80747 83.75367 13.93828
#
# Poissons Ratio (x) = 0.43607 0.10912
# Poissons Ratio (y) = 0.38429 0.19887
# Poissons Ratio (z) = 0.57781 1.19496
#
# Static dielectric constant tensor:
#      x y z
#    x 3.458570 0.000000 0.000000 
#    y 0.000000 3.576120 0.000000 
#    z 0.000000 0.000000 2.859670 
# 
# 
# High freq. dielectric constant tensor:
#      x y z
#    x 1.700390 0.000000 0.000000 
#    y 0.000000 1.711630 0.000000 
#    z 0.000000 0.000000 1.640890 
# 
# From -- ./inp_files/4766.got.cif
#   From: 2010.03.12/outbox.cif.g09.slc.cpg/sg47_3_cif.got.tgz:4766.got - 2010.04.14 03:12:58.
