data_PCOD8198560
_publ_section_title
;
Structure prediction by ZEFSAII (Michael W. Deem and Ramdas Pophale) SiO2 
 PCOD8198560
Probable space group: P M M M
;
_chemical_formula_sum "Si O2"
_cell_formula_units_Z 48
_cell_length_a 13.558348
_cell_length_b 12.505305
_cell_length_c 15.455496
_cell_angle_alpha 90.000000
_cell_angle_beta 90.000000
_cell_angle_gamma 90.000000
_cell_volume 2620.499084
_symmetry_space_group_name_H-M "P M M M"
_symmetry_group_IT_number 47
_symmetry_cell_setting 'orthorhombic'
loop_
_space_group_symop_operation_xyz
x,y,z
-x,-y,z
x,-y,-z
-x,y,-z
-x,-y,-z
x,y,-z
-x,y,z
x,-y,z
loop_
_atom_site_type_symbol
_atom_site_label
_atom_site_fract_x
_atom_site_fract_y
_atom_site_fract_z
Si Si1 0.615441 0.500000 0.593044
Si Si2 0.107849 0.000000 0.897155
Si Si3 0.114294 0.280893 0.401623
Si Si4 0.284858 0.879344 0.400773
Si Si5 0.115947 0.771819 0.095626
Si Si6 0.798151 0.375967 0.765724
Si Si7 0.386806 0.705673 0.702057
O O1 0.500000 0.500000 0.581065
O O2 0.668432 0.500000 0.500000
O O3 0.646666 0.392451 0.640792
O O4 0.161713 0.887160 0.871202
O O5 0.000000 0.000000 0.853157
O O6 0.098230 0.000000 0.000000
O O7 0.128869 0.325976 0.500000
O O8 0.176861 0.172250 0.389174
O O9 0.152618 0.364490 0.329707
O O10 0.000000 0.253371 0.385079
O O11 0.318817 0.876886 0.500000
O O12 0.369206 0.816641 0.347461
O O13 0.279563 0.000000 0.365383
O O14 0.133680 0.675724 0.161549
O O15 0.000000 0.789949 0.088120
O O16 0.158044 0.742189 0.000000
O O17 0.784224 0.500000 0.786448
O O18 0.693113 0.312324 0.777851
O O19 0.500000 0.698241 0.734303
#
# Coordination Sequence:
#
# PCOD8198560 Si02
#       7
#     4   4   8   8   8   8   8
#     4   9  16  28  50  74  90 117 170 226 270 307
#     4   7  12  28  54  80 104 130 162 203 250 302
#     4   9  19  35  51  70 102 146 188 219 251 300
#     4   9  18  32  50  73 100 131 171 220 271 319
#     4   9  18  34  57  84 111 137 168 211 264 316
#     4  11  22  35  51  77 107 139 178 222 266 315
#     4  10  20  35  51  70  98 134 173 219 271 316
#
# _framework density 18.317122000000001
#
# number of rings (size 3 to 8) (size 9 to 14) (size 15 to 20)
#    0.000    2.667    0.833    2.000    0.000    4.333 
#    6.000    4.167    0.000    0.500    0.000    1.167 
#    0.000    2.000    0.000    0.000    0.000    0.000 
#
# Total GULP energy -594641.004512 kJ/mol
# GULP energy per Si atom -12388.354261 kJ/mol
# Density = 1.827543 g / cm^3
# Si number density = 18.317122 Si / 1000 Ang^3
#
#
#
# Elastic Constant Matrix: (Units=GPa)
#
#
# Indices 1 2 3 4 5 6 
#
# 1 75.5445 22.4846 18.3011 0.0000 0.0000 0.0000
# 2 22.4846 122.1551 34.3714 0.0000 0.0000 0.0000
# 3 18.3011 34.3714 63.6089 0.0000 0.0000 0.0000
# 4 0.0000 0.0000 0.0000 23.3919 0.0000 0.0000
# 5 0.0000 0.0000 0.0000 0.0000 11.4149 0.0000
# 6 0.0000 0.0000 0.0000 0.0000 0.0000 19.1913
#
#
#
# Elastic Compliance Matrix: (Units=1/GPa)
#
#
# Indices 1 2 3 4 5 6 
#
# 1 0.014546 -0.001769 -0.003229 0.000000 0.000000 0.000000
# 2 -0.001769 0.009869 -0.004824 0.000000 0.000000 0.000000
# 3 -0.003229 -0.004824 0.019257 0.000000 0.000000 0.000000
# 4 0.000000 0.000000 0.000000 0.042750 0.000000 0.000000
# 5 0.000000 0.000000 0.000000 0.000000 0.087605 0.000000
# 6 0.000000 0.000000 0.000000 0.000000 0.000000 0.052107
#
#
# Mechanical properties :
#
#
# Convention : Reuss Voigt Hill
#
# Bulk Modulus (GPa) = 41.61822 45.73586 43.67704
# Shear Modulus (GPa) = 19.70154 23.20970 21.45562
#
# Velocity S-wave (km/s) = 3.28316 3.56350 3.42620
# Velocity P-wave (km/s) = 6.09446 6.47723 6.28876
#
# Compressibility (1/GPa) = 0.02402794
#
# Stress axis : x y z
#
# Youngs Moduli (GPa) = 68.74746 101.32491 51.92953
#
# Poissons Ratio (x) = 0.17922 0.16770
# Poissons Ratio (y) = 0.12160 0.25051
# Poissons Ratio (z) = 0.22201 0.48879
#
# Static dielectric constant tensor:
#      x y z
#    x 3.253730 0.000000 0.000000 
#    y 0.000000 10.996020 0.000000 
#    z 0.000000 0.000000 3.200720 
# 
# 
# High freq. dielectric constant tensor:
#      x y z
#    x 1.691240 0.000000 0.000000 
#    y 0.000000 1.716110 0.000000 
#    z 0.000000 0.000000 1.677740 
# 
# From -- ./inp_files/23599.got.cif
#   From: 2010.03.12/outbox.cif.g09.slc.cpg/sg47_12_cif.got.tgz:23599.got - 2010.04.14 03:12:58.
