data_PCOD8198040
_publ_section_title
;
Structure prediction by ZEFSAII (Michael W. Deem and Ramdas Pophale) SiO2 
 PCOD8198040
Probable space group: P M M M
;
_chemical_formula_sum "Si O2"
_cell_formula_units_Z 48
_cell_length_a 29.657127
_cell_length_b 8.796024
_cell_length_c 9.582241
_cell_angle_alpha 90.000000
_cell_angle_beta 90.000000
_cell_angle_gamma 90.000000
_cell_volume 2499.669390
_symmetry_space_group_name_H-M "P M M M"
_symmetry_group_IT_number 47
_symmetry_cell_setting 'orthorhombic'
loop_
_space_group_symop_operation_xyz
x,y,z
-x,-y,z
x,-y,-z
-x,y,-z
-x,-y,-z
x,y,-z
-x,y,z
x,-y,z
loop_
_atom_site_type_symbol
_atom_site_label
_atom_site_fract_x
_atom_site_fract_y
_atom_site_fract_z
Si Si1 0.049347 0.179280 0.500000
Si Si2 0.106843 0.820508 0.756874
Si Si3 0.198191 0.679203 0.337444
Si Si4 0.631615 0.681457 0.341133
Si Si5 0.550205 0.680769 0.843641
Si Si6 0.284651 0.319772 0.159401
Si Si7 0.051088 0.678870 0.000000
O O1 0.077953 0.235876 0.371952
O O2 0.000000 0.256528 0.500000
O O3 0.043868 0.000000 0.500000
O O4 0.157750 0.767406 0.736365
O O5 0.081081 0.733677 0.874877
O O6 0.106214 0.000000 0.783142
O O7 0.203962 0.727015 0.500000
O O8 0.189933 0.500000 0.325609
O O9 0.241401 0.731491 0.248609
O O10 0.635362 0.744207 0.500000
O O11 0.632483 0.500000 0.344698
O O12 0.585603 0.743506 0.270160
O O13 0.672350 0.743250 0.244906
O O14 0.500000 0.738443 0.803488
O O15 0.551315 0.500000 0.842721
O O16 0.562976 0.737497 0.000000
O O17 0.287095 0.500000 0.151161
O O18 0.283369 0.254423 0.000000
O O19 0.047072 0.500000 0.000000
O O20 0.000000 0.748702 0.000000
#
# Coordination Sequence:
#
# PCOD8198040 Si02
#       7
#     4   8   8   8   8   8   4
#     4   9  18  34  57  83 109 137 173 213 252 301
#     4  11  22  38  60  85 113 145 180 218 262 314
#     4  10  20  34  52  75 105 136 169 214 266 316
#     4   9  15  22  33  50  74 104 144 196 251 308
#     4   8  13  20  29  42  64  98 141 191 246 303
#     4   9  17  28  43  62  84 117 159 203 253 309
#     4  11  25  43  61  85 117 149 181 219 262 307
#
# _framework density 19.202539000000002
#
# number of rings (size 3 to 8) (size 9 to 14) (size 15 to 20)
#    0.000    2.500    0.833    2.750    1.167    5.667 
#    0.000    1.667    0.000    2.000    0.000    0.000 
#    0.000    0.000    0.000    0.000    0.000    0.833 
#
# Total GULP energy -594855.153554 kJ/mol
# GULP energy per Si atom -12392.815699 kJ/mol
# Density = 1.915883 g / cm^3
# Si number density = 19.202539 Si / 1000 Ang^3
#
#
#
# Elastic Constant Matrix: (Units=GPa)
#
#
# Indices 1 2 3 4 5 6 
#
# 1 179.2691 20.6462 98.8363 0.0000 0.0000 0.0000
# 2 20.6462 24.3740 21.0459 0.0000 0.0000 0.0000
# 3 98.8363 21.0459 177.2834 0.0000 0.0000 0.0000
# 4 0.0000 0.0000 0.0000 -44.2097 0.0000 0.0000
# 5 0.0000 0.0000 0.0000 0.0000 38.3157 0.0000
# 6 0.0000 0.0000 0.0000 0.0000 0.0000 -6.5812
#
#
#
# Elastic Compliance Matrix: (Units=1/GPa)
#
#
# Indices 1 2 3 4 5 6 
#
# 1 0.008296 -0.003380 -0.004224 0.000000 0.000000 0.000000
# 2 -0.003380 0.047090 -0.003706 0.000000 0.000000 0.000000
# 3 -0.004224 -0.003706 0.008435 0.000000 0.000000 0.000000
# 4 0.000000 0.000000 0.000000 -0.022619 0.000000 0.000000
# 5 0.000000 0.000000 0.000000 0.000000 0.026099 0.000000
# 6 0.000000 0.000000 0.000000 0.000000 0.000000 -0.151948
#
#
# Mechanical properties :
#
#
# Convention : Reuss Voigt Hill
#
# Bulk Modulus (GPa) = 24.27052 73.55370 48.91211
# Shear Modulus (GPa) = -103.53531 13.53150 -45.00191
#
# Velocity S-wave (km/s) = -7.35082 2.65745 -4.84626
# Velocity P-wave (km/s) = 7.70580 6.91400 2.40583
#
# Compressibility (1/GPa) = 0.04120224
#
# Stress axis : x y z
#
# Youngs Moduli (GPa) = 120.53583 21.23577 118.54696
#
# Poissons Ratio (x) = 0.07178 0.50074
# Poissons Ratio (y) = 0.40744 0.43931
# Poissons Ratio (z) = 0.50914 0.07869
#
# Static dielectric constant tensor:
#      x y z
#    x 3.857120 0.000000 0.000000 
#    y 0.000000 2.859050 0.000000 
#    z 0.000000 0.000000 3.937130 
# 
# 
# High freq. dielectric constant tensor:
#      x y z
#    x 1.766590 0.000000 0.000000 
#    y 0.000000 1.677870 0.000000 
#    z 0.000000 0.000000 1.763650 
# 
# From -- ./inp_files/13950.got.cif
#   From: 2010.03.12/outbox.cif.g09.slc.cpg/sg47_7_cif.got.tgz:13950.got - 2010.04.14 03:12:58.
