data_PCOD8198638
_publ_section_title
;
Structure prediction by ZEFSAII (Michael W. Deem and Ramdas Pophale) SiO2 
 PCOD8198638
Probable space group: P M M M
;
_chemical_formula_sum "Si O2"
_cell_formula_units_Z 44
_cell_length_a 14.129008
_cell_length_b 13.819516
_cell_length_c 11.976850
_cell_angle_alpha 90.000000
_cell_angle_beta 90.000000
_cell_angle_gamma 90.000000
_cell_volume 2338.552448
_symmetry_space_group_name_H-M "P M M M"
_symmetry_group_IT_number 47
_symmetry_cell_setting 'orthorhombic'
loop_
_space_group_symop_operation_xyz
x,y,z
-x,-y,z
x,-y,-z
-x,y,-z
-x,-y,-z
x,y,-z
-x,y,z
x,-y,z
loop_
_atom_site_type_symbol
_atom_site_label
_atom_site_fract_x
_atom_site_fract_y
_atom_site_fract_z
Si Si1 0.893736 0.886307 0.500000
Si Si2 0.734246 0.386492 0.674170
Si Si3 0.813266 0.717747 0.869139
Si Si4 0.777305 0.886389 0.716998
Si Si5 0.106657 0.387693 0.500000
Si Si6 0.000000 0.393627 0.870492
Si Si7 0.394401 0.781658 0.625306
O O1 0.838173 0.851276 0.609929
O O2 0.000000 0.843023 0.500000
O O3 0.898076 0.000000 0.500000
O O4 0.711697 0.500000 0.667044
O O5 0.738860 0.349164 0.802293
O O6 0.831843 0.358852 0.609320
O O7 0.647448 0.327292 0.621475
O O8 0.814136 0.828561 0.825676
O O9 0.911740 0.669879 0.836496
O O10 0.789444 0.715957 0.000000
O O11 0.668541 0.856511 0.696925
O O12 0.786818 0.000000 0.740935
O O13 0.090546 0.500000 0.500000
O O14 0.000000 0.339519 0.500000
O O15 0.000000 0.500000 0.809688
O O16 0.000000 0.414946 0.000000
O O17 0.398247 0.822232 0.500000
O O18 0.500000 0.779293 0.677151
#
# Coordination Sequence:
#
# PCOD8198638 Si02
#       7
#     4   8   8   8   4   4   8
#     4   9  18  33  55  82 110 144 181 216 268 333
#     4  10  20  35  55  80 113 150 190 231 275 333
#     4  10  22  36  53  80 111 150 195 234 273 320
#     4  10  21  38  59  83 112 145 186 232 279 336
#     4   9  18  31  49  78 113 149 188 225 268 323
#     4   9  18  34  53  76 109 148 193 234 267 310
#     4  10  20  35  55  83 116 144 175 224 286 345
#
# _framework density 18.815059000000002
#
# number of rings (size 3 to 8) (size 9 to 14) (size 15 to 20)
#    0.000    2.273    1.818    0.545    2.545    2.182 
#    0.000    5.455    0.000   10.364    0.000   10.182 
#    0.000    0.000    0.000    0.000    0.000    0.000 
#
# Total GULP energy -545248.385183 kJ/mol
# GULP energy per Si atom -12392.008754 kJ/mol
# Density = 1.877223 g / cm^3
# Si number density = 18.815059 Si / 1000 Ang^3
#
#
#
# Elastic Constant Matrix: (Units=GPa)
#
#
# Indices 1 2 3 4 5 6 
#
# 1 123.3003 31.5372 30.8257 0.0000 0.0000 0.0000
# 2 31.5372 126.1074 28.9608 0.0000 0.0000 0.0000
# 3 30.8257 28.9608 106.0723 0.0000 0.0000 0.0000
# 4 0.0000 0.0000 0.0000 20.6089 0.0000 0.0000
# 5 0.0000 0.0000 0.0000 0.0000 18.4751 0.0000
# 6 0.0000 0.0000 0.0000 0.0000 0.0000 24.5651
#
#
#
# Elastic Compliance Matrix: (Units=1/GPa)
#
#
# Indices 1 2 3 4 5 6 
#
# 1 0.009106 -0.001781 -0.002160 0.000000 0.000000 0.000000
# 2 -0.001781 0.008809 -0.001887 0.000000 0.000000 0.000000
# 3 -0.002160 -0.001887 0.010571 0.000000 0.000000 0.000000
# 4 0.000000 0.000000 0.000000 0.048523 0.000000 0.000000
# 5 0.000000 0.000000 0.000000 0.000000 0.054127 0.000000
# 6 0.000000 0.000000 0.000000 0.000000 0.000000 0.040708
#
#
# Mechanical properties :
#
#
# Convention : Reuss Voigt Hill
#
# Bulk Modulus (GPa) = 59.42467 59.79193 59.60830
# Shear Modulus (GPa) = 26.43975 30.34024 28.38999
#
# Velocity S-wave (km/s) = 3.75273 4.02001 3.88867
# Velocity P-wave (km/s) = 7.10137 7.30720 7.20502
#
# Compressibility (1/GPa) = 0.01682803
#
# Stress axis : x y z
#
# Youngs Moduli (GPa) = 109.81941 113.52507 94.60249
#
# Poissons Ratio (x) = 0.20221 0.20434
# Poissons Ratio (y) = 0.19561 0.17855
# Poissons Ratio (z) = 0.23720 0.21427
#
# Static dielectric constant tensor:
#      x y z
#    x 3.858760 0.000000 0.000000 
#    y 0.000000 3.421940 0.000000 
#    z 0.000000 0.000000 3.337210 
# 
# 
# High freq. dielectric constant tensor:
#      x y z
#    x 1.716340 0.000000 0.000000 
#    y 0.000000 1.739430 0.000000 
#    z 0.000000 0.000000 1.714720 
# 
# From -- ./inp_files/17461.got.cif
#   From: 2010.03.12/outbox.cif.g09.slc.cpg/sg47_9_cif.got.tgz:17461.got - 2010.04.14 03:12:58.
