data_PCOD8198800
_publ_section_title
;
Structure prediction by ZEFSAII (Michael W. Deem and Ramdas Pophale) SiO2 
 PCOD8198800
Probable space group: P M M M
;
_chemical_formula_sum "Si O2"
_cell_formula_units_Z 48
_cell_length_a 8.792311
_cell_length_b 15.340050
_cell_length_c 18.697334
_cell_angle_alpha 90.000000
_cell_angle_beta 90.000000
_cell_angle_gamma 90.000000
_cell_volume 2521.793394
_symmetry_space_group_name_H-M "P M M M"
_symmetry_group_IT_number 47
_symmetry_cell_setting 'orthorhombic'
loop_
_space_group_symop_operation_xyz
x,y,z
-x,-y,z
x,-y,-z
-x,y,-z
-x,-y,-z
x,y,-z
-x,y,z
x,-y,z
loop_
_atom_site_type_symbol
_atom_site_label
_atom_site_fract_x
_atom_site_fract_y
_atom_site_fract_z
Si Si1 0.321953 0.899290 0.803819
Si Si2 0.176175 0.218962 0.915257
Si Si3 0.829323 0.500000 0.584689
Si Si4 0.321630 0.677822 0.583391
Si Si5 0.819521 0.407675 0.919739
Si Si6 0.820521 0.160691 0.339534
Si Si7 0.328449 0.000000 0.584450
O O1 0.500000 0.890139 0.790445
O O2 0.277214 0.855187 0.878667
O O3 0.233495 0.849501 0.741503
O O4 0.271798 0.000000 0.805492
O O5 0.232483 0.315025 0.885652
O O6 0.000000 0.203181 0.896027
O O7 0.201750 0.213097 0.000000
O O8 0.837795 0.500000 0.500000
O O9 0.737559 0.415498 0.610800
O O10 0.000000 0.500000 0.617101
O O11 0.283505 0.692716 0.500000
O O12 0.500000 0.684737 0.597571
O O13 0.234729 0.747858 0.630389
O O14 0.767666 0.500000 0.881220
O O15 0.000000 0.404398 0.922561
O O16 0.755178 0.410897 0.000000
O O17 0.000000 0.156509 0.342424
O O18 0.755142 0.085275 0.388977
O O19 0.500000 0.000000 0.615114
O O20 0.328855 0.000000 0.500000
#
# Coordination Sequence:
#
# PCOD8198800 Si02
#       7
#     8   8   4   8   8   8   4
#     4  11  24  41  59  76 104 147 190 233 286 348
#     4   9  18  33  56  86 115 142 180 231 279 327
#     4   9  17  31  53  83 117 151 192 239 280 325
#     4  10  20  35  57  85 118 155 191 230 282 341
#     4   7  10  20  43  76 110 140 169 206 258 317
#     4  12  24  38  59  84 111 146 190 240 288 336
#     4  11  23  39  59  85 118 151 184 225 277 341
#
# _framework density 19.034072999999999
#
# number of rings (size 3 to 8) (size 9 to 14) (size 15 to 20)
#    0.000    2.167    0.833    5.000    0.000    6.333 
#    0.000    1.667    1.833    0.500    0.000    2.333 
#    0.000    0.000    0.000    0.000    0.000    0.000 
#
# Total GULP energy -594914.238559 kJ/mol
# GULP energy per Si atom -12394.046637 kJ/mol
# Density = 1.899075 g / cm^3
# Si number density = 19.034073 Si / 1000 Ang^3
#
#
#
# Elastic Constant Matrix: (Units=GPa)
#
#
# Indices 1 2 3 4 5 6 
#
# 1 107.0689 61.6041 38.7644 0.0000 0.0000 0.0000
# 2 61.6041 150.3684 54.8100 0.0000 0.0000 0.0000
# 3 38.7644 54.8100 60.9978 0.0000 0.0000 0.0000
# 4 0.0000 0.0000 0.0000 -322.1246 0.0000 0.0000
# 5 0.0000 0.0000 0.0000 0.0000 25.8663 0.0000
# 6 0.0000 0.0000 0.0000 0.0000 0.0000 31.1798
#
#
#
# Elastic Compliance Matrix: (Units=1/GPa)
#
#
# Indices 1 2 3 4 5 6 
#
# 1 0.013272 -0.003514 -0.005277 0.000000 0.000000 0.000000
# 2 -0.003514 0.010820 -0.007489 0.000000 0.000000 0.000000
# 3 -0.005277 -0.007489 0.026477 0.000000 0.000000 0.000000
# 4 0.000000 0.000000 0.000000 -0.003104 0.000000 0.000000
# 5 0.000000 0.000000 0.000000 0.000000 0.038660 0.000000
# 6 0.000000 0.000000 0.000000 0.000000 0.000000 0.032072
#
#
# Mechanical properties :
#
#
# Convention : Reuss Voigt Hill
#
# Bulk Modulus (GPa) = 55.52839 69.86579 62.69709
# Shear Modulus (GPa) = 31.89594 -42.13193 -5.11799
#
# Velocity S-wave (km/s) = 4.09801 -4.70989 -1.64155
# Velocity P-wave (km/s) = 7.18527 2.68476 5.42383
#
# Compressibility (1/GPa) = 0.01800881
#
# Stress axis : x y z
#
# Youngs Moduli (GPa) = 75.34576 92.42374 37.76876
#
# Poissons Ratio (x) = 0.32477 0.19931
# Poissons Ratio (y) = 0.26476 0.28285
# Poissons Ratio (z) = 0.39760 0.69216
#
# Static dielectric constant tensor:
#      x y z
#    x 3.412640 0.000000 0.000000 
#    y 0.000000 3.979480 0.000000 
#    z 0.000000 0.000000 3.186200 
# 
# 
# High freq. dielectric constant tensor:
#      x y z
#    x 1.730810 0.000000 0.000000 
#    y 0.000000 1.764740 0.000000 
#    z 0.000000 0.000000 1.706230 
# 
# From -- ./inp_files/26553.got.cif
#   From: 2010.03.12/outbox.cif.g09.slc.cpg/sg47_14_cif.got.tgz:26553.got - 2010.04.14 03:12:58.
