data_PCOD8198233
_publ_section_title
;
Structure prediction by ZEFSAII (Michael W. Deem and Ramdas Pophale) SiO2 
 PCOD8198233
Probable space group: P M M M
;
_chemical_formula_sum "Si O2"
_cell_formula_units_Z 64
_cell_length_a 8.909686
_cell_length_b 18.568827
_cell_length_c 20.185014
_cell_angle_alpha 90.000000
_cell_angle_beta 90.000000
_cell_angle_gamma 90.000000
_cell_volume 3339.457523
_symmetry_space_group_name_H-M "P M M M"
_symmetry_group_IT_number 47
_symmetry_cell_setting 'orthorhombic'
loop_
_space_group_symop_operation_xyz
x,y,z
-x,-y,z
x,-y,-z
-x,y,-z
-x,-y,-z
x,y,-z
-x,y,z
x,-y,z
loop_
_atom_site_type_symbol
_atom_site_label
_atom_site_fract_x
_atom_site_fract_y
_atom_site_fract_z
Si Si1 0.177257 0.337216 0.192541
Si Si2 0.176108 0.322332 0.576525
Si Si3 0.325331 0.174215 0.576342
Si Si4 0.674573 0.415695 0.684903
Si Si5 0.821709 0.826274 0.806875
Si Si6 0.327042 0.416735 0.923903
Si Si7 0.824741 0.082946 0.318065
Si Si8 0.178652 0.080770 0.926644
O O1 0.256177 0.382268 0.249423
O O2 0.235974 0.255348 0.196886
O O3 0.219854 0.368310 0.120974
O O4 0.000000 0.341800 0.202578
O O5 0.216728 0.336754 0.500000
O O6 0.240703 0.245982 0.600590
O O7 0.248506 0.385682 0.618916
O O8 0.000000 0.321213 0.589254
O O9 0.289783 0.158181 0.500000
O O10 0.500000 0.185819 0.589276
O O11 0.265053 0.106037 0.616643
O O12 0.500000 0.397078 0.682551
O O13 0.705427 0.500000 0.686941
O O14 0.764123 0.869860 0.743105
O O15 0.754162 0.864069 0.872690
O O16 0.000000 0.828842 0.809866
O O17 0.500000 0.402019 0.905487
O O18 0.288243 0.500000 0.911342
O O19 0.295680 0.396150 0.000000
O O20 0.000000 0.096068 0.330726
O O21 0.790483 0.000000 0.302469
O O22 0.000000 0.081563 0.924026
O O23 0.235538 0.000000 0.910537
O O24 0.233655 0.104269 0.000000
#
# Coordination Sequence:
#
# PCOD8198233 Si02
#       8
#     8   8   8   8   8   8   8   8
#     4  11  22  34  53  81 111 143 180 227 280 329
#     4  10  21  38  61  87 114 143 177 222 274 325
#     4  10  21  37  57  80 108 143 180 219 267 326
#     4  11  24  40  58  80 109 147 187 225 268 324
#     4   9  18  31  46  70 105 138 170 214 267 319
#     4   9  19  37  58  77 102 140 182 223 272 333
#     4  10  20  34  54  78 105 141 184 229 276 326
#     4   8  13  23  42  67  96 133 172 206 246 302
#
# _framework density 19.16479
#
# number of rings (size 3 to 8) (size 9 to 14) (size 15 to 20)
#    0.000    2.250    0.000    3.750    0.000    8.250 
#    0.000    5.000    0.000    0.000    0.000    0.000 
#    0.000    0.000    0.000   10.750    0.000    9.500 
#
# Total GULP energy -793767.526040 kJ/mol
# GULP energy per Si atom -12402.617594 kJ/mol
# Density = 1.912117 g / cm^3
# Si number density = 19.164790 Si / 1000 Ang^3
#
#
#
# Elastic Constant Matrix: (Units=GPa)
#
#
# Indices 1 2 3 4 5 6 
#
# 1 61.5909 50.2368 45.7131 0.0000 0.0000 0.0000
# 2 50.2368 118.2186 71.8584 0.0000 0.0000 0.0000
# 3 45.7131 71.8584 120.6015 0.0000 0.0000 0.0000
# 4 0.0000 0.0000 0.0000 42.0115 0.0000 0.0000
# 5 0.0000 0.0000 0.0000 0.0000 25.2409 0.0000
# 6 0.0000 0.0000 0.0000 0.0000 0.0000 18.6638
#
#
#
# Elastic Compliance Matrix: (Units=1/GPa)
#
#
# Indices 1 2 3 4 5 6 
#
# 1 0.026847 -0.008189 -0.005297 0.000000 0.000000 0.000000
# 2 -0.008189 0.015760 -0.006286 0.000000 0.000000 0.000000
# 3 -0.005297 -0.006286 0.014045 0.000000 0.000000 0.000000
# 4 0.000000 0.000000 0.000000 0.023803 0.000000 0.000000
# 5 0.000000 0.000000 0.000000 0.000000 0.039618 0.000000
# 6 0.000000 0.000000 0.000000 0.000000 0.000000 0.053580
#
#
# Mechanical properties :
#
#
# Convention : Reuss Voigt Hill
#
# Bulk Modulus (GPa) = 58.45337 70.66971 64.56154
# Shear Modulus (GPa) = 22.84158 26.02344 24.43251
#
# Velocity S-wave (km/s) = 3.45607 3.68894 3.57440
# Velocity P-wave (km/s) = 6.81854 7.42288 7.12712
#
# Compressibility (1/GPa) = 0.01710765
#
# Stress axis : x y z
#
# Youngs Moduli (GPa) = 37.24848 63.45254 71.19911
#
# Poissons Ratio (x) = 0.51960 0.37713
# Poissons Ratio (y) = 0.30502 0.44758
# Poissons Ratio (z) = 0.19730 0.39888
#
# Static dielectric constant tensor:
#      x y z
#    x 3.255000 0.000000 0.000000 
#    y 0.000000 3.590460 0.000000 
#    z 0.000000 0.000000 3.673410 
# 
# 
# High freq. dielectric constant tensor:
#      x y z
#    x 1.721290 0.000000 0.000000 
#    y 0.000000 1.748930 0.000000 
#    z 0.000000 0.000000 1.759470 
# 
# From -- ./inp_files/29970.got.cif
#   From: 2010.03.12/outbox.cif.g09.slc.cpg/sg47_15_cif.got.tgz:29970.got - 2010.04.14 03:12:58.
