data_PCOD8198787
_publ_section_title
;
Structure prediction by ZEFSAII (Michael W. Deem and Ramdas Pophale) SiO2 
 PCOD8198787
Probable space group: P M M M
;
_chemical_formula_sum "Si O2"
_cell_formula_units_Z 36
_cell_length_a 8.927141
_cell_length_b 22.881949
_cell_length_c 9.029278
_cell_angle_alpha 90.000000
_cell_angle_beta 90.000000
_cell_angle_gamma 90.000000
_cell_volume 1844.414094
_symmetry_space_group_name_H-M "P M M M"
_symmetry_group_IT_number 47
_symmetry_cell_setting 'orthorhombic'
loop_
_space_group_symop_operation_xyz
x,y,z
-x,-y,z
x,-y,-z
-x,y,-z
-x,-y,-z
x,y,-z
-x,y,z
x,-y,z
loop_
_atom_site_type_symbol
_atom_site_label
_atom_site_fract_x
_atom_site_fract_y
_atom_site_fract_z
Si Si1 0.172424 0.223728 0.173773
Si Si2 0.676001 0.883205 0.670163
Si Si3 0.672585 0.669467 0.326360
Si Si4 0.827636 0.567335 0.829142
Si Si5 0.168868 0.000000 0.676057
O O1 0.271226 0.171146 0.234488
O O2 0.223711 0.284023 0.245144
O O3 0.000000 0.212286 0.214760
O O4 0.197355 0.228650 0.000000
O O5 0.723828 0.872753 0.500000
O O6 0.500000 0.890335 0.685150
O O7 0.749824 0.942006 0.735914
O O8 0.699231 0.675180 0.500000
O O9 0.500000 0.680789 0.285130
O O10 0.719647 0.605121 0.274080
O O11 0.790500 0.500000 0.796926
O O12 0.000000 0.580972 0.790389
O O13 0.796116 0.582566 0.000000
O O14 0.176209 0.000000 0.500000
O O15 0.000000 0.000000 0.736107
#
# Coordination Sequence:
#
# PCOD8198787 Si02
#       5
#     8   8   8   8   4
#     4  11  24  40  58  81 109 143 185 231 278 330
#     4  10  20  35  57  85 115 146 183 227 274 326
#     4  11  24  39  56  82 114 146 183 228 276 327
#     4   9  19  37  60  85 113 146 185 227 271 323
#     4   9  17  31  54  83 114 149 186 224 270 323
#
# _framework density 19.518394000000001
#
# number of rings (size 3 to 8) (size 9 to 14) (size 15 to 20)
#    0.000    1.889    0.000    4.333    0.000   12.889 
#    0.000    3.889    0.000    3.333    0.000    0.000 
#    0.000    0.000    0.000    0.000    0.000    0.000 
#
# Total GULP energy -446575.753612 kJ/mol
# GULP energy per Si atom -12404.882045 kJ/mol
# Density = 1.947397 g / cm^3
# Si number density = 19.518394 Si / 1000 Ang^3
#
#
#
# Elastic Constant Matrix: (Units=GPa)
#
#
# Indices 1 2 3 4 5 6 
#
# 1 81.2165 38.8897 44.4973 0.0000 0.0000 0.0000
# 2 38.8897 114.6637 37.4604 0.0000 0.0000 0.0000
# 3 44.4973 37.4604 63.6958 0.0000 0.0000 0.0000
# 4 0.0000 0.0000 0.0000 99.6758 0.0000 0.0000
# 5 0.0000 0.0000 0.0000 0.0000 30.5004 0.0000
# 6 0.0000 0.0000 0.0000 0.0000 0.0000 37.2319
#
#
#
# Elastic Compliance Matrix: (Units=1/GPa)
#
#
# Indices 1 2 3 4 5 6 
#
# 1 0.020668 -0.002838 -0.012769 0.000000 0.000000 0.000000
# 2 -0.002838 0.011185 -0.004595 0.000000 0.000000 0.000000
# 3 -0.012769 -0.004595 0.027323 0.000000 0.000000 0.000000
# 4 0.000000 0.000000 0.000000 0.010033 0.000000 0.000000
# 5 0.000000 0.000000 0.000000 0.000000 0.032786 0.000000
# 6 0.000000 0.000000 0.000000 0.000000 0.000000 0.026859
#
#
# Mechanical properties :
#
#
# Convention : Reuss Voigt Hill
#
# Bulk Modulus (GPa) = 53.27617 55.69674 54.48646
# Shear Modulus (GPa) = 28.48751 42.73019 35.60885
#
# Velocity S-wave (km/s) = 3.82451 4.68399 4.27590
# Velocity P-wave (km/s) = 6.84523 7.60595 7.23560
#
# Compressibility (1/GPa) = 0.01877012
#
# Stress axis : x y z
#
# Youngs Moduli (GPa) = 48.38436 89.40509 36.59950
#
# Poissons Ratio (x) = 0.25374 0.46735
# Poissons Ratio (y) = 0.13732 0.16819
# Poissons Ratio (z) = 0.61783 0.41085
#
# Static dielectric constant tensor:
#      x y z
#    x 3.638280 0.000000 0.000000 
#    y 0.000000 3.681910 0.000000 
#    z 0.000000 0.000000 3.416740 
# 
# 
# High freq. dielectric constant tensor:
#      x y z
#    x 1.770080 0.000000 0.000000 
#    y 0.000000 1.776510 0.000000 
#    z 0.000000 0.000000 1.745340 
# 
# From -- ./inp_files/1380.got.cif
#   From: 2010.03.12/outbox.cif.g09.slc.cpg/sg47_1_cif.got.tgz:1380.got - 2010.04.14 03:12:58.
