data_PCOD8198885
_publ_section_title
;
Structure prediction by ZEFSAII (Michael W. Deem and Ramdas Pophale) SiO2 
 PCOD8198885
Probable space group: P M M M
;
_chemical_formula_sum "Si O2"
_cell_formula_units_Z 56
_cell_length_a 19.866533
_cell_length_b 9.033230
_cell_length_c 17.249368
_cell_angle_alpha 90.000000
_cell_angle_beta 90.000000
_cell_angle_gamma 90.000000
_cell_volume 3095.553675
_symmetry_space_group_name_H-M "P M M M"
_symmetry_group_IT_number 47
_symmetry_cell_setting 'orthorhombic'
loop_
_space_group_symop_operation_xyz
x,y,z
-x,-y,z
x,-y,-z
-x,y,-z
-x,-y,-z
x,y,-z
-x,y,z
x,-y,z
loop_
_atom_site_type_symbol
_atom_site_label
_atom_site_fract_x
_atom_site_fract_y
_atom_site_fract_z
Si Si1 0.182228 0.324972 0.797141
Si Si2 0.924184 0.168440 0.500000
Si Si3 0.701118 0.665527 0.586872
Si Si4 0.579813 0.166750 0.000000
Si Si5 0.683197 0.824236 0.256523
Si Si6 0.146427 0.661368 0.627266
Si Si7 0.076785 0.827773 0.090672
Si Si8 0.420512 0.671346 0.846061
O O1 0.194271 0.500000 0.808422
O O2 0.255183 0.246500 0.792655
O O3 0.146001 0.288704 0.716353
O O4 0.133606 0.265020 0.864389
O O5 0.896492 0.224029 0.580618
O O6 0.000000 0.213992 0.500000
O O7 0.907342 0.000000 0.500000
O O8 0.679000 0.718082 0.500000
O O9 0.671989 0.500000 0.603535
O O10 0.678560 0.780121 0.652842
O O11 0.780836 0.656691 0.589196
O O12 0.605516 0.257007 0.074076
O O13 0.500000 0.158739 0.000000
O O14 0.610019 0.000000 0.000000
O O15 0.613853 0.762874 0.222314
O O16 0.687836 0.000000 0.249608
O O17 0.112992 0.500000 0.619942
O O18 0.000000 0.780592 0.113666
O O19 0.087182 0.000000 0.109865
O O20 0.087910 0.797261 0.000000
O O21 0.500000 0.689026 0.835987
O O22 0.398835 0.500000 0.844267
#
# Coordination Sequence:
#
# PCOD8198885 Si02
#       8
#     8   4   8   4   8   8   8   8
#     4  10  21  37  56  79 108 139 180 228 273 324
#     4  11  23  33  43  67 101 133 168 211 258 313
#     4   9  17  33  56  78 103 135 174 219 267 321
#     4   9  17  31  53  81 111 143 180 221 266 317
#     4  11  22  35  54  83 115 145 182 227 277 327
#     4   9  18  34  52  70  94 130 170 210 259 312
#     4   9  19  37  59  81 107 140 177 220 275 335
#     4  10  20  36  58  82 112 151 191 228 269 322
#
# _framework density 18.090461999999999
#
# number of rings (size 3 to 8) (size 9 to 14) (size 15 to 20)
#    0.000    2.286    0.714    3.857    0.000    6.571 
#    1.286    3.571    0.000    0.429    0.000    3.000 
#    0.000    0.000    0.000    0.000    0.000    0.000 
#
# Total GULP energy -694110.940861 kJ/mol
# GULP energy per Si atom -12394.838230 kJ/mol
# Density = 1.804929 g / cm^3
# Si number density = 18.090462 Si / 1000 Ang^3
#
#
#
# Elastic Constant Matrix: (Units=GPa)
#
#
# Indices 1 2 3 4 5 6 
#
# 1 55.8059 50.0852 47.6730 0.0000 0.0000 0.0000
# 2 50.0852 130.3867 59.7546 0.0000 0.0000 0.0000
# 3 47.6730 59.7546 109.1949 0.0000 0.0000 0.0000
# 4 0.0000 0.0000 0.0000 40.9442 0.0000 0.0000
# 5 0.0000 0.0000 0.0000 0.0000 27.1788 0.0000
# 6 0.0000 0.0000 0.0000 0.0000 0.0000 28.9215
#
#
#
# Elastic Compliance Matrix: (Units=1/GPa)
#
#
# Indices 1 2 3 4 5 6 
#
# 1 0.034367 -0.008442 -0.010384 0.000000 0.000000 0.000000
# 2 -0.008442 0.012311 -0.003051 0.000000 0.000000 0.000000
# 3 -0.010384 -0.003051 0.015361 0.000000 0.000000 0.000000
# 4 0.000000 0.000000 0.000000 0.024423 0.000000 0.000000
# 5 0.000000 0.000000 0.000000 0.000000 0.036793 0.000000
# 6 0.000000 0.000000 0.000000 0.000000 0.000000 0.034576
#
#
# Mechanical properties :
#
#
# Convention : Reuss Voigt Hill
#
# Bulk Modulus (GPa) = 54.69350 67.82365 61.25858
# Shear Modulus (GPa) = 24.07529 28.60054 26.33791
#
# Velocity S-wave (km/s) = 3.65201 3.98046 3.81977
# Velocity P-wave (km/s) = 6.93411 7.66147 7.30685
#
# Compressibility (1/GPa) = 0.01828371
#
# Stress axis : x y z
#
# Youngs Moduli (GPa) = 29.09761 81.23053 65.09945
#
# Poissons Ratio (x) = 0.68578 0.67601
# Poissons Ratio (y) = 0.24565 0.19861
# Poissons Ratio (z) = 0.30216 0.24783
#
# Static dielectric constant tensor:
#      x y z
#    x 3.100530 0.000000 0.000000 
#    y 0.000000 3.417900 0.000000 
#    z 0.000000 0.000000 3.434630 
# 
# 
# High freq. dielectric constant tensor:
#      x y z
#    x 1.674230 0.000000 0.000000 
#    y 0.000000 1.708400 0.000000 
#    z 0.000000 0.000000 1.708370 
# 
# From -- ./inp_files/25167.got.cif
#   From: 2010.03.12/outbox.cif.g09.slc.cpg/sg47_13_cif.got.tgz:25167.got - 2010.04.14 03:12:58.
