data_PCOD8198170
_publ_section_title
;
Structure prediction by ZEFSAII (Michael W. Deem and Ramdas Pophale) SiO2 
 PCOD8198170
Probable space group: P M M M
;
_chemical_formula_sum "Si O2"
_cell_formula_units_Z 48
_cell_length_a 8.934620
_cell_length_b 14.270010
_cell_length_c 20.496784
_cell_angle_alpha 90.000000
_cell_angle_beta 90.000000
_cell_angle_gamma 90.000000
_cell_volume 2613.280863
_symmetry_space_group_name_H-M "P M M M"
_symmetry_group_IT_number 47
_symmetry_cell_setting 'orthorhombic'
loop_
_space_group_symop_operation_xyz
x,y,z
-x,-y,z
x,-y,-z
-x,y,-z
-x,-y,-z
x,y,-z
-x,y,z
x,-y,z
loop_
_atom_site_type_symbol
_atom_site_label
_atom_site_fract_x
_atom_site_fract_y
_atom_site_fract_z
Si Si1 0.827871 0.728892 0.572675
Si Si2 0.170987 0.608927 0.925185
Si Si3 0.324126 0.283062 0.186456
Si Si4 0.327530 0.894291 0.366838
Si Si5 0.176088 0.392820 0.304942
Si Si6 0.824729 0.894098 0.769921
O O1 0.802845 0.687435 0.500000
O O2 0.727839 0.822369 0.578431
O O3 0.778598 0.651042 0.625253
O O4 0.000000 0.757376 0.583479
O O5 0.201975 0.500000 0.913016
O O6 0.283544 0.667111 0.880948
O O7 0.000000 0.632948 0.906534
O O8 0.202658 0.635494 0.000000
O O9 0.500000 0.279025 0.194573
O O10 0.257228 0.338001 0.247599
O O11 0.259578 0.177627 0.182500
O O12 0.500000 0.875722 0.349069
O O13 0.228793 0.875307 0.303277
O O14 0.304534 0.000000 0.392964
O O15 0.230601 0.500000 0.304792
O O16 0.000000 0.385879 0.292426
O O17 0.000000 0.874195 0.772997
O O18 0.785953 0.000000 0.791964
#
# Coordination Sequence:
#
# PCOD8198170 Si02
#       6
#     8   8   8   8   8   8
#     4  10  21  36  54  76 103 140 185 230 277 329
#     4   9  19  37  60  85 115 153 194 231 268 315
#     4  12  23  34  55  86 118 149 180 221 274 328
#     4  10  20  34  53  78 107 138 173 218 277 337
#     4  10  21  37  56  77 104 141 186 233 276 323
#     4  10  20  35  57  82 108 141 182 227 272 321
#
# _framework density 18.367716999999999
#
# number of rings (size 3 to 8) (size 9 to 14) (size 15 to 20)
#    0.000    1.833    1.667    3.500    0.000    6.000 
#    0.000    4.167    0.000    0.500    0.000    5.833 
#    0.000    0.000    0.000    0.000    0.000    0.000 
#
# Total GULP energy -595319.957558 kJ/mol
# GULP energy per Si atom -12402.499116 kJ/mol
# Density = 1.832591 g / cm^3
# Si number density = 18.367717 Si / 1000 Ang^3
#
#
#
# Elastic Constant Matrix: (Units=GPa)
#
#
# Indices 1 2 3 4 5 6 
#
# 1 71.9614 54.7550 40.1982 0.0000 0.0000 0.0000
# 2 54.7550 121.0310 56.7308 0.0000 0.0000 0.0000
# 3 40.1982 56.7308 98.7061 0.0000 0.0000 0.0000
# 4 0.0000 0.0000 0.0000 28.6931 0.0000 0.0000
# 5 0.0000 0.0000 0.0000 0.0000 7.5863 0.0000
# 6 0.0000 0.0000 0.0000 0.0000 0.0000 20.9067
#
#
#
# Elastic Compliance Matrix: (Units=1/GPa)
#
#
# Indices 1 2 3 4 5 6 
#
# 1 0.022593 -0.008087 -0.004553 0.000000 0.000000 0.000000
# 2 -0.008087 0.014204 -0.004870 0.000000 0.000000 0.000000
# 3 -0.004553 -0.004870 0.014784 0.000000 0.000000 0.000000
# 4 0.000000 0.000000 0.000000 0.034852 0.000000 0.000000
# 5 0.000000 0.000000 0.000000 0.000000 0.131816 0.000000
# 6 0.000000 0.000000 0.000000 0.000000 0.000000 0.047832
#
#
# Mechanical properties :
#
#
# Convention : Reuss Voigt Hill
#
# Bulk Modulus (GPa) = 60.38346 66.11850 63.25098
# Shear Modulus (GPa) = 16.30675 20.77151 18.53913
#
# Velocity S-wave (km/s) = 2.98282 3.36649 3.18045
# Velocity P-wave (km/s) = 6.69396 7.15446 6.92804
#
# Compressibility (1/GPa) = 0.01656083
#
# Stress axis : x y z
#
# Youngs Moduli (GPa) = 44.26121 70.40409 67.63901
#
# Poissons Ratio (x) = 0.56936 0.30797
# Poissons Ratio (y) = 0.35794 0.32940
# Poissons Ratio (z) = 0.20152 0.34287
#
# Static dielectric constant tensor:
#      x y z
#    x 3.348390 0.000000 0.000000 
#    y 0.000000 3.579650 0.000000 
#    z 0.000000 0.000000 3.234360 
# 
# 
# High freq. dielectric constant tensor:
#      x y z
#    x 1.712490 0.000000 0.000000 
#    y 0.000000 1.716940 0.000000 
#    z 0.000000 0.000000 1.696010 
# 
# From -- ./inp_files/6350.got.cif
#   From: 2010.03.12/outbox.cif.g09.slc.cpg/sg47_4_cif.got.tgz:6350.got - 2010.04.14 03:12:58.
