data_PCOD8198111
_publ_section_title
;
Structure prediction by ZEFSAII (Michael W. Deem and Ramdas Pophale) SiO2 
 PCOD8198111
Probable space group: P M M M
;
_chemical_formula_sum "Si O2"
_cell_formula_units_Z 44
_cell_length_a 16.854463
_cell_length_b 9.204621
_cell_length_c 15.472598
_cell_angle_alpha 90.000000
_cell_angle_beta 90.000000
_cell_angle_gamma 90.000000
_cell_volume 2400.402516
_symmetry_space_group_name_H-M "P M M M"
_symmetry_group_IT_number 47
_symmetry_cell_setting 'orthorhombic'
loop_
_space_group_symop_operation_xyz
x,y,z
-x,-y,z
x,-y,-z
-x,y,-z
-x,-y,-z
x,y,-z
-x,y,z
x,-y,z
loop_
_atom_site_type_symbol
_atom_site_label
_atom_site_fract_x
_atom_site_fract_y
_atom_site_fract_z
Si Si1 0.245174 0.332146 0.747739
Si Si2 0.330951 0.169855 0.597987
Si Si3 0.911173 0.333992 0.834299
Si Si4 0.500000 0.827552 0.659223
Si Si5 0.671240 0.830472 0.096927
Si Si6 0.500000 0.829218 0.851813
Si Si7 0.094241 0.838245 0.000000
O O1 0.270131 0.500000 0.742886
O O2 0.271376 0.253268 0.660716
O O3 0.149482 0.314296 0.754586
O O4 0.283115 0.264100 0.833266
O O5 0.304632 0.201504 0.500000
O O6 0.420908 0.227364 0.610750
O O7 0.325696 0.000000 0.620338
O O8 0.913257 0.500000 0.865785
O O9 0.876379 0.241274 0.913851
O O10 0.000000 0.283613 0.806178
O O11 0.500000 0.761067 0.755550
O O12 0.500000 0.000000 0.659310
O O13 0.578873 0.781425 0.097422
O O14 0.679468 0.000000 0.121768
O O15 0.704652 0.801676 0.000000
O O16 0.500000 0.000000 0.840830
O O17 0.000000 0.839687 0.000000
O O18 0.130451 0.000000 0.000000
#
# Coordination Sequence:
#
# PCOD8198111 Si02
#       7
#     8   8   8   4   8   4   4
#     4  11  23  36  53  78 108 138 173 221 268 315
#     4  10  20  36  59  83 106 135 173 216 263 316
#     4   9  19  36  54  71  99 143 184 213 252 311
#     4   9  15  29  55  81 105 134 173 216 253 304
#     4  10  20  34  53  76 104 143 186 223 257 300
#     4   9  15  29  53  75 101 138 183 224 251 294
#     4   9  17  29  49  79 107 130 165 216 265 305
#
# _framework density 18.330257
#
# number of rings (size 3 to 8) (size 9 to 14) (size 15 to 20)
#    0.000    2.273    1.818    1.364    1.273    5.455 
#    0.000    1.818    0.000    2.727    0.000    3.818 
#    0.000    0.000    0.000    0.000    0.000    0.000 
#
# Total GULP energy -545468.417311 kJ/mol
# GULP energy per Si atom -12397.009484 kJ/mol
# Density = 1.828854 g / cm^3
# Si number density = 18.330257 Si / 1000 Ang^3
#
#
#
# Elastic Constant Matrix: (Units=GPa)
#
#
# Indices 1 2 3 4 5 6 
#
# 1 92.1897 42.8889 54.7582 0.0000 0.0000 0.0000
# 2 42.8889 77.3075 56.2892 0.0000 0.0000 0.0000
# 3 54.7582 56.2892 127.0141 0.0000 0.0000 0.0000
# 4 0.0000 0.0000 0.0000 23.2670 0.0000 0.0000
# 5 0.0000 0.0000 0.0000 0.0000 19.0263 0.0000
# 6 0.0000 0.0000 0.0000 0.0000 0.0000 21.7559
#
#
#
# Elastic Compliance Matrix: (Units=1/GPa)
#
#
# Indices 1 2 3 4 5 6 
#
# 1 0.016139 -0.005740 -0.004414 0.000000 0.000000 0.000000
# 2 -0.005740 0.021139 -0.006894 0.000000 0.000000 0.000000
# 3 -0.004414 -0.006894 0.012831 0.000000 0.000000 0.000000
# 4 0.000000 0.000000 0.000000 0.042979 0.000000 0.000000
# 5 0.000000 0.000000 0.000000 0.000000 0.052559 0.000000
# 6 0.000000 0.000000 0.000000 0.000000 0.000000 0.045964
#
#
# Mechanical properties :
#
#
# Convention : Reuss Voigt Hill
#
# Bulk Modulus (GPa) = 62.44422 67.15377 64.79899
# Shear Modulus (GPa) = 21.64067 22.31485 21.97776
#
# Velocity S-wave (km/s) = 3.43971 3.49288 3.46640
# Velocity P-wave (km/s) = 7.06510 7.27887 7.17278
#
# Compressibility (1/GPa) = 0.01601429
#
# Stress axis : x y z
#
# Youngs Moduli (GPa) = 61.95992 47.30544 77.93385
#
# Poissons Ratio (x) = 0.27152 0.34403
# Poissons Ratio (y) = 0.35563 0.53726
# Poissons Ratio (z) = 0.27351 0.32611
#
# Static dielectric constant tensor:
#      x y z
#    x 3.583860 0.000000 0.000000 
#    y 0.000000 3.219200 0.000000 
#    z 0.000000 0.000000 3.268980 
# 
# 
# High freq. dielectric constant tensor:
#      x y z
#    x 1.715410 0.000000 0.000000 
#    y 0.000000 1.687440 0.000000 
#    z 0.000000 0.000000 1.695460 
# 
# From -- ./inp_files/24350.got.cif
#   From: 2010.03.12/outbox.cif.g09.slc.cpg/sg47_13_cif.got.tgz:24350.got - 2010.04.14 03:12:58.
