data_PCOD8198766
_publ_section_title
;
Structure prediction by ZEFSAII (Michael W. Deem and Ramdas Pophale) SiO2 
 PCOD8198766
Probable space group: P M M M
;
_chemical_formula_sum "Si O2"
_cell_formula_units_Z 48
_cell_length_a 8.891549
_cell_length_b 30.972866
_cell_length_c 9.178075
_cell_angle_alpha 90.000000
_cell_angle_beta 90.000000
_cell_angle_gamma 90.000000
_cell_volume 2527.612079
_symmetry_space_group_name_H-M "P M M M"
_symmetry_group_IT_number 47
_symmetry_cell_setting 'orthorhombic'
loop_
_space_group_symop_operation_xyz
x,y,z
-x,-y,z
x,-y,-z
-x,y,-z
-x,-y,-z
x,y,-z
-x,y,z
x,-y,z
loop_
_atom_site_type_symbol
_atom_site_label
_atom_site_fract_x
_atom_site_fract_y
_atom_site_fract_z
Si Si1 0.322190 0.500000 0.341211
Si Si2 0.329550 0.593020 0.673905
Si Si3 0.173143 0.668836 0.832663
Si Si4 0.674357 0.242787 0.829891
Si Si5 0.169459 0.000000 0.826838
Si Si6 0.825930 0.835027 0.329121
Si Si7 0.323013 0.086619 0.167131
O O1 0.500000 0.500000 0.362324
O O2 0.244703 0.500000 0.500000
O O3 0.278932 0.454526 0.263114
O O4 0.319465 0.592597 0.500000
O O5 0.500000 0.603821 0.723745
O O6 0.216106 0.627987 0.736195
O O7 0.274139 0.709383 0.785089
O O8 0.000000 0.680810 0.805136
O O9 0.203567 0.656907 0.000000
O O10 0.500000 0.237014 0.790232
O O11 0.772817 0.209779 0.738362
O O12 0.704106 0.234206 0.000000
O O13 0.251241 0.957153 0.768209
O O14 0.000000 0.000000 0.767443
O O15 0.176350 0.000000 0.000000
O O16 0.796108 0.833450 0.500000
O O17 0.730587 0.873651 0.262473
O O18 0.000000 0.842343 0.291660
O O19 0.500000 0.082006 0.179775
O O20 0.273255 0.094378 0.000000
#
# Coordination Sequence:
#
# PCOD8198766 Si02
#       7
#     4   8   8   8   4   8   8
#     4   7  12  26  48  73 100 130 168 213 256 301
#     4   9  17  31  53  78 102 132 172 216 260 306
#     4  10  21  36  53  75 105 139 172 209 257 311
#     4  10  21  38  60  82 102 131 174 219 262 311
#     4   9  17  31  54  83 112 143 180 222 266 311
#     4  11  24  39  55  79 111 144 177 215 261 313
#     4  10  20  35  57  84 112 143 181 223 265 311
#
# _framework density 18.990255999999999
#
# number of rings (size 3 to 8) (size 9 to 14) (size 15 to 20)
#    0.000    2.333    0.000    3.750    0.000    8.333 
#    0.000    1.250    0.000    6.500    0.000    0.000 
#    0.000    0.000    0.000    0.000    0.000    0.000 
#
# Total GULP energy -595143.032256 kJ/mol
# GULP energy per Si atom -12398.813172 kJ/mol
# Density = 1.894703 g / cm^3
# Si number density = 18.990256 Si / 1000 Ang^3
#
#
#
# Elastic Constant Matrix: (Units=GPa)
#
#
# Indices 1 2 3 4 5 6 
#
# 1 66.1767 32.1880 28.5821 0.0000 0.0000 0.0000
# 2 32.1880 128.9770 40.9936 0.0000 0.0000 0.0000
# 3 28.5821 40.9936 46.5530 0.0000 0.0000 0.0000
# 4 0.0000 0.0000 0.0000 34.9779 0.0000 0.0000
# 5 0.0000 0.0000 0.0000 0.0000 25.8740 0.0000
# 6 0.0000 0.0000 0.0000 0.0000 0.0000 25.2270
#
#
#
# Elastic Compliance Matrix: (Units=1/GPa)
#
#
# Indices 1 2 3 4 5 6 
#
# 1 0.020791 -0.001571 -0.011381 0.000000 0.000000 0.000000
# 2 -0.001571 0.010885 -0.008621 0.000000 0.000000 0.000000
# 3 -0.011381 -0.008621 0.036060 0.000000 0.000000 0.000000
# 4 0.000000 0.000000 0.000000 0.028589 0.000000 0.000000
# 5 0.000000 0.000000 0.000000 0.000000 0.038649 0.000000
# 6 0.000000 0.000000 0.000000 0.000000 0.000000 0.039640
#
#
# Mechanical properties :
#
#
# Convention : Reuss Voigt Hill
#
# Bulk Modulus (GPa) = 40.66773 49.47047 45.06910
# Shear Modulus (GPa) = 22.12797 26.54530 24.33664
#
# Velocity S-wave (km/s) = 3.41725 3.74282 3.58373
# Velocity P-wave (km/s) = 6.08536 6.69218 6.39597
#
# Compressibility (1/GPa) = 0.02458952
#
# Stress axis : x y z
#
# Youngs Moduli (GPa) = 48.09772 91.86577 27.73158
#
# Poissons Ratio (x) = 0.14435 0.31562
# Poissons Ratio (y) = 0.07557 0.23907
# Poissons Ratio (z) = 0.54742 0.79195
#
# Static dielectric constant tensor:
#      x y z
#    x 3.490160 0.000000 0.000000 
#    y 0.000000 3.749510 0.000000 
#    z 0.000000 0.000000 3.222570 
# 
# 
# High freq. dielectric constant tensor:
#      x y z
#    x 1.739010 0.000000 0.000000 
#    y 0.000000 1.758440 0.000000 
#    z 0.000000 0.000000 1.707500 
# 
# From -- ./inp_files/2535.got.cif
#   From: 2010.03.12/outbox.cif.g09.slc.cpg/sg47_2_cif.got.tgz:2535.got - 2010.04.14 03:12:58.
