data_PCOD8198968
_publ_section_title
;
Structure prediction by ZEFSAII (Michael W. Deem and Ramdas Pophale) SiO2 
 PCOD8198968
Probable space group: P M M M
;
_chemical_formula_sum "Si O2"
_cell_formula_units_Z 48
_cell_length_a 28.684192
_cell_length_b 9.907260
_cell_length_c 9.127862
_cell_angle_alpha 90.000000
_cell_angle_beta 90.000000
_cell_angle_gamma 90.000000
_cell_volume 2593.971779
_symmetry_space_group_name_H-M "P M M M"
_symmetry_group_IT_number 47
_symmetry_cell_setting 'orthorhombic'
loop_
_space_group_symop_operation_xyz
x,y,z
-x,-y,z
x,-y,-z
-x,y,-z
-x,-y,-z
x,y,-z
-x,y,z
x,-y,z
loop_
_atom_site_type_symbol
_atom_site_label
_atom_site_fract_x
_atom_site_fract_y
_atom_site_fract_z
Si Si1 0.718979 0.154321 0.327268
Si Si2 0.623480 0.845076 0.829779
Si Si3 0.052009 0.500000 0.327432
Si Si4 0.791580 0.657389 0.168674
Si Si5 0.947673 0.000000 0.827559
Si Si6 0.554332 0.345555 0.667683
Si Si7 0.103388 0.267557 0.168950
O O1 0.714780 0.171124 0.500000
O O2 0.669833 0.194369 0.257350
O O3 0.756632 0.259534 0.269137
O O4 0.732584 0.000000 0.284621
O O5 0.581606 0.751802 0.776332
O O6 0.609510 0.000000 0.799975
O O7 0.632811 0.818225 0.000000
O O8 0.051163 0.500000 0.500000
O O9 0.078789 0.370955 0.273466
O O10 0.000000 0.500000 0.262181
O O11 0.792777 0.500000 0.215873
O O12 0.841522 0.726036 0.193151
O O13 0.776104 0.670390 0.000000
O O14 0.916989 0.873998 0.776918
O O15 0.000000 0.000000 0.757322
O O16 0.953455 0.000000 0.000000
O O17 0.565991 0.307791 0.500000
O O18 0.500000 0.325095 0.699250
O O19 0.568807 0.500000 0.698991
O O20 0.091086 0.299181 0.000000
#
# Coordination Sequence:
#
# PCOD8198968 Si02
#       7
#     8   8   4   8   4   8   8
#     4  10  22  39  59  83 110 145 188 228 276 337
#     4  10  21  37  57  83 114 148 188 235 285 332
#     4  11  23  37  55  81 113 149 185 223 272 325
#     4  10  21  37  57  83 111 141 183 228 276 331
#     4   9  18  32  55  87 113 137 179 229 272 319
#     4   9  19  36  57  82 114 153 195 236 280 333
#     4  10  20  37  59  83 110 144 184 227 273 326
#
# _framework density 18.504442999999998
#
# number of rings (size 3 to 8) (size 9 to 14) (size 15 to 20)
#    0.000    2.167    0.833    2.250    1.167    6.000 
#    0.000    2.917    0.000    1.500    0.000    0.000 
#    0.000    0.000    0.000    0.000    0.000    0.000 
#
# Total GULP energy -595256.548858 kJ/mol
# GULP energy per Si atom -12401.178101 kJ/mol
# Density = 1.846233 g / cm^3
# Si number density = 18.504443 Si / 1000 Ang^3
#
#
#
# Elastic Constant Matrix: (Units=GPa)
#
#
# Indices 1 2 3 4 5 6 
#
# 1 105.4341 68.6641 52.3579 0.0000 0.0000 0.0000
# 2 68.6641 126.7574 48.9597 0.0000 0.0000 0.0000
# 3 52.3579 48.9597 76.4720 0.0000 0.0000 0.0000
# 4 0.0000 0.0000 0.0000 38.0593 0.0000 0.0000
# 5 0.0000 0.0000 0.0000 0.0000 30.5003 0.0000
# 6 0.0000 0.0000 0.0000 0.0000 0.0000 -8.6164
#
#
#
# Elastic Compliance Matrix: (Units=1/GPa)
#
#
# Indices 1 2 3 4 5 6 
#
# 1 0.017655 -0.006503 -0.007924 0.000000 0.000000 0.000000
# 2 -0.006503 0.012876 -0.003791 0.000000 0.000000 0.000000
# 3 -0.007924 -0.003791 0.020930 0.000000 0.000000 0.000000
# 4 0.000000 0.000000 0.000000 0.026275 0.000000 0.000000
# 5 0.000000 0.000000 0.000000 0.000000 0.032787 0.000000
# 6 0.000000 0.000000 0.000000 0.000000 0.000000 -0.116057
#
#
# Mechanical properties :
#
#
# Convention : Reuss Voigt Hill
#
# Bulk Modulus (GPa) = 66.56311 72.06965 69.31638
# Shear Modulus (GPa) = 139.24052 21.23407 80.23730
#
# Velocity S-wave (km/s) = 8.68392 3.39117 6.59206
# Velocity P-wave (km/s) = 11.68746 7.37327 9.77144
#
# Compressibility (1/GPa) = 0.01502334
#
# Stress axis : x y z
#
# Youngs Moduli (GPa) = 56.64214 77.66372 47.77920
#
# Poissons Ratio (x) = 0.50503 0.37862
# Poissons Ratio (y) = 0.36833 0.18115
# Poissons Ratio (z) = 0.44885 0.29445
#
# Static dielectric constant tensor:
#      x y z
#    x 3.466850 0.000000 0.000000 
#    y 0.000000 3.707670 0.000000 
#    z 0.000000 0.000000 3.288660 
# 
# 
# High freq. dielectric constant tensor:
#      x y z
#    x 1.724710 0.000000 0.000000 
#    y 0.000000 1.726100 0.000000 
#    z 0.000000 0.000000 1.710100 
# 
# From -- ./inp_files/13977.got.cif
#   From: 2010.03.12/outbox.cif.g09.slc.cpg/sg47_7_cif.got.tgz:13977.got - 2010.04.14 03:12:58.
