data_PCOD8198016
_publ_section_title
;
Structure prediction by ZEFSAII (Michael W. Deem and Ramdas Pophale) SiO2 
 PCOD8198016
Probable space group: P M M M
;
_chemical_formula_sum "Si O2"
_cell_formula_units_Z 52
_cell_length_a 8.985543
_cell_length_b 17.934693
_cell_length_c 17.970746
_cell_angle_alpha 90.000000
_cell_angle_beta 90.000000
_cell_angle_gamma 90.000000
_cell_volume 2896.038824
_symmetry_space_group_name_H-M "P M M M"
_symmetry_group_IT_number 47
_symmetry_cell_setting 'orthorhombic'
loop_
_space_group_symop_operation_xyz
x,y,z
-x,-y,z
x,-y,-z
-x,y,-z
-x,-y,-z
x,y,-z
-x,y,z
x,-y,z
loop_
_atom_site_type_symbol
_atom_site_label
_atom_site_fract_x
_atom_site_fract_y
_atom_site_fract_z
Si Si1 0.666309 0.416195 0.913319
Si Si2 0.173423 0.711983 0.156524
Si Si3 0.326804 0.156457 0.083138
Si Si4 0.324229 0.918800 0.233190
Si Si5 0.171362 0.662475 0.411777
Si Si6 0.823293 0.500000 0.582103
Si Si7 0.676501 0.232644 0.698882
O O1 0.500000 0.384373 0.897791
O O2 0.676731 0.500000 0.883206
O O3 0.793329 0.370823 0.871057
O O4 0.701366 0.413576 0.000000
O O5 0.232577 0.768531 0.093727
O O6 0.260478 0.720267 0.233296
O O7 0.000000 0.724084 0.170175
O O8 0.500000 0.176851 0.092451
O O9 0.277981 0.098427 0.147426
O O10 0.295404 0.124160 0.000000
O O11 0.500000 0.923417 0.238196
O O12 0.268652 0.853747 0.289679
O O13 0.255607 0.000000 0.254861
O O14 0.194993 0.665416 0.500000
O O15 0.223987 0.579772 0.380584
O O16 0.264788 0.730349 0.376847
O O17 0.000000 0.675543 0.390592
O O18 0.752774 0.500000 0.500000
O O19 0.000000 0.500000 0.575151
O O20 0.500000 0.236169 0.699238
#
# Coordination Sequence:
#
# PCOD8198016 Si02
#       7
#     8   8   8   8   8   4   8
#     4   9  18  33  51  68  89 121 161 207 257 300
#     4  11  21  32  47  67  94 128 166 204 244 294
#     4   9  17  29  47  71  97 125 158 201 254 305
#     4   8  15  29  49  72  97 127 166 211 253 294
#     4   9  17  32  55  80 105 133 164 199 241 291
#     4   7  12  26  49  75 101 129 158 187 224 273
#     4  10  20  34  52  74 100 130 165 204 249 297
#
# _framework density 17.955559999999998
#
# number of rings (size 3 to 8) (size 9 to 14) (size 15 to 20)
#    0.000    2.846    0.000    4.615    0.000    3.385 
#    1.385    2.692    0.000   13.385    0.000    7.538 
#    0.000    0.000    0.000    0.000    0.000    0.000 
#
# Total GULP energy -644265.179687 kJ/mol
# GULP energy per Si atom -12389.714994 kJ/mol
# Density = 1.791469 g / cm^3
# Si number density = 17.955560 Si / 1000 Ang^3
#
#
#
# Elastic Constant Matrix: (Units=GPa)
#
#
# Indices 1 2 3 4 5 6 
#
# 1 60.5609 39.3140 27.2240 0.0000 0.0000 0.0000
# 2 39.3140 142.4179 52.0963 0.0000 0.0000 0.0000
# 3 27.2240 52.0963 57.4883 0.0000 0.0000 0.0000
# 4 0.0000 0.0000 0.0000 21.6520 0.0000 0.0000
# 5 0.0000 0.0000 0.0000 0.0000 20.5350 0.0000
# 6 0.0000 0.0000 0.0000 0.0000 0.0000 14.2000
#
#
#
# Elastic Compliance Matrix: (Units=1/GPa)
#
#
# Indices 1 2 3 4 5 6 
#
# 1 0.022018 -0.003387 -0.007358 0.000000 0.000000 0.000000
# 2 -0.003387 0.011024 -0.008386 0.000000 0.000000 0.000000
# 3 -0.007358 -0.008386 0.028479 0.000000 0.000000 0.000000
# 4 0.000000 0.000000 0.000000 0.046185 0.000000 0.000000
# 5 0.000000 0.000000 0.000000 0.000000 0.048697 0.000000
# 6 0.000000 0.000000 0.000000 0.000000 0.000000 0.070422
#
#
# Mechanical properties :
#
#
# Convention : Reuss Voigt Hill
#
# Bulk Modulus (GPa) = 42.99297 55.30396 49.14847
# Shear Modulus (GPa) = 18.32560 20.73291 19.52926
#
# Velocity S-wave (km/s) = 3.19816 3.40174 3.30152
# Velocity P-wave (km/s) = 6.13463 6.80415 6.47805
#
# Compressibility (1/GPa) = 0.02325962
#
# Stress axis : x y z
#
# Youngs Moduli (GPa) = 45.41652 90.70951 35.11327
#
# Poissons Ratio (x) = 0.30719 0.25837
# Poissons Ratio (y) = 0.15380 0.29448
# Poissons Ratio (z) = 0.33418 0.76074
#
# Static dielectric constant tensor:
#      x y z
#    x 3.084240 0.000000 0.000000 
#    y 0.000000 3.709290 0.000000 
#    z 0.000000 0.000000 3.113240 
# 
# 
# High freq. dielectric constant tensor:
#      x y z
#    x 1.668250 0.000000 0.000000 
#    y 0.000000 1.698550 0.000000 
#    z 0.000000 0.000000 1.668790 
# 
# From -- ./inp_files/26768.got.cif
#   From: 2010.03.12/outbox.cif.g09.slc.cpg/sg47_14_cif.got.tgz:26768.got - 2010.04.14 03:12:58.
