data_PCOD8198206
_publ_section_title
;
Structure prediction by ZEFSAII (Michael W. Deem and Ramdas Pophale) SiO2 
 PCOD8198206
Probable space group: P M M M
;
_chemical_formula_sum "Si O2"
_cell_formula_units_Z 64
_cell_length_a 24.409862
_cell_length_b 15.187399
_cell_length_c 9.125523
_cell_angle_alpha 90.000000
_cell_angle_beta 90.000000
_cell_angle_gamma 90.000000
_cell_volume 3383.035001
_symmetry_space_group_name_H-M "P M M M"
_symmetry_group_IT_number 47
_symmetry_cell_setting 'orthorhombic'
loop_
_space_group_symop_operation_xyz
x,y,z
-x,-y,z
x,-y,-z
-x,y,-z
-x,-y,-z
x,y,-z
-x,y,z
x,-y,z
loop_
_atom_site_type_symbol
_atom_site_label
_atom_site_fract_x
_atom_site_fract_y
_atom_site_fract_z
Si Si1 0.644096 0.228400 0.172710
Si Si2 0.667825 0.402674 0.669462
Si Si3 0.142006 0.900813 0.668549
Si Si4 0.906369 0.597137 0.666762
Si Si5 0.212467 0.348143 0.335072
Si Si6 0.436077 0.899676 0.332019
Si Si7 0.937407 0.767858 0.167738
Si Si8 0.234916 0.179569 0.171598
O O1 0.637936 0.326442 0.238622
O O2 0.595749 0.166677 0.227835
O O3 0.701508 0.183487 0.220425
O O4 0.640198 0.238096 0.000000
O O5 0.654575 0.384929 0.500000
O O6 0.646182 0.500000 0.715990
O O7 0.732986 0.403367 0.699033
O O8 0.148041 0.873347 0.500000
O O9 0.099293 0.835201 0.741995
O O10 0.202166 0.896947 0.743949
O O11 0.119847 0.000000 0.685287
O O12 0.922505 0.621230 0.500000
O O13 0.928947 0.500000 0.707945
O O14 0.840562 0.591405 0.682658
O O15 0.932817 0.668696 0.772718
O O16 0.215979 0.308569 0.500000
O O17 0.205648 0.270115 0.217979
O O18 0.419601 0.881946 0.500000
O O19 0.500000 0.882389 0.308380
O O20 0.421423 0.000000 0.288847
O O21 0.000000 0.799003 0.181680
O O22 0.917658 0.769187 0.000000
O O23 0.229121 0.163895 0.000000
#
# Coordination Sequence:
#
# PCOD8198206 Si02
#       8
#     8   8   8   8   8   8   8   8
#     4  10  21  34  52  83 120 155 188 226 276 332
#     4   9  17  30  50  77 111 152 194 232 271 319
#     4  11  24  41  62  86 109 138 179 227 279 333
#     4  10  20  34  56  85 113 143 181 224 270 322
#     4   9  16  29  51  78 109 143 181 223 267 317
#     4   9  19  37  60  84 110 144 190 241 286 329
#     4  11  25  43  61  81 108 142 179 224 277 333
#     4  10  20  34  53  80 116 151 182 217 266 327
#
# _framework density 18.917925
#
# number of rings (size 3 to 8) (size 9 to 14) (size 15 to 20)
#    0.000    2.125    1.250    2.250    0.000    7.000 
#    0.000    5.625    0.000    2.625    0.000    2.625 
#    0.000    0.000    0.000    0.000    0.000    0.000 
#
# Total GULP energy -793530.728847 kJ/mol
# GULP energy per Si atom -12398.917638 kJ/mol
# Density = 1.887487 g / cm^3
# Si number density = 18.917925 Si / 1000 Ang^3
#
#
#
# Elastic Constant Matrix: (Units=GPa)
#
#
# Indices 1 2 3 4 5 6 
#
# 1 63.0585 45.7368 39.3322 0.0000 0.0000 0.0000
# 2 45.7368 118.5337 59.7359 0.0000 0.0000 0.0000
# 3 39.3322 59.7359 101.5691 0.0000 0.0000 0.0000
# 4 0.0000 0.0000 0.0000 1.9324 0.0000 0.0000
# 5 0.0000 0.0000 0.0000 0.0000 27.8991 0.0000
# 6 0.0000 0.0000 0.0000 0.0000 0.0000 19.0314
#
#
#
# Elastic Compliance Matrix: (Units=1/GPa)
#
#
# Indices 1 2 3 4 5 6 
#
# 1 0.023980 -0.006499 -0.005464 0.000000 0.000000 0.000000
# 2 -0.006499 0.013752 -0.005571 0.000000 0.000000 0.000000
# 3 -0.005464 -0.005571 0.015238 0.000000 0.000000 0.000000
# 4 0.000000 0.000000 0.000000 0.517489 0.000000 0.000000
# 5 0.000000 0.000000 0.000000 0.000000 0.035843 0.000000
# 6 0.000000 0.000000 0.000000 0.000000 0.000000 0.052545
#
#
# Mechanical properties :
#
#
# Convention : Reuss Voigt Hill
#
# Bulk Modulus (GPa) = 55.86099 63.64125 59.75112
# Shear Modulus (GPa) = 7.14405 18.99634 13.07020
#
# Velocity S-wave (km/s) = 1.94539 3.17226 2.63133
# Velocity P-wave (km/s) = 5.88543 6.86523 6.39412
#
# Compressibility (1/GPa) = 0.01790158
#
# Stress axis : x y z
#
# Youngs Moduli (GPa) = 41.70082 72.71778 65.62622
#
# Poissons Ratio (x) = 0.47262 0.35857
# Poissons Ratio (y) = 0.27103 0.36560
# Poissons Ratio (z) = 0.22784 0.40511
#
# Static dielectric constant tensor:
#      x y z
#    x 3.347590 0.000000 0.000000 
#    y 0.000000 3.458970 0.000000 
#    z 0.000000 0.000000 3.458230 
# 
# 
# High freq. dielectric constant tensor:
#      x y z
#    x 1.718650 0.000000 0.000000 
#    y 0.000000 1.733690 0.000000 
#    z 0.000000 0.000000 1.735100 
# 
# From -- ./inp_files/7919.got.cif
#   From: 2010.03.12/outbox.cif.g09.slc.cpg/sg47_4_cif.got.tgz:7919.got - 2010.04.14 03:12:58.
