data_PCOD8198232
_publ_section_title
;
Structure prediction by ZEFSAII (Michael W. Deem and Ramdas Pophale) SiO2 
 PCOD8198232
Probable space group: P M M M
;
_chemical_formula_sum "Si O2"
_cell_formula_units_Z 64
_cell_length_a 15.424049
_cell_length_b 22.996130
_cell_length_c 9.121138
_cell_angle_alpha 90.000000
_cell_angle_beta 90.000000
_cell_angle_gamma 90.000000
_cell_volume 3235.207777
_symmetry_space_group_name_H-M "P M M M"
_symmetry_group_IT_number 47
_symmetry_cell_setting 'orthorhombic'
loop_
_space_group_symop_operation_xyz
x,y,z
-x,-y,z
x,-y,-z
-x,y,-z
-x,-y,-z
x,y,-z
-x,y,z
x,-y,z
loop_
_atom_site_type_symbol
_atom_site_label
_atom_site_fract_x
_atom_site_fract_y
_atom_site_fract_z
Si Si1 0.100941 0.619484 0.327157
Si Si2 0.402309 0.345611 0.173594
Si Si3 0.830301 0.171087 0.667007
Si Si4 0.744606 0.566057 0.831015
Si Si5 0.901808 0.731640 0.159755
Si Si6 0.353262 0.769877 0.335116
Si Si7 0.595797 0.104957 0.667107
Si Si8 0.243259 0.065892 0.831291
O O1 0.113543 0.621951 0.500000
O O2 0.165437 0.571853 0.258935
O O3 0.136027 0.680714 0.262247
O O4 0.000000 0.605477 0.288517
O O5 0.500000 0.360704 0.229531
O O6 0.332990 0.393208 0.231771
O O7 0.375163 0.281794 0.226142
O O8 0.401180 0.345017 0.000000
O O9 0.860846 0.163211 0.500000
O O10 0.900987 0.205988 0.760034
O O11 0.745949 0.211141 0.680993
O O12 0.818034 0.107398 0.735844
O O13 0.712197 0.500000 0.814217
O O14 0.764630 0.581422 0.000000
O O15 0.000000 0.715134 0.131344
O O16 0.854105 0.733653 0.000000
O O17 0.374152 0.749038 0.500000
O O18 0.409287 0.826670 0.293205
O O19 0.631377 0.098708 0.500000
O O20 0.500000 0.078047 0.682136
O O21 0.657994 0.069889 0.775197
O O22 0.210031 0.000000 0.812824
O O23 0.240316 0.085559 0.000000
#
# Coordination Sequence:
#
# PCOD8198232 Si02
#       8
#     8   8   8   8   8   8   8   8
#     4  10  21  37  58  85 116 146 175 213 265 324
#     4  10  21  35  52  76 104 136 177 225 275 323
#     4  10  20  34  54  78 105 139 176 216 262 312
#     4  10  22  39  57  77 104 142 186 229 273 323
#     4  10  20  34  55  84 115 142 168 203 251 309
#     4   9  18  32  50  74 102 131 166 209 260 316
#     4   9  18  32  49  70  98 132 169 211 262 320
#     4  10  21  35  50  70  98 134 176 220 265 312
#
# _framework density 19.782346
#
# number of rings (size 3 to 8) (size 9 to 14) (size 15 to 20)
#    0.000    2.250    0.000    3.375    0.000    9.500 
#    0.000    3.750    0.000    0.375    0.000    4.375 
#    0.000    0.000    0.000    0.000    0.000    0.000 
#
# Total GULP energy -793425.000119 kJ/mol
# GULP energy per Si atom -12397.265627 kJ/mol
# Density = 1.973732 g / cm^3
# Si number density = 19.782346 Si / 1000 Ang^3
#
#
#
# Elastic Constant Matrix: (Units=GPa)
#
#
# Indices 1 2 3 4 5 6 
#
# 1 54.3095 26.6948 25.4000 0.0000 0.0000 0.0000
# 2 26.6948 90.6702 38.4294 0.0000 0.0000 0.0000
# 3 25.4000 38.4294 95.3964 0.0000 0.0000 0.0000
# 4 0.0000 0.0000 0.0000 23.0603 0.0000 0.0000
# 5 0.0000 0.0000 0.0000 0.0000 25.3724 0.0000
# 6 0.0000 0.0000 0.0000 0.0000 0.0000 10.6259
#
#
#
# Elastic Compliance Matrix: (Units=1/GPa)
#
#
# Indices 1 2 3 4 5 6 
#
# 1 0.022757 -0.004983 -0.004052 0.000000 0.000000 0.000000
# 2 -0.004983 0.014391 -0.004470 0.000000 0.000000 0.000000
# 3 -0.004052 -0.004470 0.013362 0.000000 0.000000 0.000000
# 4 0.000000 0.000000 0.000000 0.043365 0.000000 0.000000
# 5 0.000000 0.000000 0.000000 0.000000 0.039413 0.000000
# 6 0.000000 0.000000 0.000000 0.000000 0.000000 0.094110
#
#
# Mechanical properties :
#
#
# Convention : Reuss Voigt Hill
#
# Bulk Modulus (GPa) = 42.55343 46.82495 44.68919
# Shear Modulus (GPa) = 19.06640 21.80184 20.43412
#
# Velocity S-wave (km/s) = 3.10790 3.32337 3.21744
# Velocity P-wave (km/s) = 5.86824 6.20063 6.03672
#
# Compressibility (1/GPa) = 0.02349987
#
# Stress axis : x y z
#
# Youngs Moduli (GPa) = 43.94207 69.48933 74.83716
#
# Poissons Ratio (x) = 0.34624 0.30325
# Poissons Ratio (y) = 0.21895 0.33456
# Poissons Ratio (z) = 0.17806 0.31065
#
# Static dielectric constant tensor:
#      x y z
#    x 3.569980 0.000000 0.000000 
#    y 0.000000 3.462670 0.000000 
#    z 0.000000 0.000000 3.653120 
# 
# 
# High freq. dielectric constant tensor:
#      x y z
#    x 1.757060 0.000000 0.000000 
#    y 0.000000 1.763950 0.000000 
#    z 0.000000 0.000000 1.771810 
# 
# From -- ./inp_files/10018.got.cif
#   From: 2010.03.12/outbox.cif.g09.slc.cpg/sg47_6_cif.got.tgz:10018.got - 2010.04.14 03:12:58.
