data_PCOD8198143
_publ_section_title
;
Structure prediction by ZEFSAII (Michael W. Deem and Ramdas Pophale) SiO2 
 PCOD8198143
Probable space group: P M M M
;
_chemical_formula_sum "Si O2"
_cell_formula_units_Z 40
_cell_length_a 8.949698
_cell_length_b 25.951178
_cell_length_c 9.037133
_cell_angle_alpha 90.000000
_cell_angle_beta 90.000000
_cell_angle_gamma 90.000000
_cell_volume 2098.921185
_symmetry_space_group_name_H-M "P M M M"
_symmetry_group_IT_number 47
_symmetry_cell_setting 'orthorhombic'
loop_
_space_group_symop_operation_xyz
x,y,z
-x,-y,z
x,-y,-z
-x,y,-z
-x,-y,-z
x,y,-z
-x,y,z
x,-y,z
loop_
_atom_site_type_symbol
_atom_site_label
_atom_site_fract_x
_atom_site_fract_y
_atom_site_fract_z
Si Si1 0.674680 0.404241 0.826974
Si Si2 0.170223 0.897368 0.324328
Si Si3 0.172121 0.500000 0.325435
Si Si4 0.325317 0.802296 0.172260
Si Si5 0.331194 0.000000 0.676087
Si Si6 0.831662 0.699186 0.824188
O O1 0.500000 0.403774 0.793641
O O2 0.750001 0.449825 0.738269
O O3 0.743132 0.350792 0.767201
O O4 0.707828 0.412167 0.000000
O O5 0.177780 0.895104 0.500000
O O6 0.261296 0.849954 0.261082
O O7 0.000000 0.895422 0.267829
O O8 0.245321 0.949736 0.264268
O O9 0.191212 0.500000 0.500000
O O10 0.000000 0.500000 0.276800
O O11 0.500000 0.797610 0.202238
O O12 0.248936 0.750495 0.234886
O O13 0.289239 0.810174 0.000000
O O14 0.500000 0.000000 0.738453
O O15 0.332347 0.000000 0.500000
O O16 0.000000 0.697592 0.761734
O O17 0.830476 0.699653 0.000000
#
# Coordination Sequence:
#
# PCOD8198143 Si02
#       6
#     8   8   4   8   4   8
#     4  10  20  35  57  83 107 134 173 217 257 303
#     4  10  20  34  53  77 104 135 173 216 260 308
#     4  11  24  39  54  76 108 143 176 213 260 310
#     4  10  20  34  53  78 108 140 173 212 259 309
#     4   9  17  31  52  75 100 133 172 214 260 309
#     4   9  17  31  53  79 106 137 172 211 256 305
#
# _framework density 19.057407999999999
#
# number of rings (size 3 to 8) (size 9 to 14) (size 15 to 20)
#    0.000    2.200    0.000    3.300    0.000    9.200 
#    0.000    1.500    0.000    9.000    0.000    0.000 
#    0.000    0.000    0.000    0.000    0.000    0.000 
#
# Total GULP energy -496103.949827 kJ/mol
# GULP energy per Si atom -12402.598746 kJ/mol
# Density = 1.901403 g / cm^3
# Si number density = 19.057408 Si / 1000 Ang^3
#
#
#
# Elastic Constant Matrix: (Units=GPa)
#
#
# Indices 1 2 3 4 5 6 
#
# 1 124.4879 67.2888 29.5833 0.0000 0.0000 0.0000
# 2 67.2888 180.6341 30.4248 0.0000 0.0000 0.0000
# 3 29.5833 30.4248 22.9203 0.0000 0.0000 0.0000
# 4 0.0000 0.0000 0.0000 41.6407 0.0000 0.0000
# 5 0.0000 0.0000 0.0000 0.0000 24.6747 0.0000
# 6 0.0000 0.0000 0.0000 0.0000 0.0000 47.3714
#
#
#
# Elastic Compliance Matrix: (Units=1/GPa)
#
#
# Indices 1 2 3 4 5 6 
#
# 1 0.012391 -0.002475 -0.012707 0.000000 0.000000 0.000000
# 2 -0.002475 0.007625 -0.006926 0.000000 0.000000 0.000000
# 3 -0.012707 -0.006926 0.069224 0.000000 0.000000 0.000000
# 4 0.000000 0.000000 0.000000 0.024015 0.000000 0.000000
# 5 0.000000 0.000000 0.000000 0.000000 0.040527 0.000000
# 6 0.000000 0.000000 0.000000 0.000000 0.000000 0.021110
#
#
# Mechanical properties :
#
#
# Convention : Reuss Voigt Hill
#
# Bulk Modulus (GPa) = 22.21099 64.73736 43.47417
# Shear Modulus (GPa) = 21.35699 36.12039 28.73869
#
# Velocity S-wave (km/s) = 3.35127 4.35828 3.88752
# Velocity P-wave (km/s) = 5.16282 7.70516 6.55836
#
# Compressibility (1/GPa) = 0.04502276
#
# Stress axis : x y z
#
# Youngs Moduli (GPa) = 80.70673 131.15086 14.44587
#
# Poissons Ratio (x) = 0.32466 0.18356
# Poissons Ratio (y) = 0.19979 0.10006
# Poissons Ratio (z) = 1.02550 0.90838
#
# Static dielectric constant tensor:
#      x y z
#    x 3.772260 0.000000 0.000000 
#    y 0.000000 3.778410 0.000000 
#    z 0.000000 0.000000 3.084470 
# 
# 
# High freq. dielectric constant tensor:
#      x y z
#    x 1.762990 0.000000 0.000000 
#    y 0.000000 1.761930 0.000000 
#    z 0.000000 0.000000 1.696780 
# 
# From -- ./inp_files/1733.got.cif
#   From: 2010.03.12/outbox.cif.g09.slc.cpg/sg47_1_cif.got.tgz:1733.got - 2010.04.14 03:12:58.
