data_PCOD8198869
_publ_section_title
;
Structure prediction by ZEFSAII (Michael W. Deem and Ramdas Pophale) SiO2 
 PCOD8198869
Probable space group: P M M M
;
_chemical_formula_sum "Si O2"
_cell_formula_units_Z 48
_cell_length_a 16.038794
_cell_length_b 9.024319
_cell_length_c 17.157452
_cell_angle_alpha 90.000000
_cell_angle_beta 90.000000
_cell_angle_gamma 90.000000
_cell_volume 2483.355764
_symmetry_space_group_name_H-M "P M M M"
_symmetry_group_IT_number 47
_symmetry_cell_setting 'orthorhombic'
loop_
_space_group_symop_operation_xyz
x,y,z
-x,-y,z
x,-y,-z
-x,y,-z
-x,-y,-z
x,y,-z
-x,y,z
x,-y,z
loop_
_atom_site_type_symbol
_atom_site_label
_atom_site_fract_x
_atom_site_fract_y
_atom_site_fract_z
Si Si1 0.174656 0.825154 0.640582
Si Si2 0.500000 0.324719 0.910833
Si Si3 0.162687 0.175018 0.819031
Si Si4 0.658155 0.668513 0.650624
Si Si5 0.095926 0.662105 0.500000
Si Si6 0.000000 0.823744 0.088839
Si Si7 0.332037 0.331864 0.166497
Si Si8 0.500000 0.163991 0.590781
O O1 0.149393 0.778475 0.728703
O O2 0.265674 0.765694 0.619924
O O3 0.113534 0.753019 0.578456
O O4 0.172392 0.000000 0.630266
O O5 0.500000 0.500000 0.897088
O O6 0.585595 0.260096 0.873613
O O7 0.500000 0.277723 0.000000
O O8 0.082987 0.234985 0.867313
O O9 0.247536 0.243624 0.854606
O O10 0.171683 0.000000 0.826729
O O11 0.668133 0.500000 0.621494
O O12 0.650406 0.675160 0.742741
O O13 0.578021 0.740287 0.614422
O O14 0.141296 0.500000 0.500000
O O15 0.000000 0.631001 0.500000
O O16 0.000000 0.000000 0.090734
O O17 0.000000 0.764650 0.000000
O O18 0.318783 0.500000 0.137417
O O19 0.500000 0.140642 0.500000
O O20 0.500000 0.000000 0.630613
#
# Coordination Sequence:
#
# PCOD8198869 Si02
#       8
#     8   4   8   8   4   4   8   4
#     4  10  21  37  59  83 111 145 186 234 280 328
#     4   9  17  30  51  79 110 145 182 222 272 330
#     4   9  19  35  57  83 110 145 189 230 276 332
#     4  10  20  36  57  78 106 144 187 228 274 330
#     4  11  25  41  57  82 113 144 183 227 279 339
#     4   9  18  34  57  84 115 150 186 227 275 331
#     4   9  18  34  55  79 107 141 182 226 273 327
#     4  11  24  37  51  75 108 141 182 230 276 322
#
# _framework density 19.328685
#
# number of rings (size 3 to 8) (size 9 to 14) (size 15 to 20)
#    0.000    2.333    0.000    2.000    2.333    4.667 
#    0.000    0.833    0.000    1.000    0.000    0.000 
#    0.000    0.000    0.000    0.000    0.000    0.000 
#
# Total GULP energy -595111.848236 kJ/mol
# GULP energy per Si atom -12398.163505 kJ/mol
# Density = 1.928469 g / cm^3
# Si number density = 19.328685 Si / 1000 Ang^3
#
#
#
# Elastic Constant Matrix: (Units=GPa)
#
#
# Indices 1 2 3 4 5 6 
#
# 1 159.8164 42.2780 71.4286 0.0000 0.0000 0.0000
# 2 42.2780 72.7428 42.2078 0.0000 0.0000 0.0000
# 3 71.4286 42.2078 80.5362 0.0000 0.0000 0.0000
# 4 0.0000 0.0000 0.0000 18.1687 0.0000 0.0000
# 5 0.0000 0.0000 0.0000 0.0000 24.1426 0.0000
# 6 0.0000 0.0000 0.0000 0.0000 0.0000 31.9505
#
#
#
# Elastic Compliance Matrix: (Units=1/GPa)
#
#
# Indices 1 2 3 4 5 6 
#
# 1 0.010416 -0.000997 -0.008716 0.000000 0.000000 0.000000
# 2 -0.000997 0.019849 -0.009519 0.000000 0.000000 0.000000
# 3 -0.008716 -0.009519 0.025136 0.000000 0.000000 0.000000
# 4 0.000000 0.000000 0.000000 0.055040 0.000000 0.000000
# 5 0.000000 0.000000 0.000000 0.000000 0.041421 0.000000
# 6 0.000000 0.000000 0.000000 0.000000 0.000000 0.031298
#
#
# Mechanical properties :
#
#
# Convention : Reuss Voigt Hill
#
# Bulk Modulus (GPa) = 59.03700 69.43602 64.23651
# Shear Modulus (GPa) = 22.00025 25.33109 23.66567
#
# Velocity S-wave (km/s) = 3.37741 3.62407 3.50291
# Velocity P-wave (km/s) = 6.76899 7.31530 7.04744
#
# Compressibility (1/GPa) = 0.01693853
#
# Stress axis : x y z
#
# Youngs Moduli (GPa) = 96.00203 50.37923 39.78360
#
# Poissons Ratio (x) = 0.05021 0.34676
# Poissons Ratio (y) = 0.09568 0.37870
# Poissons Ratio (z) = 0.83677 0.47955
#
# Static dielectric constant tensor:
#      x y z
#    x 3.577520 0.000000 0.000000 
#    y 0.000000 3.502870 0.000000 
#    z 0.000000 0.000000 3.573540 
# 
# 
# High freq. dielectric constant tensor:
#      x y z
#    x 1.763800 0.000000 0.000000 
#    y 0.000000 1.738650 0.000000 
#    z 0.000000 0.000000 1.748050 
# 
# From -- ./inp_files/21183.got.cif
#   From: 2010.03.12/outbox.cif.g09.slc.cpg/sg47_11_cif.got.tgz:21183.got - 2010.04.14 03:12:58.
