data_PCOD8198065
_publ_section_title
;
Structure prediction by ZEFSAII (Michael W. Deem and Ramdas Pophale) SiO2 
 PCOD8198065
Probable space group: P M M M
;
_chemical_formula_sum "Si O2"
_cell_formula_units_Z 48
_cell_length_a 34.290511
_cell_length_b 9.279970
_cell_length_c 7.824767
_cell_angle_alpha 90.000000
_cell_angle_beta 90.000000
_cell_angle_gamma 90.000000
_cell_volume 2489.957553
_symmetry_space_group_name_H-M "P M M M"
_symmetry_group_IT_number 47
_symmetry_cell_setting 'orthorhombic'
loop_
_space_group_symop_operation_xyz
x,y,z
-x,-y,z
x,-y,-z
-x,y,-z
-x,-y,-z
x,y,-z
-x,y,z
x,-y,z
loop_
_atom_site_type_symbol
_atom_site_label
_atom_site_fract_x
_atom_site_fract_y
_atom_site_fract_z
Si Si1 0.956229 0.828703 0.810279
Si Si2 0.904797 0.172486 0.500000
Si Si3 0.236298 0.166139 0.192309
Si Si4 0.543827 0.662035 0.201495
Si Si5 0.688855 0.334282 0.702679
Si Si6 0.384178 0.841617 0.696731
Si Si7 0.182561 0.170579 0.500000
O O1 0.926649 0.766946 0.668479
O O2 0.000000 0.773280 0.770312
O O3 0.955987 0.000000 0.803634
O O4 0.943222 0.776727 0.000000
O O5 0.860981 0.235516 0.500000
O O6 0.904783 0.000000 0.500000
O O7 0.275100 0.259168 0.205866
O O8 0.204671 0.223979 0.328929
O O9 0.246803 0.000000 0.232396
O O10 0.219256 0.182251 0.000000
O O11 0.500000 0.706045 0.255959
O O12 0.552836 0.500000 0.265727
O O13 0.573424 0.771985 0.286567
O O14 0.548460 0.669948 0.000000
O O15 0.693242 0.317958 0.500000
O O16 0.687309 0.500000 0.758615
O O17 0.649494 0.259733 0.775342
O O18 0.374432 0.860781 0.500000
O O19 0.383834 0.000000 0.784906
O O20 0.179689 0.000000 0.500000
#
# Coordination Sequence:
#
# PCOD8198065 Si02
#       7
#     8   4   8   8   8   8   4
#     4   8  13  20  30  47  74 109 152 204 255 300
#     4   9  15  22  35  53  75 111 156 203 255 302
#     4  10  20  34  53  74  98 132 168 204 256 314
#     4   9  19  36  55  74 100 136 175 213 251 292
#     4  10  20  35  56  78 100 128 163 206 255 304
#     4  10  21  35  53  79 108 136 165 202 249 299
#     4   9  18  31  45  64  93 125 163 215 260 304
#
# _framework density 19.277436999999999
#
# number of rings (size 3 to 8) (size 9 to 14) (size 15 to 20)
#    0.000    2.667    0.833    2.250    0.000    5.333 
#    0.000    5.833    0.000    0.000    0.000    0.000 
#    0.000    0.000    0.000    0.000    0.000    6.667 
#
# Total GULP energy -595041.370978 kJ/mol
# GULP energy per Si atom -12396.695229 kJ/mol
# Density = 1.923356 g / cm^3
# Si number density = 19.277437 Si / 1000 Ang^3
#
#
#
# Elastic Constant Matrix: (Units=GPa)
#
#
# Indices 1 2 3 4 5 6 
#
# 1 158.4666 52.0289 65.9938 0.0000 0.0000 0.0000
# 2 52.0289 80.0070 31.5691 0.0000 0.0000 0.0000
# 3 65.9938 31.5691 98.3492 0.0000 0.0000 0.0000
# 4 0.0000 0.0000 0.0000 13.9345 0.0000 0.0000
# 5 0.0000 0.0000 0.0000 0.0000 13.5094 0.0000
# 6 0.0000 0.0000 0.0000 0.0000 0.0000 2.3339
#
#
#
# Elastic Compliance Matrix: (Units=1/GPa)
#
#
# Indices 1 2 3 4 5 6 
#
# 1 0.009944 -0.004390 -0.005263 0.000000 0.000000 0.000000
# 2 -0.004390 0.016249 -0.002270 0.000000 0.000000 0.000000
# 3 -0.005263 -0.002270 0.014428 0.000000 0.000000 0.000000
# 4 0.000000 0.000000 0.000000 0.071764 0.000000 0.000000
# 5 0.000000 0.000000 0.000000 0.000000 0.074022 0.000000
# 6 0.000000 0.000000 0.000000 0.000000 0.000000 0.428465
#
#
# Mechanical properties :
#
#
# Convention : Reuss Voigt Hill
#
# Bulk Modulus (GPa) = 59.61336 70.66736 65.14036
# Shear Modulus (GPa) = 7.76023 18.43763 13.09893
#
# Velocity S-wave (km/s) = 2.00855 3.09598 2.60954
# Velocity P-wave (km/s) = 6.03076 7.03689 6.55316
#
# Compressibility (1/GPa) = 0.01677476
#
# Stress axis : x y z
#
# Youngs Moduli (GPa) = 100.56702 61.54102 69.30781
#
# Poissons Ratio (x) = 0.27014 0.36479
# Poissons Ratio (y) = 0.44145 0.15736
# Poissons Ratio (z) = 0.52932 0.13972
#
# Static dielectric constant tensor:
#      x y z
#    x 3.678610 0.000000 0.000000 
#    y 0.000000 3.282840 0.000000 
#    z 0.000000 0.000000 3.576580 
# 
# 
# High freq. dielectric constant tensor:
#      x y z
#    x 1.748450 0.000000 0.000000 
#    y 0.000000 1.706500 0.000000 
#    z 0.000000 0.000000 1.750930 
# 
# From -- ./inp_files/13912.got.cif
#   From: 2010.03.12/outbox.cif.g09.slc.cpg/sg47_7_cif.got.tgz:13912.got - 2010.04.14 03:12:58.
