data_PCOD8198455
_publ_section_title
;
Structure prediction by ZEFSAII (Michael W. Deem and Ramdas Pophale) SiO2 
 PCOD8198455
Probable space group: P M M M
;
_chemical_formula_sum "Si O2"
_cell_formula_units_Z 48
_cell_length_a 30.918316
_cell_length_b 9.021511
_cell_length_c 9.072928
_cell_angle_alpha 90.000000
_cell_angle_beta 90.000000
_cell_angle_gamma 90.000000
_cell_volume 2530.711153
_symmetry_space_group_name_H-M "P M M M"
_symmetry_group_IT_number 47
_symmetry_cell_setting 'orthorhombic'
loop_
_space_group_symop_operation_xyz
x,y,z
-x,-y,z
x,-y,-z
-x,y,-z
-x,-y,-z
x,y,-z
-x,y,z
x,-y,z
loop_
_atom_site_type_symbol
_atom_site_label
_atom_site_fract_x
_atom_site_fract_y
_atom_site_fract_z
Si Si1 0.500000 0.666989 0.675082
Si Si2 0.827260 0.336024 0.674779
Si Si3 0.077040 0.325040 0.667586
Si Si4 0.743162 0.830296 0.325640
Si Si5 0.665052 0.328498 0.826804
Si Si6 0.586197 0.174110 0.329039
Si Si7 0.000000 0.832253 0.826360
O O1 0.500000 0.500000 0.737460
O O2 0.500000 0.668537 0.500000
O O3 0.542586 0.750623 0.732650
O O4 0.828166 0.347056 0.500000
O O5 0.816836 0.500000 0.739130
O O6 0.874834 0.282516 0.726097
O O7 0.790806 0.220538 0.727324
O O8 0.070225 0.270724 0.500000
O O9 0.070190 0.500000 0.677285
O O10 0.042990 0.246015 0.770574
O O11 0.737466 0.811043 0.500000
O O12 0.709042 0.726195 0.246090
O O13 0.736193 0.000000 0.277814
O O14 0.657851 0.500000 0.786522
O O15 0.625752 0.233642 0.764731
O O16 0.668153 0.302781 0.000000
O O17 0.594115 0.213652 0.500000
O O18 0.581715 0.000000 0.305608
O O19 0.000000 0.000000 0.769142
O O20 0.000000 0.822451 0.000000
#
# Coordination Sequence:
#
# PCOD8198455 Si02
#       7
#     4   8   8   8   8   8   4
#     4   9  17  31  54  83 112 141 174 214 260 309
#     4   8  15  30  53  80 107 133 165 210 260 308
#     4   9  18  34  57  82 104 130 170 216 260 310
#     4  10  20  34  55  83 110 137 172 213 259 313
#     4  11  24  39  54  75 105 142 183 223 262 308
#     4  10  20  35  57  84 111 139 174 217 265 316
#     4  11  24  37  48  70 106 143 178 215 256 306
#
# _framework density 18.966999999999999
#
# number of rings (size 3 to 8) (size 9 to 14) (size 15 to 20)
#    0.000    2.333    0.000    3.750    0.000    9.000 
#    0.000    2.917    0.000    3.500    0.000    0.000 
#    0.000    0.000    0.000    0.000    0.000    0.000 
#
# Total GULP energy -595217.629647 kJ/mol
# GULP energy per Si atom -12400.367284 kJ/mol
# Density = 1.892383 g / cm^3
# Si number density = 18.967000 Si / 1000 Ang^3
#
#
#
# Elastic Constant Matrix: (Units=GPa)
#
#
# Indices 1 2 3 4 5 6 
#
# 1 146.8530 51.6586 35.3020 0.0000 0.0000 0.0000
# 2 51.6586 85.6234 30.5375 0.0000 0.0000 0.0000
# 3 35.3020 30.5375 40.7780 0.0000 0.0000 0.0000
# 4 0.0000 0.0000 0.0000 24.3834 0.0000 0.0000
# 5 0.0000 0.0000 0.0000 0.0000 -13.2506 0.0000
# 6 0.0000 0.0000 0.0000 0.0000 0.0000 3.7790
#
#
#
# Elastic Compliance Matrix: (Units=1/GPa)
#
#
# Indices 1 2 3 4 5 6 
#
# 1 0.009420 -0.003786 -0.005320 0.000000 0.000000 0.000000
# 2 -0.003786 0.017457 -0.009795 0.000000 0.000000 0.000000
# 3 -0.005320 -0.009795 0.036464 0.000000 0.000000 0.000000
# 4 0.000000 0.000000 0.000000 0.041011 0.000000 0.000000
# 5 0.000000 0.000000 0.000000 0.000000 -0.075468 0.000000
# 6 0.000000 0.000000 0.000000 0.000000 0.000000 0.264617
#
#
# Mechanical properties :
#
#
# Convention : Reuss Voigt Hill
#
# Bulk Modulus (GPa) = 39.15665 56.47230 47.81447
# Shear Modulus (GPa) = 14.71383 13.36612 14.03997
#
# Velocity S-wave (km/s) = 2.78827 2.65751 2.72367
# Velocity P-wave (km/s) = 5.57273 6.26539 5.92918
#
# Compressibility (1/GPa) = 0.02553845
#
# Stress axis : x y z
#
# Youngs Moduli (GPa) = 106.15459 57.28456 27.42446
#
# Poissons Ratio (x) = 0.21689 0.14590
# Poissons Ratio (y) = 0.40191 0.26863
# Poissons Ratio (z) = 0.56473 0.56111
#
# Static dielectric constant tensor:
#      x y z
#    x 3.824100 0.000000 0.000000 
#    y 0.000000 3.601890 0.000000 
#    z 0.000000 0.000000 3.158770 
# 
# 
# High freq. dielectric constant tensor:
#      x y z
#    x 1.756870 0.000000 0.000000 
#    y 0.000000 1.744550 0.000000 
#    z 0.000000 0.000000 1.701170 
# 
# From -- ./inp_files/13957.got.cif
#   From: 2010.03.12/outbox.cif.g09.slc.cpg/sg47_7_cif.got.tgz:13957.got - 2010.04.14 03:12:58.
