data_PCOD8198910
_publ_section_title
;
Structure prediction by ZEFSAII (Michael W. Deem and Ramdas Pophale) SiO2 
 PCOD8198910
Probable space group: P M M M
;
_chemical_formula_sum "Si O2"
_cell_formula_units_Z 48
_cell_length_a 17.778074
_cell_length_b 15.588112
_cell_length_c 8.654084
_cell_angle_alpha 90.000000
_cell_angle_beta 90.000000
_cell_angle_gamma 90.000000
_cell_volume 2398.276950
_symmetry_space_group_name_H-M "P M M M"
_symmetry_group_IT_number 47
_symmetry_cell_setting 'orthorhombic'
loop_
_space_group_symop_operation_xyz
x,y,z
-x,-y,z
x,-y,-z
-x,y,-z
-x,-y,-z
x,y,-z
-x,y,z
x,-y,z
loop_
_atom_site_type_symbol
_atom_site_label
_atom_site_fract_x
_atom_site_fract_y
_atom_site_fract_z
Si Si1 0.177576 0.351594 0.180270
Si Si2 0.088541 0.500000 0.674139
Si Si3 0.584020 0.234148 0.184401
Si Si4 0.150343 0.830304 0.319709
Si Si5 0.344370 0.593300 0.818671
Si Si6 0.295425 0.097105 0.821300
Si Si7 0.000000 0.096343 0.182360
O O1 0.112905 0.415688 0.233630
O O2 0.172956 0.265658 0.277974
O O3 0.256818 0.395301 0.217260
O O4 0.168480 0.329907 0.000000
O O5 0.121921 0.500000 0.500000
O O6 0.000000 0.500000 0.667826
O O7 0.500000 0.213508 0.243907
O O8 0.608559 0.327256 0.252257
O O9 0.640692 0.160867 0.246069
O O10 0.586573 0.235269 0.000000
O O11 0.136810 0.839663 0.500000
O O12 0.217564 0.893036 0.269412
O O13 0.073575 0.853981 0.235914
O O14 0.369567 0.500000 0.750129
O O15 0.358693 0.592449 0.000000
O O16 0.324759 0.000000 0.800659
O O17 0.279524 0.118875 0.000000
O O18 0.000000 0.000000 0.250946
O O19 0.000000 0.093724 0.000000
#
# Coordination Sequence:
#
# PCOD8198910 Si02
#       7
#     8   4   8   8   8   8   4
#     4  11  21  38  62  85 114 157 207 250 292 353
#     4  11  25  41  57  85 126 159 196 252 307 357
#     4   9  17  30  51  83 122 157 194 250 309 356
#     4  12  25  40  61  89 122 156 196 248 305 360
#     4   9  16  29  52  82 112 147 193 243 292 346
#     4  10  20  36  59  85 116 157 204 250 298 362
#     4  11  25  45  67  90 117 152 195 243 297 361
#
# _framework density 20.01437
#
# number of rings (size 3 to 8) (size 9 to 14) (size 15 to 20)
#    0.000    1.667    2.500    3.000    1.167    4.333 
#    0.000    3.333    0.000    0.500    0.000    1.167 
#    0.000    2.000    0.000    0.000    0.000    0.000 
#
# Total GULP energy -595230.868580 kJ/mol
# GULP energy per Si atom -12400.643095 kJ/mol
# Density = 1.996882 g / cm^3
# Si number density = 20.014370 Si / 1000 Ang^3
#
#
#
# Elastic Constant Matrix: (Units=GPa)
#
#
# Indices 1 2 3 4 5 6 
#
# 1 120.8321 46.1658 22.6549 0.0000 0.0000 0.0000
# 2 46.1658 137.9482 16.6314 0.0000 0.0000 0.0000
# 3 22.6549 16.6314 48.8507 0.0000 0.0000 0.0000
# 4 0.0000 0.0000 0.0000 17.1391 0.0000 0.0000
# 5 0.0000 0.0000 0.0000 0.0000 -3.1855 0.0000
# 6 0.0000 0.0000 0.0000 0.0000 0.0000 30.9170
#
#
#
# Elastic Compliance Matrix: (Units=1/GPa)
#
#
# Indices 1 2 3 4 5 6 
#
# 1 0.010086 -0.002932 -0.003679 0.000000 0.000000 0.000000
# 2 -0.002932 0.008412 -0.001504 0.000000 0.000000 0.000000
# 3 -0.003679 -0.001504 0.022689 0.000000 0.000000 0.000000
# 4 0.000000 0.000000 0.000000 0.058346 0.000000 0.000000
# 5 0.000000 0.000000 0.000000 0.000000 -0.313922 0.000000
# 6 0.000000 0.000000 0.000000 0.000000 0.000000 0.032345
#
#
# Mechanical properties :
#
#
# Convention : Reuss Voigt Hill
#
# Bulk Modulus (GPa) = 40.07046 53.17058 46.62052
# Shear Modulus (GPa) = -31.74686 23.78605 -3.98040
#
# Velocity S-wave (km/s) = -3.98704 3.45113 -1.41177
# Velocity P-wave (km/s) = 1.06347 6.51953 4.54826
#
# Compressibility (1/GPa) = 0.02495604
#
# Stress axis : x y z
#
# Youngs Moduli (GPa) = 99.14827 118.88366 44.07441
#
# Poissons Ratio (x) = 0.34854 0.16216
# Poissons Ratio (y) = 0.29068 0.06629
# Poissons Ratio (z) = 0.36480 0.17881
#
# Static dielectric constant tensor:
#      x y z
#    x 3.679040 0.000000 0.000000 
#    y 0.000000 3.953050 0.000000 
#    z 0.000000 0.000000 3.348800 
# 
# 
# High freq. dielectric constant tensor:
#      x y z
#    x 1.782310 0.000000 0.000000 
#    y 0.000000 1.800520 0.000000 
#    z 0.000000 0.000000 1.743090 
# 
# From -- ./inp_files/9182.got.cif
#   From: 2010.03.12/outbox.cif.g09.slc.cpg/sg47_5_cif.got.tgz:9182.got - 2010.04.14 03:12:58.
