data_PCOD8198403
_publ_section_title
;
Structure prediction by ZEFSAII (Michael W. Deem and Ramdas Pophale) SiO2 
 PCOD8198403
Probable space group: P M M M
;
_chemical_formula_sum "Si O2"
_cell_formula_units_Z 52
_cell_length_a 21.872153
_cell_length_b 15.187447
_cell_length_c 8.189679
_cell_angle_alpha 90.000000
_cell_angle_beta 90.000000
_cell_angle_gamma 90.000000
_cell_volume 2720.465296
_symmetry_space_group_name_H-M "P M M M"
_symmetry_group_IT_number 47
_symmetry_cell_setting 'orthorhombic'
loop_
_space_group_symop_operation_xyz
x,y,z
-x,-y,z
x,-y,-z
-x,y,-z
-x,-y,-z
x,y,-z
-x,y,z
x,-y,z
loop_
_atom_site_type_symbol
_atom_site_label
_atom_site_fract_x
_atom_site_fract_y
_atom_site_fract_z
Si Si1 0.072219 0.093851 0.000000
Si Si2 0.143556 0.342617 0.188744
Si Si3 0.072144 0.500000 0.687181
Si Si4 0.500000 0.600147 0.308690
Si Si5 0.430610 0.098498 0.693087
Si Si6 0.387654 0.716516 0.807884
Si Si7 0.277185 0.401241 0.193718
Si Si8 0.929494 0.807267 0.320304
O O1 0.093934 0.134688 0.829914
O O2 0.000000 0.087761 0.000000
O O3 0.104203 0.000000 0.000000
O O4 0.096112 0.420513 0.205164
O O5 0.210487 0.370318 0.250735
O O6 0.117514 0.272527 0.316520
O O7 0.143964 0.309429 0.000000
O O8 0.096904 0.500000 0.500000
O O9 0.000000 0.500000 0.685717
O O10 0.500000 0.500000 0.232590
O O11 0.500000 0.590351 0.500000
O O12 0.557960 0.656772 0.257226
O O13 0.429087 0.101648 0.500000
O O14 0.500000 0.112151 0.756076
O O15 0.390041 0.180167 0.757321
O O16 0.407621 0.000000 0.750674
O O17 0.325932 0.670395 0.739828
O O18 0.389377 0.713050 0.000000
O O19 0.290775 0.500000 0.262791
O O20 0.279418 0.405365 0.000000
O O21 0.923695 0.853049 0.500000
O O22 0.000000 0.777092 0.293143
#
# Coordination Sequence:
#
# PCOD8198403 Si02
#       8
#     4   8   4   4   8   8   8   8
#     4   9  18  34  56  83 113 145 185 231 284 349
#     4  11  20  35  57  77 106 150 196 234 277 336
#     4  11  23  35  49  77 115 148 185 239 291 333
#     4  11  23  37  52  75 112 151 187 228 274 331
#     4   9  18  34  56  81 113 148 177 217 277 339
#     4  11  21  34  57  85 111 142 184 234 288 334
#     4   9  19  36  55  77 108 147 190 235 278 331
#     4  10  20  34  54  83 117 148 182 231 289 346
#
# _framework density 19.114377999999999
#
# number of rings (size 3 to 8) (size 9 to 14) (size 15 to 20)
#    0.000    1.923    2.308    2.769    0.000    4.308 
#    0.000    5.385    0.000    0.923    0.000    0.000 
#    0.000    0.000    0.000    0.000    0.000    0.000 
#
# Total GULP energy -644220.369415 kJ/mol
# GULP energy per Si atom -12388.853258 kJ/mol
# Density = 1.907087 g / cm^3
# Si number density = 19.114378 Si / 1000 Ang^3
#
#
#
# Elastic Constant Matrix: (Units=GPa)
#
#
# Indices 1 2 3 4 5 6 
#
# 1 102.6024 59.6708 26.9240 0.0000 0.0000 0.0000
# 2 59.6708 152.4626 40.5387 0.0000 0.0000 0.0000
# 3 26.9240 40.5387 85.2892 0.0000 0.0000 0.0000
# 4 0.0000 0.0000 0.0000 16.5018 0.0000 0.0000
# 5 0.0000 0.0000 0.0000 0.0000 -4.5614 0.0000
# 6 0.0000 0.0000 0.0000 0.0000 0.0000 32.2847
#
#
#
# Elastic Compliance Matrix: (Units=1/GPa)
#
#
# Indices 1 2 3 4 5 6 
#
# 1 0.012885 -0.004535 -0.001912 0.000000 0.000000 0.000000
# 2 -0.004535 0.009104 -0.002896 0.000000 0.000000 0.000000
# 3 -0.001912 -0.002896 0.013705 0.000000 0.000000 0.000000
# 4 0.000000 0.000000 0.000000 0.060599 0.000000 0.000000
# 5 0.000000 0.000000 0.000000 0.000000 -0.219233 0.000000
# 6 0.000000 0.000000 0.000000 0.000000 0.000000 0.030974
#
#
# Mechanical properties :
#
#
# Convention : Reuss Voigt Hill
#
# Bulk Modulus (GPa) = 58.79294 66.06903 62.43098
# Shear Modulus (GPa) = -73.95330 23.05973 -25.44679
#
# Velocity S-wave (km/s) = -6.22687 3.47711 -3.65264
# Velocity P-wave (km/s) = 4.56872 7.12464 3.86570
#
# Compressibility (1/GPa) = 0.01700885
#
# Stress axis : x y z
#
# Youngs Moduli (GPa) = 77.60730 109.84600 72.96731
#
# Poissons Ratio (x) = 0.49811 0.13954
# Poissons Ratio (y) = 0.35192 0.21128
# Poissons Ratio (z) = 0.14841 0.31807
#
# Static dielectric constant tensor:
#      x y z
#    x 3.492410 0.000000 0.000000 
#    y 0.000000 5.190340 0.000000 
#    z 0.000000 0.000000 3.474770 
# 
# 
# High freq. dielectric constant tensor:
#      x y z
#    x 1.719770 0.000000 0.000000 
#    y 0.000000 1.744890 0.000000 
#    z 0.000000 0.000000 1.741940 
# 
# From -- ./inp_files/11176.got.cif
#   From: 2010.03.12/outbox.cif.g09.slc.cpg/sg47_6_cif.got.tgz:11176.got - 2010.04.14 03:12:58.
