data_PCOD8198880
_publ_section_title
;
Structure prediction by ZEFSAII (Michael W. Deem and Ramdas Pophale) SiO2 
 PCOD8198880
Probable space group: P M M M
;
_chemical_formula_sum "Si O2"
_cell_formula_units_Z 40
_cell_length_a 10.213842
_cell_length_b 8.707592
_cell_length_c 24.012442
_cell_angle_alpha 90.000000
_cell_angle_beta 90.000000
_cell_angle_gamma 90.000000
_cell_volume 2135.617820
_symmetry_space_group_name_H-M "P M M M"
_symmetry_group_IT_number 47
_symmetry_cell_setting 'orthorhombic'
loop_
_space_group_symop_operation_xyz
x,y,z
-x,-y,z
x,-y,-z
-x,y,-z
-x,-y,-z
x,y,-z
-x,y,z
x,-y,z
loop_
_atom_site_type_symbol
_atom_site_label
_atom_site_fract_x
_atom_site_fract_y
_atom_site_fract_z
Si Si1 0.500000 0.681808 0.936700
Si Si2 0.000000 0.326144 0.934156
Si Si3 0.646328 0.182389 0.562120
Si Si4 0.149620 0.180744 0.347314
Si Si5 0.249167 0.180859 0.121133
Si Si6 0.847894 0.678370 0.229821
O O1 0.500000 0.500000 0.936157
O O2 0.374594 0.741148 0.904777
O O3 0.500000 0.743926 0.000000
O O4 0.874171 0.236935 0.913552
O O5 0.000000 0.500000 0.909910
O O6 0.000000 0.329942 0.000000
O O7 0.677554 0.244737 0.500000
O O8 0.500000 0.235465 0.580235
O O9 0.755114 0.246677 0.604643
O O10 0.653052 0.000000 0.561517
O O11 0.191066 0.264808 0.290900
O O12 0.000000 0.220082 0.363858
O O13 0.167936 0.000000 0.338401
O O14 0.237781 0.228266 0.185603
O O15 0.262481 0.000000 0.116436
O O16 0.814720 0.500000 0.224631
O O17 0.000000 0.712148 0.217581
#
# Coordination Sequence:
#
# PCOD8198880 Si02
#       6
#     4   4   8   8   8   8
#     4  11  25  45  65  85 117 157 190 227 284 351
#     4  11  23  39  61  89 119 153 192 231 280 343
#     4   8  14  26  45  71 104 140 175 216 271 330
#     4   9  17  29  48  75 105 135 175 227 275 322
#     4  12  24  39  62  89 117 149 191 242 288 335
#     4  10  20  36  58  80 109 148 188 230 282 343
#
# _framework density 18.729942999999999
#
# number of rings (size 3 to 8) (size 9 to 14) (size 15 to 20)
#    0.000    2.000    1.000    4.200    0.000    5.200 
#    1.800    2.000    0.000    0.600    0.000    4.200 
#    0.000    0.000    0.000    0.000    0.000    0.000 
#
# Total GULP energy -496057.808782 kJ/mol
# GULP energy per Si atom -12401.445220 kJ/mol
# Density = 1.868731 g / cm^3
# Si number density = 18.729943 Si / 1000 Ang^3
#
#
#
# Elastic Constant Matrix: (Units=GPa)
#
#
# Indices 1 2 3 4 5 6 
#
# 1 129.9098 24.4167 77.8138 0.0000 0.0000 0.0000
# 2 24.4167 54.3724 30.9516 0.0000 0.0000 0.0000
# 3 77.8138 30.9516 133.8611 0.0000 0.0000 0.0000
# 4 0.0000 0.0000 0.0000 -4.4082 0.0000 0.0000
# 5 0.0000 0.0000 0.0000 0.0000 40.8994 0.0000
# 6 0.0000 0.0000 0.0000 0.0000 0.0000 23.9983
#
#
#
# Elastic Compliance Matrix: (Units=1/GPa)
#
#
# Indices 1 2 3 4 5 6 
#
# 1 0.011933 -0.001624 -0.006561 0.000000 0.000000 0.000000
# 2 -0.001624 0.021400 -0.004004 0.000000 0.000000 0.000000
# 3 -0.006561 -0.004004 0.012210 0.000000 0.000000 0.000000
# 4 0.000000 0.000000 0.000000 -0.226847 0.000000 0.000000
# 5 0.000000 0.000000 0.000000 0.000000 0.024450 0.000000
# 6 0.000000 0.000000 0.000000 0.000000 0.000000 0.041670
#
#
# Mechanical properties :
#
#
# Convention : Reuss Voigt Hill
#
# Bulk Modulus (GPa) = 47.24760 64.94529 56.09644
# Shear Modulus (GPa) = -59.70102 24.42864 -17.63619
#
# Velocity S-wave (km/s) = -5.65189 3.61537 -3.07189
# Velocity P-wave (km/s) = 4.16069 7.22341 4.17531
#
# Compressibility (1/GPa) = 0.02116510
#
# Stress axis : x y z
#
# Youngs Moduli (GPa) = 83.80231 46.72832 81.89774
#
# Poissons Ratio (x) = 0.07587 0.53734
# Poissons Ratio (y) = 0.13607 0.32795
# Poissons Ratio (z) = 0.54984 0.18712
#
# Static dielectric constant tensor:
#      x y z
#    x 3.503090 0.000000 0.000000 
#    y 0.000000 3.323650 0.000000 
#    z 0.000000 0.000000 3.702800 
# 
# 
# High freq. dielectric constant tensor:
#      x y z
#    x 1.724780 0.000000 0.000000 
#    y 0.000000 1.713780 0.000000 
#    z 0.000000 0.000000 1.739790 
# 
# From -- ./inp_files/33040.got.cif
#   From: 2010.03.12/outbox.cif.g09.slc.cpg/sg47_17_cif.got.tgz:33040.got - 2010.04.14 03:12:58.
