data_PCOD8198389
_publ_section_title
;
Structure prediction by ZEFSAII (Michael W. Deem and Ramdas Pophale) SiO2 
 PCOD8198389
Probable space group: P M M M
;
_chemical_formula_sum "Si O2"
_cell_formula_units_Z 52
_cell_length_a 22.824425
_cell_length_b 8.847991
_cell_length_c 14.020137
_cell_angle_alpha 90.000000
_cell_angle_beta 90.000000
_cell_angle_gamma 90.000000
_cell_volume 2831.370971
_symmetry_space_group_name_H-M "P M M M"
_symmetry_group_IT_number 47
_symmetry_cell_setting 'orthorhombic'
loop_
_space_group_symop_operation_xyz
x,y,z
-x,-y,z
x,-y,-z
-x,y,-z
-x,-y,-z
x,y,-z
-x,y,z
x,-y,z
loop_
_atom_site_type_symbol
_atom_site_label
_atom_site_fract_x
_atom_site_fract_y
_atom_site_fract_z
Si Si1 0.151880 0.322800 0.391971
Si Si2 0.109901 0.822272 0.211736
Si Si3 0.724849 0.174094 0.391724
Si Si4 0.782264 0.325205 0.110632
Si Si5 0.000000 0.325538 0.887640
Si Si6 0.666207 0.325105 0.775156
Si Si7 0.567423 0.826301 0.109289
O O1 0.134093 0.279731 0.500000
O O2 0.147321 0.500000 0.373511
O O3 0.107942 0.237616 0.320612
O O4 0.218053 0.273487 0.369996
O O5 0.171073 0.778630 0.163643
O O6 0.057577 0.750618 0.153126
O O7 0.102014 0.000000 0.212085
O O8 0.703156 0.197667 0.500000
O O9 0.673641 0.229838 0.321978
O O10 0.740670 0.000000 0.372029
O O11 0.799397 0.500000 0.126595
O O12 0.718450 0.288210 0.151706
O O13 0.781751 0.282386 0.000000
O O14 0.000000 0.500000 0.858690
O O15 0.000000 0.302404 0.000000
O O16 0.664231 0.500000 0.747839
O O17 0.605385 0.279798 0.823102
O O18 0.500000 0.802524 0.137655
O O19 0.585891 0.000000 0.123965
O O20 0.577663 0.778010 0.000000
#
# Coordination Sequence:
#
# PCOD8198389 Si02
#       7
#     8   8   8   8   4   8   8
#     4  10  20  36  59  85 114 149 187 227 276 335
#     4  12  24  38  59  86 115 147 186 233 282 334
#     4  10  20  34  54  82 114 147 185 229 279 334
#     4  10  21  36  53  77 112 150 186 226 276 332
#     4  11  25  45  66  83 108 151 195 234 278 333
#     4  11  21  33  54  83 114 148 187 230 280 335
#     4   9  19  36  56  78 109 151 194 234 279 333
#
# _framework density 18.365662
#
# number of rings (size 3 to 8) (size 9 to 14) (size 15 to 20)
#    0.000    1.615    1.538    4.385    0.000    6.462 
#    0.000    1.154    0.000    2.769    0.000    3.231 
#    0.000    0.000    0.000    0.000    0.000    0.000 
#
# Total GULP energy -645055.028845 kJ/mol
# GULP energy per Si atom -12404.904401 kJ/mol
# Density = 1.832386 g / cm^3
# Si number density = 18.365662 Si / 1000 Ang^3
#
#
#
# Elastic Constant Matrix: (Units=GPa)
#
#
# Indices 1 2 3 4 5 6 
#
# 1 71.2823 47.1962 32.5728 0.0000 0.0000 0.0000
# 2 47.1962 107.7507 63.0327 0.0000 0.0000 0.0000
# 3 32.5728 63.0327 102.0456 0.0000 0.0000 0.0000
# 4 0.0000 0.0000 0.0000 29.8595 0.0000 0.0000
# 5 0.0000 0.0000 0.0000 0.0000 32.1916 0.0000
# 6 0.0000 0.0000 0.0000 0.0000 0.0000 39.8572
#
#
#
# Elastic Compliance Matrix: (Units=1/GPa)
#
#
# Indices 1 2 3 4 5 6 
#
# 1 0.019908 -0.007833 -0.001516 0.000000 0.000000 0.000000
# 2 -0.007833 0.017613 -0.008379 0.000000 0.000000 0.000000
# 3 -0.001516 -0.008379 0.015459 0.000000 0.000000 0.000000
# 4 0.000000 0.000000 0.000000 0.033490 0.000000 0.000000
# 5 0.000000 0.000000 0.000000 0.000000 0.031064 0.000000
# 6 0.000000 0.000000 0.000000 0.000000 0.000000 0.025090
#
#
# Mechanical properties :
#
#
# Convention : Reuss Voigt Hill
#
# Bulk Modulus (GPa) = 57.06607 62.96467 60.01537
# Shear Modulus (GPa) = 27.18535 29.60012 28.39273
#
# Velocity S-wave (km/s) = 3.85155 4.01897 3.93615
# Velocity P-wave (km/s) = 7.13574 7.47626 7.30798
#
# Compressibility (1/GPa) = 0.01752355
#
# Stress axis : x y z
#
# Youngs Moduli (GPa) = 50.23173 56.77478 64.68548
#
# Poissons Ratio (x) = 0.44471 0.09808
# Poissons Ratio (y) = 0.39346 0.54203
# Poissons Ratio (z) = 0.07616 0.47574
#
# Static dielectric constant tensor:
#      x y z
#    x 3.131940 0.000000 0.000000 
#    y 0.000000 3.430280 0.000000 
#    z 0.000000 0.000000 3.587670 
# 
# 
# High freq. dielectric constant tensor:
#      x y z
#    x 1.691150 0.000000 0.000000 
#    y 0.000000 1.721760 0.000000 
#    z 0.000000 0.000000 1.723740 
# 
# From -- ./inp_files/6915.got.cif
#   From: 2010.03.12/outbox.cif.g09.slc.cpg/sg47_4_cif.got.tgz:6915.got - 2010.04.14 03:12:58.
