data_PCOD8198569
_publ_section_title
;
Structure prediction by ZEFSAII (Michael W. Deem and Ramdas Pophale) SiO2 
 PCOD8198569
Probable space group: P M M M
;
_chemical_formula_sum "Si O2"
_cell_formula_units_Z 32
_cell_length_a 23.072920
_cell_length_b 10.221197
_cell_length_c 7.544394
_cell_angle_alpha 90.000000
_cell_angle_beta 90.000000
_cell_angle_gamma 90.000000
_cell_volume 1779.216019
_symmetry_space_group_name_H-M "P M M M"
_symmetry_group_IT_number 47
_symmetry_cell_setting 'orthorhombic'
loop_
_space_group_symop_operation_xyz
x,y,z
-x,-y,z
x,-y,-z
-x,y,-z
-x,-y,-z
x,y,-z
-x,y,z
x,-y,z
loop_
_atom_site_type_symbol
_atom_site_label
_atom_site_fract_x
_atom_site_fract_y
_atom_site_fract_z
Si Si1 0.136871 0.745791 0.210121
Si Si2 0.936875 0.500000 0.208878
Si Si3 0.934400 0.000000 0.208970
Si Si4 0.221112 0.657716 0.500000
Si Si5 0.435470 0.655658 0.803528
Si Si6 0.646183 0.344507 0.500000
O O1 0.096153 0.628017 0.271368
O O2 0.195157 0.725113 0.322968
O O3 0.102457 0.874912 0.270297
O O4 0.151740 0.745280 0.000000
O O5 0.000000 0.500000 0.298411
O O6 0.943039 0.500000 0.000000
O O7 0.000000 0.000000 0.290569
O O8 0.941077 0.000000 0.000000
O O9 0.213278 0.500000 0.500000
O O10 0.287763 0.701291 0.500000
O O11 0.500000 0.701037 0.744763
O O12 0.433365 0.500000 0.802934
O O13 0.387014 0.712897 0.671619
O O14 0.421374 0.708829 0.000000
O O15 0.642858 0.500000 0.500000
#
# Coordination Sequence:
#
# PCOD8198569 Si02
#       6
#     8   4   4   4   8   4
#     4  10  20  35  53  73  99 128 159 205 254 298
#     4   9  16  29  51  73  94 123 153 188 244 300
#     4   9  18  35  59  81  98 121 159 208 264 316
#     4  11  22  34  46  67  98 135 178 205 233 293
#     4   8  13  22  37  58  83 113 154 201 244 282
#     4   9  17  26  38  56  84 123 164 203 233 271
#
# _framework density 17.98545
#
# number of rings (size 3 to 8) (size 9 to 14) (size 15 to 20)
#    0.000    2.750    1.250    1.875    0.000    6.000 
#    0.000    6.250    0.000    0.000    0.000    0.000 
#    0.000    0.000    0.000    9.000    0.000   56.000 
#
# Total GULP energy -396577.255781 kJ/mol
# GULP energy per Si atom -12393.039243 kJ/mol
# Density = 1.794451 g / cm^3
# Si number density = 17.985450 Si / 1000 Ang^3
#
#
#
# Elastic Constant Matrix: (Units=GPa)
#
#
# Indices 1 2 3 4 5 6 
#
# 1 179.2867 46.4543 82.7702 0.0000 0.0000 0.0000
# 2 46.4543 88.8584 24.2761 0.0000 0.0000 0.0000
# 3 82.7702 24.2761 102.0132 0.0000 0.0000 0.0000
# 4 0.0000 0.0000 0.0000 2.5311 0.0000 0.0000
# 5 0.0000 0.0000 0.0000 0.0000 21.6108 0.0000
# 6 0.0000 0.0000 0.0000 0.0000 0.0000 13.4117
#
#
#
# Elastic Compliance Matrix: (Units=1/GPa)
#
#
# Indices 1 2 3 4 5 6 
#
# 1 0.009661 -0.003111 -0.007098 0.000000 0.000000 0.000000
# 2 -0.003111 0.013038 -0.000578 0.000000 0.000000 0.000000
# 3 -0.007098 -0.000578 0.015699 0.000000 0.000000 0.000000
# 4 0.000000 0.000000 0.000000 0.395083 0.000000 0.000000
# 5 0.000000 0.000000 0.000000 0.000000 0.046273 0.000000
# 6 0.000000 0.000000 0.000000 0.000000 0.000000 0.074562
#
#
# Mechanical properties :
#
#
# Convention : Reuss Voigt Hill
#
# Bulk Modulus (GPa) = 59.44171 75.23996 67.34083
# Shear Modulus (GPa) = 8.59847 21.95456 15.27652
#
# Velocity S-wave (km/s) = 2.18887 3.49762 2.91758
# Velocity P-wave (km/s) = 6.28569 7.63123 6.99091
#
# Compressibility (1/GPa) = 0.01682320
#
# Stress axis : x y z
#
# Youngs Moduli (GPa) = 103.51206 76.69630 63.69693
#
# Poissons Ratio (x) = 0.23863 0.45212
# Poissons Ratio (y) = 0.32206 0.03684
# Poissons Ratio (z) = 0.73473 0.04435
#
# Static dielectric constant tensor:
#      x y z
#    x 3.478080 0.000000 0.000000 
#    y 0.000000 2.979190 0.000000 
#    z 0.000000 0.000000 3.392160 
# 
# 
# High freq. dielectric constant tensor:
#      x y z
#    x 1.694300 0.000000 0.000000 
#    y 0.000000 1.645240 0.000000 
#    z 0.000000 0.000000 1.700480 
# 
# From -- ./inp_files/12244.got.cif
#   From: 2010.03.12/outbox.cif.g09.slc.cpg/sg47_7_cif.got.tgz:12244.got - 2010.04.14 03:12:58.
