data_PCOD8198673
_publ_section_title
;
Structure prediction by ZEFSAII (Michael W. Deem and Ramdas Pophale) SiO2 
 PCOD8198673
Probable space group: P M M M
;
_chemical_formula_sum "Si O2"
_cell_formula_units_Z 52
_cell_length_a 27.010826
_cell_length_b 8.731990
_cell_length_c 12.035298
_cell_angle_alpha 90.000000
_cell_angle_beta 90.000000
_cell_angle_gamma 90.000000
_cell_volume 2838.624475
_symmetry_space_group_name_H-M "P M M M"
_symmetry_group_IT_number 47
_symmetry_cell_setting 'orthorhombic'
loop_
_space_group_symop_operation_xyz
x,y,z
-x,-y,z
x,-y,-z
-x,y,-z
-x,-y,-z
x,y,-z
-x,y,z
x,-y,z
loop_
_atom_site_type_symbol
_atom_site_label
_atom_site_fract_x
_atom_site_fract_y
_atom_site_fract_z
Si Si1 0.322764 0.820507 0.127704
Si Si2 0.944472 0.818020 0.000000
Si Si3 0.055597 0.326553 0.630278
Si Si4 0.122063 0.178215 0.201965
Si Si5 0.500000 0.818899 0.872879
Si Si6 0.219354 0.676257 0.872117
Si Si7 0.444086 0.681440 0.500000
Si Si8 0.410012 0.680957 0.739112
O O1 0.266870 0.777128 0.159110
O O2 0.357182 0.730006 0.213273
O O3 0.330970 0.000000 0.143941
O O4 0.334389 0.772248 0.000000
O O5 0.914725 0.758854 0.107019
O O6 0.000000 0.748113 0.000000
O O7 0.947660 0.000000 0.000000
O O8 0.062098 0.313892 0.500000
O O9 0.066105 0.500000 0.670058
O O10 0.094921 0.210147 0.682343
O O11 0.000000 0.277864 0.664944
O O12 0.173614 0.268560 0.201805
O O13 0.133628 0.000000 0.186681
O O14 0.451518 0.756771 0.814212
O O15 0.500000 0.000000 0.865629
O O16 0.500000 0.762751 0.000000
O O17 0.231542 0.500000 0.846588
O O18 0.204738 0.702276 0.000000
O O19 0.446922 0.500000 0.500000
O O20 0.500000 0.748622 0.500000
O O21 0.415544 0.737750 0.611060
O O22 0.416171 0.500000 0.746229
#
# Coordination Sequence:
#
# PCOD8198673 Si02
#       8
#     8   4   8   8   4   8   4   8
#     4  10  21  37  57  82 114 145 177 223 279 327
#     4   9  18  30  45  73 113 149 177 210 263 326
#     4   9  19  36  55  75 103 140 181 225 272 322
#     4  11  20  32  53  79 111 145 179 222 273 326
#     4  11  23  36  51  78 118 153 182 223 276 323
#     4  10  20  35  56  81 109 143 185 225 267 327
#     4   9  18  36  58  82 112 148 186 226 269 316
#     4  11  21  36  59  83 110 146 188 228 269 323
#
# _framework density 18.318732000000001
#
# number of rings (size 3 to 8) (size 9 to 14) (size 15 to 20)
#    0.000    1.923    1.538    3.462    0.000    5.231 
#    0.000    2.692    1.692    1.846    0.000    0.000 
#    0.000    0.000    0.000    0.000    0.000    0.000 
#
# Total GULP energy -644914.900986 kJ/mol
# GULP energy per Si atom -12402.209634 kJ/mol
# Density = 1.827704 g / cm^3
# Si number density = 18.318732 Si / 1000 Ang^3
#
#
#
# Elastic Constant Matrix: (Units=GPa)
#
#
# Indices 1 2 3 4 5 6 
#
# 1 109.2775 18.8901 58.0767 0.0000 0.0000 0.0000
# 2 18.8901 47.0634 30.6691 0.0000 0.0000 0.0000
# 3 58.0767 30.6691 104.4210 0.0000 0.0000 0.0000
# 4 0.0000 0.0000 0.0000 22.9958 0.0000 0.0000
# 5 0.0000 0.0000 0.0000 0.0000 26.5259 0.0000
# 6 0.0000 0.0000 0.0000 0.0000 0.0000 33.2141
#
#
#
# Elastic Compliance Matrix: (Units=1/GPa)
#
#
# Indices 1 2 3 4 5 6 
#
# 1 0.013006 -0.000626 -0.007050 0.000000 0.000000 0.000000
# 2 -0.000626 0.026307 -0.007378 0.000000 0.000000 0.000000
# 3 -0.007050 -0.007378 0.015665 0.000000 0.000000 0.000000
# 4 0.000000 0.000000 0.000000 0.043486 0.000000 0.000000
# 5 0.000000 0.000000 0.000000 0.000000 0.037699 0.000000
# 6 0.000000 0.000000 0.000000 0.000000 0.000000 0.030108
#
#
# Mechanical properties :
#
#
# Convention : Reuss Voigt Hill
#
# Bulk Modulus (GPa) = 40.21022 52.89265 46.55143
# Shear Modulus (GPa) = 24.42968 26.75555 25.59262
#
# Velocity S-wave (km/s) = 3.65580 3.82587 3.74180
# Velocity P-wave (km/s) = 6.31013 6.96079 6.64343
#
# Compressibility (1/GPa) = 0.02486930
#
# Stress axis : x y z
#
# Youngs Moduli (GPa) = 76.88823 38.01208 63.83849
#
# Poissons Ratio (x) = 0.02381 0.45004
# Poissons Ratio (y) = 0.04816 0.47102
# Poissons Ratio (z) = 0.54203 0.28047
#
# Static dielectric constant tensor:
#      x y z
#    x 3.416250 0.000000 0.000000 
#    y 0.000000 3.297710 0.000000 
#    z 0.000000 0.000000 3.376940 
# 
# 
# High freq. dielectric constant tensor:
#      x y z
#    x 1.714330 0.000000 0.000000 
#    y 0.000000 1.705890 0.000000 
#    z 0.000000 0.000000 1.698950 
# 
# From -- ./inp_files/19889.got.cif
#   From: 2010.03.12/outbox.cif.g09.slc.cpg/sg47_10_cif.got.tgz:19889.got - 2010.04.14 03:12:58.
