data_PCOD8198739
_publ_section_title
;
Structure prediction by ZEFSAII (Michael W. Deem and Ramdas Pophale) SiO2 
 PCOD8198739
Probable space group: P M M M
;
_chemical_formula_sum "Si O2"
_cell_formula_units_Z 40
_cell_length_a 25.817631
_cell_length_b 9.005203
_cell_length_c 9.057570
_cell_angle_alpha 90.000000
_cell_angle_beta 90.000000
_cell_angle_gamma 90.000000
_cell_volume 2105.821696
_symmetry_space_group_name_H-M "P M M M"
_symmetry_group_IT_number 47
_symmetry_cell_setting 'orthorhombic'
loop_
_space_group_symop_operation_xyz
x,y,z
-x,-y,z
x,-y,-z
-x,y,-z
-x,-y,-z
x,y,-z
-x,y,z
x,-y,z
loop_
_atom_site_type_symbol
_atom_site_label
_atom_site_fract_x
_atom_site_fract_y
_atom_site_fract_z
Si Si1 0.801512 0.176481 0.166228
Si Si2 0.300303 0.171786 0.328422
Si Si3 0.000000 0.675230 0.829463
Si Si4 0.095715 0.174665 0.671810
Si Si5 0.405585 0.326491 0.671289
Si Si6 0.500000 0.169721 0.174330
O O1 0.748620 0.236010 0.238892
O O2 0.850322 0.232898 0.260500
O O3 0.800451 0.000000 0.168124
O O4 0.806028 0.238351 0.000000
O O5 0.287884 0.194176 0.500000
O O6 0.350124 0.264508 0.278192
O O7 0.310980 0.000000 0.291322
O O8 0.050344 0.740041 0.752655
O O9 0.000000 0.500000 0.809999
O O10 0.000000 0.723088 0.000000
O O11 0.094953 0.214591 0.500000
O O12 0.088205 0.000000 0.698210
O O13 0.415683 0.290845 0.500000
O O14 0.407305 0.500000 0.703915
O O15 0.449148 0.248162 0.765904
O O16 0.500000 0.000000 0.227718
O O17 0.500000 0.182970 0.000000
#
# Coordination Sequence:
#
# PCOD8198739 Si02
#       6
#     8   8   4   8   8   4
#     4   9  17  30  51  79 108 138 175 221 269 313
#     4   9  17  31  52  77 105 138 176 218 263 312
#     4  11  24  39  54  76 108 143 178 219 270 326
#     4  10  20  35  57  83 108 138 180 225 267 316
#     4  10  21  37  57  81 109 142 180 220 264 317
#     4  11  24  39  56  80 108 139 178 223 270 320
#
# _framework density 18.994959999999999
#
# number of rings (size 3 to 8) (size 9 to 14) (size 15 to 20)
#    0.000    2.200    0.000    3.000    0.000    9.600 
#    0.000    3.000    0.000    3.600    0.000    0.000 
#    0.000    0.000    0.000    0.000    0.000    0.000 
#
# Total GULP energy -496126.902202 kJ/mol
# GULP energy per Si atom -12403.172555 kJ/mol
# Density = 1.895173 g / cm^3
# Si number density = 18.994960 Si / 1000 Ang^3
#
#
#
# Elastic Constant Matrix: (Units=GPa)
#
#
# Indices 1 2 3 4 5 6 
#
# 1 189.7744 65.3852 93.3045 0.0000 0.0000 0.0000
# 2 65.3852 68.9880 53.0325 0.0000 0.0000 0.0000
# 3 93.3045 53.0325 125.7712 0.0000 0.0000 0.0000
# 4 0.0000 0.0000 0.0000 22.3938 0.0000 0.0000
# 5 0.0000 0.0000 0.0000 0.0000 2985.1183 0.0000
# 6 0.0000 0.0000 0.0000 0.0000 0.0000 -51.2479
#
#
#
# Elastic Compliance Matrix: (Units=1/GPa)
#
#
# Indices 1 2 3 4 5 6 
#
# 1 0.009433 -0.005269 -0.004776 0.000000 0.000000 0.000000
# 2 -0.005269 0.024390 -0.006376 0.000000 0.000000 0.000000
# 3 -0.004776 -0.006376 0.014183 0.000000 0.000000 0.000000
# 4 0.000000 0.000000 0.000000 0.044655 0.000000 0.000000
# 5 0.000000 0.000000 0.000000 0.000000 0.000335 0.000000
# 6 0.000000 0.000000 0.000000 0.000000 0.000000 -0.019513
#
#
# Mechanical properties :
#
#
# Convention : Reuss Voigt Hill
#
# Bulk Modulus (GPa) = 65.94458 89.77532 77.85995
# Shear Modulus (GPa) = 44.89178 602.77358 323.83268
#
# Velocity S-wave (km/s) = 4.86671 17.83318 13.07110
# Velocity P-wave (km/s) = 8.14690 21.71163 16.39767
#
# Compressibility (1/GPa) = 0.01516425
#
# Stress axis : x y z
#
# Youngs Moduli (GPa) = 106.00990 41.00070 70.50855
#
# Poissons Ratio (x) = 0.21602 0.33678
# Poissons Ratio (y) = 0.55854 0.44953
# Poissons Ratio (z) = 0.50635 0.26140
#
# Static dielectric constant tensor:
#      x y z
#    x 3.671950 0.000000 0.000000 
#    y 0.000000 3.292170 0.000000 
#    z 0.000000 0.000000 3.591400 
# 
# 
# High freq. dielectric constant tensor:
#      x y z
#    x 1.757540 0.000000 0.000000 
#    y 0.000000 1.714600 0.000000 
#    z 0.000000 0.000000 1.744300 
# 
# From -- ./inp_files/12975.got.cif
#   From: 2010.03.12/outbox.cif.g09.slc.cpg/sg47_7_cif.got.tgz:12975.got - 2010.04.14 03:12:58.
