data_PCOD8198828
_publ_section_title
;
Structure prediction by ZEFSAII (Michael W. Deem and Ramdas Pophale) SiO2 
 PCOD8198828
Probable space group: P M M M
;
_chemical_formula_sum "Si O2"
_cell_formula_units_Z 48
_cell_length_a 19.028483
_cell_length_b 15.064962
_cell_length_c 8.857606
_cell_angle_alpha 90.000000
_cell_angle_beta 90.000000
_cell_angle_gamma 90.000000
_cell_volume 2539.151215
_symmetry_space_group_name_H-M "P M M M"
_symmetry_group_IT_number 47
_symmetry_cell_setting 'orthorhombic'
loop_
_space_group_symop_operation_xyz
x,y,z
-x,-y,z
x,-y,-z
-x,y,-z
-x,-y,-z
x,y,-z
-x,y,z
x,-y,z
loop_
_atom_site_type_symbol
_atom_site_label
_atom_site_fract_x
_atom_site_fract_y
_atom_site_fract_z
Si Si1 0.322601 0.102184 0.174996
Si Si2 0.175521 0.341856 0.177993
Si Si3 0.317255 0.398921 0.673338
Si Si4 0.419326 0.758496 0.324764
Si Si5 0.921421 0.500000 0.820522
Si Si6 0.078825 0.000000 0.679510
Si Si7 0.822433 0.156552 0.678713
O O1 0.387795 0.161470 0.227400
O O2 0.254482 0.129403 0.268090
O O3 0.341947 0.000000 0.206086
O O4 0.306921 0.119798 0.000000
O O5 0.253127 0.373589 0.219767
O O6 0.119372 0.413340 0.237782
O O7 0.154622 0.250649 0.256636
O O8 0.171840 0.329214 0.000000
O O9 0.293361 0.386152 0.500000
O O10 0.341236 0.500000 0.704274
O O11 0.381913 0.334756 0.713104
O O12 0.410555 0.782977 0.500000
O O13 0.500000 0.747116 0.278387
O O14 0.000000 0.500000 0.752999
O O15 0.923049 0.500000 0.000000
O O16 0.120283 0.086278 0.738331
O O17 0.076266 0.000000 0.500000
O O18 0.000000 0.000000 0.747008
O O19 0.820853 0.161075 0.500000
#
# Coordination Sequence:
#
# PCOD8198828 Si02
#       7
#     8   8   8   8   4   4   8
#     4  11  23  38  59  86 116 151 194 240 288 342
#     4  11  21  35  58  86 114 151 196 239 284 339
#     4  10  20  35  58  86 116 151 191 236 284 340
#     4  10  22  39  59  86 119 155 193 235 287 344
#     4   9  20  38  57  81 118 159 194 234 288 344
#     4   9  20  38  59  85 118 153 188 233 291 348
#     4  11  21  36  60  87 115 151 193 237 287 344
#
# _framework density 18.903956000000001
#
# number of rings (size 3 to 8) (size 9 to 14) (size 15 to 20)
#    0.000    1.667    3.333    1.500    0.000    2.667 
#    0.000    3.333    0.000    7.000    0.000    2.333 
#    0.000    0.000    0.000    0.000    0.000    0.000 
#
# Total GULP energy -595375.868242 kJ/mol
# GULP energy per Si atom -12403.663922 kJ/mol
# Density = 1.886093 g / cm^3
# Si number density = 18.903956 Si / 1000 Ang^3
#
#
#
# Elastic Constant Matrix: (Units=GPa)
#
#
# Indices 1 2 3 4 5 6 
#
# 1 151.7402 84.0272 36.3343 0.0000 0.0000 0.0000
# 2 84.0272 186.2135 52.2903 0.0000 0.0000 0.0000
# 3 36.3343 52.2903 65.1922 0.0000 0.0000 0.0000
# 4 0.0000 0.0000 0.0000 29.7622 0.0000 0.0000
# 5 0.0000 0.0000 0.0000 0.0000 15.0440 0.0000
# 6 0.0000 0.0000 0.0000 0.0000 0.0000 35.3880
#
#
#
# Elastic Compliance Matrix: (Units=1/GPa)
#
#
# Indices 1 2 3 4 5 6 
#
# 1 0.009041 -0.003439 -0.002280 0.000000 0.000000 0.000000
# 2 -0.003439 0.008240 -0.004692 0.000000 0.000000 0.000000
# 3 -0.002280 -0.004692 0.020374 0.000000 0.000000 0.000000
# 4 0.000000 0.000000 0.000000 0.033600 0.000000 0.000000
# 5 0.000000 0.000000 0.000000 0.000000 0.066472 0.000000
# 6 0.000000 0.000000 0.000000 0.000000 0.000000 0.028258
#
#
# Mechanical properties :
#
#
# Convention : Reuss Voigt Hill
#
# Bulk Modulus (GPa) = 59.41458 83.16106 71.28782
# Shear Modulus (GPa) = 25.98523 31.40513 28.69518
#
# Velocity S-wave (km/s) = 3.71157 4.08033 3.90031
# Velocity P-wave (km/s) = 7.06156 8.14160 7.62074
#
# Compressibility (1/GPa) = 0.01683089
#
# Stress axis : x y z
#
# Youngs Moduli (GPa) = 110.61085 121.36337 49.08298
#
# Poissons Ratio (x) = 0.41740 0.11192
# Poissons Ratio (y) = 0.38042 0.23031
# Poissons Ratio (z) = 0.25221 0.56946
#
# Static dielectric constant tensor:
#      x y z
#    x 3.510430 0.000000 0.000000 
#    y 0.000000 3.865340 0.000000 
#    z 0.000000 0.000000 3.350560 
# 
# 
# High freq. dielectric constant tensor:
#      x y z
#    x 1.730530 0.000000 0.000000 
#    y 0.000000 1.753930 0.000000 
#    z 0.000000 0.000000 1.723180 
# 
# From -- ./inp_files/6477.got.cif
#   From: 2010.03.12/outbox.cif.g09.slc.cpg/sg47_4_cif.got.tgz:6477.got - 2010.04.14 03:12:58.
