data_PCOD8198696
_publ_section_title
;
Structure prediction by ZEFSAII (Michael W. Deem and Ramdas Pophale) SiO2 
 PCOD8198696
Probable space group: P M M M
;
_chemical_formula_sum "Si O2"
_cell_formula_units_Z 40
_cell_length_a 15.767545
_cell_length_b 9.033977
_cell_length_c 13.546675
_cell_angle_alpha 90.000000
_cell_angle_beta 90.000000
_cell_angle_gamma 90.000000
_cell_volume 1929.637682
_symmetry_space_group_name_H-M "P M M M"
_symmetry_group_IT_number 47
_symmetry_cell_setting 'orthorhombic'
loop_
_space_group_symop_operation_xyz
x,y,z
-x,-y,z
x,-y,-z
-x,y,-z
-x,-y,-z
x,y,-z
-x,y,z
x,-y,z
loop_
_atom_site_type_symbol
_atom_site_label
_atom_site_fract_x
_atom_site_fract_y
_atom_site_fract_z
Si Si1 0.331084 0.332165 0.383324
Si Si2 0.000000 0.670843 0.383825
Si Si3 0.165700 0.171950 0.694489
Si Si4 0.500000 0.170267 0.618210
Si Si5 0.591018 0.331869 0.117208
Si Si6 0.753697 0.169529 0.890675
O O1 0.338360 0.335552 0.500000
O O2 0.325305 0.500000 0.341900
O O3 0.247536 0.241137 0.356496
O O4 0.415936 0.253676 0.339703
O O5 0.917556 0.746277 0.340152
O O6 0.000000 0.500000 0.353282
O O7 0.000000 0.692144 0.500000
O O8 0.169624 0.191686 0.813867
O O9 0.160803 0.000000 0.664818
O O10 0.500000 0.176096 0.500000
O O11 0.500000 0.000000 0.654457
O O12 0.500000 0.265068 0.152980
O O13 0.597763 0.500000 0.152195
O O14 0.671826 0.246247 0.160332
O O15 0.595753 0.319558 0.000000
O O16 0.728687 0.000000 0.901496
O O17 0.777728 0.233347 0.000000
#
# Coordination Sequence:
#
# PCOD8198696 Si02
#       6
#     8   4   8   4   8   8
#     4  10  20  35  56  83 117 155 193 236 290 350
#     4  11  25  45  68  93 120 148 181 231 296 361
#     4  11  23  39  61  89 117 151 194 240 290 348
#     4   9  17  31  53  81 114 153 196 241 287 342
#     4   8  14  26  46  73 105 144 192 242 288 332
#     4   9  19  36  56  80 113 153 195 239 287 338
#
# _framework density 20.729281
#
# number of rings (size 3 to 8) (size 9 to 14) (size 15 to 20)
#    0.000    2.400    0.000    3.000    0.000    7.600 
#    1.800    2.500    0.000    3.000    0.000    0.000 
#    0.000    0.000    0.000    0.000    0.000    0.000 
#
# Total GULP energy -495865.587406 kJ/mol
# GULP energy per Si atom -12396.639685 kJ/mol
# Density = 2.068210 g / cm^3
# Si number density = 20.729281 Si / 1000 Ang^3
#
#
#
# Elastic Constant Matrix: (Units=GPa)
#
#
# Indices 1 2 3 4 5 6 
#
# 1 181.0993 96.0090 47.2148 0.0000 0.0000 0.0000
# 2 96.0090 145.9627 40.8439 0.0000 0.0000 0.0000
# 3 47.2148 40.8439 36.4701 0.0000 0.0000 0.0000
# 4 0.0000 0.0000 0.0000 13.3614 0.0000 0.0000
# 5 0.0000 0.0000 0.0000 0.0000 30.9173 0.0000
# 6 0.0000 0.0000 0.0000 0.0000 0.0000 47.4550
#
#
#
# Elastic Compliance Matrix: (Units=1/GPa)
#
#
# Indices 1 2 3 4 5 6 
#
# 1 0.009861 -0.004244 -0.008013 0.000000 0.000000 0.000000
# 2 -0.004244 0.011804 -0.007726 0.000000 0.000000 0.000000
# 3 -0.008013 -0.007726 0.046446 0.000000 0.000000 0.000000
# 4 0.000000 0.000000 0.000000 0.074843 0.000000 0.000000
# 5 0.000000 0.000000 0.000000 0.000000 0.032344 0.000000
# 6 0.000000 0.000000 0.000000 0.000000 0.000000 0.021073
#
#
# Mechanical properties :
#
#
# Convention : Reuss Voigt Hill
#
# Bulk Modulus (GPa) = 35.52964 81.29639 58.41302
# Shear Modulus (GPa) = 20.34846 30.31103 25.32975
#
# Velocity S-wave (km/s) = 3.13649 3.82806 3.49940
# Velocity P-wave (km/s) = 5.50398 7.67086 6.67592
#
# Compressibility (1/GPa) = 0.02814551
#
# Stress axis : x y z
#
# Youngs Moduli (GPa) = 101.41167 84.71417 21.53021
#
# Poissons Ratio (x) = 0.35951 0.17253
# Poissons Ratio (y) = 0.43037 0.16634
# Poissons Ratio (z) = 0.81263 0.65450
#
# Static dielectric constant tensor:
#      x y z
#    x 3.928600 0.000000 0.000000 
#    y 0.000000 3.909000 0.000000 
#    z 0.000000 0.000000 3.912360 
# 
# 
# High freq. dielectric constant tensor:
#      x y z
#    x 1.798750 0.000000 0.000000 
#    y 0.000000 1.812830 0.000000 
#    z 0.000000 0.000000 1.825270 
# 
# From -- ./inp_files/23348.got.cif
#   From: 2010.03.12/outbox.cif.g09.slc.cpg/sg47_12_cif.got.tgz:23348.got - 2010.04.14 03:12:58.
