data_PCOD8198501
_publ_section_title
;
Structure prediction by ZEFSAII (Michael W. Deem and Ramdas Pophale) SiO2 
 PCOD8198501
Probable space group: P M M M
;
_chemical_formula_sum "Si O2"
_cell_formula_units_Z 48
_cell_length_a 8.643921
_cell_length_b 29.428027
_cell_length_c 9.632000
_cell_angle_alpha 90.000000
_cell_angle_beta 90.000000
_cell_angle_gamma 90.000000
_cell_volume 2450.125943
_symmetry_space_group_name_H-M "P M M M"
_symmetry_group_IT_number 47
_symmetry_cell_setting 'orthorhombic'
loop_
_space_group_symop_operation_xyz
x,y,z
-x,-y,z
x,-y,-z
-x,y,-z
-x,-y,-z
x,y,-z
-x,y,z
x,-y,z
loop_
_atom_site_type_symbol
_atom_site_label
_atom_site_fract_x
_atom_site_fract_y
_atom_site_fract_z
Si Si1 0.681605 0.199929 0.338953
Si Si2 0.320678 0.641491 0.661894
Si Si3 0.182980 0.049889 0.500000
Si Si4 0.680563 0.948979 0.000000
Si Si5 0.182050 0.107227 0.755895
Si Si6 0.172864 0.549563 0.335850
Si Si7 0.818913 0.280478 0.162786
O O1 0.735185 0.205714 0.500000
O O2 0.500000 0.190810 0.332477
O O3 0.770538 0.159139 0.264020
O O4 0.721688 0.243932 0.249386
O O5 0.273692 0.649616 0.500000
O O6 0.500000 0.653012 0.683589
O O7 0.289500 0.589505 0.708923
O O8 0.218075 0.671686 0.764905
O O9 0.242152 0.078451 0.627699
O O10 0.000000 0.045327 0.500000
O O11 0.259730 0.000000 0.500000
O O12 0.730041 0.917868 0.875280
O O13 0.500000 0.955862 0.000000
O O14 0.757137 0.000000 0.000000
O O15 0.000000 0.104947 0.781786
O O16 0.167464 0.547197 0.500000
O O17 0.229098 0.500000 0.278954
O O18 0.000000 0.560077 0.279376
O O19 0.000000 0.269787 0.176473
O O20 0.769575 0.280801 0.000000
#
# Coordination Sequence:
#
# PCOD8198501 Si02
#       7
#     8   8   4   4   8   8   8
#     4  11  24  42  64  90 121 153 189 235 294 356
#     4  10  20  34  55  85 119 154 193 238 293 351
#     4   9  18  34  59  91 121 149 189 239 286 331
#     4  11  25  43  61  87 125 165 201 239 288 343
#     4  11  22  39  64  91 121 156 197 242 287 340
#     4   8  14  26  47  77 113 153 196 240 286 337
#     4  11  25  42  61  85 113 149 196 244 292 348
#
# _framework density 19.59083
#
# number of rings (size 3 to 8) (size 9 to 14) (size 15 to 20)
#    0.000    1.833    0.833    3.750    1.167    7.000 
#    0.000    1.667    0.000    2.500    0.000    3.500 
#    0.000    0.000    0.000    0.000    0.000    0.000 
#
# Total GULP energy -594974.114062 kJ/mol
# GULP energy per Si atom -12395.294043 kJ/mol
# Density = 1.954624 g / cm^3
# Si number density = 19.590830 Si / 1000 Ang^3
#
#
#
# Elastic Constant Matrix: (Units=GPa)
#
#
# Indices 1 2 3 4 5 6 
#
# 1 56.6150 15.2961 26.7924 0.0000 0.0000 0.0000
# 2 15.2961 124.2052 47.1004 0.0000 0.0000 0.0000
# 3 26.7924 47.1004 114.7034 0.0000 0.0000 0.0000
# 4 0.0000 0.0000 0.0000 23.5214 0.0000 0.0000
# 5 0.0000 0.0000 0.0000 0.0000 6.8204 0.0000
# 6 0.0000 0.0000 0.0000 0.0000 0.0000 -44.5669
#
#
#
# Elastic Compliance Matrix: (Units=1/GPa)
#
#
# Indices 1 2 3 4 5 6 
#
# 1 0.019928 -0.000816 -0.004320 0.000000 0.000000 0.000000
# 2 -0.000816 0.009570 -0.003739 0.000000 0.000000 0.000000
# 3 -0.004320 -0.003739 0.011262 0.000000 0.000000 0.000000
# 4 0.000000 0.000000 0.000000 0.042515 0.000000 0.000000
# 5 0.000000 0.000000 0.000000 0.000000 0.146619 0.000000
# 6 0.000000 0.000000 0.000000 0.000000 0.000000 -0.022438
#
#
# Mechanical properties :
#
#
# Convention : Reuss Voigt Hill
#
# Bulk Modulus (GPa) = 43.45830 52.65573 48.05701
# Shear Modulus (GPa) = 21.47080 10.91061 16.19071
#
# Velocity S-wave (km/s) = 3.31412 2.36248 2.87791
# Velocity P-wave (km/s) = 6.07254 5.86326 5.96882
#
# Compressibility (1/GPa) = 0.02301057
#
# Stress axis : x y z
#
# Youngs Moduli (GPa) = 50.18099 104.49820 88.79095
#
# Poissons Ratio (x) = 0.08528 0.38354
# Poissons Ratio (y) = 0.04095 0.33198
# Poissons Ratio (z) = 0.21676 0.39071
#
# Static dielectric constant tensor:
#      x y z
#    x 3.484580 0.000000 0.000000 
#    y 0.000000 4.003600 0.000000 
#    z 0.000000 0.000000 3.465230 
# 
# 
# High freq. dielectric constant tensor:
#      x y z
#    x 1.757930 0.000000 0.000000 
#    y 0.000000 1.783440 0.000000 
#    z 0.000000 0.000000 1.747430 
# 
# From -- ./inp_files/2555.got.cif
#   From: 2010.03.12/outbox.cif.g09.slc.cpg/sg47_2_cif.got.tgz:2555.got - 2010.04.14 03:12:58.
