data_PCOD8198482
_publ_section_title
;
Structure prediction by ZEFSAII (Michael W. Deem and Ramdas Pophale) SiO2 
 PCOD8198482
Probable space group: P M M M
;
_chemical_formula_sum "Si O2"
_cell_formula_units_Z 48
_cell_length_a 9.088414
_cell_length_b 29.158350
_cell_length_c 9.671728
_cell_angle_alpha 90.000000
_cell_angle_beta 90.000000
_cell_angle_gamma 90.000000
_cell_volume 2563.038447
_symmetry_space_group_name_H-M "P M M M"
_symmetry_group_IT_number 47
_symmetry_cell_setting 'orthorhombic'
loop_
_space_group_symop_operation_xyz
x,y,z
-x,-y,z
x,-y,-z
-x,y,-z
-x,-y,-z
x,y,-z
-x,y,z
x,-y,z
loop_
_atom_site_type_symbol
_atom_site_label
_atom_site_fract_x
_atom_site_fract_y
_atom_site_fract_z
Si Si1 0.826923 0.794884 0.160766
Si Si2 0.339600 0.053405 0.000000
Si Si3 0.827474 0.639937 0.161641
Si Si4 0.335781 0.449667 0.163614
Si Si5 0.827075 0.102498 0.230218
Si Si6 0.325517 0.282176 0.662119
Si Si7 0.826286 0.051773 0.500000
O O1 0.775326 0.845826 0.201049
O O2 0.737449 0.762544 0.263091
O O3 0.000000 0.787581 0.186657
O O4 0.788810 0.784859 0.000000
O O5 0.248165 0.067122 0.131094
O O6 0.500000 0.077353 0.000000
O O7 0.360292 0.000000 0.000000
O O8 0.779647 0.589033 0.210351
O O9 0.741354 0.674278 0.260217
O O10 0.000000 0.645914 0.186102
O O11 0.787760 0.648927 0.000000
O O12 0.500000 0.437681 0.218690
O O13 0.286996 0.500000 0.220468
O O14 0.339739 0.451725 0.000000
O O15 0.773030 0.083757 0.376127
O O16 0.000000 0.099359 0.208488
O O17 0.280397 0.282309 0.500000
O O18 0.500000 0.283076 0.678978
O O19 0.000000 0.045866 0.500000
O O20 0.756938 0.000000 0.500000
#
# Coordination Sequence:
#
# PCOD8198482 Si02
#       7
#     8   4   8   8   8   8   4
#     4  10  21  38  60  86 111 138 180 228 279 335
#     4  11  23  37  55  83 117 151 187 225 270 323
#     4  10  20  34  55  84 115 148 188 234 283 331
#     4   8  14  26  47  77 113 152 191 230 275 328
#     4  10  20  37  60  85 112 146 185 228 274 324
#     4  11  25  41  57  80 109 145 188 228 276 338
#     4   9  18  32  55  87 115 143 185 229 268 317
#
# _framework density 18.727771000000001
#
# number of rings (size 3 to 8) (size 9 to 14) (size 15 to 20)
#    0.000    2.167    0.833    2.750    1.167    7.000 
#    0.000    2.083    0.000    2.000    0.000    3.500 
#    0.000    0.000    0.000    0.000    0.000    0.000 
#
# Total GULP energy -594954.910082 kJ/mol
# GULP energy per Si atom -12394.893960 kJ/mol
# Density = 1.868515 g / cm^3
# Si number density = 18.727771 Si / 1000 Ang^3
#
#
#
# Elastic Constant Matrix: (Units=GPa)
#
#
# Indices 1 2 3 4 5 6 
#
# 1 59.2423 50.6907 51.4221 0.0000 0.0000 0.0000
# 2 50.6907 129.5267 65.4237 0.0000 0.0000 0.0000
# 3 51.4221 65.4237 132.1638 0.0000 0.0000 0.0000
# 4 0.0000 0.0000 0.0000 25.6961 0.0000 0.0000
# 5 0.0000 0.0000 0.0000 0.0000 18.1438 0.0000
# 6 0.0000 0.0000 0.0000 0.0000 0.0000 30.1476
#
#
#
# Elastic Compliance Matrix: (Units=1/GPa)
#
#
# Indices 1 2 3 4 5 6 
#
# 1 0.030600 -0.007950 -0.007971 0.000000 0.000000 0.000000
# 2 -0.007950 0.012360 -0.003025 0.000000 0.000000 0.000000
# 3 -0.007971 -0.003025 0.012165 0.000000 0.000000 0.000000
# 4 0.000000 0.000000 0.000000 0.038916 0.000000 0.000000
# 5 0.000000 0.000000 0.000000 0.000000 0.055115 0.000000
# 6 0.000000 0.000000 0.000000 0.000000 0.000000 0.033170
#
#
# Mechanical properties :
#
#
# Convention : Reuss Voigt Hill
#
# Bulk Modulus (GPa) = 58.02465 72.88953 65.45709
# Shear Modulus (GPa) = 22.12753 25.02392 23.57572
#
# Velocity S-wave (km/s) = 3.44108 3.65936 3.55190
# Velocity P-wave (km/s) = 6.84386 7.54053 7.20063
#
# Compressibility (1/GPa) = 0.01723406
#
# Stress axis : x y z
#
# Youngs Moduli (GPa) = 32.67922 80.90918 82.20188
#
# Poissons Ratio (x) = 0.64319 0.65521
# Poissons Ratio (y) = 0.25979 0.24868
# Poissons Ratio (z) = 0.26048 0.24477
#
# Static dielectric constant tensor:
#      x y z
#    x 3.395000 0.000000 0.000000 
#    y 0.000000 3.805570 0.000000 
#    z 0.000000 0.000000 3.359470 
# 
# 
# High freq. dielectric constant tensor:
#      x y z
#    x 1.717560 0.000000 0.000000 
#    y 0.000000 1.744230 0.000000 
#    z 0.000000 0.000000 1.713360 
# 
# From -- ./inp_files/2646.got.cif
#   From: 2010.03.12/outbox.cif.g09.slc.cpg/sg47_2_cif.got.tgz:2646.got - 2010.04.14 03:12:58.
