data_PCOD8198623
_publ_section_title
;
Structure prediction by ZEFSAII (Michael W. Deem and Ramdas Pophale) SiO2 
 PCOD8198623
Probable space group: P M M M
;
_chemical_formula_sum "Si O2"
_cell_formula_units_Z 44
_cell_length_a 9.712161
_cell_length_b 9.011042
_cell_length_c 26.854349
_cell_angle_alpha 90.000000
_cell_angle_beta 90.000000
_cell_angle_gamma 90.000000
_cell_volume 2350.203755
_symmetry_space_group_name_H-M "P M M M"
_symmetry_group_IT_number 47
_symmetry_cell_setting 'orthorhombic'
loop_
_space_group_symop_operation_xyz
x,y,z
-x,-y,z
x,-y,-z
-x,y,-z
-x,-y,-z
x,y,-z
-x,y,z
x,-y,z
loop_
_atom_site_type_symbol
_atom_site_label
_atom_site_fract_x
_atom_site_fract_y
_atom_site_fract_z
Si Si1 0.159100 0.823129 0.500000
Si Si2 0.000000 0.329926 0.058941
Si Si3 0.839263 0.670854 0.213360
Si Si4 0.657927 0.176091 0.592047
Si Si5 0.239361 0.175656 0.115938
Si Si6 0.500000 0.825069 0.944754
Si Si7 0.842125 0.826480 0.684288
O O1 0.246102 0.763675 0.547276
O O2 0.000000 0.762795 0.500000
O O3 0.152721 0.000000 0.500000
O O4 0.127286 0.245457 0.080927
O O5 0.000000 0.500000 0.077017
O O6 0.000000 0.316813 0.000000
O O7 0.795280 0.500000 0.212751
O O8 0.756468 0.759032 0.171411
O O9 0.800418 0.737574 0.266644
O O10 0.000000 0.691669 0.201943
O O11 0.500000 0.238720 0.589697
O O12 0.734949 0.227036 0.642290
O O13 0.651348 0.000000 0.588984
O O14 0.373923 0.228766 0.087816
O O15 0.220369 0.000000 0.119702
O O16 0.500000 0.000000 0.951302
O O17 0.500000 0.751720 0.000000
O O18 0.000000 0.791403 0.667897
O O19 0.825776 0.000000 0.695393
#
# Coordination Sequence:
#
# PCOD8198623 Si02
#       7
#     4   4   8   8   8   4   8
#     4   9  15  23  39  65 100 139 176 213 262 318
#     4  11  23  37  55  83 117 147 179 222 269 322
#     4  10  20  35  55  78 107 138 173 221 273 323
#     4   9  16  26  41  66 100 136 172 217 267 314
#     4  11  21  36  60  84 108 141 182 226 273 324
#     4   9  20  38  57  81 111 139 173 220 269 320
#     4   9  17  30  49  71  97 131 175 217 257 311
#
# _framework density 18.721782000000001
#
# number of rings (size 3 to 8) (size 9 to 14) (size 15 to 20)
#    0.000    2.273    0.909    2.727    0.000    5.455 
#    1.636    1.818    0.000    3.273    0.000    0.636 
#    0.000    5.091    0.000    0.000    0.000    0.000 
#
# Total GULP energy -545450.659298 kJ/mol
# GULP energy per Si atom -12396.605893 kJ/mol
# Density = 1.867917 g / cm^3
# Si number density = 18.721782 Si / 1000 Ang^3
#
#
#
# Elastic Constant Matrix: (Units=GPa)
#
#
# Indices 1 2 3 4 5 6 
#
# 1 160.1003 41.6410 94.7765 0.0000 0.0000 0.0000
# 2 41.6410 67.7328 57.4446 0.0000 0.0000 0.0000
# 3 94.7765 57.4446 168.3440 0.0000 0.0000 0.0000
# 4 0.0000 0.0000 0.0000 10.8045 0.0000 0.0000
# 5 0.0000 0.0000 0.0000 0.0000 38.1132 0.0000
# 6 0.0000 0.0000 0.0000 0.0000 0.0000 19.3949
#
#
#
# Elastic Compliance Matrix: (Units=1/GPa)
#
#
# Indices 1 2 3 4 5 6 
#
# 1 0.009529 -0.001841 -0.004736 0.000000 0.000000 0.000000
# 2 -0.001841 0.021133 -0.006175 0.000000 0.000000 0.000000
# 3 -0.004736 -0.006175 0.010714 0.000000 0.000000 0.000000
# 4 0.000000 0.000000 0.000000 0.092554 0.000000 0.000000
# 5 0.000000 0.000000 0.000000 0.000000 0.026238 0.000000
# 6 0.000000 0.000000 0.000000 0.000000 0.000000 0.051560
#
#
# Mechanical properties :
#
#
# Convention : Reuss Voigt Hill
#
# Bulk Modulus (GPa) = 63.00876 87.10015 75.05445
# Shear Modulus (GPa) = 20.61675 27.15017 23.88346
#
# Velocity S-wave (km/s) = 3.32206 3.81227 3.57558
# Velocity P-wave (km/s) = 6.96011 8.12418 7.56457
#
# Compressibility (1/GPa) = 0.01587081
#
# Stress axis : x y z
#
# Youngs Moduli (GPa) = 104.94476 47.32048 93.33828
#
# Poissons Ratio (x) = 0.08713 0.44209
# Poissons Ratio (y) = 0.19323 0.57632
# Poissons Ratio (z) = 0.49706 0.29218
#
# Static dielectric constant tensor:
#      x y z
#    x 3.537350 0.000000 0.000000 
#    y 0.000000 3.123840 0.000000 
#    z 0.000000 0.000000 3.616780 
# 
# 
# High freq. dielectric constant tensor:
#      x y z
#    x 1.726670 0.000000 0.000000 
#    y 0.000000 1.690580 0.000000 
#    z 0.000000 0.000000 1.744860 
# 
# From -- ./inp_files/34001.got.cif
#   From: 2010.03.12/outbox.cif.g09.slc.cpg/sg47_18_cif.got.tgz:34001.got - 2010.04.14 03:12:58.
