data_PCOD8198207
_publ_section_title
;
Structure prediction by ZEFSAII (Michael W. Deem and Ramdas Pophale) SiO2 
 PCOD8198207
Probable space group: P M M M
;
_chemical_formula_sum "Si O2"
_cell_formula_units_Z 56
_cell_length_a 14.134536
_cell_length_b 9.450041
_cell_length_c 22.647072
_cell_angle_alpha 90.000000
_cell_angle_beta 90.000000
_cell_angle_gamma 90.000000
_cell_volume 3025.013449
_symmetry_space_group_name_H-M "P M M M"
_symmetry_group_IT_number 47
_symmetry_cell_setting 'orthorhombic'
loop_
_space_group_symop_operation_xyz
x,y,z
-x,-y,z
x,-y,-z
-x,y,-z
-x,-y,-z
x,y,-z
-x,y,z
x,-y,z
loop_
_atom_site_type_symbol
_atom_site_label
_atom_site_fract_x
_atom_site_fract_y
_atom_site_fract_z
Si Si1 0.112189 0.661446 0.500000
Si Si2 0.604565 0.165400 0.885303
Si Si3 0.800237 0.665089 0.279227
Si Si4 0.887888 0.835677 0.386318
Si Si5 0.202919 0.782446 0.933284
Si Si6 0.107976 0.846401 0.819571
Si Si7 0.103858 0.500000 0.068912
Si Si8 0.604723 0.339843 0.769504
O O1 0.152852 0.500000 0.500000
O O2 0.147858 0.748922 0.556683
O O3 0.000000 0.654797 0.500000
O O4 0.500000 0.208893 0.908744
O O5 0.682815 0.212040 0.932947
O O6 0.627394 0.237455 0.823361
O O7 0.610332 0.000000 0.873779
O O8 0.829872 0.500000 0.286502
O O9 0.840723 0.760738 0.330898
O O10 0.840493 0.724495 0.217600
O O11 0.685940 0.681452 0.279745
O O12 0.000000 0.825215 0.378996
O O13 0.856506 0.000000 0.391466
O O14 0.157646 0.879868 0.882927
O O15 0.166424 0.631139 0.911905
O O16 0.169730 0.822976 0.000000
O O17 0.000000 0.798845 0.829867
O O18 0.111673 0.000000 0.786630
O O19 0.000000 0.500000 0.099759
O O20 0.087435 0.500000 0.000000
O O21 0.500000 0.307416 0.742579
O O22 0.608642 0.500000 0.793720
#
# Coordination Sequence:
#
# PCOD8198207 Si02
#       8
#     4   8   8   8   8   8   4   8
#     4   9  17  31  53  81 116 157 200 237 265 304
#     4  10  21  36  56  81 107 136 171 217 276 341
#     4  11  22  35  56  82 108 141 182 227 274 326
#     4  10  20  34  53  80 118 159 194 228 268 313
#     4  11  23  38  57  78 102 135 176 224 276 337
#     4  11  24  38  52  74 105 138 175 222 274 328
#     4   9  20  38  57  77 101 129 168 217 266 321
#     4   9  19  36  57  79 104 136 176 224 277 333
#
# _framework density 18.512314
#
# number of rings (size 3 to 8) (size 9 to 14) (size 15 to 20)
#    0.000    1.857    1.429    2.357    2.000    6.571 
#    0.000    1.429    0.000    1.286    0.000    0.500 
#    0.000    4.000    0.000    0.000    0.000    0.000 
#
# Total GULP energy -694019.680052 kJ/mol
# GULP energy per Si atom -12393.208572 kJ/mol
# Density = 1.847018 g / cm^3
# Si number density = 18.512314 Si / 1000 Ang^3
#
#
#
# Elastic Constant Matrix: (Units=GPa)
#
#
# Indices 1 2 3 4 5 6 
#
# 1 101.2983 42.2157 36.6249 0.0000 0.0000 0.0000
# 2 42.2157 127.0940 45.5326 0.0000 0.0000 0.0000
# 3 36.6249 45.5326 100.3571 0.0000 0.0000 0.0000
# 4 0.0000 0.0000 0.0000 16.6566 0.0000 0.0000
# 5 0.0000 0.0000 0.0000 0.0000 18.6730 0.0000
# 6 0.0000 0.0000 0.0000 0.0000 0.0000 23.1653
#
#
#
# Elastic Compliance Matrix: (Units=1/GPa)
#
#
# Indices 1 2 3 4 5 6 
#
# 1 0.012229 -0.002941 -0.003128 0.000000 0.000000 0.000000
# 2 -0.002941 0.010103 -0.003510 0.000000 0.000000 0.000000
# 3 -0.003128 -0.003510 0.012699 0.000000 0.000000 0.000000
# 4 0.000000 0.000000 0.000000 0.060036 0.000000 0.000000
# 5 0.000000 0.000000 0.000000 0.000000 0.053553 0.000000
# 6 0.000000 0.000000 0.000000 0.000000 0.000000 0.043168
#
#
# Mechanical properties :
#
#
# Convention : Reuss Voigt Hill
#
# Bulk Modulus (GPa) = 63.01008 64.16620 63.58814
# Shear Modulus (GPa) = 23.12273 25.32406 24.22339
#
# Velocity S-wave (km/s) = 3.53802 3.70260 3.62125
# Velocity P-wave (km/s) = 7.12747 7.28118 7.20474
#
# Compressibility (1/GPa) = 0.01587048
#
# Stress axis : x y z
#
# Youngs Moduli (GPa) = 81.77545 98.98329 78.74785
#
# Poissons Ratio (x) = 0.29112 0.24635
# Poissons Ratio (y) = 0.24051 0.27643
# Poissons Ratio (z) = 0.25583 0.34746
#
# Static dielectric constant tensor:
#      x y z
#    x 3.622210 0.000000 0.000000 
#    y 0.000000 3.902830 0.000000 
#    z 0.000000 0.000000 3.180580 
# 
# 
# High freq. dielectric constant tensor:
#      x y z
#    x 1.712620 0.000000 0.000000 
#    y 0.000000 1.738100 0.000000 
#    z 0.000000 0.000000 1.686980 
# 
# From -- ./inp_files/31067.got.cif
#   From: 2010.03.12/outbox.cif.g09.slc.cpg/sg47_16_cif.got.tgz:31067.got - 2010.04.14 03:12:58.
