data_PCOD8198686
_publ_section_title
;
Structure prediction by ZEFSAII (Michael W. Deem and Ramdas Pophale) SiO2 
 PCOD8198686
Probable space group: P M M M
;
_chemical_formula_sum "Si O2"
_cell_formula_units_Z 48
_cell_length_a 15.641781
_cell_length_b 17.799882
_cell_length_c 8.858680
_cell_angle_alpha 90.000000
_cell_angle_beta 90.000000
_cell_angle_gamma 90.000000
_cell_volume 2466.450128
_symmetry_space_group_name_H-M "P M M M"
_symmetry_group_IT_number 47
_symmetry_cell_setting 'orthorhombic'
loop_
_space_group_symop_operation_xyz
x,y,z
-x,-y,z
x,-y,-z
-x,y,-z
-x,-y,-z
x,y,-z
-x,y,z
x,-y,z
loop_
_atom_site_type_symbol
_atom_site_label
_atom_site_fract_x
_atom_site_fract_y
_atom_site_fract_z
Si Si1 0.174364 0.844125 0.178912
Si Si2 0.593160 0.655307 0.321580
Si Si3 0.765749 0.583819 0.679922
Si Si4 0.500000 0.911532 0.830507
Si Si5 0.095617 0.000000 0.179335
Si Si6 0.903030 0.704549 0.674743
Si Si7 0.356685 0.821401 0.677777
O O1 0.143717 0.925571 0.237493
O O2 0.107373 0.780915 0.231044
O O3 0.263767 0.825638 0.253028
O O4 0.182596 0.842953 0.000000
O O5 0.594841 0.646400 0.500000
O O6 0.500000 0.627183 0.260230
O O7 0.672671 0.608082 0.254173
O O8 0.602659 0.742034 0.276775
O O9 0.763966 0.585555 0.500000
O O10 0.786252 0.500000 0.738977
O O11 0.839220 0.640315 0.738450
O O12 0.415073 0.886500 0.744569
O O13 0.500000 0.000000 0.833689
O O14 0.500000 0.878693 0.000000
O O15 0.000000 0.000000 0.246251
O O16 0.091999 0.000000 0.000000
O O17 0.882059 0.721536 0.500000
O O18 0.000000 0.675504 0.694673
O O19 0.350274 0.831688 0.500000
#
# Coordination Sequence:
#
# PCOD8198686 Si02
#       7
#     8   8   8   4   4   8   8
#     4  11  22  37  59  84 112 147 189 236 291 351
#     4   9  16  29  51  78 108 142 181 228 278 331
#     4   9  17  30  50  79 115 150 186 235 292 345
#     4  11  25  41  57  83 120 155 196 242 286 342
#     4   9  20  38  57  78 107 142 181 229 284 343
#     4  10  20  35  56  82 113 149 191 240 289 343
#     4  11  21  37  59  83 113 150 193 239 288 339
#
# _framework density 19.461168000000001
#
# number of rings (size 3 to 8) (size 9 to 14) (size 15 to 20)
#    0.000    2.000    2.500    1.750    1.167    2.333 
#    0.000    4.583    0.000    3.500    0.000    1.167 
#    0.000    2.000    0.000    0.000    0.000    0.000 
#
# Total GULP energy -595154.798318 kJ/mol
# GULP energy per Si atom -12399.058298 kJ/mol
# Density = 1.941687 g / cm^3
# Si number density = 19.461168 Si / 1000 Ang^3
#
#
#
# Elastic Constant Matrix: (Units=GPa)
#
#
# Indices 1 2 3 4 5 6 
#
# 1 139.9063 57.9449 22.2555 0.0000 0.0000 0.0000
# 2 57.9449 126.3018 31.7536 0.0000 0.0000 0.0000
# 3 22.2555 31.7536 47.3321 0.0000 0.0000 0.0000
# 4 0.0000 0.0000 0.0000 10.4789 0.0000 0.0000
# 5 0.0000 0.0000 0.0000 0.0000 10.9927 0.0000
# 6 0.0000 0.0000 0.0000 0.0000 0.0000 30.4176
#
#
#
# Elastic Compliance Matrix: (Units=1/GPa)
#
#
# Indices 1 2 3 4 5 6 
#
# 1 0.008943 -0.003664 -0.001747 0.000000 0.000000 0.000000
# 2 -0.003664 0.011025 -0.005674 0.000000 0.000000 0.000000
# 3 -0.001747 -0.005674 0.025755 0.000000 0.000000 0.000000
# 4 0.000000 0.000000 0.000000 0.095430 0.000000 0.000000
# 5 0.000000 0.000000 0.000000 0.000000 0.090969 0.000000
# 6 0.000000 0.000000 0.000000 0.000000 0.000000 0.032876
#
#
# Mechanical properties :
#
#
# Convention : Reuss Voigt Hill
#
# Bulk Modulus (GPa) = 42.45544 59.71647 51.08595
# Shear Modulus (GPa) = 16.94815 23.81691 20.38253
#
# Velocity S-wave (km/s) = 2.95425 3.50211 3.23978
# Velocity P-wave (km/s) = 5.78789 6.86327 6.34839
#
# Compressibility (1/GPa) = 0.02355411
#
# Stress axis : x y z
#
# Youngs Moduli (GPa) = 111.82031 90.70530 38.82736
#
# Poissons Ratio (x) = 0.33231 0.06784
# Poissons Ratio (y) = 0.40966 0.22029
# Poissons Ratio (z) = 0.19537 0.51462
#
# Static dielectric constant tensor:
#      x y z
#    x 3.792500 0.000000 0.000000 
#    y 0.000000 3.725960 0.000000 
#    z 0.000000 0.000000 3.204930 
# 
# 
# High freq. dielectric constant tensor:
#      x y z
#    x 1.777710 0.000000 0.000000 
#    y 0.000000 1.759490 0.000000 
#    z 0.000000 0.000000 1.714040 
# 
# From -- ./inp_files/6420.got.cif
#   From: 2010.03.12/outbox.cif.g09.slc.cpg/sg47_4_cif.got.tgz:6420.got - 2010.04.14 03:12:58.
