data_PCOD8198393
_publ_section_title
;
Structure prediction by ZEFSAII (Michael W. Deem and Ramdas Pophale) SiO2 
 PCOD8198393
Probable space group: P M M M
;
_chemical_formula_sum "Si O2"
_cell_formula_units_Z 64
_cell_length_a 9.029006
_cell_length_b 14.304909
_cell_length_c 25.453795
_cell_angle_alpha 90.000000
_cell_angle_beta 90.000000
_cell_angle_gamma 90.000000
_cell_volume 3287.589488
_symmetry_space_group_name_H-M "P M M M"
_symmetry_group_IT_number 47
_symmetry_cell_setting 'orthorhombic'
loop_
_space_group_symop_operation_xyz
x,y,z
-x,-y,z
x,-y,-z
-x,y,-z
-x,-y,-z
x,y,-z
-x,y,z
x,-y,z
loop_
_atom_site_type_symbol
_atom_site_label
_atom_site_fract_x
_atom_site_fract_y
_atom_site_fract_z
Si Si1 0.829056 0.608156 0.658297
Si Si2 0.830497 0.731118 0.058685
Si Si3 0.173215 0.392160 0.156943
Si Si4 0.333709 0.898601 0.437554
Si Si5 0.670646 0.894586 0.892002
Si Si6 0.826474 0.894249 0.782211
Si Si7 0.324721 0.283130 0.251213
Si Si8 0.172265 0.281972 0.441684
O O1 0.796334 0.500000 0.666294
O O2 0.721428 0.663670 0.696364
O O3 0.790767 0.633844 0.597922
O O4 0.000000 0.632280 0.671229
O O5 0.787909 0.650160 0.099904
O O6 0.726950 0.822127 0.064524
O O7 0.000000 0.762573 0.067028
O O8 0.805957 0.690845 0.000000
O O9 0.222750 0.500000 0.157132
O O10 0.263972 0.336598 0.200454
O O11 0.000000 0.382559 0.170156
O O12 0.330500 0.897343 0.500000
O O13 0.500000 0.884248 0.416758
O O14 0.235773 0.813483 0.416273
O O15 0.273343 0.000000 0.417792
O O16 0.500000 0.874588 0.877636
O O17 0.769769 0.878344 0.840937
O O18 0.690060 0.000000 0.913707
O O19 0.741709 0.821543 0.744794
O O20 0.000000 0.872430 0.781095
O O21 0.792434 0.000000 0.763172
O O22 0.500000 0.277635 0.247561
O O23 0.238548 0.304455 0.500000
O O24 0.000000 0.265779 0.447105
#
# Coordination Sequence:
#
# PCOD8198393 Si02
#       8
#     8   8   8   8   8   8   8   8
#     4  10  22  40  60  82 112 151 192 235 285 339
#     4  10  21  36  55  81 113 151 195 240 285 338
#     4  10  21  38  60  83 109 146 191 237 288 344
#     4   8  14  26  46  73 106 145 185 221 263 321
#     4  10  20  34  54  82 115 151 189 229 279 337
#     4  10  20  36  61  89 116 148 185 226 276 337
#     4  12  24  38  60  88 117 147 184 233 283 335
#     4   9  18  33  55  84 114 145 186 235 284 333
#
# _framework density 19.46715
#
# number of rings (size 3 to 8) (size 9 to 14) (size 15 to 20)
#    0.000    2.125    1.250    2.625    0.000    5.250 
#    0.000    5.625    0.000    0.750    0.000    4.375 
#    0.000    0.000    0.000    0.000    0.000    0.000 
#
# Total GULP energy -793533.066287 kJ/mol
# GULP energy per Si atom -12398.954161 kJ/mol
# Density = 1.942284 g / cm^3
# Si number density = 19.467150 Si / 1000 Ang^3
#
#
#
# Elastic Constant Matrix: (Units=GPa)
#
#
# Indices 1 2 3 4 5 6 
#
# 1 89.6621 59.0243 46.0667 0.0000 0.0000 0.0000
# 2 59.0243 126.2435 52.7556 0.0000 0.0000 0.0000
# 3 46.0667 52.7556 90.6809 0.0000 0.0000 0.0000
# 4 0.0000 0.0000 0.0000 26.9100 0.0000 0.0000
# 5 0.0000 0.0000 0.0000 0.0000 12.2260 0.0000
# 6 0.0000 0.0000 0.0000 0.0000 0.0000 18.5645
#
#
#
# Elastic Compliance Matrix: (Units=1/GPa)
#
#
# Indices 1 2 3 4 5 6 
#
# 1 0.018053 -0.006088 -0.005629 0.000000 0.000000 0.000000
# 2 -0.006088 0.012519 -0.004190 0.000000 0.000000 0.000000
# 3 -0.005629 -0.004190 0.016325 0.000000 0.000000 0.000000
# 4 0.000000 0.000000 0.000000 0.037161 0.000000 0.000000
# 5 0.000000 0.000000 0.000000 0.000000 0.081793 0.000000
# 6 0.000000 0.000000 0.000000 0.000000 0.000000 0.053866
#
#
# Mechanical properties :
#
#
# Convention : Reuss Voigt Hill
#
# Bulk Modulus (GPa) = 66.30539 69.14219 67.72379
# Shear Modulus (GPa) = 19.48871 21.45610 20.47241
#
# Velocity S-wave (km/s) = 3.16746 3.32350 3.24642
# Velocity P-wave (km/s) = 6.89283 7.09380 6.99404
#
# Compressibility (1/GPa) = 0.01508173
#
# Stress axis : x y z
#
# Youngs Moduli (GPa) = 55.39258 79.88035 61.25555
#
# Poissons Ratio (x) = 0.48633 0.34482
# Poissons Ratio (y) = 0.33724 0.25667
# Poissons Ratio (z) = 0.31181 0.33471
#
# Static dielectric constant tensor:
#      x y z
#    x 3.527420 0.000000 0.000000 
#    y 0.000000 3.866750 0.000000 
#    z 0.000000 0.000000 3.428240 
# 
# 
# High freq. dielectric constant tensor:
#      x y z
#    x 1.751240 0.000000 0.000000 
#    y 0.000000 1.766520 0.000000 
#    z 0.000000 0.000000 1.740010 
# 
# From -- ./inp_files/25539.got.cif
#   From: 2010.03.12/outbox.cif.g09.slc.cpg/sg47_13_cif.got.tgz:25539.got - 2010.04.14 03:12:58.
