data_PCOD8198225
_publ_section_title
;
Structure prediction by ZEFSAII (Michael W. Deem and Ramdas Pophale) SiO2 
 PCOD8198225
Probable space group: P M M M
;
_chemical_formula_sum "Si O2"
_cell_formula_units_Z 48
_cell_length_a 8.075674
_cell_length_b 32.607981
_cell_length_c 9.438794
_cell_angle_alpha 90.000000
_cell_angle_beta 90.000000
_cell_angle_gamma 90.000000
_cell_volume 2485.531068
_symmetry_space_group_name_H-M "P M M M"
_symmetry_group_IT_number 47
_symmetry_cell_setting 'orthorhombic'
loop_
_space_group_symop_operation_xyz
x,y,z
-x,-y,z
x,-y,-z
-x,y,-z
-x,-y,-z
x,y,-z
-x,y,z
x,-y,z
loop_
_atom_site_type_symbol
_atom_site_label
_atom_site_fract_x
_atom_site_fract_y
_atom_site_fract_z
Si Si1 0.810313 0.659642 0.157340
Si Si2 0.690899 0.586203 0.338065
Si Si3 0.309395 0.100555 0.166270
Si Si4 0.811808 0.500000 0.667797
Si Si5 0.692071 0.254546 0.841927
Si Si6 0.304921 0.181060 0.658002
Si Si7 0.000000 0.954347 0.832570
O O1 0.791445 0.620107 0.254348
O O2 0.717531 0.699597 0.220305
O O3 0.000000 0.671842 0.150426
O O4 0.741137 0.649442 0.000000
O O5 0.752431 0.587413 0.500000
O O6 0.500000 0.596987 0.324688
O O7 0.724737 0.541042 0.272534
O O8 0.500000 0.086115 0.200060
O O9 0.261221 0.141081 0.251691
O O10 0.171965 0.067371 0.215681
O O11 0.293017 0.110315 0.000000
O O12 0.793346 0.500000 0.500000
O O13 0.000000 0.500000 0.719005
O O14 0.500000 0.244599 0.853399
O O15 0.773070 0.220696 0.737873
O O16 0.771870 0.251796 0.000000
O O17 0.227469 0.177716 0.500000
O O18 0.500000 0.186281 0.644630
O O19 0.000000 0.000000 0.766248
O O20 0.000000 0.956872 0.000000
#
# Coordination Sequence:
#
# PCOD8198225 Si02
#       7
#     8   8   8   4   8   8   4
#     4  10  21  36  52  73 103 137 171 209 256 308
#     4  10  20  34  54  78 102 131 169 211 253 301
#     4   9  17  31  52  76 103 138 176 214 262 315
#     4   9  17  31  52  77 104 133 164 202 252 305
#     4   9  17  31  51  72  97 132 171 209 251 303
#     4   9  17  30  50  75 102 132 168 211 255 301
#     4   9  18  32  51  79 109 135 173 223 265 306
#
# _framework density 19.311767
#
# number of rings (size 3 to 8) (size 9 to 14) (size 15 to 20)
#    0.000    2.667    0.000    1.750    0.000    6.000 
#    1.500    4.167    0.000    3.500    0.000    2.333 
#    0.000    0.000    0.000    0.000    0.000    0.000 
#
# Total GULP energy -594962.205025 kJ/mol
# GULP energy per Si atom -12395.045938 kJ/mol
# Density = 1.926781 g / cm^3
# Si number density = 19.311767 Si / 1000 Ang^3
#
#
#
# Elastic Constant Matrix: (Units=GPa)
#
#
# Indices 1 2 3 4 5 6 
#
# 1 61.9236 42.2186 24.0468 0.0000 0.0000 0.0000
# 2 42.2186 165.8794 64.9535 0.0000 0.0000 0.0000
# 3 24.0468 64.9535 73.1622 0.0000 0.0000 0.0000
# 4 0.0000 0.0000 0.0000 11.0016 0.0000 0.0000
# 5 0.0000 0.0000 0.0000 0.0000 14.2553 0.0000
# 6 0.0000 0.0000 0.0000 0.0000 0.0000 22.8638
#
#
#
# Elastic Compliance Matrix: (Units=1/GPa)
#
#
# Indices 1 2 3 4 5 6 
#
# 1 0.020002 -0.003858 -0.003149 0.000000 0.000000 0.000000
# 2 -0.003858 0.009985 -0.007597 0.000000 0.000000 0.000000
# 3 -0.003149 -0.007597 0.021448 0.000000 0.000000 0.000000
# 4 0.000000 0.000000 0.000000 0.090896 0.000000 0.000000
# 5 0.000000 0.000000 0.000000 0.000000 0.070149 0.000000
# 6 0.000000 0.000000 0.000000 0.000000 0.000000 0.043737
#
#
# Mechanical properties :
#
#
# Convention : Reuss Voigt Hill
#
# Bulk Modulus (GPa) = 44.98990 62.60033 53.79512
# Shear Modulus (GPa) = 17.07454 20.94057 19.00756
#
# Velocity S-wave (km/s) = 2.97670 3.29651 3.14068
# Velocity P-wave (km/s) = 5.92971 6.85385 6.40846
#
# Compressibility (1/GPa) = 0.02222721
#
# Stress axis : x y z
#
# Youngs Moduli (GPa) = 49.99505 100.15087 46.62481
#
# Poissons Ratio (x) = 0.38634 0.14684
# Poissons Ratio (y) = 0.19286 0.35420
# Poissons Ratio (z) = 0.15746 0.76082
#
# Static dielectric constant tensor:
#      x y z
#    x 3.382060 0.000000 0.000000 
#    y 0.000000 3.634680 0.000000 
#    z 0.000000 0.000000 3.500390 
# 
# 
# High freq. dielectric constant tensor:
#      x y z
#    x 1.741220 0.000000 0.000000 
#    y 0.000000 1.756450 0.000000 
#    z 0.000000 0.000000 1.723240 
# 
# From -- ./inp_files/2753.got.cif
#   From: 2010.03.12/outbox.cif.g09.slc.cpg/sg47_2_cif.got.tgz:2753.got - 2010.04.14 03:12:58.
