data_PCOD8198734
_publ_section_title
;
Structure prediction by ZEFSAII (Michael W. Deem and Ramdas Pophale) SiO2 
 PCOD8198734
Probable space group: P M M M
;
_chemical_formula_sum "Si O2"
_cell_formula_units_Z 48
_cell_length_a 9.244673
_cell_length_b 8.912080
_cell_length_c 30.955055
_cell_angle_alpha 90.000000
_cell_angle_beta 90.000000
_cell_angle_gamma 90.000000
_cell_volume 2550.364240
_symmetry_space_group_name_H-M "P M M M"
_symmetry_group_IT_number 47
_symmetry_cell_setting 'orthorhombic'
loop_
_space_group_symop_operation_xyz
x,y,z
-x,-y,z
x,-y,-z
-x,y,-z
-x,-y,-z
x,y,-z
-x,y,z
x,-y,z
loop_
_atom_site_type_symbol
_atom_site_label
_atom_site_fract_x
_atom_site_fract_y
_atom_site_fract_z
Si Si1 0.831112 0.825952 0.664082
Si Si2 0.660024 0.677954 0.836861
Si Si3 0.671895 0.168990 0.500000
Si Si4 0.162433 0.320903 0.917332
Si Si5 0.330051 0.673062 0.259972
Si Si6 0.666012 0.323463 0.586567
Si Si7 0.336674 0.678849 0.000000
O O1 0.760649 0.780352 0.709301
O O2 0.761379 0.729458 0.626265
O O3 0.000000 0.789843 0.666113
O O4 0.800506 0.000000 0.655196
O O5 0.500000 0.744250 0.845692
O O6 0.651491 0.500000 0.840217
O O7 0.769129 0.742262 0.872843
O O8 0.712157 0.721520 0.788790
O O9 0.500000 0.174985 0.500000
O O10 0.729746 0.250953 0.542844
O O11 0.731359 0.000000 0.500000
O O12 0.162132 0.500000 0.917259
O O13 0.254885 0.259892 0.957656
O O14 0.000000 0.258330 0.921225
O O15 0.500000 0.696554 0.268151
O O16 0.288531 0.500000 0.268748
O O17 0.500000 0.274200 0.594586
O O18 0.678580 0.500000 0.581615
O O19 0.337213 0.500000 0.000000
O O20 0.500000 0.741228 0.000000
#
# Coordination Sequence:
#
# PCOD8198734 Si02
#       7
#     8   8   4   8   8   8   4
#     4  11  24  38  51  72 103 136 169 206 250 300
#     4   8  14  25  40  58  81 108 141 184 233 285
#     4   9  17  31  54  83 112 141 172 208 252 299
#     4   9  15  21  30  47  72 103 142 186 230 280
#     4   9  18  33  53  75  96 122 161 206 249 297
#     4  10  20  35  57  83 108 135 171 213 253 296
#     4   9  15  21  29  41  63 101 146 189 234 281
#
# _framework density 18.820841000000001
#
# number of rings (size 3 to 8) (size 9 to 14) (size 15 to 20)
#    0.000    2.667    0.000    3.500    0.000    9.333 
#    0.000    2.083    0.000    2.500    0.000    0.000 
#    0.000    0.000    0.000    0.750    0.000   14.833 
#
# Total GULP energy -595158.308919 kJ/mol
# GULP energy per Si atom -12399.131436 kJ/mol
# Density = 1.877800 g / cm^3
# Si number density = 18.820841 Si / 1000 Ang^3
#
#
#
# Elastic Constant Matrix: (Units=GPa)
#
#
# Indices 1 2 3 4 5 6 
#
# 1 106.3311 25.7690 73.0914 0.0000 0.0000 0.0000
# 2 25.7690 42.8669 30.1909 0.0000 0.0000 0.0000
# 3 73.0914 30.1909 161.5080 0.0000 0.0000 0.0000
# 4 0.0000 0.0000 0.0000 2.0734 0.0000 0.0000
# 5 0.0000 0.0000 0.0000 0.0000 6.0999 0.0000
# 6 0.0000 0.0000 0.0000 0.0000 0.0000 17.6977
#
#
#
# Elastic Compliance Matrix: (Units=1/GPa)
#
#
# Indices 1 2 3 4 5 6 
#
# 1 0.014427 -0.004692 -0.005652 0.000000 0.000000 0.000000
# 2 -0.004692 0.028391 -0.003184 0.000000 0.000000 0.000000
# 3 -0.005652 -0.003184 0.009345 0.000000 0.000000 0.000000
# 4 0.000000 0.000000 0.000000 0.482300 0.000000 0.000000
# 5 0.000000 0.000000 0.000000 0.000000 0.163937 0.000000
# 6 0.000000 0.000000 0.000000 0.000000 0.000000 0.056505
#
#
# Mechanical properties :
#
#
# Convention : Reuss Voigt Hill
#
# Bulk Modulus (GPa) = 39.82945 63.20098 51.51521
# Shear Modulus (GPa) = 6.32649 17.28451 11.80550
#
# Velocity S-wave (km/s) = 1.83541 3.03375 2.50723
# Velocity P-wave (km/s) = 5.06952 6.77678 5.98434
#
# Compressibility (1/GPa) = 0.02510705
#
# Stress axis : x y z
#
# Youngs Moduli (GPa) = 69.31599 35.22262 107.01414
#
# Poissons Ratio (x) = 0.16526 0.60482
# Poissons Ratio (y) = 0.32522 0.34071
# Poissons Ratio (z) = 0.39176 0.11214
#
# Static dielectric constant tensor:
#      x y z
#    x 3.475600 0.000000 0.000000 
#    y 0.000000 3.001740 0.000000 
#    z 0.000000 0.000000 3.720820 
# 
# 
# High freq. dielectric constant tensor:
#      x y z
#    x 1.721570 0.000000 0.000000 
#    y 0.000000 1.683500 0.000000 
#    z 0.000000 0.000000 1.750560 
# 
# From -- ./inp_files/34202.got.cif
#   From: 2010.03.12/outbox.cif.g09.slc.cpg/sg47_18_cif.got.tgz:34202.got - 2010.04.14 03:12:58.
