data_PCOD8198494
_publ_section_title
;
Structure prediction by ZEFSAII (Michael W. Deem and Ramdas Pophale) SiO2 
 PCOD8198494
Probable space group: P M M M
;
_chemical_formula_sum "Si O2"
_cell_formula_units_Z 40
_cell_length_a 8.938887
_cell_length_b 15.604453
_cell_length_c 14.362513
_cell_angle_alpha 90.000000
_cell_angle_beta 90.000000
_cell_angle_gamma 90.000000
_cell_volume 2003.375837
_symmetry_space_group_name_H-M "P M M M"
_symmetry_group_IT_number 47
_symmetry_cell_setting 'orthorhombic'
loop_
_space_group_symop_operation_xyz
x,y,z
-x,-y,z
x,-y,-z
-x,y,-z
-x,-y,-z
x,y,-z
-x,y,z
x,-y,z
loop_
_atom_site_type_symbol
_atom_site_label
_atom_site_fract_x
_atom_site_fract_y
_atom_site_fract_z
Si Si1 0.675139 0.346518 0.894922
Si Si2 0.172545 0.166568 0.104631
Si Si3 0.828104 0.595847 0.718665
Si Si4 0.672585 0.905089 0.272048
Si Si5 0.677148 0.253981 0.605347
O O1 0.500000 0.351388 0.874119
O O2 0.727903 0.250015 0.878462
O O3 0.761175 0.406726 0.822827
O O4 0.711861 0.377049 0.000000
O O5 0.230395 0.096515 0.177518
O O6 0.000000 0.189501 0.123267
O O7 0.194384 0.130787 0.000000
O O8 0.811099 0.500000 0.677072
O O9 0.742174 0.662080 0.653723
O O10 0.000000 0.623900 0.723729
O O11 0.500000 0.888464 0.246691
O O12 0.731003 0.833093 0.343873
O O13 0.693415 0.000000 0.316331
O O14 0.737101 0.249941 0.500000
O O15 0.500000 0.261456 0.608066
#
# Coordination Sequence:
#
# PCOD8198494 Si02
#       5
#     8   8   8   8   8
#     4  10  20  35  58  87 119 156 197 240 288 343
#     4  10  20  34  55  84 119 159 199 238 285 342
#     4  11  24  40  60  88 121 157 196 239 291 350
#     4  10  21  37  59  88 120 155 196 241 291 348
#     4  10  22  41  64  88 115 151 196 246 299 352
#
# _framework density 19.9663
#
# number of rings (size 3 to 8) (size 9 to 14) (size 15 to 20)
#    0.000    1.800    2.000    1.800    0.000    6.400 
#    0.000    8.000    0.000    0.000    0.000    2.800 
#    0.000    0.000    0.000    0.000    0.000    0.000 
#
# Total GULP energy -496035.712660 kJ/mol
# GULP energy per Si atom -12400.892817 kJ/mol
# Density = 1.992086 g / cm^3
# Si number density = 19.966300 Si / 1000 Ang^3
#
#
#
# Elastic Constant Matrix: (Units=GPa)
#
#
# Indices 1 2 3 4 5 6 
#
# 1 32.6827 19.9465 32.9759 0.0000 0.0000 0.0000
# 2 19.9465 113.2125 58.8727 0.0000 0.0000 0.0000
# 3 32.9759 58.8727 132.1361 0.0000 0.0000 0.0000
# 4 0.0000 0.0000 0.0000 13.4248 0.0000 0.0000
# 5 0.0000 0.0000 0.0000 0.0000 20.2556 0.0000
# 6 0.0000 0.0000 0.0000 0.0000 0.0000 17.2266
#
#
#
# Elastic Compliance Matrix: (Units=1/GPa)
#
#
# Indices 1 2 3 4 5 6 
#
# 1 0.041432 -0.002503 -0.009225 0.000000 0.000000 0.000000
# 2 -0.002503 0.011648 -0.004565 0.000000 0.000000 0.000000
# 3 -0.009225 -0.004565 0.011904 0.000000 0.000000 0.000000
# 4 0.000000 0.000000 0.000000 0.074489 0.000000 0.000000
# 5 0.000000 0.000000 0.000000 0.000000 0.049369 0.000000
# 6 0.000000 0.000000 0.000000 0.000000 0.000000 0.058050
#
#
# Mechanical properties :
#
#
# Convention : Reuss Voigt Hill
#
# Bulk Modulus (GPa) = 30.86520 55.73574 43.30047
# Shear Modulus (GPa) = 17.22494 21.26379 19.24436
#
# Velocity S-wave (km/s) = 2.94036 3.26695 3.10795
# Velocity P-wave (km/s) = 5.19806 6.49662 5.88328
#
# Compressibility (1/GPa) = 0.03239894
#
# Stress axis : x y z
#
# Youngs Moduli (GPa) = 24.13583 85.85308 84.00522
#
# Poissons Ratio (x) = 0.21487 0.77493
# Poissons Ratio (y) = 0.06041 0.38349
# Poissons Ratio (z) = 0.22265 0.39192
#
# Static dielectric constant tensor:
#      x y z
#    x 3.596610 0.000000 0.000000 
#    y 0.000000 3.505370 0.000000 
#    z 0.000000 0.000000 3.782860 
# 
# 
# High freq. dielectric constant tensor:
#      x y z
#    x 1.779430 0.000000 0.000000 
#    y 0.000000 1.775480 0.000000 
#    z 0.000000 0.000000 1.775590 
# 
# From -- ./inp_files/5660.got.cif
#   From: 2010.03.12/outbox.cif.g09.slc.cpg/sg47_3_cif.got.tgz:5660.got - 2010.04.14 03:12:58.
