data_PCOD8198077
_publ_section_title
;
Structure prediction by ZEFSAII (Michael W. Deem and Ramdas Pophale) SiO2 
 PCOD8198077
Probable space group: P M M M
;
_chemical_formula_sum "Si O2"
_cell_formula_units_Z 44
_cell_length_a 28.509288
_cell_length_b 8.870374
_cell_length_c 9.109036
_cell_angle_alpha 90.000000
_cell_angle_beta 90.000000
_cell_angle_gamma 90.000000
_cell_volume 2303.566324
_symmetry_space_group_name_H-M "P M M M"
_symmetry_group_IT_number 47
_symmetry_cell_setting 'orthorhombic'
loop_
_space_group_symop_operation_xyz
x,y,z
-x,-y,z
x,-y,-z
-x,y,-z
-x,-y,-z
x,y,-z
-x,y,z
x,-y,z
loop_
_atom_site_type_symbol
_atom_site_label
_atom_site_fract_x
_atom_site_fract_y
_atom_site_fract_z
Si Si1 0.905466 0.677709 0.831734
Si Si2 0.733541 0.675100 0.172516
Si Si3 0.000000 0.169493 0.174367
Si Si4 0.551643 0.679319 0.835049
Si Si5 0.640420 0.679200 0.663989
Si Si6 0.819662 0.175640 0.329552
O O1 0.909630 0.500000 0.821028
O O2 0.863553 0.732964 0.730900
O O3 0.953540 0.747125 0.768089
O O4 0.896356 0.728676 0.000000
O O5 0.742965 0.500000 0.209486
O O6 0.684194 0.731135 0.237922
O O7 0.773540 0.775456 0.243739
O O8 0.732699 0.703469 0.000000
O O9 0.000000 0.000000 0.236009
O O10 0.000000 0.173206 0.000000
O O11 0.500000 0.730237 0.777954
O O12 0.554581 0.500000 0.835641
O O13 0.592354 0.746869 0.731673
O O14 0.559609 0.739615 0.000000
O O15 0.646477 0.743860 0.500000
O O16 0.637570 0.500000 0.661381
O O17 0.812894 0.214287 0.500000
O O18 0.828765 0.000000 0.302974
#
# Coordination Sequence:
#
# PCOD8198077 Si02
#       6
#     8   8   4   8   8   8
#     4  10  20  35  57  84 111 140 177 218 258 303
#     4  10  20  34  53  75  98 128 168 211 255 307
#     4   9  17  31  54  83 114 147 180 216 258 301
#     4   8  13  21  33  51  80 120 163 205 249 298
#     4   9  16  25  39  61  90 124 161 203 252 305
#     4  11  24  39  54  75 104 136 170 211 260 311
#
# _framework density 19.100818
#
# number of rings (size 3 to 8) (size 9 to 14) (size 15 to 20)
#    0.000    2.455    0.000    3.545    0.000    9.455 
#    0.000    2.273    0.000    2.727    0.000    0.000 
#    0.000    0.727    0.000    7.636    0.000   10.545 
#
# Total GULP energy -545583.385254 kJ/mol
# GULP energy per Si atom -12399.622392 kJ/mol
# Density = 1.905734 g / cm^3
# Si number density = 19.100818 Si / 1000 Ang^3
#
#
#
# Elastic Constant Matrix: (Units=GPa)
#
#
# Indices 1 2 3 4 5 6 
#
# 1 159.9531 31.5360 58.9609 0.0000 0.0000 0.0000
# 2 31.5360 46.1762 26.2457 0.0000 0.0000 0.0000
# 3 58.9609 26.2457 97.0672 0.0000 0.0000 0.0000
# 4 0.0000 0.0000 0.0000 18.9783 0.0000 0.0000
# 5 0.0000 0.0000 0.0000 0.0000 -9.2829 0.0000
# 6 0.0000 0.0000 0.0000 0.0000 0.0000 -6.2436
#
#
#
# Elastic Compliance Matrix: (Units=1/GPa)
#
#
# Indices 1 2 3 4 5 6 
#
# 1 0.008481 -0.003384 -0.004236 0.000000 0.000000 0.000000
# 2 -0.003384 0.026939 -0.005228 0.000000 0.000000 0.000000
# 3 -0.004236 -0.005228 0.014289 0.000000 0.000000 0.000000
# 4 0.000000 0.000000 0.000000 0.052692 0.000000 0.000000
# 5 0.000000 0.000000 0.000000 0.000000 -0.107725 0.000000
# 6 0.000000 0.000000 0.000000 0.000000 0.000000 -0.160164
#
#
# Mechanical properties :
#
#
# Convention : Reuss Voigt Hill
#
# Bulk Modulus (GPa) = 41.64723 59.63129 50.63926
# Shear Modulus (GPa) = -37.93990 13.12063 -12.40964
#
# Velocity S-wave (km/s) = -4.46162 2.62375 -2.55167
# Velocity P-wave (km/s) = 2.16569 6.36127 4.22939
#
# Compressibility (1/GPa) = 0.02401120
#
# Stress axis : x y z
#
# Youngs Moduli (GPa) = 117.91659 37.12086 69.98347
#
# Poissons Ratio (x) = 0.12562 0.29647
# Poissons Ratio (y) = 0.39902 0.36591
# Poissons Ratio (z) = 0.49953 0.19409
#
# Static dielectric constant tensor:
#      x y z
#    x 3.840870 0.000000 0.000000 
#    y 0.000000 3.131440 0.000000 
#    z 0.000000 0.000000 3.555900 
# 
# 
# High freq. dielectric constant tensor:
#      x y z
#    x 1.763440 0.000000 0.000000 
#    y 0.000000 1.701850 0.000000 
#    z 0.000000 0.000000 1.736470 
# 
# From -- ./inp_files/13565.got.cif
#   From: 2010.03.12/outbox.cif.g09.slc.cpg/sg47_7_cif.got.tgz:13565.got - 2010.04.14 03:12:58.
