data_PCOD8198363
_publ_section_title
;
Structure prediction by ZEFSAII (Michael W. Deem and Ramdas Pophale) SiO2 
 PCOD8198363
Probable space group: P M M M
;
_chemical_formula_sum "Si O2"
_cell_formula_units_Z 36
_cell_length_a 22.956831
_cell_length_b 9.174972
_cell_length_c 9.104597
_cell_angle_alpha 90.000000
_cell_angle_beta 90.000000
_cell_angle_gamma 90.000000
_cell_volume 1917.685621
_symmetry_space_group_name_H-M "P M M M"
_symmetry_group_IT_number 47
_symmetry_cell_setting 'orthorhombic'
loop_
_space_group_symop_operation_xyz
x,y,z
-x,-y,z
x,-y,-z
-x,y,-z
-x,-y,-z
x,y,-z
-x,y,z
x,-y,z
loop_
_atom_site_type_symbol
_atom_site_label
_atom_site_fract_x
_atom_site_fract_y
_atom_site_fract_z
Si Si1 0.933834 0.828857 0.334213
Si Si2 0.500000 0.664609 0.825553
Si Si3 0.165303 0.669304 0.168580
Si Si4 0.717831 0.332282 0.673092
Si Si5 0.385482 0.829458 0.171214
O O1 0.919362 0.777568 0.500000
O O2 0.892121 0.751723 0.219350
O O3 0.000000 0.786314 0.294297
O O4 0.924695 0.000000 0.320371
O O5 0.500000 0.500000 0.762968
O O6 0.557058 0.748430 0.768454
O O7 0.500000 0.664242 0.000000
O O8 0.153530 0.500000 0.193032
O O9 0.220711 0.721147 0.262425
O O10 0.178041 0.707425 0.000000
O O11 0.719707 0.311897 0.500000
O O12 0.705390 0.500000 0.717801
O O13 0.668776 0.229358 0.738721
O O14 0.393406 0.000000 0.200413
O O15 0.375238 0.796000 0.000000
#
# Coordination Sequence:
#
# PCOD8198363 Si02
#       5
#     8   4   8   8   8
#     4   9  19  36  56  78 106 141 179 217 260 313
#     4   9  17  31  54  81 108 141 178 216 260 309
#     4  10  21  36  55  80 108 138 175 220 267 315
#     4  10  21  37  56  77 103 138 179 220 264 315
#     4  10  20  34  54  81 111 141 175 216 262 313
#
# _framework density 18.772629999999999
#
# number of rings (size 3 to 8) (size 9 to 14) (size 15 to 20)
#    0.000    2.333    0.000    3.000    0.000    7.556 
#    0.000    3.889    0.000    3.333    0.000    0.000 
#    0.000    0.000    0.000    0.000    0.000    0.000 
#
# Total GULP energy -446515.778088 kJ/mol
# GULP energy per Si atom -12403.216058 kJ/mol
# Density = 1.872990 g / cm^3
# Si number density = 18.772630 Si / 1000 Ang^3
#
#
#
# Elastic Constant Matrix: (Units=GPa)
#
#
# Indices 1 2 3 4 5 6 
#
# 1 145.3717 67.3633 56.7289 0.0000 0.0000 0.0000
# 2 67.3633 83.2999 45.2987 0.0000 0.0000 0.0000
# 3 56.7289 45.2987 72.7802 0.0000 0.0000 0.0000
# 4 0.0000 0.0000 0.0000 29.4535 0.0000 0.0000
# 5 0.0000 0.0000 0.0000 0.0000 -6.4133 0.0000
# 6 0.0000 0.0000 0.0000 0.0000 0.0000 -3.1754
#
#
#
# Elastic Compliance Matrix: (Units=1/GPa)
#
#
# Indices 1 2 3 4 5 6 
#
# 1 0.012120 -0.007050 -0.005059 0.000000 0.000000 0.000000
# 2 -0.007050 0.022248 -0.008352 0.000000 0.000000 0.000000
# 3 -0.005059 -0.008352 0.022882 0.000000 0.000000 0.000000
# 4 0.000000 0.000000 0.000000 0.033952 0.000000 0.000000
# 5 0.000000 0.000000 0.000000 0.000000 -0.155925 0.000000
# 6 0.000000 0.000000 0.000000 0.000000 0.000000 -0.314924
#
#
# Mechanical properties :
#
#
# Convention : Reuss Voigt Hill
#
# Bulk Modulus (GPa) = 61.24687 71.13707 66.19197
# Shear Modulus (GPa) = -15.00226 12.77703 -1.11262
#
# Velocity S-wave (km/s) = -2.83000 2.61170 -0.77069
# Velocity P-wave (km/s) = 4.69232 6.86083 5.87745
#
# Compressibility (1/GPa) = 0.01632737
#
# Stress axis : x y z
#
# Youngs Moduli (GPa) = 82.50779 44.94775 43.70341
#
# Poissons Ratio (x) = 0.31689 0.22109
# Poissons Ratio (y) = 0.58170 0.36501
# Poissons Ratio (z) = 0.41740 0.37540
#
# Static dielectric constant tensor:
#      x y z
#    x 3.556360 0.000000 0.000000 
#    y 0.000000 3.410520 0.000000 
#    z 0.000000 0.000000 3.326640 
# 
# 
# High freq. dielectric constant tensor:
#      x y z
#    x 1.741810 0.000000 0.000000 
#    y 0.000000 1.727420 0.000000 
#    z 0.000000 0.000000 1.718160 
# 
# From -- ./inp_files/1402.got.cif
#   From: 2010.03.12/outbox.cif.g09.slc.cpg/sg47_1_cif.got.tgz:1402.got - 2010.04.14 03:12:58.
