data_PCOD8198558
_publ_section_title
;
Structure prediction by ZEFSAII (Michael W. Deem and Ramdas Pophale) SiO2 
 PCOD8198558
Probable space group: P M M M
;
_chemical_formula_sum "Si O2"
_cell_formula_units_Z 32
_cell_length_a 7.806348
_cell_length_b 8.718512
_cell_length_c 24.056914
_cell_angle_alpha 90.000000
_cell_angle_beta 90.000000
_cell_angle_gamma 90.000000
_cell_volume 1637.307281
_symmetry_space_group_name_H-M "P M M M"
_symmetry_group_IT_number 47
_symmetry_cell_setting 'orthorhombic'
loop_
_space_group_symop_operation_xyz
x,y,z
-x,-y,z
x,-y,-z
-x,y,-z
-x,-y,-z
x,y,-z
-x,y,z
x,-y,z
loop_
_atom_site_type_symbol
_atom_site_label
_atom_site_fract_x
_atom_site_fract_y
_atom_site_fract_z
Si Si1 0.312996 0.317735 0.323623
Si Si2 0.804846 0.317976 0.559935
Si Si3 0.694883 0.677297 0.064875
Si Si4 0.000000 0.178468 0.868781
Si Si5 0.000000 0.682119 0.251625
O O1 0.500000 0.268794 0.300844
O O2 0.294341 0.500000 0.325575
O O3 0.295298 0.251762 0.386587
O O4 0.168031 0.250695 0.282715
O O5 0.731503 0.258242 0.500000
O O6 0.792971 0.500000 0.560295
O O7 0.000000 0.264681 0.566065
O O8 0.500000 0.718802 0.082571
O O9 0.732712 0.500000 0.078311
O O10 0.828353 0.780890 0.097798
O O11 0.720299 0.709833 0.000000
O O12 0.000000 0.268000 0.811485
O O13 0.000000 0.000000 0.856285
O O14 0.000000 0.500000 0.253858
#
# Coordination Sequence:
#
# PCOD8198558 Si02
#       5
#     8   8   8   4   4
#     4   9  16  26  42  63  87 121 166 212 259 312
#     4   8  12  19  33  55  87 123 152 188 250 323
#     4   9  19  38  64  91 117 146 181 220 263 316
#     4  12  25  37  54  82 115 151 187 226 273 324
#     4  10  20  35  50  66  94 133 179 228 263 300
#
# _framework density 19.544284999999999
#
# number of rings (size 3 to 8) (size 9 to 14) (size 15 to 20)
#    0.000    2.750    1.250    3.000    0.000    4.000 
#    0.000    6.250    0.000    0.000    0.000    0.000 
#    0.000    2.000    0.000    2.250    0.000    2.500 
#
# Total GULP energy -396528.936435 kJ/mol
# GULP energy per Si atom -12391.529264 kJ/mol
# Density = 1.949980 g / cm^3
# Si number density = 19.544285 Si / 1000 Ang^3
#
#
#
# Elastic Constant Matrix: (Units=GPa)
#
#
# Indices 1 2 3 4 5 6 
#
# 1 143.1392 16.0607 63.8779 0.0000 0.0000 0.0000
# 2 16.0607 13.6863 4.6346 0.0000 0.0000 0.0000
# 3 63.8779 4.6346 97.8680 0.0000 0.0000 0.0000
# 4 0.0000 0.0000 0.0000 -3.6018 0.0000 0.0000
# 5 0.0000 0.0000 0.0000 0.0000 -11.3373 0.0000
# 6 0.0000 0.0000 0.0000 0.0000 0.0000 9.5892
#
#
#
# Elastic Compliance Matrix: (Units=1/GPa)
#
#
# Indices 1 2 3 4 5 6 
#
# 1 0.011258 -0.010897 -0.006832 0.000000 0.000000 0.000000
# 2 -0.010897 0.084805 0.003097 0.000000 0.000000 0.000000
# 3 -0.006832 0.003097 0.014530 0.000000 0.000000 0.000000
# 4 0.000000 0.000000 0.000000 -0.277637 0.000000 0.000000
# 5 0.000000 0.000000 0.000000 0.000000 -0.088205 0.000000
# 6 0.000000 0.000000 0.000000 0.000000 0.000000 0.104284
#
#
# Mechanical properties :
#
#
# Convention : Reuss Voigt Hill
#
# Bulk Modulus (GPa) = 12.29585 47.09333 29.69459
# Shear Modulus (GPa) = -52.85961 10.27138 -21.29412
#
# Velocity S-wave (km/s) = -5.20623 2.29496 -3.30439
# Velocity P-wave (km/s) = 5.46212 5.58305 0.81722
#
# Compressibility (1/GPa) = 0.08132825
#
# Stress axis : x y z
#
# Youngs Moduli (GPa) = 88.82800 11.79171 68.82186
#
# Poissons Ratio (x) = 0.12850 0.47018
# Poissons Ratio (y) = 0.96799 -0.21311
# Poissons Ratio (z) = 0.60685 -0.03651
#
# Static dielectric constant tensor:
#      x y z
#    x 3.757690 0.000000 0.000000 
#    y 0.000000 2.862720 0.000000 
#    z 0.000000 0.000000 3.785430 
# 
# 
# High freq. dielectric constant tensor:
#      x y z
#    x 1.771160 0.000000 0.000000 
#    y 0.000000 1.685390 0.000000 
#    z 0.000000 0.000000 1.769210 
# 
# From -- ./inp_files/31627.got.cif
#   From: 2010.03.12/outbox.cif.g09.slc.cpg/sg47_16_cif.got.tgz:31627.got - 2010.04.14 03:12:58.
