data_PCOD8198662
_publ_section_title
;
Structure prediction by ZEFSAII (Michael W. Deem and Ramdas Pophale) SiO2 
 PCOD8198662
Probable space group: P M M M
;
_chemical_formula_sum "Si O2"
_cell_formula_units_Z 32
_cell_length_a 10.669498
_cell_length_b 17.248252
_cell_length_c 9.116035
_cell_angle_alpha 90.000000
_cell_angle_beta 90.000000
_cell_angle_gamma 90.000000
_cell_volume 1677.625655
_symmetry_space_group_name_H-M "P M M M"
_symmetry_group_IT_number 47
_symmetry_cell_setting 'orthorhombic'
loop_
_space_group_symop_operation_xyz
x,y,z
-x,-y,z
x,-y,-z
-x,y,-z
-x,-y,-z
x,y,-z
-x,y,z
x,-y,z
loop_
_atom_site_type_symbol
_atom_site_label
_atom_site_fract_x
_atom_site_fract_y
_atom_site_fract_z
Si Si1 0.731051 0.347930 0.672083
Si Si2 0.866576 0.500000 0.326524
Si Si3 0.143590 0.813090 0.672351
Si Si4 0.500000 0.409477 0.826733
Si Si5 0.640990 0.909062 0.169808
O O1 0.696853 0.350072 0.500000
O O2 0.801595 0.423287 0.728590
O O3 0.816185 0.274266 0.710704
O O4 0.608754 0.353533 0.769616
O O5 0.877055 0.500000 0.500000
O O6 0.000000 0.500000 0.249803
O O7 0.147553 0.827990 0.500000
O O8 0.245854 0.869450 0.743325
O O9 0.000000 0.827217 0.729369
O O10 0.500000 0.500000 0.765726
O O11 0.500000 0.413276 0.000000
O O12 0.500000 0.883044 0.222230
O O13 0.654956 0.000000 0.195832
O O14 0.656631 0.887809 0.000000
#
# Coordination Sequence:
#
# PCOD8198662 Si02
#       5
#     8   4   8   4   8
#     4  10  20  35  56  80 109 145 187 230 276 333
#     4   9  16  29  53  78 100 137 186 229 268 317
#     4  10  22  38  57  87 122 150 184 235 290 341
#     4  11  23  37  53  77 110 145 186 237 289 334
#     4   9  20  40  63  86 114 151 194 234 276 335
#
# _framework density 19.074577999999999
#
# number of rings (size 3 to 8) (size 9 to 14) (size 15 to 20)
#    0.000    2.250    1.250    1.875    1.750    6.500 
#    0.000    3.750    0.000    3.000    0.000    0.000 
#    0.000    0.000    0.000    0.000    0.000    0.000 
#
# Total GULP energy -396450.631211 kJ/mol
# GULP energy per Si atom -12389.082225 kJ/mol
# Density = 1.903116 g / cm^3
# Si number density = 19.074578 Si / 1000 Ang^3
#
#
#
# Elastic Constant Matrix: (Units=GPa)
#
#
# Indices 1 2 3 4 5 6 
#
# 1 197.8589 69.8360 54.9130 0.0000 0.0000 0.0000
# 2 69.8360 87.7221 33.7173 0.0000 0.0000 0.0000
# 3 54.9130 33.7173 44.1275 0.0000 0.0000 0.0000
# 4 0.0000 0.0000 0.0000 29.5526 0.0000 0.0000
# 5 0.0000 0.0000 0.0000 0.0000 6.1590 0.0000
# 6 0.0000 0.0000 0.0000 0.0000 0.0000 -7.2588
#
#
#
# Elastic Compliance Matrix: (Units=1/GPa)
#
#
# Indices 1 2 3 4 5 6 
#
# 1 0.008548 -0.003846 -0.007699 0.000000 0.000000 0.000000
# 2 -0.003846 0.017870 -0.008868 0.000000 0.000000 0.000000
# 3 -0.007699 -0.008868 0.039018 0.000000 0.000000 0.000000
# 4 0.000000 0.000000 0.000000 0.033838 0.000000 0.000000
# 5 0.000000 0.000000 0.000000 0.000000 0.162363 0.000000
# 6 0.000000 0.000000 0.000000 0.000000 0.000000 -0.137765
#
#
# Mechanical properties :
#
#
# Convention : Reuss Voigt Hill
#
# Bulk Modulus (GPa) = 40.63328 71.84901 56.24115
# Shear Modulus (GPa) = 28.91789 17.10672 23.01231
#
# Velocity S-wave (km/s) = 3.89786 2.99797 3.47715
# Velocity P-wave (km/s) = 6.45030 7.05216 6.75793
#
# Compressibility (1/GPa) = 0.02461037
#
# Stress axis : x y z
#
# Youngs Moduli (GPa) = 116.98121 55.95893 25.62904
#
# Poissons Ratio (x) = 0.21523 0.19731
# Poissons Ratio (y) = 0.44994 0.22728
# Poissons Ratio (z) = 0.90062 0.49625
#
# Static dielectric constant tensor:
#      x y z
#    x 1.743430 0.000000 0.000000 
#    y 0.000000 3.554010 0.000000 
#    z 0.000000 0.000000 3.209450 
# 
# 
# High freq. dielectric constant tensor:
#      x y z
#    x 1.761530 0.000000 0.000000 
#    y 0.000000 1.744820 0.000000 
#    z 0.000000 0.000000 1.713680 
# 
# From -- ./inp_files/3409.got.cif
#   From: 2010.03.12/outbox.cif.g09.slc.cpg/sg47_2_cif.got.tgz:3409.got - 2010.04.14 03:12:58.
