data_PCOD8198227
_publ_section_title
;
Structure prediction by ZEFSAII (Michael W. Deem and Ramdas Pophale) SiO2 
 PCOD8198227
Probable space group: P M M M
;
_chemical_formula_sum "Si O2"
_cell_formula_units_Z 48
_cell_length_a 9.319579
_cell_length_b 8.190628
_cell_length_c 32.511480
_cell_angle_alpha 90.000000
_cell_angle_beta 90.000000
_cell_angle_gamma 90.000000
_cell_volume 2481.705458
_symmetry_space_group_name_H-M "P M M M"
_symmetry_group_IT_number 47
_symmetry_cell_setting 'orthorhombic'
loop_
_space_group_symop_operation_xyz
x,y,z
-x,-y,z
x,-y,-z
-x,y,-z
-x,-y,-z
x,y,-z
-x,y,z
x,-y,z
loop_
_atom_site_type_symbol
_atom_site_label
_atom_site_fract_x
_atom_site_fract_y
_atom_site_fract_z
Si Si1 0.837657 0.309852 0.500000
Si Si2 0.168360 0.190310 0.825591
Si Si3 0.669844 0.000000 0.954064
Si Si4 0.337467 0.311550 0.658259
Si Si5 0.332590 0.685721 0.098086
Si Si6 0.336500 0.191457 0.745163
Si Si7 0.157684 0.811868 0.415947
O O1 0.833953 0.500000 0.500000
O O2 0.762407 0.251385 0.457544
O O3 0.000000 0.239241 0.500000
O O4 0.242360 0.298740 0.860400
O O5 0.234840 0.247006 0.782347
O O6 0.000000 0.226239 0.825076
O O7 0.201815 0.000000 0.833969
O O8 0.721449 0.169314 0.932434
O O9 0.500000 0.000000 0.956018
O O10 0.735282 0.000000 0.000000
O O11 0.500000 0.246329 0.656422
O O12 0.327162 0.500000 0.647481
O O13 0.277740 0.278700 0.704069
O O14 0.248439 0.216224 0.624631
O O15 0.500000 0.712245 0.108099
O O16 0.308145 0.500000 0.080317
O O17 0.500000 0.244862 0.755149
O O18 0.326058 0.000000 0.737728
O O19 0.000000 0.727409 0.411169
O O20 0.135594 0.000000 0.421688
#
# Coordination Sequence:
#
# PCOD8198227 Si02
#       7
#     4   8   4   8   8   8   8
#     4   9  17  31  52  77 104 133 166 206 256 311
#     4  10  20  34  54  80 111 146 183 227 277 326
#     4   9  18  34  57  85 117 149 185 235 285 328
#     4  10  21  36  53  75 105 139 174 215 264 317
#     4  10  20  34  56  84 113 149 190 230 278 335
#     4   9  18  33  53  75 103 142 183 221 264 319
#     4  10  20  34  54  78 103 133 171 214 258 309
#
# _framework density 19.341539000000001
#
# number of rings (size 3 to 8) (size 9 to 14) (size 15 to 20)
#    0.000    2.333    0.833    1.750    0.000    5.667 
#    0.000    5.417    0.000    3.500    0.000    1.167 
#    0.000    0.000    0.000    0.000    0.000    0.000 
#
# Total GULP energy -595026.796496 kJ/mol
# GULP energy per Si atom -12396.391594 kJ/mol
# Density = 1.929752 g / cm^3
# Si number density = 19.341539 Si / 1000 Ang^3
#
#
#
# Elastic Constant Matrix: (Units=GPa)
#
#
# Indices 1 2 3 4 5 6 
#
# 1 58.7615 28.5756 50.0946 0.0000 0.0000 0.0000
# 2 28.5756 89.9677 54.9246 0.0000 0.0000 0.0000
# 3 50.0946 54.9246 147.2568 0.0000 0.0000 0.0000
# 4 0.0000 0.0000 0.0000 20.9321 0.0000 0.0000
# 5 0.0000 0.0000 0.0000 0.0000 -38.5866 0.0000
# 6 0.0000 0.0000 0.0000 0.0000 0.0000 19.9903
#
#
#
# Elastic Compliance Matrix: (Units=1/GPa)
#
#
# Indices 1 2 3 4 5 6 
#
# 1 0.024806 -0.003531 -0.007122 0.000000 0.000000 0.000000
# 2 -0.003531 0.014895 -0.004354 0.000000 0.000000 0.000000
# 3 -0.007122 -0.004354 0.010838 0.000000 0.000000 0.000000
# 4 0.000000 0.000000 0.000000 0.047773 0.000000 0.000000
# 5 0.000000 0.000000 0.000000 0.000000 -0.025916 0.000000
# 6 0.000000 0.000000 0.000000 0.000000 0.000000 0.050024
#
#
# Mechanical properties :
#
#
# Convention : Reuss Voigt Hill
#
# Bulk Modulus (GPa) = 48.72225 62.57508 55.64867
# Shear Modulus (GPa) = 31.39180 11.29325 21.34252
#
# Velocity S-wave (km/s) = 4.03305 2.41899 3.32543
# Velocity P-wave (km/s) = 6.85073 6.34232 6.60142
#
# Compressibility (1/GPa) = 0.02052450
#
# Stress axis : x y z
#
# Youngs Moduli (GPa) = 40.31203 67.13663 92.27109
#
# Poissons Ratio (x) = 0.23708 0.65712
# Poissons Ratio (y) = 0.14236 0.40178
# Poissons Ratio (z) = 0.28709 0.29233
#
# Static dielectric constant tensor:
#      x y z
#    x 3.311100 0.000000 0.000000 
#    y 0.000000 3.539600 0.000000 
#    z 0.000000 0.000000 4.226560 
# 
# 
# High freq. dielectric constant tensor:
#      x y z
#    x 1.719540 0.000000 0.000000 
#    y 0.000000 1.756530 0.000000 
#    z 0.000000 0.000000 1.758760 
# 
# From -- ./inp_files/34101.got.cif
#   From: 2010.03.12/outbox.cif.g09.slc.cpg/sg47_18_cif.got.tgz:34101.got - 2010.04.14 03:12:58.
