data_PCOD8198070
_publ_section_title
;
Structure prediction by ZEFSAII (Michael W. Deem and Ramdas Pophale) SiO2 
 PCOD8198070
Probable space group: P M M M
;
_chemical_formula_sum "Si O2"
_cell_formula_units_Z 52
_cell_length_a 19.532480
_cell_length_b 9.025618
_cell_length_c 15.702682
_cell_angle_alpha 90.000000
_cell_angle_beta 90.000000
_cell_angle_gamma 90.000000
_cell_volume 2768.268255
_symmetry_space_group_name_H-M "P M M M"
_symmetry_group_IT_number 47
_symmetry_cell_setting 'orthorhombic'
loop_
_space_group_symop_operation_xyz
x,y,z
-x,-y,z
x,-y,-z
-x,y,-z
-x,-y,-z
x,y,-z
-x,y,z
x,-y,z
loop_
_atom_site_type_symbol
_atom_site_label
_atom_site_fract_x
_atom_site_fract_y
_atom_site_fract_z
Si Si1 0.300738 0.170688 0.905975
Si Si2 0.080359 0.160006 0.000000
Si Si3 0.577237 0.671406 0.164721
Si Si4 0.924354 0.176711 0.817671
Si Si5 0.422724 0.173598 0.657076
Si Si6 0.213790 0.174017 0.257262
Si Si7 0.295550 0.329666 0.404866
O O1 0.369863 0.268363 0.904822
O O2 0.249751 0.222433 0.831144
O O3 0.321120 0.000000 0.893107
O O4 0.267031 0.194897 0.000000
O O5 0.097387 0.244240 0.910904
O O6 0.000000 0.131440 0.000000
O O7 0.118895 0.000000 0.000000
O O8 0.500000 0.694917 0.130780
O O9 0.591247 0.500000 0.184949
O O10 0.590710 0.765268 0.249233
O O11 0.866360 0.221193 0.749409
O O12 0.000000 0.233828 0.788560
O O13 0.926071 0.000000 0.828563
O O14 0.500000 0.208065 0.626256
O O15 0.369755 0.251988 0.594179
O O16 0.407756 0.000000 0.658024
O O17 0.244112 0.257066 0.338025
O O18 0.222397 0.000000 0.272915
O O19 0.264838 0.312586 0.500000
O O20 0.305336 0.500000 0.379815
#
# Coordination Sequence:
#
# PCOD8198070 Si02
#       7
#     8   4   8   8   8   8   8
#     4  10  21  34  49  75 110 146 185 227 271 318
#     4   7  10  18  36  68 109 145 172 203 248 303
#     4  10  20  34  53  75 102 140 185 230 272 314
#     4   8  14  25  45  76 111 143 176 215 260 311
#     4  10  20  35  57  83 109 137 171 215 269 326
#     4  10  20  34  55  81 110 144 179 220 269 320
#     4  11  24  40  58  80 107 140 178 222 271 322
#
# _framework density 18.784306999999998
#
# number of rings (size 3 to 8) (size 9 to 14) (size 15 to 20)
#    0.000    2.385    1.538    2.308    1.077    4.000 
#    0.000    3.077    0.000    0.923    0.000    3.231 
#    0.000    1.846    0.000    0.000    0.000    0.000 
#
# Total GULP energy -644435.442313 kJ/mol
# GULP energy per Si atom -12392.989275 kJ/mol
# Density = 1.874155 g / cm^3
# Si number density = 18.784307 Si / 1000 Ang^3
#
#
#
# Elastic Constant Matrix: (Units=GPa)
#
#
# Indices 1 2 3 4 5 6 
#
# 1 120.6857 44.5360 62.4266 0.0000 0.0000 0.0000
# 2 44.5360 67.9710 42.5684 0.0000 0.0000 0.0000
# 3 62.4266 42.5684 109.7547 0.0000 0.0000 0.0000
# 4 0.0000 0.0000 0.0000 9.1566 0.0000 0.0000
# 5 0.0000 0.0000 0.0000 0.0000 18.8661 0.0000
# 6 0.0000 0.0000 0.0000 0.0000 0.0000 9.4786
#
#
#
# Elastic Compliance Matrix: (Units=1/GPa)
#
#
# Indices 1 2 3 4 5 6 
#
# 1 0.012961 -0.005119 -0.005387 0.000000 0.000000 0.000000
# 2 -0.005119 0.021454 -0.005409 0.000000 0.000000 0.000000
# 3 -0.005387 -0.005409 0.014273 0.000000 0.000000 0.000000
# 4 0.000000 0.000000 0.000000 0.109210 0.000000 0.000000
# 5 0.000000 0.000000 0.000000 0.000000 0.053005 0.000000
# 6 0.000000 0.000000 0.000000 0.000000 0.000000 0.105501
#
#
# Mechanical properties :
#
#
# Convention : Reuss Voigt Hill
#
# Bulk Modulus (GPa) = 59.31814 66.38594 62.85204
# Shear Modulus (GPa) = 14.13010 17.42562 15.77786
#
# Velocity S-wave (km/s) = 2.74565 3.04907 2.90133
# Velocity P-wave (km/s) = 6.45745 6.91474 6.69000
#
# Compressibility (1/GPa) = 0.01685825
#
# Stress axis : x y z
#
# Youngs Moduli (GPa) = 77.15186 46.61151 70.06143
#
# Poissons Ratio (x) = 0.23860 0.37741
# Poissons Ratio (y) = 0.39494 0.37899
# Poissons Ratio (z) = 0.41561 0.25214
#
# Static dielectric constant tensor:
#      x y z
#    x 3.594000 0.000000 0.000000 
#    y 0.000000 3.200920 0.000000 
#    z 0.000000 0.000000 3.336510 
# 
# 
# High freq. dielectric constant tensor:
#      x y z
#    x 1.726930 0.000000 0.000000 
#    y 0.000000 1.701300 0.000000 
#    z 0.000000 0.000000 1.714720 
# 
# From -- ./inp_files/25049.got.cif
#   From: 2010.03.12/outbox.cif.g09.slc.cpg/sg47_13_cif.got.tgz:25049.got - 2010.04.14 03:12:58.
