data_PCOD8198446
_publ_section_title
;
Structure prediction by ZEFSAII (Michael W. Deem and Ramdas Pophale) SiO2 
 PCOD8198446
Probable space group: P M M M
;
_chemical_formula_sum "Si O2"
_cell_formula_units_Z 64
_cell_length_a 15.320486
_cell_length_b 8.880005
_cell_length_c 23.910840
_cell_angle_alpha 90.000000
_cell_angle_beta 90.000000
_cell_angle_gamma 90.000000
_cell_volume 3252.973954
_symmetry_space_group_name_H-M "P M M M"
_symmetry_group_IT_number 47
_symmetry_cell_setting 'orthorhombic'
loop_
_space_group_symop_operation_xyz
x,y,z
-x,-y,z
x,-y,-z
-x,y,-z
-x,-y,-z
x,y,-z
-x,y,z
x,-y,z
loop_
_atom_site_type_symbol
_atom_site_label
_atom_site_fract_x
_atom_site_fract_y
_atom_site_fract_z
Si Si1 0.250000 0.322224 0.063921
Si Si2 0.351695 0.324461 0.245163
Si Si3 0.401937 0.827220 0.642281
Si Si4 0.851694 0.675539 0.245162
Si Si5 0.750000 0.178458 0.437855
Si Si6 0.901937 0.172780 0.357718
Si Si7 0.598667 0.826752 0.866970
Si Si8 0.098667 0.173248 0.133030
O O1 0.250000 0.500000 0.069733
O O2 0.337228 0.263134 0.092770
O O3 0.162771 0.263133 0.092769
O O4 0.250002 0.268235 0.000000
O O5 0.369277 0.500000 0.236214
O O6 0.393856 0.273888 0.303010
O O7 0.250000 0.285491 0.245182
O O8 0.397826 0.234607 0.195777
O O9 0.500000 0.813284 0.618471
O O10 0.336130 0.766020 0.594946
O O11 0.379412 0.000000 0.657862
O O12 0.869277 0.500000 0.236214
O O13 0.893856 0.726112 0.303009
O O14 0.897824 0.765393 0.195777
O O15 0.750001 0.250231 0.500000
O O16 0.836130 0.233980 0.405053
O O17 0.750001 0.000000 0.442825
O O18 0.000000 0.186715 0.381528
O O19 0.879412 0.000000 0.342137
O O20 0.500000 0.807604 0.889515
O O21 0.627460 0.000000 0.866696
O O22 0.000000 0.192397 0.110485
O O23 0.127460 0.000000 0.133303
#
# Coordination Sequence:
#
# PCOD8198446 Si02
#       8
#     8   8   8   8   8   8   8   8
#     4  11  25  44  65  90 121 160 204 247 292 343
#     4  11  22  36  58  87 118 153 191 234 289 350
#     4  10  20  34  55  82 111 146 187 231 284 345
#     4  11  22  36  58  87 118 153 191 234 289 350
#     4   9  18  33  53  78 109 144 184 235 288 335
#     4  10  20  34  55  82 111 146 187 231 284 345
#     4  11  24  41  64  93 123 157 197 243 296 352
#     4  11  24  41  64  93 123 157 197 243 296 352
#
# _framework density 19.674306000000001
#
# number of rings (size 3 to 8) (size 9 to 14) (size 15 to 20)
#    0.000    1.500    2.500    2.625    0.000    8.500 
#    0.000    5.000    0.000    1.500    0.000    1.750 
#    0.000    0.000    0.000    0.000    0.000    0.000 
#
# Total GULP energy -793875.019916 kJ/mol
# GULP energy per Si atom -12404.297186 kJ/mol
# Density = 1.962953 g / cm^3
# Si number density = 19.674306 Si / 1000 Ang^3
#
#
#
# Elastic Constant Matrix: (Units=GPa)
#
#
# Indices 1 2 3 4 5 6 
#
# 1 127.8650 31.4306 57.3315 0.0000 0.0000 0.0000
# 2 31.4306 47.9235 30.3615 0.0000 0.0000 0.0000
# 3 57.3315 30.3615 148.9407 0.0000 0.0000 0.0000
# 4 0.0000 0.0000 0.0000 34.6659 0.0000 0.0000
# 5 0.0000 0.0000 0.0000 0.0000 -0.5871 0.0000
# 6 0.0000 0.0000 0.0000 0.0000 0.0000 23.2857
#
#
#
# Elastic Compliance Matrix: (Units=1/GPa)
#
#
# Indices 1 2 3 4 5 6 
#
# 1 0.010367 -0.004905 -0.002991 0.000000 0.000000 0.000000
# 2 -0.004905 0.026281 -0.003470 0.000000 0.000000 0.000000
# 3 -0.002991 -0.003470 0.008573 0.000000 0.000000 0.000000
# 4 0.000000 0.000000 0.000000 0.028847 0.000000 0.000000
# 5 0.000000 0.000000 0.000000 0.000000 -1.703231 0.000000
# 6 0.000000 0.000000 0.000000 0.000000 0.000000 0.042945
#
#
# Mechanical properties :
#
#
# Convention : Reuss Voigt Hill
#
# Bulk Modulus (GPa) = 44.46160 62.55294 53.50727
# Shear Modulus (GPa) = -3.21339 25.17994 10.98328
#
# Velocity S-wave (km/s) = -1.27939 3.58136 2.36531
# Velocity P-wave (km/s) = 4.52387 6.99749 5.89195
#
# Compressibility (1/GPa) = 0.02249132
#
# Stress axis : x y z
#
# Youngs Moduli (GPa) = 96.45624 38.04984 116.65042
#
# Poissons Ratio (x) = 0.18662 0.34889
# Poissons Ratio (y) = 0.47308 0.40472
# Poissons Ratio (z) = 0.28849 0.13201
#
# Static dielectric constant tensor:
#      x y z
#    x 3.865600 0.000000 0.000000 
#    y 0.000000 3.508930 0.000000 
#    z 0.000000 0.000000 3.631640 
# 
# 
# High freq. dielectric constant tensor:
#      x y z
#    x 1.785370 0.000000 0.000000 
#    y 0.000000 1.757540 0.000000 
#    z 0.000000 0.000000 1.760440 
# 
# From -- ./inp_files/7834.got.cif
#   From: 2010.03.12/outbox.cif.g09.slc.cpg/sg47_4_cif.got.tgz:7834.got - 2010.04.14 03:12:58.
