data_PCOD8198086
_publ_section_title
;
Structure prediction by ZEFSAII (Michael W. Deem and Ramdas Pophale) SiO2 
 PCOD8198086
Probable space group: P M M M
;
_chemical_formula_sum "Si O2"
_cell_formula_units_Z 44
_cell_length_a 9.587280
_cell_length_b 8.951019
_cell_length_c 28.524635
_cell_angle_alpha 90.000000
_cell_angle_beta 90.000000
_cell_angle_gamma 90.000000
_cell_volume 2447.867950
_symmetry_space_group_name_H-M "P M M M"
_symmetry_group_IT_number 47
_symmetry_cell_setting 'orthorhombic'
loop_
_space_group_symop_operation_xyz
x,y,z
-x,-y,z
x,-y,-z
-x,y,-z
-x,-y,-z
x,y,-z
-x,y,z
x,-y,z
loop_
_atom_site_type_symbol
_atom_site_label
_atom_site_fract_x
_atom_site_fract_y
_atom_site_fract_z
Si Si1 0.343320 0.822427 0.551700
Si Si2 0.665541 0.831940 0.000000
Si Si3 0.834360 0.331849 0.730367
Si Si4 0.161567 0.175241 0.363018
Si Si5 0.836444 0.825748 0.175417
Si Si6 0.661692 0.324297 0.905806
O O1 0.295831 0.765553 0.500000
O O2 0.500000 0.766683 0.562217
O O3 0.241234 0.759046 0.591645
O O4 0.338151 0.000000 0.552273
O O5 0.719327 0.747050 0.046122
O O6 0.500000 0.832336 0.000000
O O7 0.725649 0.000000 0.000000
O O8 0.775746 0.500000 0.734537
O O9 0.777182 0.256698 0.682888
O O10 0.783168 0.236127 0.774706
O O11 0.000000 0.331339 0.728751
O O12 0.000000 0.211885 0.370660
O O13 0.187306 0.000000 0.356177
O O14 0.752274 0.740025 0.135973
O O15 0.000000 0.794101 0.168277
O O16 0.801975 0.000000 0.172948
O O17 0.500000 0.282861 0.897415
O O18 0.683609 0.500000 0.909089
#
# Coordination Sequence:
#
# PCOD8198086 Si02
#       6
#     8   4   8   8   8   8
#     4   8  14  25  41  62  89 119 148 180 224 277
#     4   9  17  31  52  75 100 133 170 206 246 291
#     4   9  17  30  48  68  92 124 158 191 233 286
#     4   9  16  26  43  67  90 112 146 192 232 267
#     4  10  20  34  53  76 101 130 165 204 246 293
#     4  10  20  34  53  77 104 133 166 204 246 293
#
# _framework density 17.974826
#
# number of rings (size 3 to 8) (size 9 to 14) (size 15 to 20)
#    0.000    2.818    0.000    2.455    0.000    5.818 
#    0.000    3.182    0.000    7.091    0.000    3.818 
#    0.000    0.000    0.000    0.000    0.000    0.000 
#
# Total GULP energy -545522.276502 kJ/mol
# GULP energy per Si atom -12398.233557 kJ/mol
# Density = 1.793391 g / cm^3
# Si number density = 17.974826 Si / 1000 Ang^3
#
#
#
# Elastic Constant Matrix: (Units=GPa)
#
#
# Indices 1 2 3 4 5 6 
#
# 1 43.8259 28.9329 54.4208 0.0000 0.0000 0.0000
# 2 28.9329 78.7600 53.7763 0.0000 0.0000 0.0000
# 3 54.4208 53.7763 176.2897 0.0000 0.0000 0.0000
# 4 0.0000 0.0000 0.0000 8.5541 0.0000 0.0000
# 5 0.0000 0.0000 0.0000 0.0000 -351.5988 0.0000
# 6 0.0000 0.0000 0.0000 0.0000 0.0000 17.6892
#
#
#
# Elastic Compliance Matrix: (Units=1/GPa)
#
#
# Indices 1 2 3 4 5 6 
#
# 1 0.040672 -0.008044 -0.010102 0.000000 0.000000 0.000000
# 2 -0.008044 0.017628 -0.002894 0.000000 0.000000 0.000000
# 3 -0.010102 -0.002894 0.009674 0.000000 0.000000 0.000000
# 4 0.000000 0.000000 0.000000 0.116902 0.000000 0.000000
# 5 0.000000 0.000000 0.000000 0.000000 -0.002844 0.000000
# 6 0.000000 0.000000 0.000000 0.000000 0.000000 0.056532
#
#
# Mechanical properties :
#
#
# Convention : Reuss Voigt Hill
#
# Bulk Modulus (GPa) = 38.61884 63.68174 51.15029
# Shear Modulus (GPa) = 17.28469 -54.28805 -18.50168
#
# Velocity S-wave (km/s) = 3.10434 -5.50162 -3.21177
# Velocity P-wave (km/s) = 5.86352 2.20270 3.84246
#
# Compressibility (1/GPa) = 0.02589410
#
# Stress axis : x y z
#
# Youngs Moduli (GPa) = 24.58716 56.72862 103.37252
#
# Poissons Ratio (x) = 0.45630 1.04424
# Poissons Ratio (y) = 0.19777 0.29918
# Poissons Ratio (z) = 0.24837 0.16418
#
# Static dielectric constant tensor:
#      x y z
#    x 3.081790 0.000000 0.000000 
#    y 0.000000 3.281910 0.000000 
#    z 0.000000 0.000000 3.695850 
# 
# 
# High freq. dielectric constant tensor:
#      x y z
#    x 1.659020 0.000000 0.000000 
#    y 0.000000 1.686140 0.000000 
#    z 0.000000 0.000000 1.714590 
# 
# From -- ./inp_files/2061.got.cif
#   From: 2010.03.12/outbox.cif.g09.slc.cpg/sg47_2_cif.got.tgz:2061.got - 2010.04.14 03:12:58.
