data_PCOD8198266
_publ_section_title
;
Structure prediction by ZEFSAII (Michael W. Deem and Ramdas Pophale) SiO2 
 PCOD8198266
Probable space group: P M M M
;
_chemical_formula_sum "Si O2"
_cell_formula_units_Z 40
_cell_length_a 9.083658
_cell_length_b 25.817346
_cell_length_c 9.144361
_cell_angle_alpha 90.000000
_cell_angle_beta 90.000000
_cell_angle_gamma 90.000000
_cell_volume 2144.498430
_symmetry_space_group_name_H-M "P M M M"
_symmetry_group_IT_number 47
_symmetry_cell_setting 'orthorhombic'
loop_
_space_group_symop_operation_xyz
x,y,z
-x,-y,z
x,-y,-z
-x,y,-z
-x,-y,-z
x,y,-z
-x,y,z
x,-y,z
loop_
_atom_site_type_symbol
_atom_site_label
_atom_site_fract_x
_atom_site_fract_y
_atom_site_fract_z
Si Si1 0.825025 0.706347 0.337676
Si Si2 0.825090 0.803663 0.163356
Si Si3 0.326128 0.000000 0.169564
Si Si4 0.172858 0.905996 0.670422
Si Si5 0.326445 0.500000 0.165794
Si Si6 0.831350 0.590967 0.327735
O O1 0.760822 0.716220 0.500000
O O2 0.760796 0.750196 0.229816
O O3 0.780885 0.649019 0.282332
O O4 0.000000 0.709883 0.345506
O O5 0.774676 0.851167 0.264583
O O6 0.000000 0.800853 0.158680
O O7 0.761242 0.810912 0.000000
O O8 0.261173 0.050278 0.245875
O O9 0.500000 0.000000 0.189725
O O10 0.280090 0.000000 0.000000
O O11 0.212943 0.907409 0.500000
O O12 0.000000 0.915184 0.695692
O O13 0.500000 0.500000 0.174734
O O14 0.270610 0.448595 0.243648
O O15 0.269318 0.500000 0.000000
O O16 0.811901 0.582964 0.500000
O O17 0.000000 0.581012 0.282438
#
# Coordination Sequence:
#
# PCOD8198266 Si02
#       6
#     8   8   4   8   4   8
#     4   8  14  26  45  71 102 130 157 197 248 298
#     4   9  16  26  44  73 106 136 165 200 245 295
#     4  11  24  39  54  74 102 135 170 211 260 308
#     4  10  20  34  54  79 105 135 172 211 250 295
#     4  11  24  37  48  68 100 135 170 209 254 302
#     4   9  18  33  54  78 101 128 166 209 251 298
#
# _framework density 18.652379
#
# number of rings (size 3 to 8) (size 9 to 14) (size 15 to 20)
#    0.000    2.600    0.000    3.600    0.000    8.800 
#    0.000    2.000    0.000    1.200    0.000    5.600 
#    0.000    0.000    0.000    0.000    0.000    0.000 
#
# Total GULP energy -495940.951471 kJ/mol
# GULP energy per Si atom -12398.523787 kJ/mol
# Density = 1.860993 g / cm^3
# Si number density = 18.652379 Si / 1000 Ang^3
#
#
#
# Elastic Constant Matrix: (Units=GPa)
#
#
# Indices 1 2 3 4 5 6 
#
# 1 34.8984 40.8907 38.1719 0.0000 0.0000 0.0000
# 2 40.8907 177.4986 92.4781 0.0000 0.0000 0.0000
# 3 38.1719 92.4781 134.9053 0.0000 0.0000 0.0000
# 4 0.0000 0.0000 0.0000 -35.0225 0.0000 0.0000
# 5 0.0000 0.0000 0.0000 0.0000 20.6436 0.0000
# 6 0.0000 0.0000 0.0000 0.0000 0.0000 -7.0643
#
#
#
# Elastic Compliance Matrix: (Units=1/GPa)
#
#
# Indices 1 2 3 4 5 6 
#
# 1 0.045050 -0.005813 -0.008762 0.000000 0.000000 0.000000
# 2 -0.005813 0.009514 -0.004877 0.000000 0.000000 0.000000
# 3 -0.008762 -0.004877 0.013235 0.000000 0.000000 0.000000
# 4 0.000000 0.000000 0.000000 -0.028553 0.000000 0.000000
# 5 0.000000 0.000000 0.000000 0.000000 0.048441 0.000000
# 6 0.000000 0.000000 0.000000 0.000000 0.000000 -0.141556
#
#
# Mechanical properties :
#
#
# Convention : Reuss Voigt Hill
#
# Bulk Modulus (GPa) = 34.60867 76.70929 55.65898
# Shear Modulus (GPa) = -937.53747 7.42879 -465.05434
#
# Velocity S-wave (km/s) = -22.44389 1.99785 -15.80722
# Velocity P-wave (km/s) = 25.55470 6.82180 17.41416
#
# Compressibility (1/GPa) = 0.02889450
#
# Stress axis : x y z
#
# Youngs Moduli (GPa) = 22.19761 105.10822 75.55660
#
# Poissons Ratio (x) = 0.61101 0.66203
# Poissons Ratio (y) = 0.12904 0.36849
# Poissons Ratio (z) = 0.19450 0.51262
#
# Static dielectric constant tensor:
#      x y z
#    x 2.942260 0.000000 0.000000 
#    y 0.000000 3.732000 0.000000 
#    z 0.000000 0.000000 3.652520 
# 
# 
# High freq. dielectric constant tensor:
#      x y z
#    x 1.670390 0.000000 0.000000 
#    y 0.000000 1.744670 0.000000 
#    z 0.000000 0.000000 1.732070 
# 
# From -- ./inp_files/1760.got.cif
#   From: 2010.03.12/outbox.cif.g09.slc.cpg/sg47_1_cif.got.tgz:1760.got - 2010.04.14 03:12:58.
