data_PCOD8198145
_publ_section_title
;
Structure prediction by ZEFSAII (Michael W. Deem and Ramdas Pophale) SiO2 
 PCOD8198145
Probable space group: P M M M
;
_chemical_formula_sum "Si O2"
_cell_formula_units_Z 48
_cell_length_a 8.885860
_cell_length_b 9.011403
_cell_length_c 30.899275
_cell_angle_alpha 90.000000
_cell_angle_beta 90.000000
_cell_angle_gamma 90.000000
_cell_volume 2474.230569
_symmetry_space_group_name_H-M "P M M M"
_symmetry_group_IT_number 47
_symmetry_cell_setting 'orthorhombic'
loop_
_space_group_symop_operation_xyz
x,y,z
-x,-y,z
x,-y,-z
-x,y,-z
-x,-y,-z
x,y,-z
-x,y,z
x,-y,z
loop_
_atom_site_type_symbol
_atom_site_label
_atom_site_fract_x
_atom_site_fract_y
_atom_site_fract_z
Si Si1 0.324072 0.828603 0.579850
Si Si2 0.823323 0.170031 0.669525
Si Si3 0.179682 0.832442 0.000000
Si Si4 0.178947 0.332985 0.915312
Si Si5 0.674949 0.671865 0.251318
Si Si6 0.173896 0.174544 0.828446
Si Si7 0.170544 0.675298 0.500000
O O1 0.500000 0.797303 0.581594
O O2 0.254070 0.778410 0.625270
O O3 0.253189 0.731493 0.542450
O O4 0.287941 0.000000 0.570259
O O5 0.766859 0.276294 0.707142
O O6 0.000000 0.189486 0.663961
O O7 0.780623 0.000000 0.680758
O O8 0.243277 0.749799 0.042431
O O9 0.000000 0.830994 0.000000
O O10 0.240867 0.000000 0.000000
O O11 0.242738 0.500000 0.914417
O O12 0.233845 0.247926 0.872573
O O13 0.000000 0.333564 0.917207
O O14 0.500000 0.700679 0.259974
O O15 0.710089 0.500000 0.242538
O O16 0.725454 0.765654 0.210191
O O17 0.000000 0.215937 0.819550
O O18 0.195464 0.000000 0.832695
O O19 0.176395 0.500000 0.500000
O O20 0.000000 0.734634 0.500000
#
# Coordination Sequence:
#
# PCOD8198145 Si02
#       7
#     8   8   4   8   8   8   4
#     4  10  21  38  61  87 114 147 187 229 275 327
#     4  10  21  38  61  87 112 141 179 222 269 322
#     4   9  15  23  37  61  96 135 174 217 264 315
#     4   9  16  26  42  66  98 135 173 215 266 321
#     4  11  24  39  55  78 108 142 179 219 266 320
#     4  10  20  34  53  77 104 136 176 221 269 321
#     4  11  24  39  56  82 116 153 192 233 278 326
#
# _framework density 19.399971000000001
#
# number of rings (size 3 to 8) (size 9 to 14) (size 15 to 20)
#    0.000    2.000    0.000    3.750    0.000   11.667 
#    0.000    0.000    0.000    0.000    0.000    0.583 
#    0.000    4.667    0.000    0.000    0.000    0.000 
#
# Total GULP energy -595405.441427 kJ/mol
# GULP energy per Si atom -12404.280030 kJ/mol
# Density = 1.935582 g / cm^3
# Si number density = 19.399971 Si / 1000 Ang^3
#
#
#
# Elastic Constant Matrix: (Units=GPa)
#
#
# Indices 1 2 3 4 5 6 
#
# 1 60.3520 31.7757 42.6332 0.0000 0.0000 0.0000
# 2 31.7757 103.5937 61.2070 0.0000 0.0000 0.0000
# 3 42.6332 61.2070 156.0246 0.0000 0.0000 0.0000
# 4 0.0000 0.0000 0.0000 31.4466 0.0000 0.0000
# 5 0.0000 0.0000 0.0000 0.0000 342.8543 0.0000
# 6 0.0000 0.0000 0.0000 0.0000 0.0000 24.3320
#
#
#
# Elastic Compliance Matrix: (Units=1/GPa)
#
#
# Indices 1 2 3 4 5 6 
#
# 1 0.021807 -0.004124 -0.004341 0.000000 0.000000 0.000000
# 2 -0.004124 0.013346 -0.004108 0.000000 0.000000 0.000000
# 3 -0.004341 -0.004108 0.009207 0.000000 0.000000 0.000000
# 4 0.000000 0.000000 0.000000 0.031800 0.000000 0.000000
# 5 0.000000 0.000000 0.000000 0.000000 0.002917 0.000000
# 6 0.000000 0.000000 0.000000 0.000000 0.000000 0.041098
#
#
# Mechanical properties :
#
#
# Convention : Reuss Voigt Hill
#
# Bulk Modulus (GPa) = 52.04852 65.68912 58.86882
# Shear Modulus (GPa) = 32.95413 92.01689 62.48551
#
# Velocity S-wave (km/s) = 4.12596 6.89452 5.68146
# Velocity P-wave (km/s) = 7.04170 9.86474 8.57026
#
# Compressibility (1/GPa) = 0.01921284
#
# Stress axis : x y z
#
# Youngs Moduli (GPa) = 45.85610 74.93138 108.61248
#
# Poissons Ratio (x) = 0.30904 0.47147
# Poissons Ratio (y) = 0.18913 0.44622
# Poissons Ratio (z) = 0.19905 0.30785
#
# Static dielectric constant tensor:
#      x y z
#    x 3.342760 0.000000 0.000000 
#    y 0.000000 3.638890 0.000000 
#    z 0.000000 0.000000 3.703220 
# 
# 
# High freq. dielectric constant tensor:
#      x y z
#    x 1.731860 0.000000 0.000000 
#    y 0.000000 1.762510 0.000000 
#    z 0.000000 0.000000 1.773010 
# 
# From -- ./inp_files/13816.got.cif
#   From: 2010.03.12/outbox.cif.g09.slc.cpg/sg47_7_cif.got.tgz:13816.got - 2010.04.14 03:12:58.
