data_PCOD8198395
_publ_section_title
;
Structure prediction by ZEFSAII (Michael W. Deem and Ramdas Pophale) SiO2 
 PCOD8198395
Probable space group: P M M M
;
_chemical_formula_sum "Si O2"
_cell_formula_units_Z 64
_cell_length_a 25.290826
_cell_length_b 14.247053
_cell_length_c 8.931087
_cell_angle_alpha 90.000000
_cell_angle_beta 90.000000
_cell_angle_gamma 90.000000
_cell_volume 3218.046932
_symmetry_space_group_name_H-M "P M M M"
_symmetry_group_IT_number 47
_symmetry_cell_setting 'orthorhombic'
loop_
_space_group_symop_operation_xyz
x,y,z
-x,-y,z
x,-y,-z
-x,y,-z
-x,-y,-z
x,y,-z
-x,y,z
x,-y,z
loop_
_atom_site_type_symbol
_atom_site_label
_atom_site_fract_x
_atom_site_fract_y
_atom_site_fract_z
Si Si1 0.720780 0.606035 0.675327
Si Si2 0.341683 0.892257 0.675356
Si Si3 0.938333 0.787356 0.173639
Si Si4 0.559023 0.770186 0.671796
Si Si5 0.849299 0.109789 0.671434
Si Si6 0.390029 0.605817 0.827835
Si Si7 0.937248 0.602773 0.332082
Si Si8 0.754681 0.784828 0.823114
O O1 0.723793 0.626092 0.500000
O O2 0.738919 0.500000 0.714186
O O3 0.661143 0.623830 0.727206
O O4 0.758713 0.678747 0.760406
O O5 0.329116 0.883565 0.500000
O O6 0.399196 0.850707 0.715962
O O7 0.297592 0.835429 0.763770
O O8 0.340860 0.000000 0.727609
O O9 0.907569 0.865488 0.268253
O O10 0.917281 0.683862 0.220699
O O11 0.000000 0.799605 0.211012
O O12 0.926403 0.801612 0.000000
O O13 0.566984 0.739875 0.500000
O O14 0.500000 0.810350 0.698796
O O15 0.565402 0.677877 0.773942
O O16 0.843714 0.142239 0.500000
O O17 0.806490 0.160910 0.772524
O O18 0.839940 0.000000 0.687197
O O19 0.411527 0.500000 0.806464
O O20 0.374913 0.624818 0.000000
O O21 0.916581 0.624259 0.500000
O O22 0.916107 0.500000 0.279593
O O23 0.000000 0.600652 0.332052
O O24 0.752645 0.782040 0.000000
#
# Coordination Sequence:
#
# PCOD8198395 Si02
#       8
#     8   8   8   8   8   8   8   8
#     4  10  20  36  61  90 120 155 193 234 283 344
#     4  10  21  38  60  84 112 150 197 245 294 352
#     4  10  21  37  59  89 125 162 198 242 298 355
#     4  10  21  36  55  81 114 154 199 246 295 349
#     4  11  25  44  65  88 116 154 201 250 296 345
#     4  10  20  34  54  82 115 152 193 237 290 349
#     4   8  14  27  50  80 114 154 199 242 282 331
#     4  12  24  39  63  92 122 153 188 237 295 353
#
# _framework density 19.887840000000001
#
# number of rings (size 3 to 8) (size 9 to 14) (size 15 to 20)
#    0.000    1.875    1.250    3.375    0.000    6.250 
#    0.000    5.625    0.000    3.750    0.000    1.750 
#    0.000    0.000    0.000    0.000    0.000    0.000 
#
# Total GULP energy -793701.489244 kJ/mol
# GULP energy per Si atom -12401.585769 kJ/mol
# Density = 1.984257 g / cm^3
# Si number density = 19.887840 Si / 1000 Ang^3
#
#
#
# Elastic Constant Matrix: (Units=GPa)
#
#
# Indices 1 2 3 4 5 6 
#
# 1 82.4896 47.4403 44.2968 0.0000 0.0000 0.0000
# 2 47.4403 117.9382 61.5284 0.0000 0.0000 0.0000
# 3 44.2968 61.5284 102.1585 0.0000 0.0000 0.0000
# 4 0.0000 0.0000 0.0000 22.7145 0.0000 0.0000
# 5 0.0000 0.0000 0.0000 0.0000 21.9387 0.0000
# 6 0.0000 0.0000 0.0000 0.0000 0.0000 26.0089
#
#
#
# Elastic Compliance Matrix: (Units=1/GPa)
#
#
# Indices 1 2 3 4 5 6 
#
# 1 0.017255 -0.004429 -0.004814 0.000000 0.000000 0.000000
# 2 -0.004429 0.013501 -0.006211 0.000000 0.000000 0.000000
# 3 -0.004814 -0.006211 0.015617 0.000000 0.000000 0.000000
# 4 0.000000 0.000000 0.000000 0.044025 0.000000 0.000000
# 5 0.000000 0.000000 0.000000 0.000000 0.045582 0.000000
# 6 0.000000 0.000000 0.000000 0.000000 0.000000 0.038448
#
#
# Mechanical properties :
#
#
# Convention : Reuss Voigt Hill
#
# Bulk Modulus (GPa) = 64.66520 67.67969 66.17245
# Shear Modulus (GPa) = 23.75393 24.08713 23.92053
#
# Velocity S-wave (km/s) = 3.45975 3.48393 3.47186
# Velocity P-wave (km/s) = 6.96745 7.09142 7.02971
#
# Compressibility (1/GPa) = 0.01546427
#
# Stress axis : x y z
#
# Youngs Moduli (GPa) = 57.95297 74.06961 64.03307
#
# Poissons Ratio (x) = 0.32807 0.30828
# Poissons Ratio (y) = 0.25669 0.39769
# Poissons Ratio (z) = 0.27901 0.46003
#
# Static dielectric constant tensor:
#      x y z
#    x 3.437760 0.000000 0.000000 
#    y 0.000000 3.885880 0.000000 
#    z 0.000000 0.000000 3.635600 
# 
# 
# High freq. dielectric constant tensor:
#      x y z
#    x 1.757870 0.000000 0.000000 
#    y 0.000000 1.784880 0.000000 
#    z 0.000000 0.000000 1.777090 
# 
# From -- ./inp_files/12686.got.cif
#   From: 2010.03.12/outbox.cif.g09.slc.cpg/sg47_7_cif.got.tgz:12686.got - 2010.04.14 03:12:58.
