data_PCOD8198656
_publ_section_title
;
Structure prediction by ZEFSAII (Michael W. Deem and Ramdas Pophale) SiO2 
 PCOD8198656
Probable space group: P M M M
;
_chemical_formula_sum "Si O2"
_cell_formula_units_Z 52
_cell_length_a 8.078311
_cell_length_b 11.855909
_cell_length_c 29.849938
_cell_angle_alpha 90.000000
_cell_angle_beta 90.000000
_cell_angle_gamma 90.000000
_cell_volume 2858.899307
_symmetry_space_group_name_H-M "P M M M"
_symmetry_group_IT_number 47
_symmetry_cell_setting 'orthorhombic'
loop_
_space_group_symop_operation_xyz
x,y,z
-x,-y,z
x,-y,-z
-x,y,-z
-x,-y,-z
x,y,-z
-x,y,z
x,-y,z
loop_
_atom_site_type_symbol
_atom_site_label
_atom_site_fract_x
_atom_site_fract_y
_atom_site_fract_z
Si Si1 0.690450 0.716922 0.949495
Si Si2 0.315928 0.866121 0.394679
Si Si3 0.194238 0.130226 0.701004
Si Si4 0.311854 0.500000 0.192749
Si Si5 0.000000 0.134552 0.449074
Si Si6 0.184795 0.500000 0.903196
Si Si7 0.195766 0.129137 0.873542
Si Si8 0.807535 0.258307 0.212891
O O1 0.500000 0.681711 0.947302
O O2 0.794828 0.610256 0.933223
O O3 0.723486 0.825838 0.919099
O O4 0.744177 0.747676 0.000000
O O5 0.500000 0.824079 0.410081
O O6 0.287134 0.827864 0.343552
O O7 0.167823 0.817211 0.425775
O O8 0.308195 0.000000 0.397372
O O9 0.267641 0.202462 0.742337
O O10 0.000000 0.150012 0.693340
O O11 0.231721 0.000000 0.711474
O O12 0.500000 0.500000 0.208497
O O13 0.307329 0.500000 0.138889
O O14 0.223568 0.608864 0.213288
O O15 0.000000 0.177262 0.500000
O O16 0.000000 0.000000 0.446147
O O17 0.000000 0.500000 0.883064
O O18 0.268645 0.200871 0.831738
O O19 0.000000 0.143127 0.877338
O O20 0.248491 0.000000 0.866911
O O21 0.000000 0.230686 0.212877
#
# Coordination Sequence:
#
# PCOD8198656 Si02
#       8
#     8   8   8   4   4   4   8   8
#     4  11  24  40  58  81 107 134 164 202 253 308
#     4   9  16  26  41  63  94 132 176 223 267 313
#     4   9  16  29  50  74 102 135 172 215 262 310
#     4  12  24  37  55  78 108 137 164 205 257 310
#     4   9  16  26  40  60  92 135 183 229 270 312
#     4  12  23  39  62  83 102 128 166 210 253 305
#     4  10  21  37  57  81 107 135 171 210 247 296
#     4  10  20  35  56  79 103 135 172 210 255 308
#
# _framework density 18.188818000000001
#
# number of rings (size 3 to 8) (size 9 to 14) (size 15 to 20)
#    0.000    1.923    2.308    2.538    0.000    5.538 
#    0.000    3.077    0.000    2.769    0.000    0.000 
#    0.000    0.000    0.000    1.385    0.000    3.846 
#
# Total GULP energy -644807.172181 kJ/mol
# GULP energy per Si atom -12400.137927 kJ/mol
# Density = 1.814742 g / cm^3
# Si number density = 18.188818 Si / 1000 Ang^3
#
#
#
# Elastic Constant Matrix: (Units=GPa)
#
#
# Indices 1 2 3 4 5 6 
#
# 1 73.7282 15.2739 46.3445 0.0000 0.0000 0.0000
# 2 15.2739 84.5375 42.1048 0.0000 0.0000 0.0000
# 3 46.3445 42.1048 138.0264 0.0000 0.0000 0.0000
# 4 0.0000 0.0000 0.0000 10.1260 0.0000 0.0000
# 5 0.0000 0.0000 0.0000 0.0000 17.0954 0.0000
# 6 0.0000 0.0000 0.0000 0.0000 0.0000 11.0013
#
#
#
# Elastic Compliance Matrix: (Units=1/GPa)
#
#
# Indices 1 2 3 4 5 6 
#
# 1 0.017197 -0.000273 -0.005691 0.000000 0.000000 0.000000
# 2 -0.000273 0.013953 -0.004165 0.000000 0.000000 0.000000
# 3 -0.005691 -0.004165 0.010426 0.000000 0.000000 0.000000
# 4 0.000000 0.000000 0.000000 0.098756 0.000000 0.000000
# 5 0.000000 0.000000 0.000000 0.000000 0.058495 0.000000
# 6 0.000000 0.000000 0.000000 0.000000 0.000000 0.090898
#
#
# Mechanical properties :
#
#
# Convention : Reuss Voigt Hill
#
# Bulk Modulus (GPa) = 46.90587 55.97096 51.43842
# Shear Modulus (GPa) = 15.76847 20.48246 18.12547
#
# Velocity S-wave (km/s) = 2.94757 3.35938 3.16019
# Velocity P-wave (km/s) = 6.11788 6.77394 6.45425
#
# Compressibility (1/GPa) = 0.02131929
#
# Stress axis : x y z
#
# Youngs Moduli (GPa) = 58.14931 71.67121 95.91143
#
# Poissons Ratio (x) = 0.01954 0.54584
# Poissons Ratio (y) = 0.01585 0.39944
# Poissons Ratio (z) = 0.33093 0.29849
#
# Static dielectric constant tensor:
#      x y z
#    x 3.392390 0.000000 0.000000 
#    y 0.000000 3.049600 0.000000 
#    z 0.000000 0.000000 3.454950 
# 
# 
# High freq. dielectric constant tensor:
#      x y z
#    x 1.706980 0.000000 0.000000 
#    y 0.000000 1.663880 0.000000 
#    z 0.000000 0.000000 1.701050 
# 
# From -- ./inp_files/34349.got.cif
#   From: 2010.03.12/outbox.cif.g09.slc.cpg/sg47_18_cif.got.tgz:34349.got - 2010.04.14 03:12:58.
