data_PCOD8198421
_publ_section_title
;
Structure prediction by ZEFSAII (Michael W. Deem and Ramdas Pophale) SiO2 
 PCOD8198421
Probable space group: P M M M
;
_chemical_formula_sum "Si O2"
_cell_formula_units_Z 52
_cell_length_a 14.291213
_cell_length_b 23.419779
_cell_length_c 8.838629
_cell_angle_alpha 90.000000
_cell_angle_beta 90.000000
_cell_angle_gamma 90.000000
_cell_volume 2958.263053
_symmetry_space_group_name_H-M "P M M M"
_symmetry_group_IT_number 47
_symmetry_cell_setting 'orthorhombic'
loop_
_space_group_symop_operation_xyz
x,y,z
-x,-y,z
x,-y,-z
-x,y,-z
-x,-y,-z
x,y,-z
-x,y,z
x,-y,z
loop_
_atom_site_type_symbol
_atom_site_label
_atom_site_fract_x
_atom_site_fract_y
_atom_site_fract_z
Si Si1 0.206533 0.273699 0.825397
Si Si2 0.394214 0.897841 0.323902
Si Si3 0.784781 0.064305 0.826528
Si Si4 0.603651 0.220230 0.828005
Si Si5 0.894576 0.622719 0.680399
Si Si6 0.889286 0.500000 0.334915
Si Si7 0.891172 0.166052 0.323321
O O1 0.318158 0.268228 0.798618
O O2 0.176102 0.329933 0.737922
O O3 0.154871 0.217741 0.766150
O O4 0.180926 0.281073 0.000000
O O5 0.373959 0.907138 0.500000
O O6 0.500000 0.916309 0.282084
O O7 0.322922 0.935784 0.227700
O O8 0.377700 0.831556 0.285820
O O9 0.846739 0.106032 0.725009
O O10 0.823709 0.000000 0.808768
O O11 0.789972 0.084586 0.000000
O O12 0.500000 0.246531 0.800313
O O13 0.612535 0.196967 0.000000
O O14 0.891777 0.620467 0.500000
O O15 0.862503 0.560143 0.746922
O O16 0.000000 0.637762 0.734667
O O17 0.841239 0.500000 0.500000
O O18 0.000000 0.500000 0.355892
O O19 0.873451 0.175650 0.500000
O O20 0.000000 0.164311 0.283362
#
# Coordination Sequence:
#
# PCOD8198421 Si02
#       7
#     8   8   8   8   8   4   8
#     4  11  21  32  51  79 107 135 167 207 255 304
#     4  10  20  34  55  81 105 130 163 206 254 304
#     4  11  24  40  57  77 101 132 169 208 255 311
#     4   9  18  33  52  73 100 134 168 203 250 307
#     4   9  17  30  49  73 103 140 178 213 250 296
#     4   7  12  26  47  69  96 135 180 216 247 291
#     4  11  24  40  57  76 100 132 169 211 258 305
#
# _framework density 17.577881000000001
#
# number of rings (size 3 to 8) (size 9 to 14) (size 15 to 20)
#    0.000    2.077    1.538    3.231    0.000    6.769 
#    0.000    3.462    0.000    1.385    0.000    0.538 
#    0.000    4.308    0.000    0.000    0.000    0.000 
#
# Total GULP energy -644616.758287 kJ/mol
# GULP energy per Si atom -12396.476121 kJ/mol
# Density = 1.753787 g / cm^3
# Si number density = 17.577881 Si / 1000 Ang^3
#
#
#
# Elastic Constant Matrix: (Units=GPa)
#
#
# Indices 1 2 3 4 5 6 
#
# 1 84.5130 41.2207 19.1725 0.0000 0.0000 0.0000
# 2 41.2207 106.1695 14.9923 0.0000 0.0000 0.0000
# 3 19.1725 14.9923 33.4062 0.0000 0.0000 0.0000
# 4 0.0000 0.0000 0.0000 -59.5908 0.0000 0.0000
# 5 0.0000 0.0000 0.0000 0.0000 26.1422 0.0000
# 6 0.0000 0.0000 0.0000 0.0000 0.0000 21.2925
#
#
#
# Elastic Compliance Matrix: (Units=1/GPa)
#
#
# Indices 1 2 3 4 5 6 
#
# 1 0.015921 -0.005222 -0.006794 0.000000 0.000000 0.000000
# 2 -0.005222 0.011769 -0.002285 0.000000 0.000000 0.000000
# 3 -0.006794 -0.002285 0.034859 0.000000 0.000000 0.000000
# 4 0.000000 0.000000 0.000000 -0.016781 0.000000 0.000000
# 5 0.000000 0.000000 0.000000 0.000000 0.038252 0.000000
# 6 0.000000 0.000000 0.000000 0.000000 0.000000 0.046965
#
#
# Mechanical properties :
#
#
# Convention : Reuss Voigt Hill
#
# Bulk Modulus (GPa) = 29.45694 41.65107 35.55401
# Shear Modulus (GPa) = 29.25662 7.48232 18.36947
#
# Velocity S-wave (km/s) = 4.08413 2.06541 3.23620
# Velocity P-wave (km/s) = 6.24776 5.42536 5.85103
#
# Compressibility (1/GPa) = 0.03394785
#
# Stress axis : x y z
#
# Youngs Moduli (GPa) = 62.81147 84.96913 28.68701
#
# Poissons Ratio (x) = 0.44370 0.19489
# Poissons Ratio (y) = 0.32800 0.06554
# Poissons Ratio (z) = 0.42672 0.19414
#
# Static dielectric constant tensor:
#      x y z
#    x 3.381600 0.000000 0.000000 
#    y 0.000000 3.311380 0.000000 
#    z 0.000000 0.000000 3.259390 
# 
# 
# High freq. dielectric constant tensor:
#      x y z
#    x 1.671520 0.000000 0.000000 
#    y 0.000000 1.667110 0.000000 
#    z 0.000000 0.000000 1.678900 
# 
# From -- ./inp_files/6962.got.cif
#   From: 2010.03.12/outbox.cif.g09.slc.cpg/sg47_4_cif.got.tgz:6962.got - 2010.04.14 03:12:58.
