data_PCOD8198972
_publ_section_title
;
Structure prediction by ZEFSAII (Michael W. Deem and Ramdas Pophale) SiO2 
 PCOD8198972
Probable space group: P M M M
;
_chemical_formula_sum "Si O2"
_cell_formula_units_Z 44
_cell_length_a 9.088446
_cell_length_b 27.145172
_cell_length_c 9.896193
_cell_angle_alpha 90.000000
_cell_angle_beta 90.000000
_cell_angle_gamma 90.000000
_cell_volume 2441.464341
_symmetry_space_group_name_H-M "P M M M"
_symmetry_group_IT_number 47
_symmetry_cell_setting 'orthorhombic'
loop_
_space_group_symop_operation_xyz
x,y,z
-x,-y,z
x,-y,-z
-x,y,-z
-x,-y,-z
x,y,-z
-x,y,z
x,-y,z
loop_
_atom_site_type_symbol
_atom_site_label
_atom_site_fract_x
_atom_site_fract_y
_atom_site_fract_z
Si Si1 0.664177 0.605157 0.339406
Si Si2 0.325406 0.945874 0.000000
Si Si3 0.825728 0.056779 0.500000
Si Si4 0.325123 0.500000 0.648054
Si Si5 0.671662 0.218933 0.842804
Si Si6 0.328058 0.110981 0.259165
Si Si7 0.826425 0.702266 0.344732
O O1 0.659896 0.599358 0.500000
O O2 0.500000 0.618199 0.286198
O O3 0.719080 0.551867 0.278295
O O4 0.774732 0.648277 0.296211
O O5 0.269225 0.917147 0.128977
O O6 0.500000 0.947981 0.000000
O O7 0.255270 0.000000 0.000000
O O8 0.768545 0.088049 0.624484
O O9 0.000000 0.056574 0.500000
O O10 0.766779 0.000000 0.500000
O O11 0.500000 0.500000 0.633366
O O12 0.250891 0.500000 0.500000
O O13 0.500000 0.231591 0.837126
O O14 0.704140 0.168252 0.764766
O O15 0.759630 0.259517 0.760293
O O16 0.722929 0.216355 0.000000
O O17 0.500000 0.101735 0.289089
O O18 0.774673 0.712870 0.500000
O O19 0.000000 0.704942 0.334484
#
# Coordination Sequence:
#
# PCOD8198972 Si02
#       7
#     8   4   4   4   8   8   8
#     4   8  13  24  43  68  98 134 174 216 261 306
#     4   9  16  30  57  87 109 129 161 212 265 306
#     4  11  25  41  55  79 117 151 175 204 247 304
#     4   7  10  18  37  65  96 129 168 213 260 308
#     4  10  21  38  58  80 104 131 172 223 270 314
#     4  10  20  37  60  85 107 133 173 218 261 308
#     4  10  21  34  49  74 108 143 179 215 257 312
#
# _framework density 18.021971000000001
#
# number of rings (size 3 to 8) (size 9 to 14) (size 15 to 20)
#    0.000    2.636    0.909    2.455    1.273    3.636 
#    0.000    0.909    0.000    4.364    0.000    0.636 
#    0.000    5.091    0.000    0.000    0.000    0.000 
#
# Total GULP energy -545186.549875 kJ/mol
# GULP energy per Si atom -12390.603406 kJ/mol
# Density = 1.798095 g / cm^3
# Si number density = 18.021971 Si / 1000 Ang^3
#
#
#
# Elastic Constant Matrix: (Units=GPa)
#
#
# Indices 1 2 3 4 5 6 
#
# 1 54.7135 56.8814 41.9594 0.0000 0.0000 0.0000
# 2 56.8814 155.9090 60.8222 0.0000 0.0000 0.0000
# 3 41.9594 60.8222 97.0569 0.0000 0.0000 0.0000
# 4 0.0000 0.0000 0.0000 19.4438 0.0000 0.0000
# 5 0.0000 0.0000 0.0000 0.0000 17.4426 0.0000
# 6 0.0000 0.0000 0.0000 0.0000 0.0000 16.6741
#
#
#
# Elastic Compliance Matrix: (Units=1/GPa)
#
#
# Indices 1 2 3 4 5 6 
#
# 1 0.034927 -0.009069 -0.009416 0.000000 0.000000 0.000000
# 2 -0.009069 0.010844 -0.002875 0.000000 0.000000 0.000000
# 3 -0.009416 -0.002875 0.016176 0.000000 0.000000 0.000000
# 4 0.000000 0.000000 0.000000 0.051430 0.000000 0.000000
# 5 0.000000 0.000000 0.000000 0.000000 0.057331 0.000000
# 6 0.000000 0.000000 0.000000 0.000000 0.000000 0.059973
#
#
# Mechanical properties :
#
#
# Convention : Reuss Voigt Hill
#
# Bulk Modulus (GPa) = 52.01253 69.66724 60.83989
# Shear Modulus (GPa) = 17.86922 20.57984 19.22453
#
# Velocity S-wave (km/s) = 3.15226 3.38291 3.26962
# Velocity P-wave (km/s) = 6.49402 7.34844 6.93440
#
# Compressibility (1/GPa) = 0.01922614
#
# Stress axis : x y z
#
# Youngs Moduli (GPa) = 28.63136 92.21379 61.82145
#
# Poissons Ratio (x) = 0.83631 0.58211
# Poissons Ratio (y) = 0.25966 0.17774
# Poissons Ratio (z) = 0.26959 0.26511
#
# Static dielectric constant tensor:
#      x y z
#    x 3.076280 0.000000 0.000000 
#    y 0.000000 3.809590 0.000000 
#    z 0.000000 0.000000 3.093250 
# 
# 
# High freq. dielectric constant tensor:
#      x y z
#    x 1.671530 0.000000 0.000000 
#    y 0.000000 1.722120 0.000000 
#    z 0.000000 0.000000 1.667710 
# 
# From -- ./inp_files/2390.got.cif
#   From: 2010.03.12/outbox.cif.g09.slc.cpg/sg47_2_cif.got.tgz:2390.got - 2010.04.14 03:12:58.
