data_PCOD8198709
_publ_section_title
;
Structure prediction by ZEFSAII (Michael W. Deem and Ramdas Pophale) SiO2 
 PCOD8198709
Probable space group: P M M M
;
_chemical_formula_sum "Si O2"
_cell_formula_units_Z 44
_cell_length_a 28.672787
_cell_length_b 9.115743
_cell_length_c 9.156014
_cell_angle_alpha 90.000000
_cell_angle_beta 90.000000
_cell_angle_gamma 90.000000
_cell_volume 2393.141782
_symmetry_space_group_name_H-M "P M M M"
_symmetry_group_IT_number 47
_symmetry_cell_setting 'orthorhombic'
loop_
_space_group_symop_operation_xyz
x,y,z
-x,-y,z
x,-y,-z
-x,y,-z
-x,-y,-z
x,y,-z
-x,y,z
x,-y,z
loop_
_atom_site_type_symbol
_atom_site_label
_atom_site_fract_x
_atom_site_fract_y
_atom_site_fract_z
Si Si1 0.177109 0.325831 0.164514
Si Si2 0.449107 0.825626 0.834958
Si Si3 0.732408 0.672708 0.668203
Si Si4 0.000000 0.826558 0.830011
Si Si5 0.084669 0.327477 0.670730
Si Si6 0.640210 0.830598 0.329353
O O1 0.178798 0.500000 0.161853
O O2 0.224234 0.265386 0.238678
O O3 0.133461 0.273837 0.261133
O O4 0.172742 0.263103 0.000000
O O5 0.500000 0.770856 0.777071
O O6 0.406572 0.760997 0.740485
O O7 0.448075 0.000000 0.826288
O O8 0.442099 0.771647 0.000000
O O9 0.741005 0.716400 0.500000
O O10 0.726973 0.500000 0.686464
O O11 0.685536 0.746442 0.730496
O O12 0.045029 0.760735 0.753110
O O13 0.000000 0.000000 0.809058
O O14 0.000000 0.782085 0.000000
O O15 0.084205 0.288308 0.500000
O O16 0.076503 0.500000 0.695586
O O17 0.635080 0.806645 0.500000
O O18 0.646066 0.000000 0.286554
#
# Coordination Sequence:
#
# PCOD8198709 Si02
#       6
#     8   8   8   4   8   8
#     4   9  17  30  50  75  99 124 159 202 241 277
#     4   8  14  25  41  61  85 113 145 182 225 271
#     4   9  17  30  47  66  91 123 155 187 228 279
#     4  11  24  39  54  76 108 141 170 203 246 294
#     4  10  20  35  57  82 104 130 168 209 247 290
#     4   9  17  28  43  65  90 114 145 187 230 271
#
# _framework density 18.385873
#
# number of rings (size 3 to 8) (size 9 to 14) (size 15 to 20)
#    0.000    2.818    0.000    2.182    0.000    6.182 
#    0.000    2.727    0.000    3.818    0.000    3.818 
#    0.000    0.000    0.000    0.000    0.000    0.000 
#
# Total GULP energy -545483.120418 kJ/mol
# GULP energy per Si atom -12397.343646 kJ/mol
# Density = 1.834403 g / cm^3
# Si number density = 18.385873 Si / 1000 Ang^3
#
#
#
# Elastic Constant Matrix: (Units=GPa)
#
#
# Indices 1 2 3 4 5 6 
#
# 1 211.2002 43.7582 95.9836 0.0000 0.0000 0.0000
# 2 43.7582 28.0814 35.3710 0.0000 0.0000 0.0000
# 3 95.9836 35.3710 117.6118 0.0000 0.0000 0.0000
# 4 0.0000 0.0000 0.0000 16.7599 0.0000 0.0000
# 5 0.0000 0.0000 0.0000 0.0000 32.4512 0.0000
# 6 0.0000 0.0000 0.0000 0.0000 0.0000 35.5922
#
#
#
# Elastic Compliance Matrix: (Units=1/GPa)
#
#
# Indices 1 2 3 4 5 6 
#
# 1 0.008323 -0.007105 -0.004655 0.000000 0.000000 0.000000
# 2 -0.007105 0.063393 -0.013266 0.000000 0.000000 0.000000
# 3 -0.004655 -0.013266 0.016292 0.000000 0.000000 0.000000
# 4 0.000000 0.000000 0.000000 0.059666 0.000000 0.000000
# 5 0.000000 0.000000 0.000000 0.000000 0.030816 0.000000
# 6 0.000000 0.000000 0.000000 0.000000 0.000000 0.028096
#
#
# Mechanical properties :
#
#
# Convention : Reuss Voigt Hill
#
# Bulk Modulus (GPa) = 26.34830 78.56878 52.45854
# Shear Modulus (GPa) = 18.56739 29.07934 23.82337
#
# Velocity S-wave (km/s) = 3.18130 3.98126 3.60355
# Velocity P-wave (km/s) = 5.27788 7.99750 6.77554
#
# Compressibility (1/GPa) = 0.03795311
#
# Stress axis : x y z
#
# Youngs Moduli (GPa) = 120.15437 15.77472 61.38125
#
# Poissons Ratio (x) = 0.11208 0.28575
# Poissons Ratio (y) = 0.85370 0.81431
# Poissons Ratio (z) = 0.55936 0.20928
#
# Static dielectric constant tensor:
#      x y z
#    x 3.876680 0.000000 0.000000 
#    y 0.000000 2.966170 0.000000 
#    z 0.000000 0.000000 3.500920 
# 
# 
# High freq. dielectric constant tensor:
#      x y z
#    x 1.734800 0.000000 0.000000 
#    y 0.000000 1.662700 0.000000 
#    z 0.000000 0.000000 1.714820 
# 
# From -- ./inp_files/2056.got.cif
#   From: 2010.03.12/outbox.cif.g09.slc.cpg/sg47_2_cif.got.tgz:2056.got - 2010.04.14 03:12:58.
