data_PCOD8198536
_publ_section_title
;
Structure prediction by ZEFSAII (Michael W. Deem and Ramdas Pophale) SiO2 
 PCOD8198536
Probable space group: P M M M
;
_chemical_formula_sum "Si O2"
_cell_formula_units_Z 64
_cell_length_a 15.354436
_cell_length_b 23.642389
_cell_length_c 8.876416
_cell_angle_alpha 90.000000
_cell_angle_beta 90.000000
_cell_angle_gamma 90.000000
_cell_volume 3222.277026
_symmetry_space_group_name_H-M "P M M M"
_symmetry_group_IT_number 47
_symmetry_cell_setting 'orthorhombic'
loop_
_space_group_symop_operation_xyz
x,y,z
-x,-y,z
x,-y,-z
-x,y,-z
-x,-y,-z
x,y,-z
-x,y,z
x,-y,z
loop_
_atom_site_type_symbol
_atom_site_label
_atom_site_fract_x
_atom_site_fract_y
_atom_site_fract_z
Si Si1 0.599678 0.934599 0.825484
Si Si2 0.245986 0.743406 0.822429
Si Si3 0.902642 0.672391 0.328135
Si Si4 0.099434 0.934300 0.173763
Si Si5 0.850067 0.436281 0.175806
Si Si6 0.249691 0.865250 0.323202
Si Si7 0.403738 0.334281 0.827185
Si Si8 0.667143 0.563137 0.326964
O O1 0.500000 0.918417 0.787919
O O2 0.662885 0.897030 0.725676
O O3 0.616722 0.000000 0.787284
O O4 0.619853 0.922830 0.000000
O O5 0.160529 0.709460 0.774102
O O6 0.246860 0.803998 0.748048
O O7 0.332447 0.710314 0.768543
O O8 0.244599 0.751369 0.000000
O O9 0.869424 0.673593 0.500000
O O10 0.907047 0.607833 0.269911
O O11 0.000000 0.697620 0.316344
O O12 0.163305 0.898857 0.277663
O O13 0.000000 0.917020 0.210201
O O14 0.114078 0.000000 0.209031
O O15 0.121153 0.921564 0.000000
O O16 0.882108 0.500000 0.212477
O O17 0.750256 0.428319 0.221459
O O18 0.859744 0.422750 0.000000
O O19 0.250586 0.858461 0.500000
O O20 0.500000 0.307234 0.809488
O O21 0.402940 0.391165 0.727257
O O22 0.384683 0.350524 0.000000
O O23 0.693610 0.573927 0.500000
O O24 0.628212 0.500000 0.307246
#
# Coordination Sequence:
#
# PCOD8198536 Si02
#       8
#     8   8   8   8   8   8   8   8
#     4   9  19  38  64  92 123 161 204 248 293 345
#     4  11  24  43  64  84 112 156 205 251 293 343
#     4  11  24  41  62  88 119 153 190 241 304 360
#     4   9  19  38  64  92 122 158 201 246 290 343
#     4  10  20  35  58  87 118 153 193 238 289 347
#     4  12  25  38  58  89 125 162 198 244 301 356
#     4  10  22  40  62  87 113 146 192 245 299 353
#     4  10  20  34  56  86 119 153 188 233 292 353
#
# _framework density 19.861732
#
# number of rings (size 3 to 8) (size 9 to 14) (size 15 to 20)
#    0.000    1.750    1.250    3.750    0.000    7.250 
#    0.000    5.000    0.000    0.000    0.000    0.000 
#    0.000    0.000    0.000    0.000    0.000    0.000 
#
# Total GULP energy -793737.167745 kJ/mol
# GULP energy per Si atom -12402.143246 kJ/mol
# Density = 1.981653 g / cm^3
# Si number density = 19.861732 Si / 1000 Ang^3
#
#
#
# Elastic Constant Matrix: (Units=GPa)
#
#
# Indices 1 2 3 4 5 6 
#
# 1 117.8927 62.3795 46.4564 0.0000 0.0000 0.0000
# 2 62.3795 117.7542 56.6140 0.0000 0.0000 0.0000
# 3 46.4564 56.6140 96.1582 0.0000 0.0000 0.0000
# 4 0.0000 0.0000 0.0000 -8.3435 0.0000 0.0000
# 5 0.0000 0.0000 0.0000 0.0000 22.1698 0.0000
# 6 0.0000 0.0000 0.0000 0.0000 0.0000 8.6673
#
#
#
# Elastic Compliance Matrix: (Units=1/GPa)
#
#
# Indices 1 2 3 4 5 6 
#
# 1 0.012359 -0.005128 -0.002952 0.000000 0.000000 0.000000
# 2 -0.005128 0.013973 -0.005749 0.000000 0.000000 0.000000
# 3 -0.002952 -0.005749 0.015211 0.000000 0.000000 0.000000
# 4 0.000000 0.000000 0.000000 -0.119853 0.000000 0.000000
# 5 0.000000 0.000000 0.000000 0.000000 0.045106 0.000000
# 6 0.000000 0.000000 0.000000 0.000000 0.000000 0.115376
#
#
# Mechanical properties :
#
#
# Convention : Reuss Voigt Hill
#
# Bulk Modulus (GPa) = 72.02321 73.63390 72.82855
# Shear Modulus (GPa) = 43.68470 15.58906 29.63688
#
# Velocity S-wave (km/s) = 4.69491 2.80461 3.86704
# Velocity P-wave (km/s) = 8.10744 6.90228 7.52901
#
# Compressibility (1/GPa) = 0.01388441
#
# Stress axis : x y z
#
# Youngs Moduli (GPa) = 80.91496 71.56756 65.74395
#
# Poissons Ratio (x) = 0.36698 0.19406
# Poissons Ratio (y) = 0.41491 0.37798
# Poissons Ratio (z) = 0.23884 0.41146
#
# Static dielectric constant tensor:
#      x y z
#    x 3.588180 0.000000 0.000000 
#    y 0.000000 3.980900 0.000000 
#    z 0.000000 0.000000 3.579360 
# 
# 
# High freq. dielectric constant tensor:
#      x y z
#    x 1.778550 0.000000 0.000000 
#    y 0.000000 1.772510 0.000000 
#    z 0.000000 0.000000 1.775880 
# 
# From -- ./inp_files/7883.got.cif
#   From: 2010.03.12/outbox.cif.g09.slc.cpg/sg47_4_cif.got.tgz:7883.got - 2010.04.14 03:12:58.
