data_PCOD8198595
_publ_section_title
;
Structure prediction by ZEFSAII (Michael W. Deem and Ramdas Pophale) SiO2 
 PCOD8198595
Probable space group: P M M M
;
_chemical_formula_sum "Si O2"
_cell_formula_units_Z 64
_cell_length_a 19.936553
_cell_length_b 20.519504
_cell_length_c 9.281069
_cell_angle_alpha 90.000000
_cell_angle_beta 90.000000
_cell_angle_gamma 90.000000
_cell_volume 3796.775617
_symmetry_space_group_name_H-M "P M M M"
_symmetry_group_IT_number 47
_symmetry_cell_setting 'orthorhombic'
loop_
_space_group_symop_operation_xyz
x,y,z
-x,-y,z
x,-y,-z
-x,y,-z
-x,-y,-z
x,y,-z
-x,y,z
x,-y,z
loop_
_atom_site_type_symbol
_atom_site_label
_atom_site_fract_x
_atom_site_fract_y
_atom_site_fract_z
Si Si1 0.285361 0.387328 0.662343
Si Si2 0.157297 0.193260 0.671663
Si Si3 0.426515 0.756633 0.832550
Si Si4 0.699381 0.766915 0.334964
Si Si5 0.428467 0.374854 0.336250
Si Si6 0.075427 0.072034 0.671420
Si Si7 0.077917 0.319593 0.668879
Si Si8 0.159228 0.574457 0.165169
O O1 0.261311 0.403462 0.500000
O O2 0.289052 0.309905 0.685622
O O3 0.360692 0.417014 0.691284
O O4 0.234170 0.419178 0.772597
O O5 0.154365 0.193520 0.500000
O O6 0.234116 0.197184 0.725075
O O7 0.124726 0.127143 0.735535
O O8 0.115719 0.255587 0.727857
O O9 0.500000 0.789850 0.805577
O O10 0.365535 0.793468 0.751935
O O11 0.429970 0.683422 0.775926
O O12 0.409153 0.755123 0.000000
O O13 0.687193 0.785269 0.500000
O O14 0.422563 0.346509 0.500000
O O15 0.500000 0.413923 0.320792
O O16 0.076151 0.075131 0.500000
O O17 0.000000 0.085884 0.726604
O O18 0.098944 0.000000 0.722954
O O19 0.090967 0.329512 0.500000
O O20 0.106046 0.382671 0.748856
O O21 0.000000 0.311530 0.704495
O O22 0.135634 0.500000 0.179087
O O23 0.160856 0.597212 0.000000
#
# Coordination Sequence:
#
# PCOD8198595 Si02
#       8
#     8   8   8   8   8   8   8   8
#     4   9  16  29  48  68  88 113 149 188 225 270
#     4   9  15  26  43  66  96 125 153 185 222 264
#     4   9  16  24  35  56  87 119 150 184 222 266
#     4   9  16  26  42  63  89 119 149 185 227 267
#     4   8  14  25  42  64  89 115 142 176 221 269
#     4   8  13  21  36  62  96 131 160 183 214 261
#     4  10  20  35  55  74  90 113 148 189 231 274
#     4  11  24  38  50  65  88 118 149 187 237 286
#
# _framework density 16.856407999999998
#
# number of rings (size 3 to 8) (size 9 to 14) (size 15 to 20)
#    0.000    2.875    1.250    2.250    0.000    5.750 
#    0.000    1.250    0.000    0.375    0.000    2.625 
#    0.000    2.500    0.000   13.125    0.000    7.375 
#
# Total GULP energy -792958.755773 kJ/mol
# GULP energy per Si atom -12389.980559 kJ/mol
# Density = 1.681804 g / cm^3
# Si number density = 16.856408 Si / 1000 Ang^3
#
#
#
# Elastic Constant Matrix: (Units=GPa)
#
#
# Indices 1 2 3 4 5 6 
#
# 1 148.3747 50.6599 54.3885 0.0000 0.0000 0.0000
# 2 50.6599 69.5713 26.4849 0.0000 0.0000 0.0000
# 3 54.3885 26.4849 57.8695 0.0000 0.0000 0.0000
# 4 0.0000 0.0000 0.0000 3.5172 0.0000 0.0000
# 5 0.0000 0.0000 0.0000 0.0000 14.7180 0.0000
# 6 0.0000 0.0000 0.0000 0.0000 0.0000 13.5446
#
#
#
# Elastic Compliance Matrix: (Units=1/GPa)
#
#
# Indices 1 2 3 4 5 6 
#
# 1 0.011669 -0.005234 -0.008571 0.000000 0.000000 0.000000
# 2 -0.005234 0.019754 -0.004122 0.000000 0.000000 0.000000
# 3 -0.008571 -0.004122 0.027222 0.000000 0.000000 0.000000
# 4 0.000000 0.000000 0.000000 0.284316 0.000000 0.000000
# 5 0.000000 0.000000 0.000000 0.000000 0.067944 0.000000
# 6 0.000000 0.000000 0.000000 0.000000 0.000000 0.073830
#
#
# Mechanical properties :
#
#
# Convention : Reuss Voigt Hill
#
# Bulk Modulus (GPa) = 43.87670 59.87581 51.87625
# Shear Modulus (GPa) = 9.46635 15.97477 12.72056
#
# Velocity S-wave (km/s) = 2.37236 3.08181 2.75006
# Velocity P-wave (km/s) = 5.79571 6.94706 6.39734
#
# Compressibility (1/GPa) = 0.02279114
#
# Stress axis : x y z
#
# Youngs Moduli (GPa) = 85.69991 50.62283 36.73436
#
# Poissons Ratio (x) = 0.26495 0.31487
# Poissons Ratio (y) = 0.44853 0.15141
# Poissons Ratio (z) = 0.73457 0.20866
#
# Static dielectric constant tensor:
#      x y z
#    x 3.729530 0.000000 0.000000 
#    y 0.000000 2.911580 0.000000 
#    z 0.000000 0.000000 2.914300 
# 
# 
# High freq. dielectric constant tensor:
#      x y z
#    x 1.672340 0.000000 0.000000 
#    y 0.000000 1.597250 0.000000 
#    z 0.000000 0.000000 1.621910 
# 
# From -- ./inp_files/11891.got.cif
#   From: 2010.03.12/outbox.cif.g09.slc.cpg/sg47_6_cif.got.tgz:11891.got - 2010.04.14 03:12:58.
