data_PCOD8198830
_publ_section_title
;
Structure prediction by ZEFSAII (Michael W. Deem and Ramdas Pophale) SiO2 
 PCOD8198830
Probable space group: P M M M
;
_chemical_formula_sum "Si O2"
_cell_formula_units_Z 48
_cell_length_a 8.127469
_cell_length_b 9.100603
_cell_length_c 32.770650
_cell_angle_alpha 90.000000
_cell_angle_beta 90.000000
_cell_angle_gamma 90.000000
_cell_volume 2423.876827
_symmetry_space_group_name_H-M "P M M M"
_symmetry_group_IT_number 47
_symmetry_cell_setting 'orthorhombic'
loop_
_space_group_symop_operation_xyz
x,y,z
-x,-y,z
x,-y,-z
-x,y,-z
-x,-y,-z
x,y,-z
-x,y,z
x,-y,z
loop_
_atom_site_type_symbol
_atom_site_label
_atom_site_fract_x
_atom_site_fract_y
_atom_site_fract_z
Si Si1 0.307360 0.165652 0.500000
Si Si2 0.305327 0.669113 0.747654
Si Si3 0.000000 0.325504 0.045735
Si Si4 0.692195 0.835752 0.668686
Si Si5 0.685352 0.328407 0.097106
Si Si6 0.808085 0.832818 0.416031
Si Si7 0.189060 0.830908 0.826460
O O1 0.500000 0.164474 0.500000
O O2 0.246173 0.246581 0.458436
O O3 0.232889 0.000000 0.500000
O O4 0.500000 0.688995 0.752430
O O5 0.253235 0.500000 0.749484
O O6 0.238006 0.734873 0.704970
O O7 0.214216 0.754956 0.783248
O O8 0.830803 0.269977 0.067261
O O9 0.000000 0.500000 0.044570
O O10 0.000000 0.260662 0.000000
O O11 0.500000 0.848117 0.674357
O O12 0.731665 0.760254 0.624784
O O13 0.771339 0.000000 0.671097
O O14 0.500000 0.300489 0.079054
O O15 0.711767 0.500000 0.105692
O O16 0.696769 0.245327 0.139937
O O17 0.000000 0.823086 0.411533
O O18 0.741728 0.000000 0.417920
O O19 0.000000 0.813868 0.839949
O O20 0.241550 0.000000 0.822709
#
# Coordination Sequence:
#
# PCOD8198830 Si02
#       7
#     4   8   4   8   8   8   8
#     4   9  15  23  37  59  88 121 156 193 240 298
#     4  10  21  36  54  77 104 136 176 220 268 323
#     4   9  18  34  57  87 123 157 191 237 285 328
#     4   9  17  30  47  67  95 131 168 207 254 308
#     4  10  20  35  58  86 116 153 194 235 283 335
#     4   9  16  25  39  61  90 122 157 200 247 296
#     4  11  23  37  55  80 110 145 185 229 278 331
#
# _framework density 19.802987000000002
#
# number of rings (size 3 to 8) (size 9 to 14) (size 15 to 20)
#    0.000    2.333    0.833    2.250    0.000    8.333 
#    0.000    3.333    0.000    1.000    0.000    1.750 
#    0.000    4.667    0.000    0.000    0.000    0.000 
#
# Total GULP energy -594999.438604 kJ/mol
# GULP energy per Si atom -12395.821638 kJ/mol
# Density = 1.975791 g / cm^3
# Si number density = 19.802987 Si / 1000 Ang^3
#
#
#
# Elastic Constant Matrix: (Units=GPa)
#
#
# Indices 1 2 3 4 5 6 
#
# 1 79.4805 29.3521 49.4009 0.0000 0.0000 0.0000
# 2 29.3521 66.3410 43.3101 0.0000 0.0000 0.0000
# 3 49.4009 43.3101 166.9493 0.0000 0.0000 0.0000
# 4 0.0000 0.0000 0.0000 3.4123 0.0000 0.0000
# 5 0.0000 0.0000 0.0000 0.0000 33.5489 0.0000
# 6 0.0000 0.0000 0.0000 0.0000 0.0000 16.0059
#
#
#
# Elastic Compliance Matrix: (Units=1/GPa)
#
#
# Indices 1 2 3 4 5 6 
#
# 1 0.016694 -0.005010 -0.003640 0.000000 0.000000 0.000000
# 2 -0.005010 0.019650 -0.003615 0.000000 0.000000 0.000000
# 3 -0.003640 -0.003615 0.008005 0.000000 0.000000 0.000000
# 4 0.000000 0.000000 0.000000 0.293054 0.000000 0.000000
# 5 0.000000 0.000000 0.000000 0.000000 0.029807 0.000000
# 6 0.000000 0.000000 0.000000 0.000000 0.000000 0.062477
#
#
# Mechanical properties :
#
#
# Convention : Reuss Voigt Hill
#
# Bulk Modulus (GPa) = 50.45680 61.87746 56.16713
# Shear Modulus (GPa) = 10.85010 23.30729 17.07869
#
# Velocity S-wave (km/s) = 2.34327 3.43440 2.93990
# Velocity P-wave (km/s) = 5.73201 6.85866 6.32049
#
# Compressibility (1/GPa) = 0.01981894
#
# Stress axis : x y z
#
# Youngs Moduli (GPa) = 59.90017 50.88951 124.92344
#
# Poissons Ratio (x) = 0.25495 0.45476
# Poissons Ratio (y) = 0.30009 0.45164
# Poissons Ratio (z) = 0.21805 0.18398
#
# Static dielectric constant tensor:
#      x y z
#    x 3.541280 0.000000 0.000000 
#    y 0.000000 3.297790 0.000000 
#    z 0.000000 0.000000 5.049650 
# 
# 
# High freq. dielectric constant tensor:
#      x y z
#    x 1.773690 0.000000 0.000000 
#    y 0.000000 1.719090 0.000000 
#    z 0.000000 0.000000 1.785860 
# 
# From -- ./inp_files/34123.got.cif
#   From: 2010.03.12/outbox.cif.g09.slc.cpg/sg47_18_cif.got.tgz:34123.got - 2010.04.14 03:12:58.
