data_PCOD8198240
_publ_section_title
;
Structure prediction by ZEFSAII (Michael W. Deem and Ramdas Pophale) SiO2 
 PCOD8198240
Probable space group: P M M M
;
_chemical_formula_sum "Si O2"
_cell_formula_units_Z 44
_cell_length_a 28.651431
_cell_length_b 9.564146
_cell_length_c 8.996982
_cell_angle_alpha 90.000000
_cell_angle_beta 90.000000
_cell_angle_gamma 90.000000
_cell_volume 2465.411211
_symmetry_space_group_name_H-M "P M M M"
_symmetry_group_IT_number 47
_symmetry_cell_setting 'orthorhombic'
loop_
_space_group_symop_operation_xyz
x,y,z
-x,-y,z
x,-y,-z
-x,y,-z
-x,-y,-z
x,y,-z
-x,y,z
x,-y,z
loop_
_atom_site_type_symbol
_atom_site_label
_atom_site_fract_x
_atom_site_fract_y
_atom_site_fract_z
Si Si1 0.633947 0.844397 0.177537
Si Si2 0.000000 0.336570 0.675797
Si Si3 0.551376 0.343353 0.176730
Si Si4 0.736013 0.833054 0.165839
Si Si5 0.174743 0.165555 0.665291
Si Si6 0.080916 0.162358 0.825093
O O1 0.592501 0.750718 0.246152
O O2 0.684964 0.785654 0.226531
O O3 0.626375 0.000000 0.240524
O O4 0.632314 0.846653 0.000000
O O5 0.045153 0.262104 0.742074
O O6 0.000000 0.500000 0.719919
O O7 0.000000 0.316495 0.500000
O O8 0.500000 0.286996 0.224677
O O9 0.558175 0.500000 0.237156
O O10 0.554980 0.342343 0.000000
O O11 0.776978 0.771948 0.269878
O O12 0.737132 0.000000 0.161480
O O13 0.744425 0.774419 0.000000
O O14 0.166673 0.226703 0.500000
O O15 0.132144 0.208518 0.771440
O O16 0.178864 0.000000 0.658810
O O17 0.070655 0.000000 0.785105
O O18 0.076936 0.186877 0.000000
#
# Coordination Sequence:
#
# PCOD8198240 Si02
#       6
#     8   4   8   8   8   8
#     4   8  13  20  31  48  70  99 134 168 203 248
#     4  11  24  39  54  74 102 135 166 197 238 284
#     4   8  13  20  29  43  67  99 131 164 206 254
#     4   8  13  22  36  55  81 111 142 177 217 261
#     4   9  16  26  43  68  95 121 150 186 228 272
#     4  10  20  34  54  79 103 128 162 202 239 276
#
# _framework density 17.846921999999999
#
# number of rings (size 3 to 8) (size 9 to 14) (size 15 to 20)
#    0.000    3.182    0.000    3.273    0.000    5.455 
#    0.000    1.818    0.000    1.091    0.000    2.545 
#    0.000    0.727    0.000    9.091    0.000   10.545 
#
# Total GULP energy -545269.942817 kJ/mol
# GULP energy per Si atom -12392.498700 kJ/mol
# Density = 1.780630 g / cm^3
# Si number density = 17.846922 Si / 1000 Ang^3
#
#
#
# Elastic Constant Matrix: (Units=GPa)
#
#
# Indices 1 2 3 4 5 6 
#
# 1 182.4888 66.1188 48.3789 0.0000 0.0000 0.0000
# 2 66.1188 60.8641 30.0774 0.0000 0.0000 0.0000
# 3 48.3789 30.0774 64.2652 0.0000 0.0000 0.0000
# 4 0.0000 0.0000 0.0000 11.5803 0.0000 0.0000
# 5 0.0000 0.0000 0.0000 0.0000 2.2477 0.0000
# 6 0.0000 0.0000 0.0000 0.0000 0.0000 2.1935
#
#
#
# Elastic Compliance Matrix: (Units=1/GPa)
#
#
# Indices 1 2 3 4 5 6 
#
# 1 0.009463 -0.008794 -0.003008 0.000000 0.000000 0.000000
# 2 -0.008794 0.029545 -0.007208 0.000000 0.000000 0.000000
# 3 -0.003008 -0.007208 0.021199 0.000000 0.000000 0.000000
# 4 0.000000 0.000000 0.000000 0.086354 0.000000 0.000000
# 5 0.000000 0.000000 0.000000 0.000000 0.444891 0.000000
# 6 0.000000 0.000000 0.000000 0.000000 0.000000 0.455900
#
#
# Mechanical properties :
#
#
# Convention : Reuss Voigt Hill
#
# Bulk Modulus (GPa) = 45.07099 66.30760 55.68929
# Shear Modulus (GPa) = 4.57554 14.07384 9.32469
#
# Velocity S-wave (km/s) = 1.60292 2.81122 2.28827
# Velocity P-wave (km/s) = 5.36049 6.91169 6.18491
#
# Compressibility (1/GPa) = 0.02218722
#
# Stress axis : x y z
#
# Youngs Moduli (GPa) = 105.66921 33.84684 47.17300
#
# Poissons Ratio (x) = 0.29764 0.14192
# Poissons Ratio (y) = 0.92924 0.34000
# Poissons Ratio (z) = 0.31790 0.24395
#
# Static dielectric constant tensor:
#      x y z
#    x 3.759060 0.000000 0.000000 
#    y 0.000000 3.050960 0.000000 
#    z 0.000000 0.000000 3.074470 
# 
# 
# High freq. dielectric constant tensor:
#      x y z
#    x 1.713760 0.000000 0.000000 
#    y 0.000000 1.640590 0.000000 
#    z 0.000000 0.000000 1.654750 
# 
# From -- ./inp_files/13594.got.cif
#   From: 2010.03.12/outbox.cif.g09.slc.cpg/sg47_7_cif.got.tgz:13594.got - 2010.04.14 03:12:58.
