data_PCOD8198887
_publ_section_title
;
Structure prediction by ZEFSAII (Michael W. Deem and Ramdas Pophale) SiO2 
 PCOD8198887
Probable space group: P M M M
;
_chemical_formula_sum "Si O2"
_cell_formula_units_Z 48
_cell_length_a 15.207153
_cell_length_b 17.312258
_cell_length_c 8.949422
_cell_angle_alpha 90.000000
_cell_angle_beta 90.000000
_cell_angle_gamma 90.000000
_cell_volume 2356.115728
_symmetry_space_group_name_H-M "P M M M"
_symmetry_group_IT_number 47
_symmetry_cell_setting 'orthorhombic'
loop_
_space_group_symop_operation_xyz
x,y,z
-x,-y,z
x,-y,-z
-x,y,-z
-x,-y,-z
x,y,-z
-x,y,z
x,-y,z
loop_
_atom_site_type_symbol
_atom_site_label
_atom_site_fract_x
_atom_site_fract_y
_atom_site_fract_z
Si Si1 0.000000 0.590696 0.322139
Si Si2 0.095586 0.086048 0.177677
Si Si3 0.822601 0.352864 0.823611
Si Si4 0.500000 0.407395 0.833343
Si Si5 0.398975 0.912659 0.324212
Si Si6 0.666338 0.587231 0.336598
Si Si7 0.747474 0.186718 0.176452
O O1 0.084130 0.635334 0.256228
O O2 0.000000 0.500000 0.274606
O O3 0.000000 0.598274 0.500000
O O4 0.172040 0.137964 0.245663
O O5 0.000000 0.118649 0.227402
O O6 0.107954 0.000000 0.240364
O O7 0.100991 0.086077 0.000000
O O8 0.755337 0.416054 0.760833
O O9 0.771982 0.273942 0.779467
O O10 0.837702 0.360789 0.000000
O O11 0.500000 0.500000 0.839330
O O12 0.586009 0.372376 0.751406
O O13 0.500000 0.373335 0.000000
O O14 0.386484 0.905140 0.500000
O O15 0.500000 0.898101 0.278896
O O16 0.342008 0.845574 0.246747
O O17 0.371381 0.000000 0.273175
O O18 0.680584 0.626627 0.500000
O O19 0.636963 0.500000 0.362700
O O20 0.739545 0.177460 0.000000
#
# Coordination Sequence:
#
# PCOD8198887 Si02
#       7
#     4   8   8   4   8   8   8
#     4  11  25  45  67  89 114 151 202 253 299 360
#     4   8  14  26  48  77 107 141 179 219 266 323
#     4  11  24  39  58  87 119 154 192 241 302 357
#     4   9  17  31  55  85 113 141 176 225 282 337
#     4   9  19  37  60  85 116 158 205 249 294 346
#     4  10  20  36  58  83 112 148 192 237 283 346
#     4  10  21  35  55  84 117 152 191 238 290 346
#
# _framework density 20.372513000000001
#
# number of rings (size 3 to 8) (size 9 to 14) (size 15 to 20)
#    0.000    2.333    0.000    3.500    1.167    7.333 
#    1.500    0.833    0.000    0.000    0.000    2.333 
#    0.000    0.000    0.000    0.000    0.000    0.000 
#
# Total GULP energy -594895.814231 kJ/mol
# GULP energy per Si atom -12393.662796 kJ/mol
# Density = 2.032614 g / cm^3
# Si number density = 20.372513 Si / 1000 Ang^3
#
#
#
# Elastic Constant Matrix: (Units=GPa)
#
#
# Indices 1 2 3 4 5 6 
#
# 1 158.3755 42.3311 59.6008 0.0000 0.0000 0.0000
# 2 42.3311 71.8430 37.4913 0.0000 0.0000 0.0000
# 3 59.6008 37.4913 93.1596 0.0000 0.0000 0.0000
# 4 0.0000 0.0000 0.0000 20.3287 0.0000 0.0000
# 5 0.0000 0.0000 0.0000 0.0000 35.1302 0.0000
# 6 0.0000 0.0000 0.0000 0.0000 0.0000 27.4570
#
#
#
# Elastic Compliance Matrix: (Units=1/GPa)
#
#
# Indices 1 2 3 4 5 6 
#
# 1 0.008748 -0.002828 -0.004459 0.000000 0.000000 0.000000
# 2 -0.002828 0.018534 -0.005650 0.000000 0.000000 0.000000
# 3 -0.004459 -0.005650 0.015860 0.000000 0.000000 0.000000
# 4 0.000000 0.000000 0.000000 0.049192 0.000000 0.000000
# 5 0.000000 0.000000 0.000000 0.000000 0.028466 0.000000
# 6 0.000000 0.000000 0.000000 0.000000 0.000000 0.036421
#
#
# Mechanical properties :
#
#
# Convention : Reuss Voigt Hill
#
# Bulk Modulus (GPa) = 57.90386 66.91382 62.40884
# Shear Modulus (GPa) = 26.47632 28.84683 27.66158
#
# Velocity S-wave (km/s) = 3.60892 3.76702 3.68882
# Velocity P-wave (km/s) = 6.77126 7.19979 6.98881
#
# Compressibility (1/GPa) = 0.01727001
#
# Stress axis : x y z
#
# Youngs Moduli (GPa) = 114.31469 53.95607 63.04997
#
# Poissons Ratio (x) = 0.15257 0.28112
# Poissons Ratio (y) = 0.32324 0.35621
# Poissons Ratio (z) = 0.50969 0.30483
#
# Static dielectric constant tensor:
#      x y z
#    x 3.860530 0.000000 0.000000 
#    y 0.000000 3.614770 0.000000 
#    z 0.000000 0.000000 3.562400 
# 
# 
# High freq. dielectric constant tensor:
#      x y z
#    x 1.812300 0.000000 0.000000 
#    y 0.000000 1.777290 0.000000 
#    z 0.000000 0.000000 1.779850 
# 
# From -- ./inp_files/6399.got.cif
#   From: 2010.03.12/outbox.cif.g09.slc.cpg/sg47_4_cif.got.tgz:6399.got - 2010.04.14 03:12:58.
