data_PCOD8198955
_publ_section_title
;
Structure prediction by ZEFSAII (Michael W. Deem and Ramdas Pophale) SiO2 
 PCOD8198955
Probable space group: P M M M
;
_chemical_formula_sum "Si O2"
_cell_formula_units_Z 44
_cell_length_a 13.957982
_cell_length_b 14.095597
_cell_length_c 11.803469
_cell_angle_alpha 90.000000
_cell_angle_beta 90.000000
_cell_angle_gamma 90.000000
_cell_volume 2322.286365
_symmetry_space_group_name_H-M "P M M M"
_symmetry_group_IT_number 47
_symmetry_cell_setting 'orthorhombic'
loop_
_space_group_symop_operation_xyz
x,y,z
-x,-y,z
x,-y,-z
-x,y,-z
-x,-y,-z
x,y,-z
-x,y,z
x,-y,z
loop_
_atom_site_type_symbol
_atom_site_label
_atom_site_fract_x
_atom_site_fract_y
_atom_site_fract_z
Si Si1 0.891445 0.862660 0.500000
Si Si2 0.730636 0.392729 0.679562
Si Si3 0.815406 0.720705 0.866676
Si Si4 0.773325 0.893570 0.723326
Si Si5 0.110824 0.360592 0.500000
Si Si6 0.000000 0.394825 0.867430
Si Si7 0.393195 0.776084 0.626331
O O1 0.837661 0.899158 0.611115
O O2 0.889604 0.751060 0.500000
O O3 0.000000 0.901930 0.500000
O O4 0.693277 0.500000 0.693242
O O5 0.736216 0.342890 0.803193
O O6 0.831937 0.394562 0.611734
O O7 0.652079 0.329381 0.615508
O O8 0.822432 0.828119 0.819582
O O9 0.911077 0.667292 0.829844
O O10 0.794830 0.722349 0.000000
O O11 0.669321 0.848885 0.699760
O O12 0.761112 0.000000 0.771444
O O13 0.000000 0.398818 0.500000
O O14 0.000000 0.500000 0.810061
O O15 0.000000 0.410308 0.000000
O O16 0.397552 0.817934 0.500000
O O17 0.500000 0.770257 0.678988
#
# Coordination Sequence:
#
# PCOD8198955 Si02
#       7
#     4   8   8   8   4   4   8
#     4  11  21  37  57  81 115 152 188 226 275 335
#     4  11  21  35  56  84 116 151 192 232 278 337
#     4  10  22  38  54  79 114 152 194 239 277 321
#     4  11  22  38  60  85 112 146 189 234 284 342
#     4  11  21  35  55  81 119 158 191 229 276 330
#     4   9  18  34  55  78 107 148 197 236 269 314
#     4  10  20  37  57  83 118 148 178 227 288 345
#
# _framework density 18.946845
#
# number of rings (size 3 to 8) (size 9 to 14) (size 15 to 20)
#    0.000    1.545    5.455    1.091    2.545    3.636 
#    0.000    1.818    0.000   10.364    0.000   10.182 
#    0.000    0.000    0.000    0.000    0.000    0.000 
#
# Total GULP energy -545322.035848 kJ/mol
# GULP energy per Si atom -12393.682633 kJ/mol
# Density = 1.890372 g / cm^3
# Si number density = 18.946845 Si / 1000 Ang^3
#
#
#
# Elastic Constant Matrix: (Units=GPa)
#
#
# Indices 1 2 3 4 5 6 
#
# 1 115.1774 43.0087 23.3551 0.0000 0.0000 0.0000
# 2 43.0087 173.3243 33.2119 0.0000 0.0000 0.0000
# 3 23.3551 33.2119 99.3982 0.0000 0.0000 0.0000
# 4 0.0000 0.0000 0.0000 19.5098 0.0000 0.0000
# 5 0.0000 0.0000 0.0000 0.0000 16.5048 0.0000
# 6 0.0000 0.0000 0.0000 0.0000 0.0000 7.1673
#
#
#
# Elastic Compliance Matrix: (Units=1/GPa)
#
#
# Indices 1 2 3 4 5 6 
#
# 1 0.009799 -0.002127 -0.001592 0.000000 0.000000 0.000000
# 2 -0.002127 0.006626 -0.001714 0.000000 0.000000 0.000000
# 3 -0.001592 -0.001714 0.011007 0.000000 0.000000 0.000000
# 4 0.000000 0.000000 0.000000 0.051256 0.000000 0.000000
# 5 0.000000 0.000000 0.000000 0.000000 0.060589 0.000000
# 6 0.000000 0.000000 0.000000 0.000000 0.000000 0.139523
#
#
# Mechanical properties :
#
#
# Convention : Reuss Voigt Hill
#
# Bulk Modulus (GPa) = 60.36128 65.22795 62.79462
# Shear Modulus (GPa) = 16.93838 27.85798 22.39818
#
# Velocity S-wave (km/s) = 2.99322 3.83864 3.44198
# Velocity P-wave (km/s) = 6.62368 7.35856 7.00077
#
# Compressibility (1/GPa) = 0.01656691
#
# Stress axis : x y z
#
# Youngs Moduli (GPa) = 102.04988 150.92805 90.84840
#
# Poissons Ratio (x) = 0.32095 0.14462
# Poissons Ratio (y) = 0.21701 0.15573
# Poissons Ratio (z) = 0.16246 0.25872
#
# Static dielectric constant tensor:
#      x y z
#    x 3.641920 0.000000 0.000000 
#    y 0.000000 3.606250 0.000000 
#    z 0.000000 0.000000 3.301950 
# 
# 
# High freq. dielectric constant tensor:
#      x y z
#    x 1.718730 0.000000 0.000000 
#    y 0.000000 1.746510 0.000000 
#    z 0.000000 0.000000 1.718780 
# 
# From -- ./inp_files/17460.got.cif
#   From: 2010.03.12/outbox.cif.g09.slc.cpg/sg47_9_cif.got.tgz:17460.got - 2010.04.14 03:12:58.
