data_PCOD8198314
_publ_section_title
;
Structure prediction by ZEFSAII (Michael W. Deem and Ramdas Pophale) SiO2 
 PCOD8198314
Probable space group: P M M M
;
_chemical_formula_sum "Si O2"
_cell_formula_units_Z 48
_cell_length_a 9.045756
_cell_length_b 9.063868
_cell_length_c 30.992070
_cell_angle_alpha 90.000000
_cell_angle_beta 90.000000
_cell_angle_gamma 90.000000
_cell_volume 2541.025512
_symmetry_space_group_name_H-M "P M M M"
_symmetry_group_IT_number 47
_symmetry_cell_setting 'orthorhombic'
loop_
_space_group_symop_operation_xyz
x,y,z
-x,-y,z
x,-y,-z
-x,y,-z
-x,-y,-z
x,y,-z
-x,y,z
x,-y,z
loop_
_atom_site_type_symbol
_atom_site_label
_atom_site_fract_x
_atom_site_fract_y
_atom_site_fract_z
Si Si1 0.673233 0.329615 0.585448
Si Si2 0.333594 0.324672 0.165182
Si Si3 0.328690 0.173907 0.000000
Si Si4 0.830601 0.173653 0.337232
Si Si5 0.828301 0.329094 0.249967
Si Si6 0.172395 0.673228 0.920626
Si Si7 0.833240 0.324619 0.500000
O O1 0.500000 0.308860 0.579217
O O2 0.715670 0.500000 0.593127
O O3 0.726703 0.236425 0.625852
O O4 0.751349 0.265677 0.542625
O O5 0.500000 0.263288 0.161178
O O6 0.331654 0.500000 0.166317
O O7 0.261381 0.264808 0.209256
O O8 0.238700 0.269291 0.124548
O O9 0.253005 0.239768 0.958053
O O10 0.500000 0.218659 0.000000
O O11 0.305930 0.000000 0.000000
O O12 0.776867 0.239887 0.291893
O O13 0.000000 0.219934 0.346563
O O14 0.811591 0.000000 0.335136
O O15 0.792021 0.500000 0.258309
O O16 0.000000 0.304749 0.239877
O O17 0.201053 0.500000 0.927226
O O18 0.000000 0.710761 0.921456
O O19 0.828674 0.500000 0.500000
O O20 0.000000 0.263655 0.500000
#
# Coordination Sequence:
#
# PCOD8198314 Si02
#       7
#     8   8   4   8   8   8   4
#     4  10  20  34  54  80 108 137 171 213 261 312
#     4   9  17  30  51  79 107 134 169 216 266 312
#     4  11  24  39  54  76 108 143 178 217 262 312
#     4  10  21  36  53  75 105 141 180 219 259 307
#     4   9  17  31  52  76 102 134 173 217 263 311
#     4  10  20  35  57  83 108 137 176 218 260 310
#     4   9  17  31  54  81 106 133 168 212 260 309
#
# _framework density 18.890011000000001
#
# number of rings (size 3 to 8) (size 9 to 14) (size 15 to 20)
#    0.000    2.333    0.000    2.750    0.000    8.333 
#    0.000    2.917    0.000    5.500    0.000    0.000 
#    0.000    0.000    0.000    0.000    0.000    0.000 
#
# Total GULP energy -595335.714808 kJ/mol
# GULP energy per Si atom -12402.827392 kJ/mol
# Density = 1.884702 g / cm^3
# Si number density = 18.890011 Si / 1000 Ang^3
#
#
#
# Elastic Constant Matrix: (Units=GPa)
#
#
# Indices 1 2 3 4 5 6 
#
# 1 126.7679 43.2157 89.7139 0.0000 0.0000 0.0000
# 2 43.2157 48.1180 51.6660 0.0000 0.0000 0.0000
# 3 89.7139 51.6660 185.5056 0.0000 0.0000 0.0000
# 4 0.0000 0.0000 0.0000 -10.4946 0.0000 0.0000
# 5 0.0000 0.0000 0.0000 0.0000 16.6892 0.0000
# 6 0.0000 0.0000 0.0000 0.0000 0.0000 21.1352
#
#
#
# Elastic Compliance Matrix: (Units=1/GPa)
#
#
# Indices 1 2 3 4 5 6 
#
# 1 0.013600 -0.007350 -0.004530 0.000000 0.000000 0.000000
# 2 -0.007350 0.033621 -0.005809 0.000000 0.000000 0.000000
# 3 -0.004530 -0.005809 0.009199 0.000000 0.000000 0.000000
# 4 0.000000 0.000000 0.000000 -0.095287 0.000000 0.000000
# 5 0.000000 0.000000 0.000000 0.000000 0.059919 0.000000
# 6 0.000000 0.000000 0.000000 0.000000 0.000000 0.047314
#
#
# Mechanical properties :
#
#
# Convention : Reuss Voigt Hill
#
# Bulk Modulus (GPa) = 47.52516 81.06474 64.29495
# Shear Modulus (GPa) = 45.14216 17.18567 31.16391
#
# Velocity S-wave (km/s) = 4.89380 3.01952 4.06613
# Velocity P-wave (km/s) = 7.55949 7.42724 7.49366
#
# Compressibility (1/GPa) = 0.02104149
#
# Stress axis : x y z
#
# Youngs Moduli (GPa) = 73.52836 29.74294 108.70199
#
# Poissons Ratio (x) = 0.21862 0.49243
# Poissons Ratio (y) = 0.54047 0.63147
# Poissons Ratio (z) = 0.33309 0.17278
#
# Static dielectric constant tensor:
#      x y z
#    x 3.585490 0.000000 0.000000 
#    y 0.000000 3.137670 0.000000 
#    z 0.000000 0.000000 3.707860 
# 
# 
# High freq. dielectric constant tensor:
#      x y z
#    x 1.742430 0.000000 0.000000 
#    y 0.000000 1.697920 0.000000 
#    z 0.000000 0.000000 1.752220 
# 
# From -- ./inp_files/34111.got.cif
#   From: 2010.03.12/outbox.cif.g09.slc.cpg/sg47_18_cif.got.tgz:34111.got - 2010.04.14 03:12:58.
