data_PCOD8198299
_publ_section_title
;
Structure prediction by ZEFSAII (Michael W. Deem and Ramdas Pophale) SiO2 
 PCOD8198299
Probable space group: P M M M
;
_chemical_formula_sum "Si O2"
_cell_formula_units_Z 48
_cell_length_a 9.118744
_cell_length_b 31.225027
_cell_length_c 9.023109
_cell_angle_alpha 90.000000
_cell_angle_beta 90.000000
_cell_angle_gamma 90.000000
_cell_volume 2569.177144
_symmetry_space_group_name_H-M "P M M M"
_symmetry_group_IT_number 47
_symmetry_cell_setting 'orthorhombic'
loop_
_space_group_symop_operation_xyz
x,y,z
-x,-y,z
x,-y,-z
-x,y,-z
-x,-y,-z
x,y,-z
-x,y,z
x,-y,z
loop_
_atom_site_type_symbol
_atom_site_label
_atom_site_fract_x
_atom_site_fract_y
_atom_site_fract_z
Si Si1 0.165454 0.416961 0.823473
Si Si2 0.670319 0.332816 0.172949
Si Si3 0.671456 0.078373 0.673349
Si Si4 0.827037 0.000000 0.828319
Si Si5 0.665694 0.500000 0.176873
Si Si6 0.674759 0.247685 0.667112
Si Si7 0.325712 0.164369 0.166679
O O1 0.242495 0.373821 0.765687
O O2 0.252293 0.458017 0.761077
O O3 0.000000 0.418518 0.762774
O O4 0.168127 0.417751 0.000000
O O5 0.500000 0.340883 0.206272
O O6 0.731335 0.291181 0.257147
O O7 0.698320 0.325283 0.000000
O O8 0.706137 0.078181 0.500000
O O9 0.500000 0.070711 0.704258
O O10 0.762045 0.041648 0.751953
O O11 0.725803 0.123362 0.739998
O O12 0.000000 0.000000 0.806094
O O13 0.782124 0.000000 0.000000
O O14 0.500000 0.500000 0.237282
O O15 0.666971 0.500000 0.000000
O O16 0.734566 0.245704 0.500000
O O17 0.500000 0.246556 0.670174
O O18 0.738352 0.206994 0.756189
O O19 0.500000 0.166754 0.163811
O O20 0.263066 0.161158 0.000000
#
# Coordination Sequence:
#
# PCOD8198299 Si02
#       7
#     8   8   8   4   4   8   8
#     4   9  16  25  38  58  86 119 153 189 230 276
#     4   9  16  26  41  62  88 118 152 189 229 274
#     4  10  20  34  54  80 107 135 170 212 257 305
#     4  11  24  39  54  74 102 137 176 215 256 304
#     4   9  15  23  37  59  88 119 150 187 232 280
#     4   9  16  26  42  66  95 124 155 194 238 282
#     4   9  16  27  46  73 103 132 161 198 246 295
#
# _framework density 18.683024
#
# number of rings (size 3 to 8) (size 9 to 14) (size 15 to 20)
#    0.000    2.667    0.000    2.750    0.000    9.667 
#    0.000    0.000    0.000    1.500    0.000    2.917 
#    0.000    4.667    0.000    0.000    0.000    0.000 
#
# Total GULP energy -595209.024147 kJ/mol
# GULP energy per Si atom -12400.188003 kJ/mol
# Density = 1.864050 g / cm^3
# Si number density = 18.683024 Si / 1000 Ang^3
#
#
#
# Elastic Constant Matrix: (Units=GPa)
#
#
# Indices 1 2 3 4 5 6 
#
# 1 70.1667 66.2634 38.6262 0.0000 0.0000 0.0000
# 2 66.2634 210.6668 78.9219 0.0000 0.0000 0.0000
# 3 38.6262 78.9219 105.7190 0.0000 0.0000 0.0000
# 4 0.0000 0.0000 0.0000 0.6798 0.0000 0.0000
# 5 0.0000 0.0000 0.0000 0.0000 11.6481 0.0000
# 6 0.0000 0.0000 0.0000 0.0000 0.0000 -1.4820
#
#
#
# Elastic Compliance Matrix: (Units=1/GPa)
#
#
# Indices 1 2 3 4 5 6 
#
# 1 0.021357 -0.005268 -0.003871 0.000000 0.000000 0.000000
# 2 -0.005268 0.007889 -0.003965 0.000000 0.000000 0.000000
# 3 -0.003871 -0.003965 0.013833 0.000000 0.000000 0.000000
# 4 0.000000 0.000000 0.000000 1.471047 0.000000 0.000000
# 5 0.000000 0.000000 0.000000 0.000000 0.085851 0.000000
# 6 0.000000 0.000000 0.000000 0.000000 0.000000 -0.674764
#
#
# Mechanical properties :
#
#
# Convention : Reuss Voigt Hill
#
# Bulk Modulus (GPa) = 59.26634 83.79728 71.53181
# Shear Modulus (GPa) = 5.22442 15.68524 10.45483
#
# Velocity S-wave (km/s) = 1.67404 2.90063 2.36813
# Velocity P-wave (km/s) = 5.96049 7.49451 6.77108
#
# Compressibility (1/GPa) = 0.01687298
#
# Stress axis : x y z
#
# Youngs Moduli (GPa) = 46.82263 126.75854 72.29052
#
# Poissons Ratio (x) = 0.66771 0.27982
# Poissons Ratio (y) = 0.24664 0.28661
# Poissons Ratio (z) = 0.18124 0.50256
#
# Static dielectric constant tensor:
#      x y z
#    x 3.105260 0.000000 0.000000 
#    y 0.000000 3.715530 0.000000 
#    z 0.000000 0.000000 3.287670 
# 
# 
# High freq. dielectric constant tensor:
#      x y z
#    x 1.684450 0.000000 0.000000 
#    y 0.000000 1.747040 0.000000 
#    z 0.000000 0.000000 1.704050 
# 
# From -- ./inp_files/2679.got.cif
#   From: 2010.03.12/outbox.cif.g09.slc.cpg/sg47_2_cif.got.tgz:2679.got - 2010.04.14 03:12:58.
