data_PCOD8198208
_publ_section_title
;
Structure prediction by ZEFSAII (Michael W. Deem and Ramdas Pophale) SiO2 
 PCOD8198208
Probable space group: P M M M
;
_chemical_formula_sum "Si O2"
_cell_formula_units_Z 52
_cell_length_a 8.704904
_cell_length_b 27.892812
_cell_length_c 11.752830
_cell_angle_alpha 90.000000
_cell_angle_beta 90.000000
_cell_angle_gamma 90.000000
_cell_volume 2853.637082
_symmetry_space_group_name_H-M "P M M M"
_symmetry_group_IT_number 47
_symmetry_cell_setting 'orthorhombic'
loop_
_space_group_symop_operation_xyz
x,y,z
-x,-y,z
x,-y,-z
-x,y,-z
-x,-y,-z
x,y,-z
-x,y,z
x,-y,z
loop_
_atom_site_type_symbol
_atom_site_label
_atom_site_fract_x
_atom_site_fract_y
_atom_site_fract_z
Si Si1 0.818303 0.315054 0.269506
Si Si2 0.180354 0.863676 0.272363
Si Si3 0.677994 0.944565 0.870482
Si Si4 0.681896 0.718200 0.500000
Si Si5 0.817461 0.225205 0.873643
Si Si6 0.680089 0.598711 0.132575
Si Si7 0.827658 0.500000 0.865423
Si Si8 0.318792 0.172356 0.500000
O O1 0.741241 0.311178 0.392072
O O2 0.755643 0.271236 0.193514
O O3 0.771741 0.363750 0.208270
O O4 0.000000 0.313000 0.284322
O O5 0.220306 0.914638 0.217395
O O6 0.242116 0.822380 0.188441
O O7 0.262392 0.857504 0.392257
O O8 0.000000 0.859648 0.292268
O O9 0.500000 0.932053 0.852524
O O10 0.709460 0.000000 0.844021
O O11 0.727228 0.932625 0.000000
O O12 0.500000 0.718592 0.500000
O O13 0.746800 0.772995 0.500000
O O14 0.000000 0.225813 0.879404
O O15 0.746492 0.226138 0.000000
O O16 0.500000 0.603856 0.154300
O O17 0.734822 0.546647 0.175343
O O18 0.721070 0.606897 0.000000
O O19 0.000000 0.500000 0.813624
O O20 0.837170 0.500000 0.000000
O O21 0.500000 0.174059 0.500000
#
# Coordination Sequence:
#
# PCOD8198208 Si02
#       8
#     8   8   8   4   8   8   4   4
#     4  11  21  35  56  79 109 146 188 230 272 327
#     4  11  21  35  57  83 112 143 184 233 277 323
#     4   9  19  37  59  83 114 150 184 220 270 333
#     4  11  23  39  57  77 107 145 189 233 277 328
#     4   9  18  31  49  77 111 142 172 215 272 326
#     4  10  20  34  53  81 117 151 184 228 282 332
#     4   9  17  31  53  80 109 146 191 231 274 331
#     4  11  23  39  58  78 108 148 189 228 275 334
#
# _framework density 18.222359000000001
#
# number of rings (size 3 to 8) (size 9 to 14) (size 15 to 20)
#    0.000    1.923    1.538    3.462    0.000    4.308 
#    0.000    1.154    0.000    6.462    0.000    3.231 
#    0.000    0.000    0.000    0.000    0.000    0.000 
#
# Total GULP energy -644963.089769 kJ/mol
# GULP energy per Si atom -12403.136342 kJ/mol
# Density = 1.818088 g / cm^3
# Si number density = 18.222359 Si / 1000 Ang^3
#
#
#
# Elastic Constant Matrix: (Units=GPa)
#
#
# Indices 1 2 3 4 5 6 
#
# 1 62.1154 27.8825 32.8390 0.0000 0.0000 0.0000
# 2 27.8825 113.1086 56.3976 0.0000 0.0000 0.0000
# 3 32.8390 56.3976 127.9973 0.0000 0.0000 0.0000
# 4 0.0000 0.0000 0.0000 9.1023 0.0000 0.0000
# 5 0.0000 0.0000 0.0000 0.0000 24.1500 0.0000
# 6 0.0000 0.0000 0.0000 0.0000 0.0000 30.1454
#
#
#
# Elastic Compliance Matrix: (Units=1/GPa)
#
#
# Indices 1 2 3 4 5 6 
#
# 1 0.019360 -0.002942 -0.003671 0.000000 0.000000 0.000000
# 2 -0.002942 0.011777 -0.004434 0.000000 0.000000 0.000000
# 3 -0.003671 -0.004434 0.010708 0.000000 0.000000 0.000000
# 4 0.000000 0.000000 0.000000 0.109862 0.000000 0.000000
# 5 0.000000 0.000000 0.000000 0.000000 0.041408 0.000000
# 6 0.000000 0.000000 0.000000 0.000000 0.000000 0.033173
#
#
# Mechanical properties :
#
#
# Convention : Reuss Voigt Hill
#
# Bulk Modulus (GPa) = 50.62956 59.71772 55.17364
# Shear Modulus (GPa) = 19.61035 25.08634 22.34835
#
# Velocity S-wave (km/s) = 3.28406 3.71439 3.50583
# Velocity P-wave (km/s) = 6.49805 7.15810 6.83605
#
# Compressibility (1/GPa) = 0.01975131
#
# Stress axis : x y z
#
# Youngs Moduli (GPa) = 51.65176 84.90796 93.38541
#
# Poissons Ratio (x) = 0.24982 0.34279
# Poissons Ratio (y) = 0.15197 0.41411
# Poissons Ratio (z) = 0.18960 0.37652
#
# Static dielectric constant tensor:
#      x y z
#    x 3.244600 0.000000 0.000000 
#    y 0.000000 3.424860 0.000000 
#    z 0.000000 0.000000 3.323400 
# 
# 
# High freq. dielectric constant tensor:
#      x y z
#    x 1.702810 0.000000 0.000000 
#    y 0.000000 1.709790 0.000000 
#    z 0.000000 0.000000 1.697430 
# 
# From -- ./inp_files/15511.got.cif
#   From: 2010.03.12/outbox.cif.g09.slc.cpg/sg47_8_cif.got.tgz:15511.got - 2010.04.14 03:12:58.
