data_PCOD8198216
_publ_section_title
;
Structure prediction by ZEFSAII (Michael W. Deem and Ramdas Pophale) SiO2 
 PCOD8198216
Probable space group: P M M M
;
_chemical_formula_sum "Si O2"
_cell_formula_units_Z 64
_cell_length_a 31.780190
_cell_length_b 14.173066
_cell_length_c 8.988779
_cell_angle_alpha 90.000000
_cell_angle_beta 90.000000
_cell_angle_gamma 90.000000
_cell_volume 4048.750380
_symmetry_space_group_name_H-M "P M M M"
_symmetry_group_IT_number 47
_symmetry_cell_setting 'orthorhombic'
loop_
_space_group_symop_operation_xyz
x,y,z
-x,-y,z
x,-y,-z
-x,y,-z
-x,-y,-z
x,y,-z
-x,y,z
x,-y,z
loop_
_atom_site_type_symbol
_atom_site_label
_atom_site_fract_x
_atom_site_fract_y
_atom_site_fract_z
Si Si1 0.417301 0.393424 0.826570
Si Si2 0.328463 0.606560 0.673081
Si Si3 0.775642 0.112386 0.329647
Si Si4 0.547465 0.221212 0.671288
Si Si5 0.133116 0.104401 0.677053
Si Si6 0.702720 0.779879 0.174669
Si Si7 0.380515 0.891713 0.825981
Si Si8 0.044533 0.887467 0.330897
O O1 0.433082 0.500000 0.797936
O O2 0.372007 0.375614 0.756364
O O3 0.450064 0.322361 0.752410
O O4 0.413533 0.370650 0.000000
O O5 0.335318 0.626811 0.500000
O O6 0.312141 0.500000 0.700241
O O7 0.294804 0.679350 0.741191
O O8 0.765070 0.139668 0.500000
O O9 0.822184 0.153644 0.283743
O O10 0.742604 0.158340 0.219042
O O11 0.774590 0.000000 0.310726
O O12 0.559358 0.235793 0.500000
O O13 0.500000 0.183029 0.690050
O O14 0.578611 0.145007 0.741056
O O15 0.129489 0.097478 0.500000
O O16 0.089124 0.153157 0.737369
O O17 0.135426 0.000000 0.745888
O O18 0.660538 0.834236 0.224775
O O19 0.703738 0.762127 0.000000
O O20 0.372943 0.000000 0.782487
O O21 0.388827 0.879218 0.000000
O O22 0.041382 0.853082 0.500000
O O23 0.000000 0.855270 0.251557
O O24 0.047810 0.000000 0.324332
#
# Coordination Sequence:
#
# PCOD8198216 Si02
#       8
#     8   8   8   8   8   8   8   8
#     4  10  20  35  56  80 103 126 150 175 209 255
#     4  10  20  34  54  78 100 120 143 173 211 257
#     4   9  17  28  42  61  87 121 157 191 229 269
#     4  11  24  39  55  76 100 125 153 184 219 260
#     4   7  10  17  28  44  70 104 142 183 225 268
#     4  11  21  33  51  73  95 119 149 183 219 262
#     4  10  22  39  56  73  93 120 153 187 223 261
#     4   7   8  10  19  37  62  94 133 178 226 269
#
# _framework density 15.807347
#
# number of rings (size 3 to 8) (size 9 to 14) (size 15 to 20)
#    0.000    2.625    1.250    3.750    0.000    4.500 
#    0.000    2.500    0.000    0.000    0.000    0.000 
#    0.000    0.500    0.000    4.875    0.000    4.625 
#
# Total GULP energy -792856.904235 kJ/mol
# GULP energy per Si atom -12388.389129 kJ/mol
# Density = 1.577137 g / cm^3
# Si number density = 15.807347 Si / 1000 Ang^3
#
#
#
# Elastic Constant Matrix: (Units=GPa)
#
#
# Indices 1 2 3 4 5 6 
#
# 1 119.5439 36.5191 37.4027 0.0000 0.0000 0.0000
# 2 36.5191 65.1430 31.0199 0.0000 0.0000 0.0000
# 3 37.4027 31.0199 55.9719 0.0000 0.0000 0.0000
# 4 0.0000 0.0000 0.0000 20.7713 0.0000 0.0000
# 5 0.0000 0.0000 0.0000 0.0000 3.9857 0.0000
# 6 0.0000 0.0000 0.0000 0.0000 0.0000 4.4473
#
#
#
# Elastic Compliance Matrix: (Units=1/GPa)
#
#
# Indices 1 2 3 4 5 6 
#
# 1 0.011192 -0.003685 -0.005436 0.000000 0.000000 0.000000
# 2 -0.003685 0.022068 -0.009767 0.000000 0.000000 0.000000
# 3 -0.005436 -0.009767 0.026912 0.000000 0.000000 0.000000
# 4 0.000000 0.000000 0.000000 0.048143 0.000000 0.000000
# 5 0.000000 0.000000 0.000000 0.000000 0.250894 0.000000
# 6 0.000000 0.000000 0.000000 0.000000 0.000000 0.224856
#
#
# Mechanical properties :
#
#
# Convention : Reuss Voigt Hill
#
# Bulk Modulus (GPa) = 44.65593 50.06026 47.35809
# Shear Modulus (GPa) = 7.94523 14.88867 11.41695
#
# Velocity S-wave (km/s) = 2.24437 3.07234 2.69040
# Velocity P-wave (km/s) = 5.91842 6.65758 6.29886
#
# Compressibility (1/GPa) = 0.02239344
#
# Stress axis : x y z
#
# Youngs Moduli (GPa) = 89.35011 45.31460 37.15808
#
# Poissons Ratio (x) = 0.16701 0.20201
# Poissons Ratio (y) = 0.32930 0.36294
# Poissons Ratio (z) = 0.48574 0.44260
#
# Static dielectric constant tensor:
#      x y z
#    x 3.351350 0.000000 0.000000 
#    y 0.000000 2.808580 0.000000 
#    z 0.000000 0.000000 2.854340 
# 
# 
# High freq. dielectric constant tensor:
#      x y z
#    x 1.610900 0.000000 0.000000 
#    y 0.000000 1.566820 0.000000 
#    z 0.000000 0.000000 1.591810 
# 
# From -- ./inp_files/14323.got.cif
#   From: 2010.03.12/outbox.cif.g09.slc.cpg/sg47_8_cif.got.tgz:14323.got - 2010.04.14 03:12:58.
