data_PCOD8198580
_publ_section_title
;
Structure prediction by ZEFSAII (Michael W. Deem and Ramdas Pophale) SiO2 
 PCOD8198580
Probable space group: P M M M
;
_chemical_formula_sum "Si O2"
_cell_formula_units_Z 52
_cell_length_a 15.321466
_cell_length_b 9.391529
_cell_length_c 18.688694
_cell_angle_alpha 90.000000
_cell_angle_beta 90.000000
_cell_angle_gamma 90.000000
_cell_volume 2689.153412
_symmetry_space_group_name_H-M "P M M M"
_symmetry_group_IT_number 47
_symmetry_cell_setting 'orthorhombic'
loop_
_space_group_symop_operation_xyz
x,y,z
-x,-y,z
x,-y,-z
-x,y,-z
-x,-y,-z
x,y,-z
-x,y,z
x,-y,z
loop_
_atom_site_type_symbol
_atom_site_label
_atom_site_fract_x
_atom_site_fract_y
_atom_site_fract_z
Si Si1 0.000000 0.839005 0.297982
Si Si2 0.000000 0.666283 0.159892
Si Si3 0.500000 0.163004 0.414840
Si Si4 0.709965 0.156097 0.181014
Si Si5 0.331491 0.336104 0.584807
Si Si6 0.602935 0.660847 0.920452
Si Si7 0.865297 0.155573 0.080713
Si Si8 0.196985 0.164034 0.671620
O O1 0.908132 0.817085 0.339836
O O2 0.000000 0.717619 0.240146
O O3 0.000000 0.000000 0.265332
O O4 0.085187 0.721867 0.121504
O O5 0.000000 0.500000 0.158357
O O6 0.500000 0.163647 0.500000
O O7 0.585366 0.246461 0.386145
O O8 0.500000 0.000000 0.386026
O O9 0.635066 0.259577 0.151889
O O10 0.769963 0.144000 0.111921
O O11 0.767152 0.209165 0.249445
O O12 0.670295 0.000000 0.198840
O O13 0.326681 0.328046 0.500000
O O14 0.340091 0.500000 0.610268
O O15 0.243221 0.266445 0.614736
O O16 0.500000 0.666208 0.915783
O O17 0.637759 0.500000 0.914571
O O18 0.631093 0.721164 0.000000
O O19 0.911545 0.000000 0.087371
O O20 0.858758 0.206316 0.000000
O O21 0.221458 0.000000 0.656088
#
# Coordination Sequence:
#
# PCOD8198580 Si02
#       8
#     4   4   4   8   8   8   8   8
#     4  10  20  41  64  79 108 153 196 237 290 348
#     4  12  23  33  50  76 107 139 178 230 281 334
#     4   9  17  33  61  93 123 155 192 231 270 321
#     4  10  20  35  56  81 106 137 183 235 285 334
#     4  10  21  38  61  91 127 161 191 228 281 345
#     4   9  19  36  55  75 105 147 189 230 283 345
#     4  10  20  35  54  74 102 141 181 225 280 337
#     4  10  21  38  62  86 111 149 196 245 290 342
#
# _framework density 19.336939000000001
#
# number of rings (size 3 to 8) (size 9 to 14) (size 15 to 20)
#    0.000    2.077    1.538    2.538    0.000    6.154 
#    1.385    1.154    0.000    2.308    0.000    0.000 
#    0.000    0.000    0.000    0.000    0.000    0.000 
#
# Total GULP energy -644274.561808 kJ/mol
# GULP energy per Si atom -12389.895419 kJ/mol
# Density = 1.929293 g / cm^3
# Si number density = 19.336939 Si / 1000 Ang^3
#
#
#
# Elastic Constant Matrix: (Units=GPa)
#
#
# Indices 1 2 3 4 5 6 
#
# 1 98.4011 54.1203 30.2749 0.0000 0.0000 0.0000
# 2 54.1203 126.7152 35.7151 0.0000 0.0000 0.0000
# 3 30.2749 35.7151 34.1005 0.0000 0.0000 0.0000
# 4 0.0000 0.0000 0.0000 27.7745 0.0000 0.0000
# 5 0.0000 0.0000 0.0000 0.0000 32.7978 0.0000
# 6 0.0000 0.0000 0.0000 0.0000 0.0000 51.2182
#
#
#
# Elastic Compliance Matrix: (Units=1/GPa)
#
#
# Indices 1 2 3 4 5 6 
#
# 1 0.015175 -0.003808 -0.009484 0.000000 0.000000 0.000000
# 2 -0.003808 0.012153 -0.009347 0.000000 0.000000 0.000000
# 3 -0.009484 -0.009347 0.047535 0.000000 0.000000 0.000000
# 4 0.000000 0.000000 0.000000 0.036004 0.000000 0.000000
# 5 0.000000 0.000000 0.000000 0.000000 0.030490 0.000000
# 6 0.000000 0.000000 0.000000 0.000000 0.000000 0.019524
#
#
# Mechanical properties :
#
#
# Convention : Reuss Voigt Hill
#
# Bulk Modulus (GPa) = 33.80234 55.49307 44.64770
# Shear Modulus (GPa) = 23.14589 31.63186 27.38887
#
# Velocity S-wave (km/s) = 3.46349 4.04892 3.76759
# Velocity P-wave (km/s) = 5.78904 7.11468 6.48582
#
# Compressibility (1/GPa) = 0.02958375
#
# Stress axis : x y z
#
# Youngs Moduli (GPa) = 65.89836 82.28611 21.03715
#
# Poissons Ratio (x) = 0.31335 0.19952
# Poissons Ratio (y) = 0.25095 0.19664
# Poissons Ratio (z) = 0.62498 0.76915
#
# Static dielectric constant tensor:
#      x y z
#    x 3.507090 0.000000 0.000000 
#    y 0.000000 3.715420 0.000000 
#    z 0.000000 0.000000 3.315200 
# 
# 
# High freq. dielectric constant tensor:
#      x y z
#    x 1.752890 0.000000 0.000000 
#    y 0.000000 1.750040 0.000000 
#    z 0.000000 0.000000 1.731000 
# 
# From -- ./inp_files/30936.got.cif
#   From: 2010.03.12/outbox.cif.g09.slc.cpg/sg47_16_cif.got.tgz:30936.got - 2010.04.14 03:12:58.
