data_PCOD8198235
_publ_section_title
;
Structure prediction by ZEFSAII (Michael W. Deem and Ramdas Pophale) SiO2 
 PCOD8198235
Probable space group: P M M M
;
_chemical_formula_sum "Si O2"
_cell_formula_units_Z 40
_cell_length_a 8.874843
_cell_length_b 20.206905
_cell_length_c 11.901767
_cell_angle_alpha 90.000000
_cell_angle_beta 90.000000
_cell_angle_gamma 90.000000
_cell_volume 2134.380883
_symmetry_space_group_name_H-M "P M M M"
_symmetry_group_IT_number 47
_symmetry_cell_setting 'orthorhombic'
loop_
_space_group_symop_operation_xyz
x,y,z
-x,-y,z
x,-y,-z
-x,y,-z
-x,-y,-z
x,y,-z
-x,y,z
x,-y,z
loop_
_atom_site_type_symbol
_atom_site_label
_atom_site_fract_x
_atom_site_fract_y
_atom_site_fract_z
Si Si1 0.326877 0.076643 0.871035
Si Si2 0.822413 0.814815 0.272292
Si Si3 0.321188 0.223067 0.500000
Si Si4 0.825622 0.425183 0.279864
Si Si5 0.322387 0.373720 0.500000
Si Si6 0.178669 0.692175 0.125045
O O1 0.500000 0.095826 0.847474
O O2 0.217103 0.117738 0.791295
O O3 0.299404 0.000000 0.844092
O O4 0.285344 0.092017 0.000000
O O5 0.740789 0.814798 0.391680
O O6 0.760845 0.753286 0.198703
O O7 0.000000 0.810160 0.291440
O O8 0.500000 0.219795 0.500000
O O9 0.260653 0.298569 0.500000
O O10 0.799046 0.500000 0.237860
O O11 0.733393 0.412901 0.392097
O O12 0.768307 0.376330 0.181977
O O13 0.000000 0.411647 0.307507
O O14 0.500000 0.373500 0.500000
O O15 0.000000 0.695437 0.116986
O O16 0.249076 0.695977 0.000000
#
# Coordination Sequence:
#
# PCOD8198235 Si02
#       6
#     8   8   4   8   4   8
#     4   9  19  37  60  86 119 157 190 221 263 319
#     4  11  21  35  58  85 114 145 182 234 285 325
#     4  11  23  38  57  80 108 145 188 228 279 344
#     4  10  20  34  54  78 106 142 183 226 273 328
#     4  11  22  36  55  77 105 139 180 231 280 328
#     4   9  18  32  51  78 110 141 176 221 274 327
#
# _framework density 18.740797000000001
#
# number of rings (size 3 to 8) (size 9 to 14) (size 15 to 20)
#    0.000    2.000    2.000    2.700    0.000    4.400 
#    0.000    3.500    0.000    4.800    0.000    1.400 
#    0.000    0.000    0.000    0.000    0.000    0.000 
#
# Total GULP energy -496134.989004 kJ/mol
# GULP energy per Si atom -12403.374725 kJ/mol
# Density = 1.869814 g / cm^3
# Si number density = 18.740797 Si / 1000 Ang^3
#
#
#
# Elastic Constant Matrix: (Units=GPa)
#
#
# Indices 1 2 3 4 5 6 
#
# 1 51.3633 31.4996 34.4238 0.0000 0.0000 0.0000
# 2 31.4996 109.6187 61.2034 0.0000 0.0000 0.0000
# 3 34.4238 61.2034 148.1842 0.0000 0.0000 0.0000
# 4 0.0000 0.0000 0.0000 39.5686 0.0000 0.0000
# 5 0.0000 0.0000 0.0000 0.0000 19.2160 0.0000
# 6 0.0000 0.0000 0.0000 0.0000 0.0000 26.4283
#
#
#
# Elastic Compliance Matrix: (Units=1/GPa)
#
#
# Indices 1 2 3 4 5 6 
#
# 1 0.025110 -0.005145 -0.003708 0.000000 0.000000 0.000000
# 2 -0.005145 0.012911 -0.004137 0.000000 0.000000 0.000000
# 3 -0.003708 -0.004137 0.009319 0.000000 0.000000 0.000000
# 4 0.000000 0.000000 0.000000 0.025273 0.000000 0.000000
# 5 0.000000 0.000000 0.000000 0.000000 0.052040 0.000000
# 6 0.000000 0.000000 0.000000 0.000000 0.000000 0.037838
#
#
# Mechanical properties :
#
#
# Convention : Reuss Voigt Hill
#
# Bulk Modulus (GPa) = 46.82022 62.60223 54.71122
# Shear Modulus (GPa) = 25.56367 29.17856 27.37112
#
# Velocity S-wave (km/s) = 3.69733 3.95011 3.82581
# Velocity P-wave (km/s) = 6.57756 7.36758 6.98375
#
# Compressibility (1/GPa) = 0.02135829
#
# Stress axis : x y z
#
# Youngs Moduli (GPa) = 39.82537 77.45346 107.31291
#
# Poissons Ratio (x) = 0.39851 0.39792
# Poissons Ratio (y) = 0.20491 0.44399
# Poissons Ratio (z) = 0.14767 0.32045
#
# Static dielectric constant tensor:
#      x y z
#    x 3.186680 0.000000 0.000000 
#    y 0.000000 3.481080 0.000000 
#    z 0.000000 0.000000 3.583010 
# 
# 
# High freq. dielectric constant tensor:
#      x y z
#    x 1.707120 0.000000 0.000000 
#    y 0.000000 1.732030 0.000000 
#    z 0.000000 0.000000 1.731220 
# 
# From -- ./inp_files/10667.got.cif
#   From: 2010.03.12/outbox.cif.g09.slc.cpg/sg47_6_cif.got.tgz:10667.got - 2010.04.14 03:12:58.
