data_PCOD8198088
_publ_section_title
;
Structure prediction by ZEFSAII (Michael W. Deem and Ramdas Pophale) SiO2 
 PCOD8198088
Probable space group: P M M M
;
_chemical_formula_sum "Si O2"
_cell_formula_units_Z 36
_cell_length_a 10.497779
_cell_length_b 20.120082
_cell_length_c 9.083634
_cell_angle_alpha 90.000000
_cell_angle_beta 90.000000
_cell_angle_gamma 90.000000
_cell_volume 1918.610422
_symmetry_space_group_name_H-M "P M M M"
_symmetry_group_IT_number 47
_symmetry_cell_setting 'orthorhombic'
loop_
_space_group_symop_operation_xyz
x,y,z
-x,-y,z
x,-y,-z
-x,y,-z
-x,-y,-z
x,y,-z
-x,y,z
x,-y,z
loop_
_atom_site_type_symbol
_atom_site_label
_atom_site_fract_x
_atom_site_fract_y
_atom_site_fract_z
Si Si1 0.000000 0.078574 0.164418
Si Si2 0.142149 0.425465 0.325259
Si Si3 0.352207 0.322120 0.673710
Si Si4 0.252056 0.076321 0.673804
Si Si5 0.355508 0.807095 0.161174
O O1 0.879124 0.102547 0.256471
O O2 0.000000 0.000000 0.154380
O O3 0.000000 0.109386 0.000000
O O4 0.147039 0.425943 0.500000
O O5 0.166192 0.500000 0.265168
O O6 0.256962 0.379200 0.265656
O O7 0.000000 0.401207 0.274668
O O8 0.339158 0.312550 0.500000
O O9 0.500000 0.338970 0.714410
O O10 0.298556 0.254477 0.747320
O O11 0.247026 0.085011 0.500000
O O12 0.355415 0.124452 0.745713
O O13 0.282736 0.000000 0.716183
O O14 0.500000 0.788769 0.133868
O O15 0.288555 0.815149 0.000000
#
# Coordination Sequence:
#
# PCOD8198088 Si02
#       5
#     4   8   8   8   8
#     4   9  17  31  51  73  99 129 160 199 248 301
#     4   8  14  26  46  74 106 134 161 201 254 306
#     4   9  17  30  49  72  99 132 170 212 255 303
#     4  10  20  34  53  76 101 130 167 212 261 311
#     4  10  21  36  52  70  97 134 172 212 260 312
#
# _framework density 18.763580000000001
#
# number of rings (size 3 to 8) (size 9 to 14) (size 15 to 20)
#    0.000    2.778    0.000    2.333    0.000    4.889 
#    2.000    4.444    0.000    0.667    0.000    4.667 
#    0.000    0.000    0.000    0.000    0.000    0.000 
#
# Total GULP energy -446075.781854 kJ/mol
# GULP energy per Si atom -12390.993940 kJ/mol
# Density = 1.872087 g / cm^3
# Si number density = 18.763580 Si / 1000 Ang^3
#
#
#
# Elastic Constant Matrix: (Units=GPa)
#
#
# Indices 1 2 3 4 5 6 
#
# 1 79.7669 58.8456 29.7450 0.0000 0.0000 0.0000
# 2 58.8456 128.7779 49.6776 0.0000 0.0000 0.0000
# 3 29.7450 49.6776 78.1460 0.0000 0.0000 0.0000
# 4 0.0000 0.0000 0.0000 13.9090 0.0000 0.0000
# 5 0.0000 0.0000 0.0000 0.0000 18.6609 0.0000
# 6 0.0000 0.0000 0.0000 0.0000 0.0000 25.5938
#
#
#
# Elastic Compliance Matrix: (Units=1/GPa)
#
#
# Indices 1 2 3 4 5 6 
#
# 1 0.019218 -0.007896 -0.002295 0.000000 0.000000 0.000000
# 2 -0.007896 0.013533 -0.005597 0.000000 0.000000 0.000000
# 3 -0.002295 -0.005597 0.017228 0.000000 0.000000 0.000000
# 4 0.000000 0.000000 0.000000 0.071896 0.000000 0.000000
# 5 0.000000 0.000000 0.000000 0.000000 0.053588 0.000000
# 6 0.000000 0.000000 0.000000 0.000000 0.000000 0.039072
#
#
# Mechanical properties :
#
#
# Convention : Reuss Voigt Hill
#
# Bulk Modulus (GPa) = 54.34367 62.58078 58.46223
# Shear Modulus (GPa) = 19.82194 21.52756 20.67475
#
# Velocity S-wave (km/s) = 3.25376 3.39087 3.32302
# Velocity P-wave (km/s) = 6.56819 6.98250 6.77851
#
# Compressibility (1/GPa) = 0.01840141
#
# Stress axis : x y z
#
# Youngs Moduli (GPa) = 52.03572 73.89518 58.04372
#
# Poissons Ratio (x) = 0.58349 0.13323
# Poissons Ratio (y) = 0.41088 0.32488
# Poissons Ratio (z) = 0.11944 0.41361
#
# Static dielectric constant tensor:
#      x y z
#    x 3.555560 0.000000 0.000000 
#    y 0.000000 3.447190 0.000000 
#    z 0.000000 0.000000 3.455270 
# 
# 
# High freq. dielectric constant tensor:
#      x y z
#    x 1.720160 0.000000 0.000000 
#    y 0.000000 1.718680 0.000000 
#    z 0.000000 0.000000 1.711960 
# 
# From -- ./inp_files/3714.got.cif
#   From: 2010.03.12/outbox.cif.g09.slc.cpg/sg47_2_cif.got.tgz:3714.got - 2010.04.14 03:12:58.
