data_PCOD8198023
_publ_section_title
;
Structure prediction by ZEFSAII (Michael W. Deem and Ramdas Pophale) SiO2 
 PCOD8198023
Probable space group: P M M M
;
_chemical_formula_sum "Si O2"
_cell_formula_units_Z 44
_cell_length_a 8.914155
_cell_length_b 14.380762
_cell_length_c 18.122317
_cell_angle_alpha 90.000000
_cell_angle_beta 90.000000
_cell_angle_gamma 90.000000
_cell_volume 2323.142249
_symmetry_space_group_name_H-M "P M M M"
_symmetry_group_IT_number 47
_symmetry_cell_setting 'orthorhombic'
loop_
_space_group_symop_operation_xyz
x,y,z
-x,-y,z
x,-y,-z
-x,y,-z
-x,-y,-z
x,y,-z
-x,y,z
x,-y,z
loop_
_atom_site_type_symbol
_atom_site_label
_atom_site_fract_x
_atom_site_fract_y
_atom_site_fract_z
Si Si1 0.678380 0.787175 0.918812
Si Si2 0.324699 0.395483 0.680866
Si Si3 0.322645 0.106157 0.776146
Si Si4 0.178357 0.104601 0.500000
Si Si5 0.822414 0.214486 0.357367
Si Si6 0.678219 0.600807 0.849210
O O1 0.500000 0.783029 0.920339
O O2 0.730644 0.861661 0.857721
O O3 0.742808 0.684610 0.898693
O O4 0.739770 0.815650 0.000000
O O5 0.500000 0.373293 0.673528
O O6 0.290021 0.500000 0.652170
O O7 0.232642 0.320714 0.633061
O O8 0.270201 0.384972 0.765099
O O9 0.500000 0.118657 0.767558
O O10 0.243744 0.169936 0.716293
O O11 0.272287 0.000000 0.765193
O O12 0.238114 0.157009 0.572539
O O13 0.000000 0.102826 0.500000
O O14 0.243398 0.000000 0.500000
O O15 0.000000 0.211814 0.352882
O O16 0.500000 0.601305 0.851203
O O17 0.736658 0.500000 0.878342
#
# Coordination Sequence:
#
# PCOD8198023 Si02
#       6
#     8   8   8   4   8   8
#     4   9  16  26  43  70 103 135 171 217 263 307
#     4   9  17  32  55  80 109 143 174 209 256 310
#     4  10  20  34  52  74 103 138 177 221 267 317
#     4   9  20  38  56  77 106 138 173 217 268 315
#     4  11  21  35  58  82 105 135 173 219 265 315
#     4   8  13  23  42  68  98 131 165 205 253 300
#
# _framework density 18.939862999999999
#
# number of rings (size 3 to 8) (size 9 to 14) (size 15 to 20)
#    0.000    2.636    1.818    2.182    0.000    2.182 
#    0.000    5.909    0.000    6.545    0.000    1.273 
#    0.000    2.909    0.000    0.000    0.000    0.000 
#
# Total GULP energy -545386.251549 kJ/mol
# GULP energy per Si atom -12395.142081 kJ/mol
# Density = 1.889676 g / cm^3
# Si number density = 18.939863 Si / 1000 Ang^3
#
#
#
# Elastic Constant Matrix: (Units=GPa)
#
#
# Indices 1 2 3 4 5 6 
#
# 1 25.3834 29.5806 22.2725 0.0000 0.0000 0.0000
# 2 29.5806 144.7754 60.5994 0.0000 0.0000 0.0000
# 3 22.2725 60.5994 110.2917 0.0000 0.0000 0.0000
# 4 0.0000 0.0000 0.0000 30.8414 0.0000 0.0000
# 5 0.0000 0.0000 0.0000 0.0000 4.5232 0.0000
# 6 0.0000 0.0000 0.0000 0.0000 0.0000 21.3475
#
#
#
# Elastic Compliance Matrix: (Units=1/GPa)
#
#
# Indices 1 2 3 4 5 6 
#
# 1 0.054983 -0.008554 -0.006403 0.000000 0.000000 0.000000
# 2 -0.008554 0.010301 -0.003932 0.000000 0.000000 0.000000
# 3 -0.006403 -0.003932 0.012521 0.000000 0.000000 0.000000
# 4 0.000000 0.000000 0.000000 0.032424 0.000000 0.000000
# 5 0.000000 0.000000 0.000000 0.000000 0.221080 0.000000
# 6 0.000000 0.000000 0.000000 0.000000 0.000000 0.046844
#
#
# Mechanical properties :
#
#
# Convention : Reuss Voigt Hill
#
# Bulk Modulus (GPa) = 24.98443 56.15061 40.56752
# Shear Modulus (GPa) = 11.64759 22.54230 17.09494
#
# Velocity S-wave (km/s) = 2.48256 3.45368 3.00757
# Velocity P-wave (km/s) = 4.63007 6.75389 5.79019
#
# Compressibility (1/GPa) = 0.04002492
#
# Stress axis : x y z
#
# Youngs Moduli (GPa) = 18.18757 97.07788 79.86792
#
# Poissons Ratio (x) = 0.83038 0.51143
# Poissons Ratio (y) = 0.15557 0.31408
# Poissons Ratio (z) = 0.11646 0.38176
#
# Static dielectric constant tensor:
#      x y z
#    x 2.930200 0.000000 0.000000 
#    y 0.000000 3.886980 0.000000 
#    z 0.000000 0.000000 3.557320 
# 
# 
# High freq. dielectric constant tensor:
#      x y z
#    x 1.677770 0.000000 0.000000 
#    y 0.000000 1.755580 0.000000 
#    z 0.000000 0.000000 1.725680 
# 
# From -- ./inp_files/20925.got.cif
#   From: 2010.03.12/outbox.cif.g09.slc.cpg/sg47_11_cif.got.tgz:20925.got - 2010.04.14 03:12:58.
