data_PCOD8198127
_publ_section_title
;
Structure prediction by ZEFSAII (Michael W. Deem and Ramdas Pophale) SiO2 
 PCOD8198127
Probable space group: P M M M
;
_chemical_formula_sum "Si O2"
_cell_formula_units_Z 52
_cell_length_a 8.950621
_cell_length_b 14.173167
_cell_length_c 23.409355
_cell_angle_alpha 90.000000
_cell_angle_beta 90.000000
_cell_angle_gamma 90.000000
_cell_volume 2969.679083
_symmetry_space_group_name_H-M "P M M M"
_symmetry_group_IT_number 47
_symmetry_cell_setting 'orthorhombic'
loop_
_space_group_symop_operation_xyz
x,y,z
-x,-y,z
x,-y,-z
-x,y,-z
-x,-y,-z
x,y,-z
-x,y,z
x,-y,z
loop_
_atom_site_type_symbol
_atom_site_label
_atom_site_fract_x
_atom_site_fract_y
_atom_site_fract_z
Si Si1 0.324693 0.893496 0.739681
Si Si2 0.828159 0.106603 0.379829
Si Si3 0.175779 0.285324 0.224628
Si Si4 0.676394 0.602735 0.000000
Si Si5 0.671473 0.269958 0.563790
Si Si6 0.674820 0.391841 0.671259
Si Si7 0.670251 0.612634 0.123277
O O1 0.500000 0.875467 0.742116
O O2 0.271023 0.873785 0.675647
O O3 0.243343 0.819952 0.781560
O O4 0.283526 0.000000 0.758791
O O5 0.773484 0.177397 0.428704
O O6 0.000000 0.126144 0.364023
O O7 0.806143 0.000000 0.402224
O O8 0.236404 0.334978 0.281207
O O9 0.218390 0.344278 0.169010
O O10 0.000000 0.278200 0.229121
O O11 0.718862 0.653255 0.939826
O O12 0.753741 0.500000 0.000000
O O13 0.500000 0.588297 0.000000
O O14 0.699241 0.309969 0.500000
O O15 0.500000 0.239401 0.572088
O O16 0.715105 0.350966 0.608907
O O17 0.500000 0.382629 0.684884
O O18 0.726888 0.500000 0.672452
O O19 0.500000 0.642077 0.137941
O O20 0.684645 0.500000 0.123896
#
# Coordination Sequence:
#
# PCOD8198127 Si02
#       7
#     8   8   8   4   8   8   8
#     4  10  20  35  56  78 100 129 166 209 256 306
#     4  10  20  34  53  77 103 130 159 197 253 315
#     4  12  23  33  50  78 110 140 170 207 254 308
#     4   7  12  26  49  75 102 137 182 225 257 288
#     4  10  21  36  54  75  98 129 171 214 256 306
#     4  10  21  37  55  73  97 132 173 216 260 303
#     4   9  17  31  52  77 107 144 184 221 255 294
#
# _framework density 17.510308999999999
#
# number of rings (size 3 to 8) (size 9 to 14) (size 15 to 20)
#    0.000    2.077    1.538    3.692    0.000    5.231 
#    0.000    3.462    0.000    1.385    0.000    2.692 
#    0.000    4.308    0.000    0.000    0.000    0.000 
#
# Total GULP energy -644676.532927 kJ/mol
# GULP energy per Si atom -12397.625633 kJ/mol
# Density = 1.747045 g / cm^3
# Si number density = 17.510309 Si / 1000 Ang^3
#
#
#
# Elastic Constant Matrix: (Units=GPa)
#
#
# Indices 1 2 3 4 5 6 
#
# 1 80.2743 47.8666 43.6483 0.0000 0.0000 0.0000
# 2 47.8666 94.2248 43.6647 0.0000 0.0000 0.0000
# 3 43.6483 43.6647 110.3520 0.0000 0.0000 0.0000
# 4 0.0000 0.0000 0.0000 14.8584 0.0000 0.0000
# 5 0.0000 0.0000 0.0000 0.0000 1.9965 0.0000
# 6 0.0000 0.0000 0.0000 0.0000 0.0000 19.5101
#
#
#
# Elastic Compliance Matrix: (Units=1/GPa)
#
#
# Indices 1 2 3 4 5 6 
#
# 1 0.019668 -0.007820 -0.004685 0.000000 0.000000 0.000000
# 2 -0.007820 0.016105 -0.003279 0.000000 0.000000 0.000000
# 3 -0.004685 -0.003279 0.012213 0.000000 0.000000 0.000000
# 4 0.000000 0.000000 0.000000 0.067302 0.000000 0.000000
# 5 0.000000 0.000000 0.000000 0.000000 0.500869 0.000000
# 6 0.000000 0.000000 0.000000 0.000000 0.000000 0.051255
#
#
# Mechanical properties :
#
#
# Convention : Reuss Voigt Hill
#
# Bulk Modulus (GPa) = 60.91466 61.69003 61.30235
# Shear Modulus (GPa) = 7.09769 17.25111 12.17440
#
# Velocity S-wave (km/s) = 2.01550 3.14219 2.63966
# Velocity P-wave (km/s) = 6.34663 6.96216 6.66151
#
# Compressibility (1/GPa) = 0.01641641
#
# Stress axis : x y z
#
# Youngs Moduli (GPa) = 50.84443 62.09104 81.88241
#
# Poissons Ratio (x) = 0.48557 0.38362
# Poissons Ratio (y) = 0.39762 0.26853
# Poissons Ratio (z) = 0.23821 0.20362
#
# Static dielectric constant tensor:
#      x y z
#    x 3.172310 0.000000 0.000000 
#    y 0.000000 3.322980 0.000000 
#    z 0.000000 0.000000 3.339490 
# 
# 
# High freq. dielectric constant tensor:
#      x y z
#    x 1.670890 0.000000 0.000000 
#    y 0.000000 1.666000 0.000000 
#    z 0.000000 0.000000 1.665930 
# 
# From -- ./inp_files/6937.got.cif
#   From: 2010.03.12/outbox.cif.g09.slc.cpg/sg47_4_cif.got.tgz:6937.got - 2010.04.14 03:12:58.
