data_PCOD8198105
_publ_section_title
;
Structure prediction by ZEFSAII (Michael W. Deem and Ramdas Pophale) SiO2 
 PCOD8198105
Probable space group: P M M M
;
_chemical_formula_sum "Si O2"
_cell_formula_units_Z 64
_cell_length_a 14.418429
_cell_length_b 9.242518
_cell_length_c 25.192990
_cell_angle_alpha 90.000000
_cell_angle_beta 90.000000
_cell_angle_gamma 90.000000
_cell_volume 3357.283086
_symmetry_space_group_name_H-M "P M M M"
_symmetry_group_IT_number 47
_symmetry_cell_setting 'orthorhombic'
loop_
_space_group_symop_operation_xyz
x,y,z
-x,-y,z
x,-y,-z
-x,y,-z
-x,-y,-z
x,y,-z
-x,y,z
x,-y,z
loop_
_atom_site_type_symbol
_atom_site_label
_atom_site_fract_x
_atom_site_fract_y
_atom_site_fract_z
Si Si1 0.395248 0.168155 0.271706
Si Si2 0.398265 0.662187 0.936939
Si Si3 0.600395 0.828726 0.393903
Si Si4 0.893514 0.666709 0.857055
Si Si5 0.212153 0.171816 0.558332
Si Si6 0.221759 0.831888 0.938023
Si Si7 0.107077 0.829601 0.661738
Si Si8 0.780823 0.670928 0.246985
O O1 0.500000 0.200148 0.251825
O O2 0.384635 0.213413 0.332866
O O3 0.322824 0.266430 0.239304
O O4 0.370719 0.000000 0.263492
O O5 0.500000 0.713019 0.916320
O O6 0.377193 0.500000 0.916453
O O7 0.318601 0.767924 0.915457
O O8 0.398732 0.664360 0.000000
O O9 0.500000 0.767745 0.413682
O O10 0.685545 0.764224 0.427853
O O11 0.598614 0.000000 0.398985
O O12 0.876850 0.500000 0.871421
O O13 0.863697 0.760034 0.907718
O O14 0.836232 0.713585 0.805646
O O15 0.000000 0.699764 0.844465
O O16 0.182417 0.230201 0.500000
O O17 0.137537 0.219538 0.602487
O O18 0.218221 0.000000 0.557347
O O19 0.222765 0.000000 0.925878
O O20 0.208851 0.797932 0.000000
O O21 0.168687 0.743899 0.703408
O O22 0.000000 0.788157 0.669367
O O23 0.124401 0.000000 0.669939
O O24 0.777581 0.500000 0.256131
#
# Coordination Sequence:
#
# PCOD8198105 Si02
#       8
#     8   8   8   8   8   8   8   8
#     4   9  17  32  56  83 112 145 179 217 264 323
#     4   8  14  27  50  79 110 147 189 225 257 302
#     4   8  13  23  42  69 101 135 170 212 262 315
#     4  10  23  42  60  79 105 141 186 231 274 321
#     4   9  16  26  43  71 106 139 176 225 274 322
#     4  10  21  36  56  85 118 148 179 220 272 327
#     4  10  20  34  53  76 103 139 183 228 279 336
#     4  11  22  37  59  84 110 138 176 229 276 322
#
# _framework density 19.063033999999998
#
# number of rings (size 3 to 8) (size 9 to 14) (size 15 to 20)
#    0.000    2.625    1.250    2.250    0.000    4.000 
#    0.000    5.625    0.000    1.125    0.000    0.875 
#    0.000    2.000    0.000    0.000    0.000    0.000 
#
# Total GULP energy -793371.331220 kJ/mol
# GULP energy per Si atom -12396.427050 kJ/mol
# Density = 1.901965 g / cm^3
# Si number density = 19.063034 Si / 1000 Ang^3
#
#
#
# Elastic Constant Matrix: (Units=GPa)
#
#
# Indices 1 2 3 4 5 6 
#
# 1 131.5500 49.8395 54.1733 0.0000 0.0000 0.0000
# 2 49.8395 60.6432 45.0568 0.0000 0.0000 0.0000
# 3 54.1733 45.0568 76.7713 0.0000 0.0000 0.0000
# 4 0.0000 0.0000 0.0000 17.3006 0.0000 0.0000
# 5 0.0000 0.0000 0.0000 0.0000 28.3618 0.0000
# 6 0.0000 0.0000 0.0000 0.0000 0.0000 26.8365
#
#
#
# Elastic Compliance Matrix: (Units=1/GPa)
#
#
# Indices 1 2 3 4 5 6 
#
# 1 0.011933 -0.006296 -0.004725 0.000000 0.000000 0.000000
# 2 -0.006296 0.032563 -0.014668 0.000000 0.000000 0.000000
# 3 -0.004725 -0.014668 0.024968 0.000000 0.000000 0.000000
# 4 0.000000 0.000000 0.000000 0.057801 0.000000 0.000000
# 5 0.000000 0.000000 0.000000 0.000000 0.035259 0.000000
# 6 0.000000 0.000000 0.000000 0.000000 0.000000 0.037263
#
#
# Mechanical properties :
#
#
# Convention : Reuss Voigt Hill
#
# Bulk Modulus (GPa) = 55.29356 63.01153 59.15254
# Shear Modulus (GPa) = 19.44060 22.49279 20.96669
#
# Velocity S-wave (km/s) = 3.19690 3.43872 3.32001
# Velocity P-wave (km/s) = 6.53418 6.99231 6.76713
#
# Compressibility (1/GPa) = 0.01808529
#
# Stress axis : x y z
#
# Youngs Moduli (GPa) = 83.80119 30.71014 40.05058
#
# Poissons Ratio (x) = 0.19336 0.18924
# Poissons Ratio (y) = 0.52765 0.58745
# Poissons Ratio (z) = 0.39597 0.45045
#
# Static dielectric constant tensor:
#      x y z
#    x 3.850770 0.000000 0.000000 
#    y 0.000000 3.177950 0.000000 
#    z 0.000000 0.000000 3.400000 
# 
# 
# High freq. dielectric constant tensor:
#      x y z
#    x 1.757620 0.000000 0.000000 
#    y 0.000000 1.703580 0.000000 
#    z 0.000000 0.000000 1.725260 
# 
# From -- ./inp_files/32119.got.cif
#   From: 2010.03.12/outbox.cif.g09.slc.cpg/sg47_17_cif.got.tgz:32119.got - 2010.04.14 03:12:58.
