data_PCOD8198439
_publ_section_title
;
Structure prediction by ZEFSAII (Michael W. Deem and Ramdas Pophale) SiO2 
 PCOD8198439
Probable space group: P M M M
;
_chemical_formula_sum "Si O2"
_cell_formula_units_Z 64
_cell_length_a 15.593208
_cell_length_b 23.947151
_cell_length_c 8.889631
_cell_angle_alpha 90.000000
_cell_angle_beta 90.000000
_cell_angle_gamma 90.000000
_cell_volume 3319.502950
_symmetry_space_group_name_H-M "P M M M"
_symmetry_group_IT_number 47
_symmetry_cell_setting 'orthorhombic'
loop_
_space_group_symop_operation_xyz
x,y,z
-x,-y,z
x,-y,-z
-x,y,-z
-x,-y,-z
x,y,-z
-x,y,z
x,-y,z
loop_
_atom_site_type_symbol
_atom_site_label
_atom_site_fract_x
_atom_site_fract_y
_atom_site_fract_z
Si Si1 0.595192 0.937341 0.821115
Si Si2 0.246664 0.737455 0.821720
Si Si3 0.904055 0.669465 0.327344
Si Si4 0.095160 0.937366 0.178856
Si Si5 0.847265 0.437019 0.176089
Si Si6 0.250017 0.863317 0.179764
Si Si7 0.405026 0.336485 0.826365
Si Si8 0.666894 0.562679 0.326661
O O1 0.500000 0.919223 0.766118
O O2 0.665629 0.894571 0.756117
O O3 0.616102 0.000000 0.763960
O O4 0.598257 0.936737 0.000000
O O5 0.161862 0.707687 0.762299
O O6 0.249792 0.800331 0.758084
O O7 0.333155 0.706517 0.766505
O O8 0.241488 0.737697 0.000000
O O9 0.875424 0.667840 0.500000
O O10 0.906545 0.606450 0.263778
O O11 0.000000 0.694162 0.309263
O O12 0.165615 0.894611 0.243640
O O13 0.000000 0.919126 0.233841
O O14 0.115886 0.000000 0.236394
O O15 0.098300 0.936942 0.000000
O O16 0.877269 0.500000 0.215226
O O17 0.749975 0.427148 0.225397
O O18 0.854397 0.425041 0.000000
O O19 0.250527 0.863979 0.000000
O O20 0.500000 0.309986 0.805365
O O21 0.403382 0.393406 0.729827
O O22 0.388023 0.351274 0.000000
O O23 0.690714 0.573499 0.500000
O O24 0.630774 0.500000 0.304468
#
# Coordination Sequence:
#
# PCOD8198439 Si02
#       8
#     8   8   8   8   8   8   8   8
#     4   8  13  21  35  59  94 135 173 207 250 308
#     4  10  21  36  53  75 103 138 180 226 272 315
#     4  11  24  40  58  79 105 140 179 220 267 317
#     4   8  13  21  34  55  86 122 156 194 247 308
#     4  10  20  35  58  86 113 139 168 208 262 320
#     4   9  16  25  40  62  90 127 170 212 255 305
#     4  10  21  36  53  74 103 140 180 221 268 320
#     4  10  20  34  55  82 109 137 171 214 265 319
#
# _framework density 19.279995
#
# number of rings (size 3 to 8) (size 9 to 14) (size 15 to 20)
#    0.000    2.500    1.250    2.250    0.000    5.750 
#    0.000    6.250    0.000    0.000    0.000    0.000 
#    0.000    2.000    0.000    8.250    0.000    6.500 
#
# Total GULP energy -793414.473899 kJ/mol
# GULP energy per Si atom -12397.101155 kJ/mol
# Density = 1.923611 g / cm^3
# Si number density = 19.279995 Si / 1000 Ang^3
#
#
#
# Elastic Constant Matrix: (Units=GPa)
#
#
# Indices 1 2 3 4 5 6 
#
# 1 138.6597 82.1732 15.5580 0.0000 0.0000 0.0000
# 2 82.1732 144.1619 20.3458 0.0000 0.0000 0.0000
# 3 15.5580 20.3458 19.4306 0.0000 0.0000 0.0000
# 4 0.0000 0.0000 0.0000 4.9486 0.0000 0.0000
# 5 0.0000 0.0000 0.0000 0.0000 12.6386 0.0000
# 6 0.0000 0.0000 0.0000 0.0000 0.0000 16.6728
#
#
#
# Elastic Compliance Matrix: (Units=1/GPa)
#
#
# Indices 1 2 3 4 5 6 
#
# 1 0.011004 -0.005901 -0.002632 0.000000 0.000000 0.000000
# 2 -0.005901 0.011304 -0.007111 0.000000 0.000000 0.000000
# 3 -0.002632 -0.007111 0.061019 0.000000 0.000000 0.000000
# 4 0.000000 0.000000 0.000000 0.202075 0.000000 0.000000
# 5 0.000000 0.000000 0.000000 0.000000 0.079123 0.000000
# 6 0.000000 0.000000 0.000000 0.000000 0.000000 0.059978
#
#
# Mechanical properties :
#
#
# Convention : Reuss Voigt Hill
#
# Bulk Modulus (GPa) = 19.21663 59.82291 39.51977
# Shear Modulus (GPa) = 10.56772 19.13035 14.84904
#
# Velocity S-wave (km/s) = 2.34373 3.15340 2.77822
# Velocity P-wave (km/s) = 4.16088 6.65991 5.55281
#
# Compressibility (1/GPa) = 0.05203825
#
# Stress axis : x y z
#
# Youngs Moduli (GPa) = 90.87306 88.46476 16.38829
#
# Poissons Ratio (x) = 0.52204 0.04314
# Poissons Ratio (y) = 0.53625 0.11654
# Poissons Ratio (z) = 0.23919 0.62911
#
# Static dielectric constant tensor:
#      x y z
#    x 3.649600 0.000000 0.000000 
#    y 0.000000 3.713710 0.000000 
#    z 0.000000 0.000000 3.061510 
# 
# 
# High freq. dielectric constant tensor:
#      x y z
#    x 1.756570 0.000000 0.000000 
#    y 0.000000 1.747900 0.000000 
#    z 0.000000 0.000000 1.703030 
# 
# From -- ./inp_files/7884.got.cif
#   From: 2010.03.12/outbox.cif.g09.slc.cpg/sg47_4_cif.got.tgz:7884.got - 2010.04.14 03:12:58.
