data_PCOD8198725
_publ_section_title
;
Structure prediction by ZEFSAII (Michael W. Deem and Ramdas Pophale) SiO2 
 PCOD8198725
Probable space group: P M M M
;
_chemical_formula_sum "Si O2"
_cell_formula_units_Z 44
_cell_length_a 8.943026
_cell_length_b 28.582535
_cell_length_c 9.322932
_cell_angle_alpha 90.000000
_cell_angle_beta 90.000000
_cell_angle_gamma 90.000000
_cell_volume 2383.075237
_symmetry_space_group_name_H-M "P M M M"
_symmetry_group_IT_number 47
_symmetry_cell_setting 'orthorhombic'
loop_
_space_group_symop_operation_xyz
x,y,z
-x,-y,z
x,-y,-z
-x,y,-z
-x,-y,-z
x,y,-z
-x,y,z
x,-y,z
loop_
_atom_site_type_symbol
_atom_site_label
_atom_site_fract_x
_atom_site_fract_y
_atom_site_fract_z
Si Si1 0.677863 0.051683 0.161070
Si Si2 0.321706 0.138410 0.661251
Si Si3 0.324398 0.415659 0.167077
Si Si4 0.175900 0.500000 0.332776
Si Si5 0.325045 0.771714 0.166357
Si Si6 0.831984 0.321463 0.829744
O O1 0.500000 0.054130 0.161459
O O2 0.744045 0.091457 0.265353
O O3 0.729923 0.000000 0.213376
O O4 0.736582 0.060997 0.000000
O O5 0.259642 0.140807 0.500000
O O6 0.500000 0.137167 0.663538
O O7 0.264141 0.183617 0.747232
O O8 0.500000 0.417990 0.194238
O O9 0.244366 0.454495 0.260485
O O10 0.264577 0.365667 0.221978
O O11 0.285889 0.423890 0.000000
O O12 0.216950 0.500000 0.500000
O O13 0.000000 0.500000 0.306555
O O14 0.500000 0.763733 0.190592
O O15 0.241882 0.726117 0.228803
O O16 0.288319 0.780373 0.000000
O O17 0.000000 0.326003 0.769183
O O18 0.831609 0.319640 0.000000
#
# Coordination Sequence:
#
# PCOD8198725 Si02
#       6
#     8   8   8   4   8   8
#     4   8  13  21  33  50  75 109 147 185 227 276
#     4   9  16  24  35  54  81 113 149 188 229 274
#     4  10  20  35  57  83 107 133 169 210 251 297
#     4  11  24  39  54  76 108 143 176 209 248 294
#     4   9  16  27  44  64  87 117 152 189 230 278
#     4   9  17  30  50  75  99 123 156 200 245 286
#
# _framework density 18.463538
#
# number of rings (size 3 to 8) (size 9 to 14) (size 15 to 20)
#    0.000    2.818    0.000    2.727    0.000    7.636 
#    0.000    2.727    0.000    3.818    0.000    0.000 
#    0.000    0.727    0.000    8.364    0.000   10.727 
#
# Total GULP energy -545512.213405 kJ/mol
# GULP energy per Si atom -12398.004850 kJ/mol
# Density = 1.842151 g / cm^3
# Si number density = 18.463538 Si / 1000 Ang^3
#
#
#
# Elastic Constant Matrix: (Units=GPa)
#
#
# Indices 1 2 3 4 5 6 
#
# 1 60.5254 53.5018 39.3221 0.0000 0.0000 0.0000
# 2 53.5018 203.0919 87.9233 0.0000 0.0000 0.0000
# 3 39.3221 87.9233 95.2501 0.0000 0.0000 0.0000
# 4 0.0000 0.0000 0.0000 2.4868 0.0000 0.0000
# 5 0.0000 0.0000 0.0000 0.0000 12.8412 0.0000
# 6 0.0000 0.0000 0.0000 0.0000 0.0000 -1.9090
#
#
#
# Elastic Compliance Matrix: (Units=1/GPa)
#
#
# Indices 1 2 3 4 5 6 
#
# 1 0.023887 -0.003370 -0.006750 0.000000 0.000000 0.000000
# 2 -0.003370 0.008677 -0.006618 0.000000 0.000000 0.000000
# 3 -0.006750 -0.006618 0.019394 0.000000 0.000000 0.000000
# 4 0.000000 0.000000 0.000000 0.402125 0.000000 0.000000
# 5 0.000000 0.000000 0.000000 0.000000 0.077874 0.000000
# 6 0.000000 0.000000 0.000000 0.000000 0.000000 -0.523841
#
#
# Mechanical properties :
#
#
# Convention : Reuss Voigt Hill
#
# Bulk Modulus (GPa) = 54.10992 80.04020 67.07506
# Shear Modulus (GPa) = 104.70502 14.55848 59.63175
#
# Velocity S-wave (km/s) = 7.53871 2.81107 5.68921
# Velocity P-wave (km/s) = 10.25408 7.34715 8.91983
#
# Compressibility (1/GPa) = 0.01848090
#
# Stress axis : x y z
#
# Youngs Moduli (GPa) = 41.86453 115.24916 51.56168
#
# Poissons Ratio (x) = 0.38843 0.34804
# Poissons Ratio (y) = 0.14110 0.34124
# Poissons Ratio (z) = 0.28259 0.76272
#
# Static dielectric constant tensor:
#      x y z
#    x 3.083510 0.000000 0.000000 
#    y 0.000000 3.760970 0.000000 
#    z 0.000000 0.000000 3.286020 
# 
# 
# High freq. dielectric constant tensor:
#      x y z
#    x 1.678010 0.000000 0.000000 
#    y 0.000000 1.737590 0.000000 
#    z 0.000000 0.000000 1.690740 
# 
# From -- ./inp_files/2022.got.cif
#   From: 2010.03.12/outbox.cif.g09.slc.cpg/sg47_2_cif.got.tgz:2022.got - 2010.04.14 03:12:58.
