data_PCOD8198646
_publ_section_title
;
Structure prediction by ZEFSAII (Michael W. Deem and Ramdas Pophale) SiO2 
 PCOD8198646
Probable space group: P M M M
;
_chemical_formula_sum "Si O2"
_cell_formula_units_Z 52
_cell_length_a 20.814866
_cell_length_b 9.387250
_cell_length_c 14.275014
_cell_angle_alpha 90.000000
_cell_angle_beta 90.000000
_cell_angle_gamma 90.000000
_cell_volume 2789.257094
_symmetry_space_group_name_H-M "P M M M"
_symmetry_group_IT_number 47
_symmetry_cell_setting 'orthorhombic'
loop_
_space_group_symop_operation_xyz
x,y,z
-x,-y,z
x,-y,-z
-x,y,-z
-x,-y,-z
x,y,-z
-x,y,z
x,-y,z
loop_
_atom_site_type_symbol
_atom_site_label
_atom_site_fract_x
_atom_site_fract_y
_atom_site_fract_z
Si Si1 0.569768 0.333001 0.713700
Si Si2 0.306096 0.663179 0.609617
Si Si3 0.758769 0.162514 0.106670
Si Si4 0.000000 0.669430 0.109891
Si Si5 0.888779 0.163995 0.212212
Si Si6 0.180153 0.165396 0.393936
Si Si7 0.363062 0.334862 0.896007
O O1 0.500000 0.266926 0.685152
O O2 0.568025 0.500000 0.692477
O O3 0.629845 0.268140 0.656411
O O4 0.579065 0.303509 0.824638
O O5 0.317135 0.674815 0.500000
O O6 0.296239 0.500000 0.642145
O O7 0.242952 0.749463 0.639887
O O8 0.820356 0.196650 0.167756
O O9 0.700306 0.257878 0.143024
O O10 0.737096 0.000000 0.117230
O O11 0.776208 0.200675 0.000000
O O12 0.938699 0.731454 0.163517
O O13 0.000000 0.500000 0.119716
O O14 0.000000 0.714442 0.000000
O O15 0.879777 0.196444 0.323660
O O16 0.910356 0.000000 0.195784
O O17 0.159594 0.208561 0.500000
O O18 0.198867 0.000000 0.388194
O O19 0.345906 0.500000 0.898535
O O20 0.382280 0.279646 0.000000
#
# Coordination Sequence:
#
# PCOD8198646 Si02
#       7
#     8   8   8   4   8   8   8
#     4   9  17  28  42  62  89 121 158 200 243 289
#     4   9  17  29  47  71  96 124 160 202 249 298
#     4   9  17  29  47  71  95 120 155 199 244 290
#     4  11  25  41  56  79 110 140 169 203 244 287
#     4  10  20  35  56  78 102 137 174 204 240 290
#     4   9  18  33  54  80 106 131 164 207 252 295
#     4   9  17  28  43  64  88 116 153 197 245 294
#
# _framework density 18.642956999999999
#
# number of rings (size 3 to 8) (size 9 to 14) (size 15 to 20)
#    0.000    2.692    0.000    1.615    0.000    3.077 
#    0.000    5.000    0.000    4.154    0.000    4.308 
#    0.000    0.000    0.000    0.000    0.000    0.000 
#
# Total GULP energy -644532.280635 kJ/mol
# GULP energy per Si atom -12394.851551 kJ/mol
# Density = 1.860052 g / cm^3
# Si number density = 18.642957 Si / 1000 Ang^3
#
#
#
# Elastic Constant Matrix: (Units=GPa)
#
#
# Indices 1 2 3 4 5 6 
#
# 1 90.0396 43.0522 54.3547 0.0000 0.0000 0.0000
# 2 43.0522 50.4014 32.2278 0.0000 0.0000 0.0000
# 3 54.3547 32.2278 85.7062 0.0000 0.0000 0.0000
# 4 0.0000 0.0000 0.0000 20.1930 0.0000 0.0000
# 5 0.0000 0.0000 0.0000 0.0000 11.6167 0.0000
# 6 0.0000 0.0000 0.0000 0.0000 0.0000 6.5592
#
#
#
# Elastic Compliance Matrix: (Units=1/GPa)
#
#
# Indices 1 2 3 4 5 6 
#
# 1 0.023691 -0.013994 -0.009763 0.000000 0.000000 0.000000
# 2 -0.013994 0.034388 -0.004056 0.000000 0.000000 0.000000
# 3 -0.009763 -0.004056 0.019384 0.000000 0.000000 0.000000
# 4 0.000000 0.000000 0.000000 0.049522 0.000000 0.000000
# 5 0.000000 0.000000 0.000000 0.000000 0.086083 0.000000
# 6 0.000000 0.000000 0.000000 0.000000 0.000000 0.152457
#
#
# Mechanical properties :
#
#
# Convention : Reuss Voigt Hill
#
# Bulk Modulus (GPa) = 45.79152 53.93518 49.86335
# Shear Modulus (GPa) = 11.67055 14.10793 12.88924
#
# Velocity S-wave (km/s) = 2.50472 2.75388 2.63225
# Velocity P-wave (km/s) = 5.74287 6.25342 6.00357
#
# Compressibility (1/GPa) = 0.02183811
#
# Stress axis : x y z
#
# Youngs Moduli (GPa) = 42.21041 29.08033 51.58839
#
# Poissons Ratio (x) = 0.40695 0.50363
# Poissons Ratio (y) = 0.59069 0.20923
# Poissons Ratio (z) = 0.41208 0.11794
#
# Static dielectric constant tensor:
#      x y z
#    x 3.501480 0.000000 0.000000 
#    y 0.000000 3.274610 0.000000 
#    z 0.000000 0.000000 3.739440 
# 
# 
# High freq. dielectric constant tensor:
#      x y z
#    x 1.709770 0.000000 0.000000 
#    y 0.000000 1.695980 0.000000 
#    z 0.000000 0.000000 1.739650 
# 
# From -- ./inp_files/25009.got.cif
#   From: 2010.03.12/outbox.cif.g09.slc.cpg/sg47_13_cif.got.tgz:25009.got - 2010.04.14 03:12:58.
