data_PCOD8198309
_publ_section_title
;
Structure prediction by ZEFSAII (Michael W. Deem and Ramdas Pophale) SiO2 
 PCOD8198309
Probable space group: P M M M
;
_chemical_formula_sum "Si O2"
_cell_formula_units_Z 44
_cell_length_a 9.340123
_cell_length_b 28.756179
_cell_length_c 8.971239
_cell_angle_alpha 90.000000
_cell_angle_beta 90.000000
_cell_angle_gamma 90.000000
_cell_volume 2409.551431
_symmetry_space_group_name_H-M "P M M M"
_symmetry_group_IT_number 47
_symmetry_cell_setting 'orthorhombic'
loop_
_space_group_symop_operation_xyz
x,y,z
-x,-y,z
x,-y,-z
-x,y,-z
-x,-y,-z
x,y,-z
-x,y,z
x,-y,z
loop_
_atom_site_type_symbol
_atom_site_label
_atom_site_fract_x
_atom_site_fract_y
_atom_site_fract_z
Si Si1 0.664747 0.730072 0.173054
Si Si2 0.840007 0.450836 0.676803
Si Si3 0.170240 0.000000 0.331850
Si Si4 0.833214 0.907322 0.174010
Si Si5 0.829113 0.350451 0.670673
Si Si6 0.332422 0.824812 0.672329
O O1 0.500000 0.718200 0.207647
O O2 0.760451 0.686831 0.220625
O O3 0.715252 0.774866 0.265555
O O4 0.689601 0.740738 0.000000
O O5 0.848308 0.449051 0.500000
O O6 0.761958 0.500000 0.726439
O O7 0.769855 0.401557 0.725803
O O8 0.000000 0.452611 0.742248
O O9 0.228123 0.954075 0.249714
O O10 0.229002 0.000000 0.500000
O O11 0.000000 0.000000 0.326925
O O12 0.750842 0.863606 0.237766
O O13 0.000000 0.900724 0.209970
O O14 0.803691 0.911524 0.000000
O O15 0.782695 0.340449 0.500000
O O16 0.000000 0.348837 0.684866
O O17 0.289393 0.827596 0.500000
O O18 0.500000 0.832772 0.697797
#
# Coordination Sequence:
#
# PCOD8198309 Si02
#       6
#     8   8   4   8   8   8
#     4  10  21  36  52  69  93 129 168 202 242 294
#     4   7  10  19  38  65  95 123 151 188 236 286
#     4   9  17  31  52  77 106 139 172 206 244 285
#     4  10  20  34  54  80 108 137 168 202 243 292
#     4   9  17  29  48  75 101 124 156 200 246 290
#     4  10  21  37  56  76  98 127 165 208 252 296
#
# _framework density 18.260659
#
# number of rings (size 3 to 8) (size 9 to 14) (size 15 to 20)
#    0.000    2.818    0.000    3.545    0.000    5.455 
#    0.000    0.455    0.000    3.818    0.000    6.364 
#    0.000    0.000    0.000    0.000    0.000    0.000 
#
# Total GULP energy -545249.311107 kJ/mol
# GULP energy per Si atom -12392.029798 kJ/mol
# Density = 1.821910 g / cm^3
# Si number density = 18.260659 Si / 1000 Ang^3
#
#
#
# Elastic Constant Matrix: (Units=GPa)
#
#
# Indices 1 2 3 4 5 6 
#
# 1 28.3299 38.2727 20.7110 0.0000 0.0000 0.0000
# 2 38.2727 150.2878 31.8678 0.0000 0.0000 0.0000
# 3 20.7110 31.8678 49.7374 0.0000 0.0000 0.0000
# 4 0.0000 0.0000 0.0000 6.3052 0.0000 0.0000
# 5 0.0000 0.0000 0.0000 0.0000 23.8033 0.0000
# 6 0.0000 0.0000 0.0000 0.0000 0.0000 -46.9487
#
#
#
# Elastic Compliance Matrix: (Units=1/GPa)
#
#
# Indices 1 2 3 4 5 6 
#
# 1 0.067149 -0.012928 -0.019678 0.000000 0.000000 0.000000
# 2 -0.012928 0.010189 -0.001145 0.000000 0.000000 0.000000
# 3 -0.019678 -0.001145 0.029033 0.000000 0.000000 0.000000
# 4 0.000000 0.000000 0.000000 0.158599 0.000000 0.000000
# 5 0.000000 0.000000 0.000000 0.000000 0.042011 0.000000
# 6 0.000000 0.000000 0.000000 0.000000 0.000000 -0.021300
#
#
# Mechanical properties :
#
#
# Convention : Reuss Voigt Hill
#
# Bulk Modulus (GPa) = 25.72716 45.56201 35.64458
# Shear Modulus (GPa) = 13.65596 5.79888 9.72742
#
# Velocity S-wave (km/s) = 2.73762 1.78396 2.31053
# Velocity P-wave (km/s) = 4.91042 5.40818 5.16530
#
# Compressibility (1/GPa) = 0.03886943
#
# Stress axis : x y z
#
# Youngs Moduli (GPa) = 14.89217 98.14591 34.44301
#
# Poissons Ratio (x) = 1.26880 0.67778
# Poissons Ratio (y) = 0.19252 0.03944
# Poissons Ratio (z) = 0.29305 0.11238
#
# Static dielectric constant tensor:
#      x y z
#    x 2.987830 0.000000 0.000000 
#    y 0.000000 3.836780 0.000000 
#    z 0.000000 0.000000 3.279790 
# 
# 
# High freq. dielectric constant tensor:
#      x y z
#    x 1.662940 0.000000 0.000000 
#    y 0.000000 1.734950 0.000000 
#    z 0.000000 0.000000 1.696870 
# 
# From -- ./inp_files/2312.got.cif
#   From: 2010.03.12/outbox.cif.g09.slc.cpg/sg47_2_cif.got.tgz:2312.got - 2010.04.14 03:12:58.
