data_PCOD8198224
_publ_section_title
;
Structure prediction by ZEFSAII (Michael W. Deem and Ramdas Pophale) SiO2 
 PCOD8198224
Probable space group: P M M M
;
_chemical_formula_sum "Si O2"
_cell_formula_units_Z 48
_cell_length_a 9.216048
_cell_length_b 7.870311
_cell_length_c 32.920682
_cell_angle_alpha 90.000000
_cell_angle_beta 90.000000
_cell_angle_gamma 90.000000
_cell_volume 2387.841225
_symmetry_space_group_name_H-M "P M M M"
_symmetry_group_IT_number 47
_symmetry_cell_setting 'orthorhombic'
loop_
_space_group_symop_operation_xyz
x,y,z
-x,-y,z
x,-y,-z
-x,y,-z
-x,-y,-z
x,y,-z
-x,y,z
x,-y,z
loop_
_atom_site_type_symbol
_atom_site_label
_atom_site_fract_x
_atom_site_fract_y
_atom_site_fract_z
Si Si1 0.835786 0.797251 0.500000
Si Si2 0.828674 0.194187 0.101633
Si Si3 0.336924 0.200572 0.577688
Si Si4 0.337499 0.799919 0.181233
Si Si5 0.827646 0.500000 0.954555
Si Si6 0.338418 0.697820 0.268088
Si Si7 0.838531 0.700353 0.343312
O O1 0.752975 0.725636 0.539592
O O2 0.000000 0.726402 0.500000
O O3 0.837173 0.000000 0.500000
O O4 0.761353 0.259262 0.143875
O O5 0.774033 0.326712 0.067417
O O6 0.000000 0.202003 0.106624
O O7 0.779751 0.000000 0.090633
O O8 0.500000 0.276547 0.577297
O O9 0.258486 0.252659 0.618618
O O10 0.344194 0.000000 0.574218
O O11 0.500000 0.726675 0.174902
O O12 0.270940 0.730478 0.223452
O O13 0.340234 0.000000 0.183579
O O14 0.000000 0.500000 0.955897
O O15 0.762583 0.500000 0.000000
O O16 0.500000 0.780420 0.270453
O O17 0.350831 0.500000 0.276529
O O18 0.235938 0.778799 0.302787
O O19 0.850649 0.500000 0.339360
O O20 0.000000 0.779229 0.347903
#
# Coordination Sequence:
#
# PCOD8198224 Si02
#       7
#     4   8   8   8   4   8   8
#     4   9  17  31  52  77 104 131 162 206 258 309
#     4   9  18  32  50  74 103 134 170 215 265 313
#     4  10  20  34  54  78 102 131 168 209 254 306
#     4   9  18  32  50  73 101 133 168 208 255 304
#     4   9  18  32  51  77 105 135 175 219 263 314
#     4   9  18  32  49  69  95 130 169 206 247 298
#     4  10  21  36  52  73 103 137 171 209 256 306
#
# _framework density 20.101839999999999
#
# number of rings (size 3 to 8) (size 9 to 14) (size 15 to 20)
#    0.000    2.667    0.000    1.250    1.167    4.667 
#    0.000    3.750    0.000    3.500    0.000    2.333 
#    0.000    0.000    0.000    0.000    0.000    0.000 
#
# Total GULP energy -595042.740968 kJ/mol
# GULP energy per Si atom -12396.723770 kJ/mol
# Density = 2.005609 g / cm^3
# Si number density = 20.101840 Si / 1000 Ang^3
#
#
#
# Elastic Constant Matrix: (Units=GPa)
#
#
# Indices 1 2 3 4 5 6 
#
# 1 116.9070 23.6905 81.7019 0.0000 0.0000 0.0000
# 2 23.6905 42.0893 42.6162 0.0000 0.0000 0.0000
# 3 81.7019 42.6162 202.3633 0.0000 0.0000 0.0000
# 4 0.0000 0.0000 0.0000 30.8357 0.0000 0.0000
# 5 0.0000 0.0000 0.0000 0.0000 22.7036 0.0000
# 6 0.0000 0.0000 0.0000 0.0000 0.0000 16.4289
#
#
#
# Elastic Compliance Matrix: (Units=1/GPa)
#
#
# Indices 1 2 3 4 5 6 
#
# 1 0.012099 -0.002369 -0.004386 0.000000 0.000000 0.000000
# 2 -0.002369 0.030662 -0.005501 0.000000 0.000000 0.000000
# 3 -0.004386 -0.005501 0.007871 0.000000 0.000000 0.000000
# 4 0.000000 0.000000 0.000000 0.032430 0.000000 0.000000
# 5 0.000000 0.000000 0.000000 0.000000 0.044046 0.000000
# 6 0.000000 0.000000 0.000000 0.000000 0.000000 0.060868
#
#
# Mechanical properties :
#
#
# Convention : Reuss Voigt Hill
#
# Bulk Modulus (GPa) = 38.28448 73.04188 55.66318
# Shear Modulus (GPa) = 22.60456 28.21706 25.41081
#
# Velocity S-wave (km/s) = 3.35700 3.75067 3.55928
# Velocity P-wave (km/s) = 5.84059 7.42775 6.68147
#
# Compressibility (1/GPa) = 0.02612024
#
# Stress axis : x y z
#
# Youngs Moduli (GPa) = 82.65090 32.61356 127.05246
#
# Poissons Ratio (x) = 0.07727 0.55724
# Poissons Ratio (y) = 0.19582 0.69887
# Poissons Ratio (z) = 0.36250 0.17940
#
# Static dielectric constant tensor:
#      x y z
#    x 3.866210 0.000000 0.000000 
#    y 0.000000 3.493460 0.000000 
#    z 0.000000 0.000000 4.004470 
# 
# 
# High freq. dielectric constant tensor:
#      x y z
#    x 1.773880 0.000000 0.000000 
#    y 0.000000 1.766460 0.000000 
#    z 0.000000 0.000000 1.790920 
# 
# From -- ./inp_files/34149.got.cif
#   From: 2010.03.12/outbox.cif.g09.slc.cpg/sg47_18_cif.got.tgz:34149.got - 2010.04.14 03:12:58.
