data_PCOD8198803
_publ_section_title
;
Structure prediction by ZEFSAII (Michael W. Deem and Ramdas Pophale) SiO2 
 PCOD8198803
Probable space group: P M M M
;
_chemical_formula_sum "Si O2"
_cell_formula_units_Z 48
_cell_length_a 18.724083
_cell_length_b 8.079772
_cell_length_c 16.024828
_cell_angle_alpha 90.000000
_cell_angle_beta 90.000000
_cell_angle_gamma 90.000000
_cell_volume 2424.337282
_symmetry_space_group_name_H-M "P M M M"
_symmetry_group_IT_number 47
_symmetry_cell_setting 'orthorhombic'
loop_
_space_group_symop_operation_xyz
x,y,z
-x,-y,z
x,-y,-z
-x,y,-z
-x,-y,-z
x,y,-z
-x,y,z
x,-y,z
loop_
_atom_site_type_symbol
_atom_site_label
_atom_site_fract_x
_atom_site_fract_y
_atom_site_fract_z
Si Si1 0.584592 0.000000 0.591169
Si Si2 0.915137 0.813462 0.410785
Si Si3 0.584030 0.686080 0.000000
Si Si4 0.917834 0.196668 0.229487
Si Si5 0.192050 0.691037 0.904782
Si Si6 0.582630 0.683532 0.692919
Si Si7 0.339882 0.185975 0.843088
O O1 0.610649 0.170543 0.633200
O O2 0.500000 0.000000 0.586368
O O3 0.619324 0.000000 0.500000
O O4 0.891034 0.726107 0.500000
O O5 0.889664 0.735951 0.321416
O O6 0.000000 0.814821 0.406968
O O7 0.886192 0.000000 0.414287
O O8 0.610441 0.788282 0.921896
O O9 0.616649 0.500000 0.000000
O O10 0.500000 0.677546 0.000000
O O11 0.876135 0.280282 0.153619
O O12 0.000000 0.246923 0.216817
O O13 0.908152 0.000000 0.226368
O O14 0.212992 0.500000 0.905162
O O15 0.257487 0.791412 0.866202
O O16 0.176092 0.750562 0.000000
O O17 0.500000 0.714277 0.718401
O O18 0.590697 0.500000 0.651801
O O19 0.633034 0.686229 0.773632
O O20 0.350845 0.000000 0.809470
#
# Coordination Sequence:
#
# PCOD8198803 Si02
#       7
#     4   8   4   8   8   8   8
#     4   9  18  34  56  85 119 153 196 246 291 343
#     4   7  10  20  43  76 109 136 164 205 261 323
#     4  11  23  37  55  83 118 153 186 224 277 343
#     4   9  18  33  55  83 111 140 181 232 282 335
#     4  11  24  40  56  74 104 146 192 239 289 348
#     4  10  20  35  57  86 120 156 193 237 290 345
#     4  12  23  37  58  82 111 148 192 241 289 343
#
# _framework density 19.799226999999998
#
# number of rings (size 3 to 8) (size 9 to 14) (size 15 to 20)
#    0.000    2.167    1.667    4.250    0.000    4.667 
#    0.000    3.333    0.000    1.500    0.000    2.333 
#    0.000    0.000    0.000    0.000    0.000    0.000 
#
# Total GULP energy -594694.536453 kJ/mol
# GULP energy per Si atom -12389.469509 kJ/mol
# Density = 1.975416 g / cm^3
# Si number density = 19.799227 Si / 1000 Ang^3
#
#
#
# Elastic Constant Matrix: (Units=GPa)
#
#
# Indices 1 2 3 4 5 6 
#
# 1 61.4591 19.2483 44.6423 0.0000 0.0000 0.0000
# 2 19.2483 98.1221 38.1524 0.0000 0.0000 0.0000
# 3 44.6423 38.1524 156.1915 0.0000 0.0000 0.0000
# 4 0.0000 0.0000 0.0000 14.4162 0.0000 0.0000
# 5 0.0000 0.0000 0.0000 0.0000 37.9123 0.0000
# 6 0.0000 0.0000 0.0000 0.0000 0.0000 21.9219
#
#
#
# Elastic Compliance Matrix: (Units=1/GPa)
#
#
# Indices 1 2 3 4 5 6 
#
# 1 0.020870 -0.001961 -0.005486 0.000000 0.000000 0.000000
# 2 -0.001961 0.011445 -0.002235 0.000000 0.000000 0.000000
# 3 -0.005486 -0.002235 0.008516 0.000000 0.000000 0.000000
# 4 0.000000 0.000000 0.000000 0.069366 0.000000 0.000000
# 5 0.000000 0.000000 0.000000 0.000000 0.026377 0.000000
# 6 0.000000 0.000000 0.000000 0.000000 0.000000 0.045616
#
#
# Mechanical properties :
#
#
# Convention : Reuss Voigt Hill
#
# Bulk Modulus (GPa) = 46.58252 57.76208 52.17230
# Shear Modulus (GPa) = 23.95657 29.09874 26.52765
#
# Velocity S-wave (km/s) = 3.48224 3.83781 3.66434
# Velocity P-wave (km/s) = 6.30449 6.99111 6.65666
#
# Compressibility (1/GPa) = 0.02146728
#
# Stress axis : x y z
#
# Youngs Moduli (GPa) = 47.91560 87.37319 117.42064
#
# Poissons Ratio (x) = 0.17133 0.64417
# Poissons Ratio (y) = 0.09396 0.26246
# Poissons Ratio (z) = 0.26287 0.19530
#
# Static dielectric constant tensor:
#      x y z
#    x 3.247420 0.000000 0.000000 
#    y 0.000000 3.525930 0.000000 
#    z 0.000000 0.000000 4.032550 
# 
# 
# High freq. dielectric constant tensor:
#      x y z
#    x 1.732560 0.000000 0.000000 
#    y 0.000000 1.761920 0.000000 
#    z 0.000000 0.000000 1.783450 
# 
# From -- ./inp_files/24470.got.cif
#   From: 2010.03.12/outbox.cif.g09.slc.cpg/sg47_13_cif.got.tgz:24470.got - 2010.04.14 03:12:58.
