data_PCOD8198704
_publ_section_title
;
Structure prediction by ZEFSAII (Michael W. Deem and Ramdas Pophale) SiO2 
 PCOD8198704
Probable space group: P M M M
;
_chemical_formula_sum "Si O2"
_cell_formula_units_Z 48
_cell_length_a 9.120930
_cell_length_b 36.063080
_cell_length_c 7.729687
_cell_angle_alpha 90.000000
_cell_angle_beta 90.000000
_cell_angle_gamma 90.000000
_cell_volume 2542.516888
_symmetry_space_group_name_H-M "P M M M"
_symmetry_group_IT_number 47
_symmetry_cell_setting 'orthorhombic'
loop_
_space_group_symop_operation_xyz
x,y,z
-x,-y,z
x,-y,-z
-x,y,-z
-x,-y,-z
x,y,-z
-x,y,z
x,-y,z
loop_
_atom_site_type_symbol
_atom_site_label
_atom_site_fract_x
_atom_site_fract_y
_atom_site_fract_z
Si Si1 0.325750 0.805398 0.500000
Si Si2 0.171932 0.593955 0.804039
Si Si3 0.174117 0.541364 0.500000
Si Si4 0.332122 0.143451 0.192074
Si Si5 0.328052 0.329869 0.195920
Si Si6 0.674120 0.722695 0.500000
Si Si7 0.669275 0.000000 0.796275
Si Si8 0.833959 0.073402 0.698000
O O1 0.500000 0.802827 0.500000
O O2 0.269700 0.826797 0.671127
O O3 0.258049 0.764063 0.500000
O O4 0.228740 0.562398 0.672778
O O5 0.250067 0.632034 0.754308
O O6 0.000000 0.600686 0.781977
O O7 0.210874 0.581577 0.000000
O O8 0.241704 0.500000 0.500000
O O9 0.000000 0.539115 0.500000
O O10 0.500000 0.133356 0.238112
O O11 0.240210 0.105724 0.191601
O O12 0.320500 0.160933 0.000000
O O13 0.500000 0.336566 0.217911
O O14 0.271199 0.298327 0.327257
O O15 0.288924 0.317514 0.000000
O O16 0.500000 0.724966 0.500000
O O17 0.745347 0.035726 0.716946
O O18 0.500000 0.000000 0.741085
O O19 0.689208 0.000000 0.000000
O O20 0.830977 0.086133 0.500000
O O21 0.000000 0.067298 0.763558
#
# Coordination Sequence:
#
# PCOD8198704 Si02
#       8
#     4   8   4   8   8   4   4   8
#     4   9  18  33  52  77 107 133 165 213 253 290
#     4   9  17  29  46  67  91 121 157 197 243 294
#     4   9  17  28  43  65  91 119 157 204 247 288
#     4  10  20  35  57  81 104 137 177 212 253 302
#     4   9  17  29  47  71  97 126 161 200 243 295
#     4   9  17  29  48  74 102 130 160 199 248 293
#     4  11  24  39  56  82 112 141 176 216 261 309
#     4  11  23  38  57  81 109 141 177 215 258 306
#
# _framework density 18.878928999999999
#
# number of rings (size 3 to 8) (size 9 to 14) (size 15 to 20)
#    0.000    2.333    0.833    2.000    0.000    6.000 
#    0.000    5.000    0.000    3.000    0.000    4.667 
#    0.000    0.000    0.000    0.000    0.000    0.000 
#
# Total GULP energy -595220.719476 kJ/mol
# GULP energy per Si atom -12400.431656 kJ/mol
# Density = 1.883596 g / cm^3
# Si number density = 18.878929 Si / 1000 Ang^3
#
#
#
# Elastic Constant Matrix: (Units=GPa)
#
#
# Indices 1 2 3 4 5 6 
#
# 1 53.7196 34.5357 28.6767 0.0000 0.0000 0.0000
# 2 34.5357 161.9163 83.4585 0.0000 0.0000 0.0000
# 3 28.6767 83.4585 132.2536 0.0000 0.0000 0.0000
# 4 0.0000 0.0000 0.0000 21.4452 0.0000 0.0000
# 5 0.0000 0.0000 0.0000 0.0000 17.8536 0.0000
# 6 0.0000 0.0000 0.0000 0.0000 0.0000 155.1244
#
#
#
# Elastic Compliance Matrix: (Units=1/GPa)
#
#
# Indices 1 2 3 4 5 6 
#
# 1 0.022208 -0.003342 -0.002707 0.000000 0.000000 0.000000
# 2 -0.003342 0.009656 -0.005369 0.000000 0.000000 0.000000
# 3 -0.002707 -0.005369 0.011536 0.000000 0.000000 0.000000
# 4 0.000000 0.000000 0.000000 0.046631 0.000000 0.000000
# 5 0.000000 0.000000 0.000000 0.000000 0.056011 0.000000
# 6 0.000000 0.000000 0.000000 0.000000 0.000000 0.006446
#
#
# Mechanical properties :
#
#
# Convention : Reuss Voigt Hill
#
# Bulk Modulus (GPa) = 48.62375 71.24790 59.93583
# Shear Modulus (GPa) = 27.44553 52.29922 39.87237
#
# Velocity S-wave (km/s) = 3.81696 5.26902 4.60064
# Velocity P-wave (km/s) = 6.72585 8.65090 7.74839
#
# Compressibility (1/GPa) = 0.02056608
#
# Stress axis : x y z
#
# Youngs Moduli (GPa) = 45.02792 103.56062 86.68398
#
# Poissons Ratio (x) = 0.34608 0.23462
# Poissons Ratio (y) = 0.15047 0.46540
# Poissons Ratio (z) = 0.12187 0.55601
#
# Static dielectric constant tensor:
#      x y z
#    x 3.229080 0.000000 0.000000 
#    y 0.000000 3.571100 0.000000 
#    z 0.000000 0.000000 3.692300 
# 
# 
# High freq. dielectric constant tensor:
#      x y z
#    x 1.702020 0.000000 0.000000 
#    y 0.000000 1.725880 0.000000 
#    z 0.000000 0.000000 1.751280 
# 
# From -- ./inp_files/2858.got.cif
#   From: 2010.03.12/outbox.cif.g09.slc.cpg/sg47_2_cif.got.tgz:2858.got - 2010.04.14 03:12:58.
