data_PCOD8198193
_publ_section_title
;
Structure prediction by ZEFSAII (Michael W. Deem and Ramdas Pophale) SiO2 
 PCOD8198193
Probable space group: P M M M
;
_chemical_formula_sum "Si O2"
_cell_formula_units_Z 52
_cell_length_a 10.778389
_cell_length_b 8.951078
_cell_length_c 30.540265
_cell_angle_alpha 90.000000
_cell_angle_beta 90.000000
_cell_angle_gamma 90.000000
_cell_volume 2946.469815
_symmetry_space_group_name_H-M "P M M M"
_symmetry_group_IT_number 47
_symmetry_cell_setting 'orthorhombic'
loop_
_space_group_symop_operation_xyz
x,y,z
-x,-y,z
x,-y,-z
-x,y,-z
-x,-y,-z
x,y,-z
-x,y,z
x,-y,z
loop_
_atom_site_type_symbol
_atom_site_label
_atom_site_fract_x
_atom_site_fract_y
_atom_site_fract_z
Si Si1 0.646370 0.166917 0.753847
Si Si2 0.766854 0.177228 0.413632
Si Si3 0.647454 0.330760 0.668032
Si Si4 0.000000 0.676427 0.449554
Si Si5 0.853921 0.834528 0.000000
Si Si6 0.633217 0.176981 0.500000
Si Si7 0.357302 0.675910 0.156251
Si Si8 0.142828 0.676083 0.911419
O O1 0.500000 0.157566 0.749218
O O2 0.699841 0.263462 0.713510
O O3 0.682565 0.245746 0.798945
O O4 0.703651 0.000000 0.752812
O O5 0.695307 0.225958 0.370493
O O6 0.893013 0.264207 0.418544
O O7 0.695649 0.235015 0.456267
O O8 0.786784 0.000000 0.412895
O O9 0.500000 0.327683 0.667343
O O10 0.696812 0.500000 0.663021
O O11 0.000000 0.500000 0.452209
O O12 0.000000 0.741184 0.500000
O O13 0.811718 0.747153 0.956829
O O14 0.000000 0.847320 0.000000
O O15 0.793946 0.000000 0.000000
O O16 0.500000 0.252158 0.500000
O O17 0.627108 0.000000 0.500000
O O18 0.500000 0.720845 0.142037
O O19 0.352013 0.500000 0.163793
O O20 0.249650 0.727593 0.122587
O O21 0.144926 0.500000 0.917369
O O22 0.000000 0.725752 0.898529
#
# Coordination Sequence:
#
# PCOD8198193 Si02
#       8
#     8   8   8   4   4   4   8   8
#     4   9  17  30  50  75 101 131 167 205 246 296
#     4  11  21  35  56  78 103 133 171 211 248 295
#     4  10  20  34  53  79 109 137 166 205 255 305
#     4  11  23  39  57  75 101 135 173 209 247 296
#     4   9  17  29  46  69  96 128 168 211 252 294
#     4   9  18  31  49  76 106 131 156 195 248 297
#     4   9  17  30  49  73 100 130 165 207 254 303
#     4   9  17  30  49  71  96 129 168 207 249 301
#
# _framework density 17.648237000000002
#
# number of rings (size 3 to 8) (size 9 to 14) (size 15 to 20)
#    0.000    2.385    0.769    2.308    0.000    5.231 
#    0.000    0.385    1.692    4.154    0.000    0.000 
#    0.000    0.000    0.000    0.000    0.000    0.000 
#
# Total GULP energy -644406.670774 kJ/mol
# GULP energy per Si atom -12392.435976 kJ/mol
# Density = 1.760807 g / cm^3
# Si number density = 17.648237 Si / 1000 Ang^3
#
#
#
# Elastic Constant Matrix: (Units=GPa)
#
#
# Indices 1 2 3 4 5 6 
#
# 1 77.9496 28.1420 51.7488 0.0000 0.0000 0.0000
# 2 28.1420 67.9614 48.7362 0.0000 0.0000 0.0000
# 3 51.7488 48.7362 146.5771 0.0000 0.0000 0.0000
# 4 0.0000 0.0000 0.0000 34.4291 0.0000 0.0000
# 5 0.0000 0.0000 0.0000 0.0000 -64.9175 0.0000
# 6 0.0000 0.0000 0.0000 0.0000 0.0000 15.7804
#
#
#
# Elastic Compliance Matrix: (Units=1/GPa)
#
#
# Indices 1 2 3 4 5 6 
#
# 1 0.017431 -0.003683 -0.004929 0.000000 0.000000 0.000000
# 2 -0.003683 0.020099 -0.005383 0.000000 0.000000 0.000000
# 3 -0.004929 -0.005383 0.010352 0.000000 0.000000 0.000000
# 4 0.000000 0.000000 0.000000 0.029045 0.000000 0.000000
# 5 0.000000 0.000000 0.000000 0.000000 -0.015404 0.000000
# 6 0.000000 0.000000 0.000000 0.000000 0.000000 0.063370
#
#
# Mechanical properties :
#
#
# Convention : Reuss Voigt Hill
#
# Bulk Modulus (GPa) = 50.27010 61.08247 55.67629
# Shear Modulus (GPa) = 31.34513 7.98247 19.66380
#
# Velocity S-wave (km/s) = 4.21896 2.12906 3.34160
# Velocity P-wave (km/s) = 7.23043 6.38202 6.81943
#
# Compressibility (1/GPa) = 0.01989254
#
# Stress axis : x y z
#
# Youngs Moduli (GPa) = 57.36913 49.75300 96.59633
#
# Poissons Ratio (x) = 0.18324 0.47616
# Poissons Ratio (y) = 0.21129 0.51994
# Poissons Ratio (z) = 0.28279 0.26780
#
# Static dielectric constant tensor:
#      x y z
#    x 3.079240 0.000000 0.000000 
#    y 0.000000 3.361460 0.000000 
#    z 0.000000 0.000000 3.379830 
# 
# 
# High freq. dielectric constant tensor:
#      x y z
#    x 1.657060 0.000000 0.000000 
#    y 0.000000 1.685390 0.000000 
#    z 0.000000 0.000000 1.687060 
# 
# From -- ./inp_files/33692.got.cif
#   From: 2010.03.12/outbox.cif.g09.slc.cpg/sg47_17_cif.got.tgz:33692.got - 2010.04.14 03:12:58.
