data_PCOD8198195
_publ_section_title
;
Structure prediction by ZEFSAII (Michael W. Deem and Ramdas Pophale) SiO2 
 PCOD8198195
Probable space group: P M M M
;
_chemical_formula_sum "Si O2"
_cell_formula_units_Z 56
_cell_length_a 9.239145
_cell_length_b 15.342133
_cell_length_c 20.203949
_cell_angle_alpha 90.000000
_cell_angle_beta 90.000000
_cell_angle_gamma 90.000000
_cell_volume 2863.873230
_symmetry_space_group_name_H-M "P M M M"
_symmetry_group_IT_number 47
_symmetry_cell_setting 'orthorhombic'
loop_
_space_group_symop_operation_xyz
x,y,z
-x,-y,z
x,-y,-z
-x,y,-z
-x,-y,-z
x,y,-z
-x,y,z
x,-y,z
loop_
_atom_site_type_symbol
_atom_site_label
_atom_site_fract_x
_atom_site_fract_y
_atom_site_fract_z
Si Si1 0.828217 0.176302 0.136634
Si Si2 0.171140 0.902345 0.000000
Si Si3 0.657578 0.099040 0.247161
Si Si4 0.832465 0.720190 0.573465
Si Si5 0.669468 0.401235 0.323152
Si Si6 0.670341 0.350846 0.826465
Si Si7 0.833669 0.901019 0.371316
Si Si8 0.328743 0.500000 0.925200
O O1 0.758664 0.103394 0.183108
O O2 0.763026 0.266089 0.160776
O O3 0.000000 0.176700 0.143613
O O4 0.776625 0.152847 0.062908
O O5 0.000000 0.911827 0.000000
O O6 0.238877 0.000000 0.000000
O O7 0.500000 0.146606 0.238371
O O8 0.741493 0.136739 0.310096
O O9 0.627018 0.000000 0.262655
O O10 0.784567 0.689487 0.500000
O O11 0.746137 0.667322 0.628821
O O12 0.807514 0.825687 0.574424
O O13 0.000000 0.699405 0.585926
O O14 0.500000 0.388948 0.333675
O O15 0.716771 0.500000 0.341214
O O16 0.709887 0.385367 0.246411
O O17 0.500000 0.332241 0.832679
O O18 0.723177 0.416742 0.883516
O O19 0.000000 0.903826 0.348796
O O20 0.788715 0.000000 0.395041
O O21 0.500000 0.500000 0.930031
O O22 0.262233 0.500000 0.000000
#
# Coordination Sequence:
#
# PCOD8198195 Si02
#       8
#     8   4   8   8   8   8   8   4
#     4  11  22  35  54  79 108 143 186 230 278 335
#     4   9  20  38  55  72 103 150 194 229 271 327
#     4  10  20  34  53  79 109 140 179 229 279 324
#     4  10  22  38  56  83 117 149 187 237 288 338
#     4  10  21  39  61  83 111 149 194 238 282 342
#     4  10  20  37  60  86 114 145 185 231 280 334
#     4   9  18  34  57  83 112 148 186 223 273 341
#     4   9  18  34  59  87 114 147 182 222 277 341
#
# _framework density 19.553937999999999
#
# number of rings (size 3 to 8) (size 9 to 14) (size 15 to 20)
#    0.000    2.143    0.714    2.143    1.000    6.000 
#    0.000    4.286    0.000    3.000    0.000    3.000 
#    0.000    0.000    0.000    0.000    0.000    0.000 
#
# Total GULP energy -694008.336367 kJ/mol
# GULP energy per Si atom -12393.006007 kJ/mol
# Density = 1.950943 g / cm^3
# Si number density = 19.553938 Si / 1000 Ang^3
#
#
#
# Elastic Constant Matrix: (Units=GPa)
#
#
# Indices 1 2 3 4 5 6 
#
# 1 65.9508 36.8974 45.9844 0.0000 0.0000 0.0000
# 2 36.8974 100.2798 49.3541 0.0000 0.0000 0.0000
# 3 45.9844 49.3541 134.7166 0.0000 0.0000 0.0000
# 4 0.0000 0.0000 0.0000 27.7624 0.0000 0.0000
# 5 0.0000 0.0000 0.0000 0.0000 24.1488 0.0000
# 6 0.0000 0.0000 0.0000 0.0000 0.0000 23.5461
#
#
#
# Elastic Compliance Matrix: (Units=1/GPa)
#
#
# Indices 1 2 3 4 5 6 
#
# 1 0.022044 -0.005377 -0.005555 0.000000 0.000000 0.000000
# 2 -0.005377 0.013477 -0.003102 0.000000 0.000000 0.000000
# 3 -0.005555 -0.003102 0.010455 0.000000 0.000000 0.000000
# 4 0.000000 0.000000 0.000000 0.036020 0.000000 0.000000
# 5 0.000000 0.000000 0.000000 0.000000 0.041410 0.000000
# 6 0.000000 0.000000 0.000000 0.000000 0.000000 0.042470
#
#
# Mechanical properties :
#
#
# Convention : Reuss Voigt Hill
#
# Bulk Modulus (GPa) = 55.83719 62.82433 59.33076
# Shear Modulus (GPa) = 25.01072 26.33888 25.67480
#
# Velocity S-wave (km/s) = 3.58028 3.67411 3.62750
# Velocity P-wave (km/s) = 6.76082 7.08500 6.92481
#
# Compressibility (1/GPa) = 0.01790921
#
# Stress axis : x y z
#
# Youngs Moduli (GPa) = 45.36342 74.19869 95.64394
#
# Poissons Ratio (x) = 0.39899 0.53127
# Poissons Ratio (y) = 0.24393 0.29669
# Poissons Ratio (z) = 0.25198 0.23016
#
# Static dielectric constant tensor:
#      x y z
#    x 3.616730 0.000000 0.000000 
#    y 0.000000 3.570170 0.000000 
#    z 0.000000 0.000000 3.730600 
# 
# 
# High freq. dielectric constant tensor:
#      x y z
#    x 1.743960 0.000000 0.000000 
#    y 0.000000 1.769130 0.000000 
#    z 0.000000 0.000000 1.764210 
# 
# From -- ./inp_files/7405.got.cif
#   From: 2010.03.12/outbox.cif.g09.slc.cpg/sg47_4_cif.got.tgz:7405.got - 2010.04.14 03:12:58.
