data_PCOD8198149
_publ_section_title
;
Structure prediction by ZEFSAII (Michael W. Deem and Ramdas Pophale) SiO2 
 PCOD8198149
Probable space group: P M M M
;
_chemical_formula_sum "Si O2"
_cell_formula_units_Z 40
_cell_length_a 10.225471
_cell_length_b 22.862537
_cell_length_c 8.900855
_cell_angle_alpha 90.000000
_cell_angle_beta 90.000000
_cell_angle_gamma 90.000000
_cell_volume 2080.843743
_symmetry_space_group_name_H-M "P M M M"
_symmetry_group_IT_number 47
_symmetry_cell_setting 'orthorhombic'
loop_
_space_group_symop_operation_xyz
x,y,z
-x,-y,z
x,-y,-z
-x,y,-z
-x,-y,-z
x,y,-z
-x,y,z
x,-y,z
loop_
_atom_site_type_symbol
_atom_site_label
_atom_site_fract_x
_atom_site_fract_y
_atom_site_fract_z
Si Si1 0.654206 0.500000 0.332373
Si Si2 0.237613 0.066544 0.677645
Si Si3 0.651178 0.380880 0.177884
Si Si4 0.153940 0.288789 0.323883
Si Si5 0.146362 0.173936 0.836450
Si Si6 0.500000 0.930989 0.167207
O O1 0.500000 0.500000 0.344564
O O2 0.716168 0.500000 0.500000
O O3 0.699761 0.442783 0.242802
O O4 0.233060 0.070614 0.500000
O O5 0.137658 0.111522 0.751510
O O6 0.376280 0.089700 0.737801
O O7 0.206659 0.000000 0.729684
O O8 0.500000 0.367040 0.225120
O O9 0.752631 0.334142 0.241082
O O10 0.663080 0.382845 0.000000
O O11 0.179955 0.292308 0.500000
O O12 0.204979 0.225136 0.267551
O O13 0.000000 0.300523 0.288447
O O14 0.000000 0.192970 0.868596
O O15 0.218485 0.169172 0.000000
O O16 0.500000 0.000000 0.154138
O O17 0.500000 0.903191 0.000000
#
# Coordination Sequence:
#
# PCOD8198149 Si02
#       6
#     4   8   8   8   8   4
#     4   9  17  31  54  83 116 153 188 226 276 327
#     4  10  20  34  53  77 105 136 172 216 267 323
#     4  10  20  35  57  86 118 150 187 230 275 326
#     4  10  21  38  59  81 109 147 188 231 281 335
#     4  10  21  37  56  77 103 137 177 221 270 324
#     4   9  17  31  51  73  99 131 165 204 255 314
#
# _framework density 19.222971999999999
#
# number of rings (size 3 to 8) (size 9 to 14) (size 15 to 20)
#    0.000    2.200    0.000    3.000    0.000    7.600 
#    1.800    2.500    0.000    3.000    0.000    0.000 
#    0.000    0.000    0.000    0.000    0.000    0.000 
#
# Total GULP energy -495717.598316 kJ/mol
# GULP energy per Si atom -12392.939958 kJ/mol
# Density = 1.917922 g / cm^3
# Si number density = 19.222972 Si / 1000 Ang^3
#
#
#
# Elastic Constant Matrix: (Units=GPa)
#
#
# Indices 1 2 3 4 5 6 
#
# 1 53.6330 41.3816 34.5994 0.0000 0.0000 0.0000
# 2 41.3816 145.2680 65.7857 0.0000 0.0000 0.0000
# 3 34.5994 65.7857 127.7047 0.0000 0.0000 0.0000
# 4 0.0000 0.0000 0.0000 38.4617 0.0000 0.0000
# 5 0.0000 0.0000 0.0000 0.0000 28.8279 0.0000
# 6 0.0000 0.0000 0.0000 0.0000 0.0000 45.2319
#
#
#
# Elastic Compliance Matrix: (Units=1/GPa)
#
#
# Indices 1 2 3 4 5 6 
#
# 1 0.025461 -0.005385 -0.004124 0.000000 0.000000 0.000000
# 2 -0.005385 0.010117 -0.003753 0.000000 0.000000 0.000000
# 3 -0.004124 -0.003753 0.010881 0.000000 0.000000 0.000000
# 4 0.000000 0.000000 0.000000 0.026000 0.000000 0.000000
# 5 0.000000 0.000000 0.000000 0.000000 0.034689 0.000000
# 6 0.000000 0.000000 0.000000 0.000000 0.000000 0.022108
#
#
# Mechanical properties :
#
#
# Convention : Reuss Voigt Hill
#
# Bulk Modulus (GPa) = 50.16273 67.79325 58.97799
# Shear Modulus (GPa) = 30.78335 34.82688 32.80512
#
# Velocity S-wave (km/s) = 4.00607 4.26106 4.13553
# Velocity P-wave (km/s) = 6.89565 7.71701 7.31786
#
# Compressibility (1/GPa) = 0.01993512
#
# Stress axis : x y z
#
# Youngs Moduli (GPa) = 39.27604 98.83967 91.90234
#
# Poissons Ratio (x) = 0.53228 0.37901
# Poissons Ratio (y) = 0.21151 0.34489
# Poissons Ratio (z) = 0.16197 0.37093
#
# Static dielectric constant tensor:
#      x y z
#    x 3.435570 0.000000 0.000000 
#    y 0.000000 3.539660 0.000000 
#    z 0.000000 0.000000 3.818640 
# 
# 
# High freq. dielectric constant tensor:
#      x y z
#    x 1.722500 0.000000 0.000000 
#    y 0.000000 1.745210 0.000000 
#    z 0.000000 0.000000 1.768260 
# 
# From -- ./inp_files/4136.got.cif
#   From: 2010.03.12/outbox.cif.g09.slc.cpg/sg47_3_cif.got.tgz:4136.got - 2010.04.14 03:12:58.
