data_PCOD8198431
_publ_section_title
;
Structure prediction by ZEFSAII (Michael W. Deem and Ramdas Pophale) SiO2 
 PCOD8198431
Probable space group: P M M M
;
_chemical_formula_sum "Si O2"
_cell_formula_units_Z 40
_cell_length_a 26.050482
_cell_length_b 9.152038
_cell_length_c 9.230668
_cell_angle_alpha 90.000000
_cell_angle_beta 90.000000
_cell_angle_gamma 90.000000
_cell_volume 2200.729722
_symmetry_space_group_name_H-M "P M M M"
_symmetry_group_IT_number 47
_symmetry_cell_setting 'orthorhombic'
loop_
_space_group_symop_operation_xyz
x,y,z
-x,-y,z
x,-y,-z
-x,y,-z
-x,-y,-z
x,y,-z
-x,y,z
x,-y,z
loop_
_atom_site_type_symbol
_atom_site_label
_atom_site_fract_x
_atom_site_fract_y
_atom_site_fract_z
Si Si1 0.000000 0.172128 0.330639
Si Si2 0.303028 0.336383 0.671312
Si Si3 0.389777 0.825935 0.163194
Si Si4 0.809898 0.326733 0.660629
Si Si5 0.500000 0.840142 0.828177
Si Si6 0.908460 0.327772 0.831933
O O1 0.049788 0.240900 0.258196
O O2 0.000000 0.210794 0.500000
O O3 0.000000 0.000000 0.303167
O O4 0.307761 0.337989 0.500000
O O5 0.311124 0.500000 0.733118
O O6 0.345731 0.230393 0.733095
O O7 0.246432 0.274949 0.714557
O O8 0.445937 0.761858 0.214986
O O9 0.391799 0.000000 0.170808
O O10 0.377728 0.773706 0.000000
O O11 0.822418 0.263128 0.500000
O O12 0.808352 0.500000 0.649676
O O13 0.852875 0.275550 0.774508
O O14 0.500000 0.000000 0.755099
O O15 0.500000 0.858617 0.000000
O O16 0.916875 0.500000 0.807611
O O17 0.912975 0.286230 0.000000
#
# Coordination Sequence:
#
# PCOD8198431 Si02
#       6
#     4   8   8   8   4   8
#     4  11  24  39  54  74 102 137 172 201 236 286
#     4   9  18  32  49  71 100 131 161 195 239 290
#     4   9  17  30  49  71  93 121 161 205 246 290
#     4   8  15  30  51  72  96 129 166 200 235 280
#     4   7  12  26  46  65  88 120 158 201 244 285
#     4  10  20  34  55  82 105 126 160 205 247 287
#
# _framework density 18.175789000000002
#
# number of rings (size 3 to 8) (size 9 to 14) (size 15 to 20)
#    0.000    3.000    0.000    3.600    0.000    4.800 
#    0.000    4.000    0.000    6.000    0.000    0.000 
#    0.000    0.000    0.000    0.000    0.000    0.000 
#
# Total GULP energy -495652.585136 kJ/mol
# GULP energy per Si atom -12391.314628 kJ/mol
# Density = 1.813442 g / cm^3
# Si number density = 18.175789 Si / 1000 Ang^3
#
#
#
# Elastic Constant Matrix: (Units=GPa)
#
#
# Indices 1 2 3 4 5 6 
#
# 1 185.1440 43.6530 74.6723 0.0000 0.0000 0.0000
# 2 43.6530 35.0807 32.2308 0.0000 0.0000 0.0000
# 3 74.6723 32.2308 82.9330 0.0000 0.0000 0.0000
# 4 0.0000 0.0000 0.0000 23.6383 0.0000 0.0000
# 5 0.0000 0.0000 0.0000 0.0000 35.2215 0.0000
# 6 0.0000 0.0000 0.0000 0.0000 0.0000 38.5099
#
#
#
# Elastic Compliance Matrix: (Units=1/GPa)
#
#
# Indices 1 2 3 4 5 6 
#
# 1 0.009224 -0.005984 -0.005979 0.000000 0.000000 0.000000
# 2 -0.005984 0.048219 -0.013352 0.000000 0.000000 0.000000
# 3 -0.005979 -0.013352 0.022631 0.000000 0.000000 0.000000
# 4 0.000000 0.000000 0.000000 0.042304 0.000000 0.000000
# 5 0.000000 0.000000 0.000000 0.000000 0.028392 0.000000
# 6 0.000000 0.000000 0.000000 0.000000 0.000000 0.025967
#
#
# Mechanical properties :
#
#
# Convention : Reuss Voigt Hill
#
# Bulk Modulus (GPa) = 33.96364 67.14107 50.55235
# Shear Modulus (GPa) = 21.08092 29.64739 25.36415
#
# Velocity S-wave (km/s) = 3.40933 4.04313 3.73968
# Velocity P-wave (km/s) = 5.85020 7.66915 6.82058
#
# Compressibility (1/GPa) = 0.02944326
#
# Stress axis : x y z
#
# Youngs Moduli (GPa) = 108.41647 20.73869 44.18784
#
# Poissons Ratio (x) = 0.12410 0.26421
# Poissons Ratio (y) = 0.64876 0.58998
# Poissons Ratio (z) = 0.64826 0.27690
#
# Static dielectric constant tensor:
#      x y z
#    x 3.876050 0.000000 0.000000 
#    y 0.000000 2.986210 0.000000 
#    z 0.000000 0.000000 3.259580 
# 
# 
# High freq. dielectric constant tensor:
#      x y z
#    x 1.728680 0.000000 0.000000 
#    y 0.000000 1.660880 0.000000 
#    z 0.000000 0.000000 1.691570 
# 
# From -- ./inp_files/1849.got.cif
#   From: 2010.03.12/outbox.cif.g09.slc.cpg/sg47_1_cif.got.tgz:1849.got - 2010.04.14 03:12:58.
