data_PCOD8198468
_publ_section_title
;
Structure prediction by ZEFSAII (Michael W. Deem and Ramdas Pophale) SiO2 
 PCOD8198468
Probable space group: P M M M
;
_chemical_formula_sum "Si O2"
_cell_formula_units_Z 64
_cell_length_a 8.958592
_cell_length_b 25.482705
_cell_length_c 14.453185
_cell_angle_alpha 90.000000
_cell_angle_beta 90.000000
_cell_angle_gamma 90.000000
_cell_volume 3299.505422
_symmetry_space_group_name_H-M "P M M M"
_symmetry_group_IT_number 47
_symmetry_cell_setting 'orthorhombic'
loop_
_space_group_symop_operation_xyz
x,y,z
-x,-y,z
x,-y,-z
-x,y,-z
-x,-y,-z
x,y,-z
-x,y,z
x,-y,z
loop_
_atom_site_type_symbol
_atom_site_label
_atom_site_fract_x
_atom_site_fract_y
_atom_site_fract_z
Si Si1 0.676008 0.557450 0.215305
Si Si2 0.676988 0.058927 0.597526
Si Si3 0.677935 0.656694 0.895650
Si Si4 0.174577 0.277142 0.395820
Si Si5 0.674442 0.938310 0.201983
Si Si6 0.828339 0.848405 0.892845
Si Si7 0.323416 0.757441 0.218391
Si Si8 0.329094 0.386247 0.397005
O O1 0.500000 0.555337 0.201126
O O2 0.744458 0.500000 0.191057
O O3 0.741861 0.602668 0.148465
O O4 0.714792 0.569799 0.322337
O O5 0.729702 0.087180 0.500000
O O6 0.500000 0.056886 0.599746
O O7 0.727040 0.083691 0.695779
O O8 0.739804 0.000000 0.594819
O O9 0.500000 0.656164 0.895308
O O10 0.736023 0.705717 0.835318
O O11 0.739752 0.661823 0.000000
O O12 0.215341 0.258427 0.500000
O O13 0.259130 0.240611 0.322327
O O14 0.223580 0.336890 0.381377
O O15 0.000000 0.273127 0.377264
O O16 0.500000 0.927325 0.185217
O O17 0.770939 0.907298 0.126723
O O18 0.708549 0.000000 0.192341
O O19 0.729058 0.808520 0.835074
O O20 0.000000 0.843244 0.863490
O O21 0.805875 0.835706 0.000000
O O22 0.500000 0.757964 0.224069
O O23 0.308229 0.410005 0.500000
O O24 0.500000 0.367451 0.381222
#
# Coordination Sequence:
#
# PCOD8198468 Si02
#       8
#     8   8   8   8   8   8   8   8
#     4   9  16  26  42  70 107 141 176 222 277 334
#     4   7  10  20  43  76 110 140 172 213 259 306
#     4   9  17  29  47  74 104 134 172 222 280 332
#     4  10  20  34  55  83 113 144 177 217 272 336
#     4   9  18  34  58  87 116 149 191 235 279 329
#     4  11  25  42  58  80 112 149 189 233 285 342
#     4  11  21  37  61  84 108 139 181 233 281 330
#     4   9  16  28  47  72 103 139 181 225 270 325
#
# _framework density 19.396847000000001
#
# number of rings (size 3 to 8) (size 9 to 14) (size 15 to 20)
#    0.000    2.625    1.250    2.625    0.000    3.250 
#    0.000    4.375    0.000    3.000    0.000    3.500 
#    0.000    1.000    0.000    0.000    0.000    0.000 
#
# Total GULP energy -793088.480113 kJ/mol
# GULP energy per Si atom -12392.007502 kJ/mol
# Density = 1.935270 g / cm^3
# Si number density = 19.396847 Si / 1000 Ang^3
#
#
#
# Elastic Constant Matrix: (Units=GPa)
#
#
# Indices 1 2 3 4 5 6 
#
# 1 51.6289 29.8255 41.8985 0.0000 0.0000 0.0000
# 2 29.8255 86.3972 49.6714 0.0000 0.0000 0.0000
# 3 41.8985 49.6714 120.9158 0.0000 0.0000 0.0000
# 4 0.0000 0.0000 0.0000 28.4796 0.0000 0.0000
# 5 0.0000 0.0000 0.0000 0.0000 22.5811 0.0000
# 6 0.0000 0.0000 0.0000 0.0000 0.0000 10.0622
#
#
#
# Elastic Compliance Matrix: (Units=1/GPa)
#
#
# Indices 1 2 3 4 5 6 
#
# 1 0.028819 -0.005508 -0.007723 0.000000 0.000000 0.000000
# 2 -0.005508 0.016206 -0.004749 0.000000 0.000000 0.000000
# 3 -0.007723 -0.004749 0.012897 0.000000 0.000000 0.000000
# 4 0.000000 0.000000 0.000000 0.035113 0.000000 0.000000
# 5 0.000000 0.000000 0.000000 0.000000 0.044285 0.000000
# 6 0.000000 0.000000 0.000000 0.000000 0.000000 0.099382
#
#
# Mechanical properties :
#
#
# Convention : Reuss Voigt Hill
#
# Bulk Modulus (GPa) = 45.53423 55.74809 50.64116
# Shear Modulus (GPa) = 17.85825 21.39434 19.62630
#
# Velocity S-wave (km/s) = 3.03756 3.32472 3.18438
# Velocity P-wave (km/s) = 5.98568 6.59860 6.29960
#
# Compressibility (1/GPa) = 0.02196150
#
# Stress axis : x y z
#
# Youngs Moduli (GPa) = 34.69962 61.70509 77.53689
#
# Poissons Ratio (x) = 0.33990 0.59883
# Poissons Ratio (y) = 0.19114 0.36820
# Poissons Ratio (z) = 0.26799 0.29302
#
# Static dielectric constant tensor:
#      x y z
#    x 3.128040 0.000000 0.000000 
#    y 0.000000 3.415690 0.000000 
#    z 0.000000 0.000000 4.011110 
# 
# 
# High freq. dielectric constant tensor:
#      x y z
#    x 1.709360 0.000000 0.000000 
#    y 0.000000 1.734810 0.000000 
#    z 0.000000 0.000000 1.775020 
# 
# From -- ./inp_files/21934.got.cif
#   From: 2010.03.12/outbox.cif.g09.slc.cpg/sg47_11_cif.got.tgz:21934.got - 2010.04.14 03:12:58.
