data_PCOD8198302
_publ_section_title
;
Structure prediction by ZEFSAII (Michael W. Deem and Ramdas Pophale) SiO2 
 PCOD8198302
Probable space group: P M M M
;
_chemical_formula_sum "Si O2"
_cell_formula_units_Z 40
_cell_length_a 8.823862
_cell_length_b 9.188388
_cell_length_c 25.934166
_cell_angle_alpha 90.000000
_cell_angle_beta 90.000000
_cell_angle_gamma 90.000000
_cell_volume 2102.666133
_symmetry_space_group_name_H-M "P M M M"
_symmetry_group_IT_number 47
_symmetry_cell_setting 'orthorhombic'
loop_
_space_group_symop_operation_xyz
x,y,z
-x,-y,z
x,-y,-z
-x,y,-z
-x,-y,-z
x,y,-z
-x,y,z
x,-y,z
loop_
_atom_site_type_symbol
_atom_site_label
_atom_site_fract_x
_atom_site_fract_y
_atom_site_fract_z
Si Si1 0.179349 0.834107 0.500000
Si Si2 0.319400 0.162110 0.097302
Si Si3 0.318968 0.662820 0.000000
Si Si4 0.677740 0.668361 0.594901
Si Si5 0.175165 0.829622 0.687614
Si Si6 0.331703 0.172679 0.209456
O O1 0.236387 0.753395 0.449556
O O2 0.000000 0.831329 0.500000
O O3 0.239423 0.000000 0.500000
O O4 0.500000 0.156705 0.095169
O O5 0.271759 0.227847 0.153451
O O6 0.253191 0.000000 0.089666
O O7 0.253859 0.260552 0.051324
O O8 0.256620 0.500000 0.000000
O O9 0.500000 0.667759 0.000000
O O10 0.500000 0.686170 0.586073
O O11 0.726456 0.500000 0.593497
O O12 0.722601 0.736574 0.649360
O O13 0.217394 0.779029 0.745483
O O14 0.000000 0.795381 0.677427
O O15 0.210803 0.000000 0.679400
O O16 0.500000 0.235172 0.221427
O O17 0.341604 0.000000 0.205864
#
# Coordination Sequence:
#
# PCOD8198302 Si02
#       6
#     4   8   4   8   8   8
#     4  11  24  41  62  88 114 141 176 215 256 304
#     4   8  13  22  37  56  80 115 157 195 235 290
#     4   9  15  21  31  53  86 117 144 186 246 299
#     4  11  24  40  58  82 111 143 179 216 255 301
#     4  10  20  34  54  80 107 136 172 213 258 309
#     4   8  14  26  45  68  94 126 164 205 248 295
#
# _framework density 19.023468000000001
#
# number of rings (size 3 to 8) (size 9 to 14) (size 15 to 20)
#    0.000    2.600    0.000    3.900    0.000    8.400 
#    0.000    1.000    0.000    3.600    0.000    0.700 
#    0.000    5.600    0.000    0.000    0.000    0.000 
#
# Total GULP energy -495878.645161 kJ/mol
# GULP energy per Si atom -12396.966129 kJ/mol
# Density = 1.898017 g / cm^3
# Si number density = 19.023468 Si / 1000 Ang^3
#
#
#
# Elastic Constant Matrix: (Units=GPa)
#
#
# Indices 1 2 3 4 5 6 
#
# 1 41.3367 29.5692 24.9793 0.0000 0.0000 0.0000
# 2 29.5692 102.5704 66.3698 0.0000 0.0000 0.0000
# 3 24.9793 66.3698 158.9395 0.0000 0.0000 0.0000
# 4 0.0000 0.0000 0.0000 -7.9650 0.0000 0.0000
# 5 0.0000 0.0000 0.0000 0.0000 -5.8034 0.0000
# 6 0.0000 0.0000 0.0000 0.0000 0.0000 17.4349
#
#
#
# Elastic Compliance Matrix: (Units=1/GPa)
#
#
# Indices 1 2 3 4 5 6 
#
# 1 0.030752 -0.007862 -0.001550 0.000000 0.000000 0.000000
# 2 -0.007862 0.015369 -0.005182 0.000000 0.000000 0.000000
# 3 -0.001550 -0.005182 0.008699 0.000000 0.000000 0.000000
# 4 0.000000 0.000000 0.000000 -0.125549 0.000000 0.000000
# 5 0.000000 0.000000 0.000000 0.000000 -0.172313 0.000000
# 6 0.000000 0.000000 0.000000 0.000000 0.000000 0.057356
#
#
# Mechanical properties :
#
#
# Convention : Reuss Voigt Hill
#
# Bulk Modulus (GPa) = 39.01414 60.52037 49.76726
# Shear Modulus (GPa) = -33.79478 12.86185 -10.46646
#
# Velocity S-wave (km/s) = -4.21940 2.60302 -2.34815
# Velocity P-wave (km/s) = 1.78462 6.39663 4.34350
#
# Compressibility (1/GPa) = 0.02563173
#
# Stress axis : x y z
#
# Youngs Moduli (GPa) = 32.51784 65.06512 114.95231
#
# Poissons Ratio (x) = 0.51157 0.17816
# Poissons Ratio (y) = 0.25567 0.59570
# Poissons Ratio (z) = 0.05040 0.33718
#
# Static dielectric constant tensor:
#      x y z
#    x 3.160880 0.000000 0.000000 
#    y 0.000000 3.417270 0.000000 
#    z 0.000000 0.000000 4.001980 
# 
# 
# High freq. dielectric constant tensor:
#      x y z
#    x 1.705260 0.000000 0.000000 
#    y 0.000000 1.715750 0.000000 
#    z 0.000000 0.000000 1.762820 
# 
# From -- ./inp_files/33033.got.cif
#   From: 2010.03.12/outbox.cif.g09.slc.cpg/sg47_17_cif.got.tgz:33033.got - 2010.04.14 03:12:58.
