data_PCOD8198570
_publ_section_title
;
Structure prediction by ZEFSAII (Michael W. Deem and Ramdas Pophale) SiO2 
 PCOD8198570
Probable space group: P M M M
;
_chemical_formula_sum "Si O2"
_cell_formula_units_Z 64
_cell_length_a 23.674855
_cell_length_b 15.022664
_cell_length_c 9.245547
_cell_angle_alpha 90.000000
_cell_angle_beta 90.000000
_cell_angle_gamma 90.000000
_cell_volume 3288.265624
_symmetry_space_group_name_H-M "P M M M"
_symmetry_group_IT_number 47
_symmetry_cell_setting 'orthorhombic'
loop_
_space_group_symop_operation_xyz
x,y,z
-x,-y,z
x,-y,-z
-x,y,-z
-x,-y,-z
x,y,-z
-x,y,z
x,-y,z
loop_
_atom_site_type_symbol
_atom_site_label
_atom_site_fract_x
_atom_site_fract_y
_atom_site_fract_z
Si Si1 0.847204 0.219829 0.827849
Si Si2 0.237621 0.901308 0.663086
Si Si3 0.792540 0.401645 0.171368
Si Si4 0.563136 0.104156 0.661642
Si Si5 0.336652 0.148128 0.840434
Si Si6 0.672222 0.651366 0.160144
Si Si7 0.437515 0.394989 0.337303
Si Si8 0.066131 0.898808 0.666288
O O1 0.796199 0.159902 0.772741
O O2 0.835045 0.322501 0.776460
O O3 0.903940 0.178578 0.759026
O O4 0.852024 0.213295 0.000000
O O5 0.238120 0.861957 0.500000
O O6 0.300749 0.909313 0.726230
O O7 0.210820 0.000000 0.660414
O O8 0.816082 0.500000 0.216737
O O9 0.728100 0.393209 0.232890
O O10 0.787476 0.393015 0.000000
O O11 0.585417 0.124461 0.500000
O O12 0.500000 0.141168 0.678674
O O13 0.599875 0.154625 0.780726
O O14 0.564937 0.000000 0.693264
O O15 0.310800 0.245966 0.850337
O O16 0.336185 0.103860 0.000000
O O17 0.614582 0.642408 0.247551
O O18 0.661353 0.611479 0.000000
O O19 0.431543 0.357989 0.500000
O O20 0.500000 0.366949 0.276531
O O21 0.432821 0.500000 0.336851
O O22 0.085739 0.888874 0.500000
O O23 0.000000 0.881423 0.681429
O O24 0.080413 0.000000 0.719232
#
# Coordination Sequence:
#
# PCOD8198570 Si02
#       8
#     8   8   8   8   8   8   8   8
#     4  11  21  35  57  88 120 149 190 240 283 323
#     4  11  23  37  54  77 109 150 187 219 268 335
#     4   9  18  35  57  79 109 149 188 231 286 340
#     4   9  19  36  54  70  92 128 174 217 263 330
#     4  11  22  35  51  75 104 131 170 225 277 325
#     4  10  20  35  53  74 102 135 175 222 276 338
#     4   9  19  35  52  72  99 128 163 215 278 339
#     4   9  19  37  60  87 123 166 204 234 272 327
#
# _framework density 19.463148
#
# number of rings (size 3 to 8) (size 9 to 14) (size 15 to 20)
#    0.000    2.125    1.250    3.375    0.000    7.500 
#    0.000    4.375    0.000    2.625    0.000    2.625 
#    0.000    0.000    0.000    0.000    0.000    0.000 
#
# Total GULP energy -793099.496485 kJ/mol
# GULP energy per Si atom -12392.179633 kJ/mol
# Density = 1.941885 g / cm^3
# Si number density = 19.463148 Si / 1000 Ang^3
#
#
#
# Elastic Constant Matrix: (Units=GPa)
#
#
# Indices 1 2 3 4 5 6 
#
# 1 95.9185 42.9463 46.4474 0.0000 0.0000 0.0000
# 2 42.9463 108.7041 34.9044 0.0000 0.0000 0.0000
# 3 46.4474 34.9044 87.5200 0.0000 0.0000 0.0000
# 4 0.0000 0.0000 0.0000 11.4484 0.0000 0.0000
# 5 0.0000 0.0000 0.0000 0.0000 34.8536 0.0000
# 6 0.0000 0.0000 0.0000 0.0000 0.0000 30.1940
#
#
#
# Elastic Compliance Matrix: (Units=1/GPa)
#
#
# Indices 1 2 3 4 5 6 
#
# 1 0.015390 -0.003966 -0.006586 0.000000 0.000000 0.000000
# 2 -0.003966 0.011572 -0.002511 0.000000 0.000000 0.000000
# 3 -0.006586 -0.002511 0.015923 0.000000 0.000000 0.000000
# 4 0.000000 0.000000 0.000000 0.087348 0.000000 0.000000
# 5 0.000000 0.000000 0.000000 0.000000 0.028691 0.000000
# 6 0.000000 0.000000 0.000000 0.000000 0.000000 0.033119
#
#
# Mechanical properties :
#
#
# Convention : Reuss Voigt Hill
#
# Bulk Modulus (GPa) = 59.66485 60.08209 59.87347
# Shear Modulus (GPa) = 22.34580 26.48883 24.41731
#
# Velocity S-wave (km/s) = 3.39205 3.69314 3.54579
# Velocity P-wave (km/s) = 6.78699 7.00874 6.89875
#
# Compressibility (1/GPa) = 0.01676029
#
# Stress axis : x y z
#
# Youngs Moduli (GPa) = 64.97573 86.41456 62.80383
#
# Poissons Ratio (x) = 0.34268 0.41364
# Poissons Ratio (y) = 0.25766 0.15768
# Poissons Ratio (z) = 0.42795 0.21695
#
# Static dielectric constant tensor:
#      x y z
#    x 3.823620 0.000000 0.000000 
#    y 0.000000 3.618990 0.000000 
#    z 0.000000 0.000000 3.493940 
# 
# 
# High freq. dielectric constant tensor:
#      x y z
#    x 1.747860 0.000000 0.000000 
#    y 0.000000 1.755520 0.000000 
#    z 0.000000 0.000000 1.741080 
# 
# From -- ./inp_files/12653.got.cif
#   From: 2010.03.12/outbox.cif.g09.slc.cpg/sg47_7_cif.got.tgz:12653.got - 2010.04.14 03:12:58.
