data_PCOD8198615
_publ_section_title
;
Structure prediction by ZEFSAII (Michael W. Deem and Ramdas Pophale) SiO2 
 PCOD8198615
Probable space group: P M M M
;
_chemical_formula_sum "Si O2"
_cell_formula_units_Z 44
_cell_length_a 14.302140
_cell_length_b 8.815126
_cell_length_c 17.997818
_cell_angle_alpha 90.000000
_cell_angle_beta 90.000000
_cell_angle_gamma 90.000000
_cell_volume 2269.077895
_symmetry_space_group_name_H-M "P M M M"
_symmetry_group_IT_number 47
_symmetry_cell_setting 'orthorhombic'
loop_
_space_group_symop_operation_xyz
x,y,z
-x,-y,z
x,-y,-z
-x,y,-z
-x,-y,-z
x,y,-z
-x,y,z
x,-y,z
loop_
_atom_site_type_symbol
_atom_site_label
_atom_site_fract_x
_atom_site_fract_y
_atom_site_fract_z
Si Si1 0.892762 0.821320 0.226119
Si Si2 0.787403 0.180105 0.918325
Si Si3 0.605045 0.177470 0.676593
Si Si4 0.889747 0.174998 0.500000
Si Si5 0.601412 0.180289 0.845924
Si Si6 0.788448 0.678681 0.362230
O O1 0.863855 0.770675 0.142719
O O2 0.828124 0.733479 0.283529
O O3 0.000000 0.776027 0.238763
O O4 0.876428 0.000000 0.237545
O O5 0.685145 0.246118 0.896163
O O6 0.781904 0.000000 0.921403
O O7 0.814979 0.244072 0.000000
O O8 0.500000 0.212612 0.647435
O O9 0.615244 0.233550 0.761319
O O10 0.680801 0.268788 0.628124
O O11 0.627026 0.000000 0.669608
O O12 0.850236 0.251808 0.573153
O O13 0.000000 0.196841 0.500000
O O14 0.860816 0.000000 0.500000
O O15 0.500000 0.238023 0.875598
O O16 0.602966 0.000000 0.847148
O O17 0.794372 0.500000 0.367666
#
# Coordination Sequence:
#
# PCOD8198615 Si02
#       6
#     8   8   8   4   8   8
#     4  10  20  35  55  77 106 148 197 243 288 344
#     4   9  16  26  44  74 110 143 183 241 297 339
#     4   9  17  33  59  86 114 152 195 234 274 330
#     4  11  25  45  68  91 116 149 189 234 284 337
#     4   8  13  23  43  72 105 140 179 228 283 334
#     4  12  24  38  60  89 121 151 183 231 284 340
#
# _framework density 19.391135999999999
#
# number of rings (size 3 to 8) (size 9 to 14) (size 15 to 20)
#    0.000    2.273    1.818    3.545    0.000    4.364 
#    0.000    4.091    0.000    3.273    0.000    1.273 
#    0.000    2.909    0.000    0.000    0.000    0.000 
#
# Total GULP energy -545441.515395 kJ/mol
# GULP energy per Si atom -12396.398077 kJ/mol
# Density = 1.934700 g / cm^3
# Si number density = 19.391136 Si / 1000 Ang^3
#
#
#
# Elastic Constant Matrix: (Units=GPa)
#
#
# Indices 1 2 3 4 5 6 
#
# 1 119.6629 50.6253 36.4372 0.0000 0.0000 0.0000
# 2 50.6253 74.7950 39.3853 0.0000 0.0000 0.0000
# 3 36.4372 39.3853 84.5598 0.0000 0.0000 0.0000
# 4 0.0000 0.0000 0.0000 -9.4172 0.0000 0.0000
# 5 0.0000 0.0000 0.0000 0.0000 31.9850 0.0000
# 6 0.0000 0.0000 0.0000 0.0000 0.0000 9.7027
#
#
#
# Elastic Compliance Matrix: (Units=1/GPa)
#
#
# Indices 1 2 3 4 5 6 
#
# 1 0.011919 -0.007106 -0.001826 0.000000 0.000000 0.000000
# 2 -0.007106 0.021951 -0.007162 0.000000 0.000000 0.000000
# 3 -0.001826 -0.007162 0.015949 0.000000 0.000000 0.000000
# 4 0.000000 0.000000 0.000000 -0.106189 0.000000 0.000000
# 5 0.000000 0.000000 0.000000 0.000000 0.031265 0.000000
# 6 0.000000 0.000000 0.000000 0.000000 0.000000 0.103064
#
#
# Mechanical properties :
#
#
# Convention : Reuss Voigt Hill
#
# Bulk Modulus (GPa) = 56.72050 59.10148 57.91099
# Shear Modulus (GPa) = 43.09443 16.62543 29.85993
#
# Velocity S-wave (km/s) = 4.71932 2.93127 3.92838
# Velocity P-wave (km/s) = 7.68181 6.48084 7.10674
#
# Compressibility (1/GPa) = 0.01763031
#
# Stress axis : x y z
#
# Youngs Moduli (GPa) = 83.89859 45.55627 62.70061
#
# Poissons Ratio (x) = 0.32371 0.11451
# Poissons Ratio (y) = 0.59617 0.44907
# Poissons Ratio (z) = 0.15323 0.32628
#
# Static dielectric constant tensor:
#      x y z
#    x 3.897450 0.000000 0.000000 
#    y 0.000000 3.087170 0.000000 
#    z 0.000000 0.000000 3.554280 
# 
# 
# High freq. dielectric constant tensor:
#      x y z
#    x 1.773890 0.000000 0.000000 
#    y 0.000000 1.702720 0.000000 
#    z 0.000000 0.000000 1.745210 
# 
# From -- ./inp_files/26391.got.cif
#   From: 2010.03.12/outbox.cif.g09.slc.cpg/sg47_14_cif.got.tgz:26391.got - 2010.04.14 03:12:58.
