data_PCOD8198986
_publ_section_title
;
Structure prediction by ZEFSAII (Michael W. Deem and Ramdas Pophale) SiO2 
 PCOD8198986
Probable space group: P M M M
;
_chemical_formula_sum "Si O2"
_cell_formula_units_Z 40
_cell_length_a 9.804500
_cell_length_b 13.863712
_cell_length_c 13.970109
_cell_angle_alpha 90.000000
_cell_angle_beta 90.000000
_cell_angle_gamma 90.000000
_cell_volume 1898.911713
_symmetry_space_group_name_H-M "P M M M"
_symmetry_group_IT_number 47
_symmetry_cell_setting 'orthorhombic'
loop_
_space_group_symop_operation_xyz
x,y,z
-x,-y,z
x,-y,-z
-x,y,-z
-x,-y,-z
x,y,-z
-x,y,z
x,-y,z
loop_
_atom_site_type_symbol
_atom_site_label
_atom_site_fract_x
_atom_site_fract_y
_atom_site_fract_z
Si Si1 0.000000 0.614500 0.891212
Si Si2 0.346994 0.114744 0.106954
Si Si3 0.500000 0.385214 0.895226
Si Si4 0.659037 0.246644 0.610965
Si Si5 0.745093 0.386022 0.230429
Si Si6 0.842823 0.885772 0.722908
O O1 0.876005 0.650196 0.826536
O O2 0.000000 0.500000 0.901405
O O3 0.000000 0.657710 0.000000
O O4 0.500000 0.154045 0.131609
O O5 0.233591 0.153792 0.181472
O O6 0.350314 0.000000 0.112730
O O7 0.304393 0.147478 0.000000
O O8 0.500000 0.500000 0.902113
O O9 0.370500 0.347203 0.839603
O O10 0.500000 0.338381 0.000000
O O11 0.672603 0.271537 0.500000
O O12 0.500000 0.228240 0.637929
O O13 0.724783 0.337020 0.666933
O O14 0.753436 0.154015 0.634283
O O15 0.742113 0.500000 0.248095
O O16 0.000000 0.848883 0.721543
O O17 0.840209 0.000000 0.716315
#
# Coordination Sequence:
#
# PCOD8198986 Si02
#       6
#     4   8   4   8   8   8
#     4   9  18  34  59  91 128 167 201 239 293 357
#     4   8  14  28  54  86 118 153 190 231 286 354
#     4   9  16  30  57  89 122 161 201 241 287 345
#     4  11  25  43  63  87 118 159 208 261 311 360
#     4  10  20  37  61  92 127 162 201 243 294 359
#     4  10  22  40  63  89 118 154 199 255 315 370
#
# _framework density 21.064696000000001
#
# number of rings (size 3 to 8) (size 9 to 14) (size 15 to 20)
#    0.000    2.400    1.000    1.800    1.400    5.200 
#    0.000    7.000    0.000    1.800    0.000    0.000 
#    0.000    0.000    0.000    0.000    0.000    0.000 
#
# Total GULP energy -495806.727485 kJ/mol
# GULP energy per Si atom -12395.168187 kJ/mol
# Density = 2.101675 g / cm^3
# Si number density = 21.064696 Si / 1000 Ang^3
#
#
#
# Elastic Constant Matrix: (Units=GPa)
#
#
# Indices 1 2 3 4 5 6 
#
# 1 196.5015 39.9021 89.8545 0.0000 0.0000 0.0000
# 2 39.9021 36.7001 32.7019 0.0000 0.0000 0.0000
# 3 89.8545 32.7019 159.2306 0.0000 0.0000 0.0000
# 4 0.0000 0.0000 0.0000 26.8913 0.0000 0.0000
# 5 0.0000 0.0000 0.0000 0.0000 29.6754 0.0000
# 6 0.0000 0.0000 0.0000 0.0000 0.0000 29.4522
#
#
#
# Elastic Compliance Matrix: (Units=1/GPa)
#
#
# Indices 1 2 3 4 5 6 
#
# 1 0.007666 -0.005483 -0.003200 0.000000 0.000000 0.000000
# 2 -0.005483 0.037274 -0.004561 0.000000 0.000000 0.000000
# 3 -0.003200 -0.004561 0.009022 0.000000 0.000000 0.000000
# 4 0.000000 0.000000 0.000000 0.037187 0.000000 0.000000
# 5 0.000000 0.000000 0.000000 0.000000 0.033698 0.000000
# 6 0.000000 0.000000 0.000000 0.000000 0.000000 0.033953
#
#
# Mechanical properties :
#
#
# Convention : Reuss Voigt Hill
#
# Bulk Modulus (GPa) = 36.39787 79.70547 58.05167
# Shear Modulus (GPa) = 25.71423 32.53537 29.12480
#
# Velocity S-wave (km/s) = 3.49768 3.93433 3.72241
# Velocity P-wave (km/s) = 5.79899 7.65240 6.78924
#
# Compressibility (1/GPa) = 0.02747414
#
# Stress axis : x y z
#
# Youngs Moduli (GPa) = 130.45364 26.82868 110.83542
#
# Poissons Ratio (x) = 0.14711 0.35462
# Poissons Ratio (y) = 0.71533 0.50549
# Poissons Ratio (z) = 0.41739 0.12236
#
# Static dielectric constant tensor:
#      x y z
#    x 4.141460 0.000000 0.000000 
#    y 0.000000 3.522980 0.000000 
#    z 0.000000 0.000000 3.794380 
# 
# 
# High freq. dielectric constant tensor:
#      x y z
#    x 1.835770 0.000000 0.000000 
#    y 0.000000 1.822430 0.000000 
#    z 0.000000 0.000000 1.816810 
# 
# From -- ./inp_files/20716.got.cif
#   From: 2010.03.12/outbox.cif.g09.slc.cpg/sg47_11_cif.got.tgz:20716.got - 2010.04.14 03:12:58.
