data_PCOD8198045
_publ_section_title
;
Structure prediction by ZEFSAII (Michael W. Deem and Ramdas Pophale) SiO2 
 PCOD8198045
Probable space group: P M M M
;
_chemical_formula_sum "Si O2"
_cell_formula_units_Z 64
_cell_length_a 8.942878
_cell_length_b 14.194282
_cell_length_c 26.220695
_cell_angle_alpha 90.000000
_cell_angle_beta 90.000000
_cell_angle_gamma 90.000000
_cell_volume 3328.395561
_symmetry_space_group_name_H-M "P M M M"
_symmetry_group_IT_number 47
_symmetry_cell_setting 'orthorhombic'
loop_
_space_group_symop_operation_xyz
x,y,z
-x,-y,z
x,-y,-z
-x,y,-z
-x,-y,-z
x,y,-z
-x,y,z
x,-y,z
loop_
_atom_site_type_symbol
_atom_site_label
_atom_site_fract_x
_atom_site_fract_y
_atom_site_fract_z
Si Si1 0.170990 0.391088 0.441543
Si Si2 0.822404 0.715563 0.835818
Si Si3 0.826881 0.286087 0.055074
Si Si4 0.675514 0.107206 0.793352
Si Si5 0.663294 0.898318 0.059155
Si Si6 0.674978 0.723029 0.356191
Si Si7 0.326064 0.609213 0.255962
Si Si8 0.825584 0.106883 0.313613
O O1 0.195663 0.361286 0.500000
O O2 0.211760 0.500000 0.433954
O O3 0.282098 0.330452 0.407519
O O4 0.000000 0.372309 0.425219
O O5 0.779665 0.665332 0.891015
O O6 0.744409 0.819039 0.833614
O O7 0.767131 0.647335 0.791647
O O8 0.000000 0.729421 0.831788
O O9 0.792863 0.177316 0.067614
O O10 0.000000 0.300173 0.046451
O O11 0.750208 0.318234 0.000000
O O12 0.500000 0.123358 0.788865
O O13 0.744340 0.132044 0.738836
O O14 0.714801 0.000000 0.809436
O O15 0.500000 0.867738 0.082702
O O16 0.709652 0.000000 0.083333
O O17 0.638939 0.912134 0.000000
O O18 0.500000 0.742436 0.356210
O O19 0.724602 0.661490 0.307371
O O20 0.760775 0.822924 0.356157
O O21 0.500000 0.626360 0.244550
O O22 0.288626 0.500000 0.263461
O O23 0.000000 0.124244 0.305768
O O24 0.791906 0.000000 0.330940
#
# Coordination Sequence:
#
# PCOD8198045 Si02
#       8
#     8   8   8   8   8   8   8   8
#     4   9  19  36  57  83 118 160 203 245 288 333
#     4  11  22  35  54  78 104 137 176 219 271 328
#     4   9  19  34  49  67  93 126 166 212 261 316
#     4  10  20  34  52  75 106 144 182 220 267 322
#     4   8  14  25  41  62  88 118 155 198 242 293
#     4  11  21  34  57  87 118 153 190 228 277 334
#     4  10  22  39  57  80 111 143 174 215 271 331
#     4  10  20  34  54  81 113 149 190 233 275 323
#
# _framework density 19.228484000000002
#
# number of rings (size 3 to 8) (size 9 to 14) (size 15 to 20)
#    0.000    2.250    1.250    2.625    0.000    5.000 
#    0.000    4.375    0.000    0.750    0.000    5.250 
#    0.000    0.000    0.000    0.000    0.000    0.000 
#
# Total GULP energy -792998.198418 kJ/mol
# GULP energy per Si atom -12390.596850 kJ/mol
# Density = 1.918472 g / cm^3
# Si number density = 19.228484 Si / 1000 Ang^3
#
#
#
# Elastic Constant Matrix: (Units=GPa)
#
#
# Indices 1 2 3 4 5 6 
#
# 1 62.2122 30.1241 38.4019 0.0000 0.0000 0.0000
# 2 30.1241 72.5258 41.5944 0.0000 0.0000 0.0000
# 3 38.4019 41.5944 112.1416 0.0000 0.0000 0.0000
# 4 0.0000 0.0000 0.0000 8.5305 0.0000 0.0000
# 5 0.0000 0.0000 0.0000 0.0000 11.9046 0.0000
# 6 0.0000 0.0000 0.0000 0.0000 0.0000 27.9027
#
#
#
# Elastic Compliance Matrix: (Units=1/GPa)
#
#
# Indices 1 2 3 4 5 6 
#
# 1 0.022399 -0.006230 -0.005360 0.000000 0.000000 0.000000
# 2 -0.006230 0.019246 -0.005005 0.000000 0.000000 0.000000
# 3 -0.005360 -0.005005 0.012609 0.000000 0.000000 0.000000
# 4 0.000000 0.000000 0.000000 0.117226 0.000000 0.000000
# 5 0.000000 0.000000 0.000000 0.000000 0.084001 0.000000
# 6 0.000000 0.000000 0.000000 0.000000 0.000000 0.035839
#
#
# Mechanical properties :
#
#
# Convention : Reuss Voigt Hill
#
# Bulk Modulus (GPa) = 47.47204 51.90228 49.68716
# Shear Modulus (GPa) = 15.08150 18.78483 16.93316
#
# Velocity S-wave (km/s) = 2.80363 3.12897 2.97076
# Velocity P-wave (km/s) = 5.93485 6.33285 6.13708
#
# Compressibility (1/GPa) = 0.02106503
#
# Stress axis : x y z
#
# Youngs Moduli (GPa) = 44.64499 51.95778 79.30716
#
# Poissons Ratio (x) = 0.32368 0.42506
# Poissons Ratio (y) = 0.27813 0.39696
# Poissons Ratio (z) = 0.23928 0.26007
#
# Static dielectric constant tensor:
#      x y z
#    x 3.461240 0.000000 0.000000 
#    y 0.000000 3.454900 0.000000 
#    z 0.000000 0.000000 3.590120 
# 
# 
# High freq. dielectric constant tensor:
#      x y z
#    x 1.745520 0.000000 0.000000 
#    y 0.000000 1.725660 0.000000 
#    z 0.000000 0.000000 1.748600 
# 
# From -- ./inp_files/32107.got.cif
#   From: 2010.03.12/outbox.cif.g09.slc.cpg/sg47_17_cif.got.tgz:32107.got - 2010.04.14 03:12:58.
