data_PCOD8198785
_publ_section_title
;
Structure prediction by ZEFSAII (Michael W. Deem and Ramdas Pophale) SiO2 
 PCOD8198785
Probable space group: P M M M
;
_chemical_formula_sum "Si O2"
_cell_formula_units_Z 48
_cell_length_a 8.802468
_cell_length_b 9.204033
_cell_length_c 30.871954
_cell_angle_alpha 90.000000
_cell_angle_beta 90.000000
_cell_angle_gamma 90.000000
_cell_volume 2501.190327
_symmetry_space_group_name_H-M "P M M M"
_symmetry_group_IT_number 47
_symmetry_cell_setting 'orthorhombic'
loop_
_space_group_symop_operation_xyz
x,y,z
-x,-y,z
x,-y,-z
-x,y,-z
-x,-y,-z
x,y,-z
-x,y,z
x,-y,z
loop_
_atom_site_type_symbol
_atom_site_label
_atom_site_fract_x
_atom_site_fract_y
_atom_site_fract_z
Si Si1 0.680037 0.660306 0.580775
Si Si2 0.675812 0.670808 0.322381
Si Si3 0.178966 0.834414 0.087553
Si Si4 0.329196 0.827409 0.000000
Si Si5 0.322929 0.331300 0.166238
Si Si6 0.318361 0.161763 0.500000
Si Si7 0.823399 0.169535 0.245240
O O1 0.500000 0.651659 0.576903
O O2 0.748906 0.500000 0.573649
O O3 0.721880 0.717022 0.628752
O O4 0.747083 0.762896 0.543330
O O5 0.500000 0.707921 0.312907
O O6 0.704468 0.500000 0.315089
O O7 0.783563 0.764476 0.291776
O O8 0.230737 0.733325 0.126398
O O9 0.000000 0.829374 0.083562
O O10 0.234774 0.000000 0.095892
O O11 0.246785 0.769654 0.043084
O O12 0.500000 0.767483 0.000000
O O13 0.322839 0.000000 0.000000
O O14 0.500000 0.307741 0.157471
O O15 0.281619 0.500000 0.171480
O O16 0.277621 0.249673 0.209797
O O17 0.500000 0.165062 0.500000
O O18 0.254324 0.000000 0.500000
O O19 0.000000 0.195448 0.234993
O O20 0.782948 0.000000 0.244797
#
# Coordination Sequence:
#
# PCOD8198785 Si02
#       7
#     8   8   8   4   8   4   8
#     4   8  14  25  41  62  92 129 165 203 250 303
#     4   9  18  33  53  77 103 133 172 215 259 310
#     4  10  20  35  57  85 115 146 182 223 266 315
#     4   9  17  31  54  83 114 149 186 224 268 315
#     4  11  24  40  58  81 108 139 177 220 265 314
#     4   9  15  21  33  59  94 129 166 207 250 298
#     4  11  24  39  55  78 106 136 172 213 259 314
#
# _framework density 19.190861999999999
#
# number of rings (size 3 to 8) (size 9 to 14) (size 15 to 20)
#    0.000    2.333    0.000    4.000    0.000   10.667 
#    0.000    2.083    0.000    2.500    0.000    0.583 
#    0.000    4.667    0.000    0.000    0.000    0.000 
#
# Total GULP energy -595218.315006 kJ/mol
# GULP energy per Si atom -12400.381563 kJ/mol
# Density = 1.914718 g / cm^3
# Si number density = 19.190862 Si / 1000 Ang^3
#
#
#
# Elastic Constant Matrix: (Units=GPa)
#
#
# Indices 1 2 3 4 5 6 
#
# 1 50.0525 28.7330 26.4181 0.0000 0.0000 0.0000
# 2 28.7330 93.2069 58.5967 0.0000 0.0000 0.0000
# 3 26.4181 58.5967 144.6679 0.0000 0.0000 0.0000
# 4 0.0000 0.0000 0.0000 40.4020 0.0000 0.0000
# 5 0.0000 0.0000 0.0000 0.0000 2.9526 0.0000
# 6 0.0000 0.0000 0.0000 0.0000 0.0000 23.2262
#
#
#
# Elastic Compliance Matrix: (Units=1/GPa)
#
#
# Indices 1 2 3 4 5 6 
#
# 1 0.024662 -0.006401 -0.001911 0.000000 0.000000 0.000000
# 2 -0.006401 0.016056 -0.005334 0.000000 0.000000 0.000000
# 3 -0.001911 -0.005334 0.009422 0.000000 0.000000 0.000000
# 4 0.000000 0.000000 0.000000 0.024751 0.000000 0.000000
# 5 0.000000 0.000000 0.000000 0.000000 0.338689 0.000000
# 6 0.000000 0.000000 0.000000 0.000000 0.000000 0.043055
#
#
# Mechanical properties :
#
#
# Convention : Reuss Voigt Hill
#
# Bulk Modulus (GPa) = 43.76943 57.26921 50.51932
# Shear Modulus (GPa) = 10.17204 24.92813 17.55008
#
# Velocity S-wave (km/s) = 2.30477 3.60802 3.02735
# Velocity P-wave (km/s) = 5.47171 6.87486 6.21302
#
# Compressibility (1/GPa) = 0.02284700
#
# Stress axis : x y z
#
# Youngs Moduli (GPa) = 40.54761 62.28309 106.13547
#
# Poissons Ratio (x) = 0.39870 0.20280
# Poissons Ratio (y) = 0.25956 0.56616
# Poissons Ratio (z) = 0.07748 0.33223
#
# Static dielectric constant tensor:
#      x y z
#    x 3.247690 0.000000 0.000000 
#    y 0.000000 3.530220 0.000000 
#    z 0.000000 0.000000 3.782380 
# 
# 
# High freq. dielectric constant tensor:
#      x y z
#    x 1.721780 0.000000 0.000000 
#    y 0.000000 1.736000 0.000000 
#    z 0.000000 0.000000 1.765540 
# 
# From -- ./inp_files/34214.got.cif
#   From: 2010.03.12/outbox.cif.g09.slc.cpg/sg47_18_cif.got.tgz:34214.got - 2010.04.14 03:12:58.
