data_PCOD8198574
_publ_section_title
;
Structure prediction by ZEFSAII (Michael W. Deem and Ramdas Pophale) SiO2 
 PCOD8198574
Probable space group: P M M M
;
_chemical_formula_sum "Si O2"
_cell_formula_units_Z 48
_cell_length_a 15.228291
_cell_length_b 8.799900
_cell_length_c 19.664192
_cell_angle_alpha 90.000000
_cell_angle_beta 90.000000
_cell_angle_gamma 90.000000
_cell_volume 2635.147990
_symmetry_space_group_name_H-M "P M M M"
_symmetry_group_IT_number 47
_symmetry_cell_setting 'orthorhombic'
loop_
_space_group_symop_operation_xyz
x,y,z
-x,-y,z
x,-y,-z
-x,y,-z
-x,-y,-z
x,y,-z
-x,y,z
x,-y,z
loop_
_atom_site_type_symbol
_atom_site_label
_atom_site_fract_x
_atom_site_fract_y
_atom_site_fract_z
Si Si1 0.098223 0.324115 0.726801
Si Si2 0.901583 0.164643 0.000000
Si Si3 0.658326 0.177450 0.160499
Si Si4 0.500000 0.320355 0.921514
Si Si5 0.598235 0.819293 0.424163
Si Si6 0.276502 0.819959 0.693196
Si Si7 0.168513 0.675110 0.126308
O O1 0.105394 0.500000 0.707731
O O2 0.176435 0.239142 0.687004
O O3 0.110829 0.297441 0.806780
O O4 0.000000 0.263581 0.707098
O O5 0.888287 0.273408 0.936327
O O6 0.000000 0.113486 0.000000
O O7 0.849593 0.000000 0.000000
O O8 0.583178 0.266210 0.121182
O O9 0.672273 0.233945 0.238611
O O10 0.747822 0.215083 0.122363
O O11 0.636185 0.000000 0.157829
O O12 0.500000 0.500000 0.924071
O O13 0.500000 0.257658 0.000000
O O14 0.624505 0.764157 0.500000
O O15 0.500000 0.761059 0.406125
O O16 0.668129 0.753466 0.370256
O O17 0.598940 0.000000 0.421020
O O18 0.271373 0.000000 0.692208
O O19 0.198220 0.500000 0.120410
#
# Coordination Sequence:
#
# PCOD8198574 Si02
#       7
#     8   4   8   4   8   8   8
#     4   9  18  33  52  73  99 133 172 211 254 305
#     4  11  23  35  49  72  99 126 159 205 261 313
#     4  10  21  36  54  77 103 131 166 212 264 308
#     4  11  25  41  55  71  96 133 180 220 256 304
#     4   8  14  26  48  78 110 141 170 204 250 305
#     4   9  18  31  52  81 108 134 169 213 257 304
#     4  10  20  35  54  72  96 127 165 209 255 311
#
# _framework density 18.215295000000001
#
# number of rings (size 3 to 8) (size 9 to 14) (size 15 to 20)
#    0.000    2.500    0.000    2.500    2.333    3.667 
#    0.000    0.000    0.000    1.000    0.000    4.667 
#    0.000    0.000    0.000    0.000    0.000    0.000 
#
# Total GULP energy -594858.980604 kJ/mol
# GULP energy per Si atom -12392.895429 kJ/mol
# Density = 1.817384 g / cm^3
# Si number density = 18.215295 Si / 1000 Ang^3
#
#
#
# Elastic Constant Matrix: (Units=GPa)
#
#
# Indices 1 2 3 4 5 6 
#
# 1 139.7671 26.8052 79.5430 0.0000 0.0000 0.0000
# 2 26.8052 35.9514 27.6612 0.0000 0.0000 0.0000
# 3 79.5430 27.6612 108.6016 0.0000 0.0000 0.0000
# 4 0.0000 0.0000 0.0000 15.2012 0.0000 0.0000
# 5 0.0000 0.0000 0.0000 0.0000 6.3404 0.0000
# 6 0.0000 0.0000 0.0000 0.0000 0.0000 29.6155
#
#
#
# Elastic Compliance Matrix: (Units=1/GPa)
#
#
# Indices 1 2 3 4 5 6 
#
# 1 0.012496 -0.002830 -0.008432 0.000000 0.000000 0.000000
# 2 -0.002830 0.035236 -0.006902 0.000000 0.000000 0.000000
# 3 -0.008432 -0.006902 0.017142 0.000000 0.000000 0.000000
# 4 0.000000 0.000000 0.000000 0.065784 0.000000 0.000000
# 5 0.000000 0.000000 0.000000 0.000000 0.157720 0.000000
# 6 0.000000 0.000000 0.000000 0.000000 0.000000 0.033766
#
#
# Mechanical properties :
#
#
# Convention : Reuss Voigt Hill
#
# Bulk Modulus (GPa) = 35.03083 61.37098 48.20091
# Shear Modulus (GPa) = 13.58747 20.25212 16.91980
#
# Velocity S-wave (km/s) = 2.73415 3.33801 3.05106
# Velocity P-wave (km/s) = 5.40747 6.97292 6.23948
#
# Compressibility (1/GPa) = 0.02854628
#
# Stress axis : x y z
#
# Youngs Moduli (GPa) = 80.02528 28.38043 58.33738
#
# Poissons Ratio (x) = 0.08030 0.49189
# Poissons Ratio (y) = 0.22644 0.40265
# Poissons Ratio (z) = 0.67476 0.19589
#
# Static dielectric constant tensor:
#      x y z
#    x 3.827550 0.000000 0.000000 
#    y 0.000000 3.178610 0.000000 
#    z 0.000000 0.000000 3.457580 
# 
# 
# High freq. dielectric constant tensor:
#      x y z
#    x 1.709840 0.000000 0.000000 
#    y 0.000000 1.692070 0.000000 
#    z 0.000000 0.000000 1.691440 
# 
# From -- ./inp_files/28000.got.cif
#   From: 2010.03.12/outbox.cif.g09.slc.cpg/sg47_14_cif.got.tgz:28000.got - 2010.04.14 03:12:58.
