data_PCOD8198392
_publ_section_title
;
Structure prediction by ZEFSAII (Michael W. Deem and Ramdas Pophale) SiO2 
 PCOD8198392
Probable space group: P M M M
;
_chemical_formula_sum "Si O2"
_cell_formula_units_Z 52
_cell_length_a 14.706928
_cell_length_b 8.711142
_cell_length_c 20.642802
_cell_angle_alpha 90.000000
_cell_angle_beta 90.000000
_cell_angle_gamma 90.000000
_cell_volume 2644.634788
_symmetry_space_group_name_H-M "P M M M"
_symmetry_group_IT_number 47
_symmetry_cell_setting 'orthorhombic'
loop_
_space_group_symop_operation_xyz
x,y,z
-x,-y,z
x,-y,-z
-x,y,-z
-x,-y,-z
x,y,-z
-x,y,z
x,-y,z
loop_
_atom_site_type_symbol
_atom_site_label
_atom_site_fract_x
_atom_site_fract_y
_atom_site_fract_z
Si Si1 0.233700 0.822801 0.301049
Si Si2 0.104371 0.317854 0.194036
Si Si3 0.599332 0.176037 0.893023
Si Si4 0.221278 0.323010 0.070919
Si Si5 0.000000 0.830473 0.423975
Si Si6 0.184550 0.319064 0.572816
Si Si7 0.600652 0.326171 0.758251
O O1 0.155829 0.743745 0.257594
O O2 0.248798 0.753104 0.373058
O O3 0.332624 0.798651 0.271570
O O4 0.209030 0.000000 0.306061
O O5 0.105264 0.500000 0.197022
O O6 0.155497 0.260402 0.128301
O O7 0.000000 0.257313 0.193209
O O8 0.500000 0.190065 0.928635
O O9 0.685019 0.227153 0.935747
O O10 0.597546 0.292970 0.833750
O O11 0.613674 0.000000 0.870546
O O12 0.244837 0.500000 0.084938
O O13 0.173276 0.305799 0.000000
O O14 0.085807 0.732332 0.402163
O O15 0.000000 0.851020 0.500000
O O16 0.000000 0.000000 0.391259
O O17 0.206331 0.256925 0.500000
O O18 0.191996 0.500000 0.573067
O O19 0.500000 0.307491 0.727710
O O20 0.636920 0.500000 0.747453
#
# Coordination Sequence:
#
# PCOD8198392 Si02
#       7
#     8   8   8   8   4   8   8
#     4  12  24  37  59  88 120 154 190 237 289 344
#     4  10  22  40  60  82 112 151 197 245 290 341
#     4  10  20  34  54  82 115 149 185 229 287 349
#     4  10  21  37  58  83 112 150 195 241 290 344
#     4   9  17  31  51  77 111 147 186 233 284 337
#     4  10  21  37  57  81 113 155 199 239 284 343
#     4  10  20  36  60  87 115 148 188 235 286 343
#
# _framework density 19.66245
#
# number of rings (size 3 to 8) (size 9 to 14) (size 15 to 20)
#    0.000    1.769    1.538    3.000    1.077    4.923 
#    0.000    3.077    0.000    0.462    0.000    5.385 
#    0.000    0.000    0.000    0.000    0.000    0.000 
#
# Total GULP energy -644412.408156 kJ/mol
# GULP energy per Si atom -12392.546311 kJ/mol
# Density = 1.961770 g / cm^3
# Si number density = 19.662450 Si / 1000 Ang^3
#
#
#
# Elastic Constant Matrix: (Units=GPa)
#
#
# Indices 1 2 3 4 5 6 
#
# 1 101.9703 26.4957 41.2811 0.0000 0.0000 0.0000
# 2 26.4957 59.8575 26.0134 0.0000 0.0000 0.0000
# 3 41.2811 26.0134 113.0887 0.0000 0.0000 0.0000
# 4 0.0000 0.0000 0.0000 19.2312 0.0000 0.0000
# 5 0.0000 0.0000 0.0000 0.0000 14.1723 0.0000
# 6 0.0000 0.0000 0.0000 0.0000 0.0000 -1.6669
#
#
#
# Elastic Compliance Matrix: (Units=1/GPa)
#
#
# Indices 1 2 3 4 5 6 
#
# 1 0.012264 -0.003870 -0.003587 0.000000 0.000000 0.000000
# 2 -0.003870 0.019783 -0.003138 0.000000 0.000000 0.000000
# 3 -0.003587 -0.003138 0.010874 0.000000 0.000000 0.000000
# 4 0.000000 0.000000 0.000000 0.051999 0.000000 0.000000
# 5 0.000000 0.000000 0.000000 0.000000 0.070560 0.000000
# 6 0.000000 0.000000 0.000000 0.000000 0.000000 -0.599929
#
#
# Mechanical properties :
#
#
# Convention : Reuss Voigt Hill
#
# Bulk Modulus (GPa) = 46.01545 51.38853 48.70199
# Shear Modulus (GPa) = -12.31480 18.42241 3.05381
#
# Velocity S-wave (km/s) = -2.50533 3.06426 1.24759
# Velocity P-wave (km/s) = 3.88389 6.22187 5.18634
#
# Compressibility (1/GPa) = 0.02173183
#
# Stress axis : x y z
#
# Youngs Moduli (GPa) = 81.53700 50.54812 91.96506
#
# Poissons Ratio (x) = 0.19562 0.32985
# Poissons Ratio (y) = 0.31555 0.28858
# Poissons Ratio (z) = 0.29245 0.15862
#
# Static dielectric constant tensor:
#      x y z
#    x 3.713300 0.000000 0.000000 
#    y 0.000000 3.511510 0.000000 
#    z 0.000000 0.000000 3.565840 
# 
# 
# High freq. dielectric constant tensor:
#      x y z
#    x 1.755890 0.000000 0.000000 
#    y 0.000000 1.766490 0.000000 
#    z 0.000000 0.000000 1.757650 
# 
# From -- ./inp_files/21388.got.cif
#   From: 2010.03.12/outbox.cif.g09.slc.cpg/sg47_11_cif.got.tgz:21388.got - 2010.04.14 03:12:58.
