data_PCOD8198294
_publ_section_title
;
Structure prediction by ZEFSAII (Michael W. Deem and Ramdas Pophale) SiO2 
 PCOD8198294
Probable space group: P M M M
;
_chemical_formula_sum "Si O2"
_cell_formula_units_Z 56
_cell_length_a 14.266107
_cell_length_b 22.426824
_cell_length_c 9.451385
_cell_angle_alpha 90.000000
_cell_angle_beta 90.000000
_cell_angle_gamma 90.000000
_cell_volume 3023.908921
_symmetry_space_group_name_H-M "P M M M"
_symmetry_group_IT_number 47
_symmetry_cell_setting 'orthorhombic'
loop_
_space_group_symop_operation_xyz
x,y,z
-x,-y,z
x,-y,-z
-x,y,-z
-x,-y,-z
x,y,-z
-x,y,z
x,-y,z
loop_
_atom_site_type_symbol
_atom_site_label
_atom_site_fract_x
_atom_site_fract_y
_atom_site_fract_z
Si Si1 0.500000 0.071243 0.344565
Si Si2 0.000000 0.067375 0.168324
Si Si3 0.338391 0.066422 0.153760
Si Si4 0.390335 0.676646 0.166301
Si Si5 0.164837 0.849605 0.841900
Si Si6 0.767702 0.260178 0.334814
Si Si7 0.736901 0.567026 0.837668
Si Si8 0.107736 0.374935 0.663112
O O1 0.500000 0.098457 0.500000
O O2 0.408727 0.095183 0.266192
O O3 0.500000 0.000000 0.341345
O O4 0.912316 0.105860 0.222046
O O5 0.000000 0.000000 0.232888
O O6 0.000000 0.061900 0.000000
O O7 0.254592 0.110619 0.144038
O O8 0.305144 0.000000 0.199757
O O9 0.387790 0.062697 0.000000
O O10 0.500000 0.678598 0.211236
O O11 0.330138 0.724940 0.254715
O O12 0.348178 0.611394 0.203714
O O13 0.379713 0.691119 0.000000
O O14 0.182727 0.796865 0.732784
O O15 0.137748 0.825377 0.000000
O O16 0.745410 0.249299 0.500000
O O17 0.844829 0.311092 0.313255
O O18 0.700550 0.500000 0.809263
O O19 0.831885 0.577083 0.749443
O O20 0.764906 0.576835 0.000000
O O21 0.110961 0.393957 0.500000
O O22 0.000000 0.373224 0.717207
#
# Coordination Sequence:
#
# PCOD8198294 Si02
#       8
#     4   4   8   8   8   8   8   8
#     4   9  17  29  47  71  97 125 159 201 246 293
#     4   9  18  34  57  85 113 139 172 217 266 317
#     4   9  17  31  51  73  99 132 167 203 249 308
#     4   9  18  35  58  80 106 142 180 220 265 315
#     4  10  20  34  54  80 106 135 172 215 262 314
#     4  10  21  36  54  76 104 138 177 223 269 314
#     4   9  18  32  51  80 114 141 172 217 267 318
#     4   9  19  35  53  72  99 141 185 221 261 310
#
# _framework density 18.519075999999998
#
# number of rings (size 3 to 8) (size 9 to 14) (size 15 to 20)
#    0.000    2.714    0.000    1.071    1.000    5.143 
#    1.286    2.857    0.000    1.714    0.000    4.000 
#    0.000    0.000    0.000    0.000    0.000    0.000 
#
# Total GULP energy -694101.096133 kJ/mol
# GULP energy per Si atom -12394.662431 kJ/mol
# Density = 1.847693 g / cm^3
# Si number density = 18.519076 Si / 1000 Ang^3
#
#
#
# Elastic Constant Matrix: (Units=GPa)
#
#
# Indices 1 2 3 4 5 6 
#
# 1 116.8423 39.0667 45.6744 0.0000 0.0000 0.0000
# 2 39.0667 95.9049 40.3458 0.0000 0.0000 0.0000
# 3 45.6744 40.3458 80.9025 0.0000 0.0000 0.0000
# 4 0.0000 0.0000 0.0000 24.3120 0.0000 0.0000
# 5 0.0000 0.0000 0.0000 0.0000 22.6913 0.0000
# 6 0.0000 0.0000 0.0000 0.0000 0.0000 22.7155
#
#
#
# Elastic Compliance Matrix: (Units=1/GPa)
#
#
# Indices 1 2 3 4 5 6 
#
# 1 0.011421 -0.002455 -0.005224 0.000000 0.000000 0.000000
# 2 -0.002455 0.013723 -0.005458 0.000000 0.000000 0.000000
# 3 -0.005224 -0.005458 0.018031 0.000000 0.000000 0.000000
# 4 0.000000 0.000000 0.000000 0.041132 0.000000 0.000000
# 5 0.000000 0.000000 0.000000 0.000000 0.044070 0.000000
# 6 0.000000 0.000000 0.000000 0.000000 0.000000 0.044023
#
#
# Mechanical properties :
#
#
# Convention : Reuss Voigt Hill
#
# Bulk Modulus (GPa) = 59.16097 60.42482 59.79289
# Shear Modulus (GPa) = 24.47296 25.18130 24.82713
#
# Velocity S-wave (km/s) = 3.63919 3.69148 3.66543
# Velocity P-wave (km/s) = 7.04795 7.13222 7.09021
#
# Compressibility (1/GPa) = 0.01690304
#
# Stress axis : x y z
#
# Youngs Moduli (GPa) = 87.55515 72.87071 55.45875
#
# Poissons Ratio (x) = 0.17889 0.28971
# Poissons Ratio (y) = 0.21494 0.30267
# Poissons Ratio (z) = 0.45737 0.39770
#
# Static dielectric constant tensor:
#      x y z
#    x 3.395010 0.000000 0.000000 
#    y 0.000000 3.408310 0.000000 
#    z 0.000000 0.000000 3.621060 
# 
# 
# High freq. dielectric constant tensor:
#      x y z
#    x 1.719630 0.000000 0.000000 
#    y 0.000000 1.711040 0.000000 
#    z 0.000000 0.000000 1.707440 
# 
# From -- ./inp_files/7416.got.cif
#   From: 2010.03.12/outbox.cif.g09.slc.cpg/sg47_4_cif.got.tgz:7416.got - 2010.04.14 03:12:58.
