data_PCOD8198591
_publ_section_title
;
Structure prediction by ZEFSAII (Michael W. Deem and Ramdas Pophale) SiO2 
 PCOD8198591
Probable space group: P M M M
;
_chemical_formula_sum "Si O2"
_cell_formula_units_Z 56
_cell_length_a 8.887473
_cell_length_b 14.490484
_cell_length_c 22.614041
_cell_angle_alpha 90.000000
_cell_angle_beta 90.000000
_cell_angle_gamma 90.000000
_cell_volume 2912.321801
_symmetry_space_group_name_H-M "P M M M"
_symmetry_group_IT_number 47
_symmetry_cell_setting 'orthorhombic'
loop_
_space_group_symop_operation_xyz
x,y,z
-x,-y,z
x,-y,-z
-x,y,-z
-x,-y,-z
x,y,-z
-x,y,z
x,-y,z
loop_
_atom_site_type_symbol
_atom_site_label
_atom_site_fract_x
_atom_site_fract_y
_atom_site_fract_z
Si Si1 0.177706 0.605505 0.176854
Si Si2 0.324526 0.899850 0.094780
Si Si3 0.676677 0.297385 0.064973
Si Si4 0.827958 0.273554 0.712531
Si Si5 0.676907 0.601140 0.500000
Si Si6 0.165944 0.898761 0.212576
Si Si7 0.821319 0.891198 0.500000
Si Si8 0.322607 0.752551 0.410366
O O1 0.230336 0.500000 0.182658
O O2 0.242254 0.646357 0.116223
O O3 0.234471 0.659072 0.235526
O O4 0.000000 0.615475 0.172357
O O5 0.500000 0.907897 0.084366
O O6 0.264280 0.809241 0.061050
O O7 0.291761 0.881908 0.163519
O O8 0.252635 0.000000 0.074903
O O9 0.500000 0.298974 0.079295
O O10 0.709746 0.341285 0.000000
O O11 0.813283 0.169285 0.733634
O O12 0.723470 0.273128 0.655767
O O13 0.000000 0.299883 0.696425
O O14 0.755328 0.500000 0.500000
O O15 0.500000 0.587620 0.500000
O O16 0.727276 0.659292 0.556719
O O17 0.000000 0.884922 0.183374
O O18 0.182290 0.000000 0.240484
O O19 0.757463 0.841306 0.559369
O O20 0.000000 0.880683 0.500000
O O21 0.775365 0.000000 0.500000
O O22 0.500000 0.771259 0.414427
#
# Coordination Sequence:
#
# PCOD8198591 Si02
#       8
#     8   8   8   8   4   8   4   8
#     4  10  22  40  59  79 106 143 188 237 287 339
#     4   9  17  30  50  76 105 136 170 211 262 322
#     4  10  21  36  55  80 109 141 180 229 285 345
#     4  10  20  35  54  78 111 146 181 224 275 333
#     4   8  16  34  56  77 106 141 175 214 264 320
#     4   9  17  30  50  74 100 134 174 214 259 312
#     4  10  21  39  62  85 116 161 203 236 276 324
#     4  10  21  35  56  87 117 147 186 233 278 323
#
# _framework density 19.228643000000002
#
# number of rings (size 3 to 8) (size 9 to 14) (size 15 to 20)
#    0.000    2.429    1.429    1.071    0.000    4.000 
#    0.000    4.286    0.000    7.286    0.000    3.000 
#    0.000    0.000    0.000    0.000    0.000    0.000 
#
# Total GULP energy -693822.292366 kJ/mol
# GULP energy per Si atom -12389.683792 kJ/mol
# Density = 1.918488 g / cm^3
# Si number density = 19.228643 Si / 1000 Ang^3
#
#
#
# Elastic Constant Matrix: (Units=GPa)
#
#
# Indices 1 2 3 4 5 6 
#
# 1 40.2585 38.5311 35.7680 0.0000 0.0000 0.0000
# 2 38.5311 148.5428 70.8682 0.0000 0.0000 0.0000
# 3 35.7680 70.8682 139.8779 0.0000 0.0000 0.0000
# 4 0.0000 0.0000 0.0000 12.1544 0.0000 0.0000
# 5 0.0000 0.0000 0.0000 0.0000 29.0089 0.0000
# 6 0.0000 0.0000 0.0000 0.0000 0.0000 23.1335
#
#
#
# Elastic Compliance Matrix: (Units=1/GPa)
#
#
# Indices 1 2 3 4 5 6 
#
# 1 0.036477 -0.006610 -0.005979 0.000000 0.000000 0.000000
# 2 -0.006610 0.010076 -0.003415 0.000000 0.000000 0.000000
# 3 -0.005979 -0.003415 0.010408 0.000000 0.000000 0.000000
# 4 0.000000 0.000000 0.000000 0.082275 0.000000 0.000000
# 5 0.000000 0.000000 0.000000 0.000000 0.034472 0.000000
# 6 0.000000 0.000000 0.000000 0.000000 0.000000 0.043227
#
#
# Mechanical properties :
#
#
# Convention : Reuss Voigt Hill
#
# Bulk Modulus (GPa) = 40.07243 68.77929 54.42586
# Shear Modulus (GPa) = 19.43564 25.09350 22.26457
#
# Velocity S-wave (km/s) = 3.18270 3.61641 3.40646
# Velocity P-wave (km/s) = 5.86441 7.29964 6.62103
#
# Compressibility (1/GPa) = 0.02495481
#
# Stress axis : x y z
#
# Youngs Moduli (GPa) = 27.41425 99.24938 96.08045
#
# Poissons Ratio (x) = 0.65599 0.57445
# Poissons Ratio (y) = 0.18120 0.32808
# Poissons Ratio (z) = 0.16391 0.33890
#
# Static dielectric constant tensor:
#      x y z
#    x 3.382240 0.000000 0.000000 
#    y 0.000000 3.996800 0.000000 
#    z 0.000000 0.000000 3.442410 
# 
# 
# High freq. dielectric constant tensor:
#      x y z
#    x 1.728260 0.000000 0.000000 
#    y 0.000000 1.759810 0.000000 
#    z 0.000000 0.000000 1.741610 
# 
# From -- ./inp_files/29782.got.cif
#   From: 2010.03.12/outbox.cif.g09.slc.cpg/sg47_15_cif.got.tgz:29782.got - 2010.04.14 03:12:58.
