data_PCOD8198476
_publ_section_title
;
Structure prediction by ZEFSAII (Michael W. Deem and Ramdas Pophale) SiO2 
 PCOD8198476
Probable space group: P M M M
;
_chemical_formula_sum "Si O2"
_cell_formula_units_Z 56
_cell_length_a 22.972220
_cell_length_b 14.585650
_cell_length_c 8.733565
_cell_angle_alpha 90.000000
_cell_angle_beta 90.000000
_cell_angle_gamma 90.000000
_cell_volume 2926.309866
_symmetry_space_group_name_H-M "P M M M"
_symmetry_group_IT_number 47
_symmetry_cell_setting 'orthorhombic'
loop_
_space_group_symop_operation_xyz
x,y,z
-x,-y,z
x,-y,-z
-x,y,-z
-x,-y,-z
x,y,-z
-x,y,z
x,-y,z
loop_
_atom_site_type_symbol
_atom_site_label
_atom_site_fract_x
_atom_site_fract_y
_atom_site_fract_z
Si Si1 0.887516 0.790719 0.680837
Si Si2 0.755210 0.600266 0.671757
Si Si3 0.000000 0.897484 0.682116
Si Si4 0.874683 0.601989 0.177531
Si Si5 0.431896 0.000000 0.668962
Si Si6 0.679345 0.771314 0.321772
Si Si7 0.434503 0.186389 0.819432
Si Si8 0.776369 0.893377 0.818613
O O1 0.880900 0.797766 0.500000
O O2 0.902082 0.685440 0.726461
O O3 0.828538 0.831217 0.752346
O O4 0.942011 0.848532 0.743765
O O5 0.780496 0.618776 0.500000
O O6 0.725551 0.500000 0.678528
O O7 0.805894 0.606043 0.795737
O O8 0.708229 0.674771 0.715374
O O9 0.000000 0.896444 0.500000
O O10 0.000000 0.000000 0.747896
O O11 0.897958 0.500000 0.228142
O O12 0.888242 0.618007 0.000000
O O13 0.412995 0.913644 0.768097
O O14 0.500000 0.000000 0.645108
O O15 0.401988 0.000000 0.500000
O O16 0.675943 0.794650 0.500000
O O17 0.614688 0.750896 0.256087
O O18 0.714913 0.853574 0.241036
O O19 0.500000 0.209484 0.759203
O O20 0.433169 0.194322 0.000000
O O21 0.782633 0.000000 0.766603
O O22 0.777837 0.885636 0.000000
#
# Coordination Sequence:
#
# PCOD8198476 Si02
#       8
#     8   8   4   8   4   8   8   8
#     4  11  21  37  61  86 113 148 190 238 286 331
#     4   9  18  34  56  83 112 141 178 225 279 337
#     4   9  20  38  60  85 112 148 195 241 282 331
#     4  10  20  34  55  83 115 150 184 224 280 340
#     4   9  17  31  51  73  97 131 179 228 269 320
#     4  11  22  35  56  84 111 143 183 230 281 333
#     4  10  21  36  53  73 104 146 186 228 279 333
#     4  11  24  39  55  79 115 153 186 228 281 336
#
# _framework density 19.136728999999999
#
# number of rings (size 3 to 8) (size 9 to 14) (size 15 to 20)
#    0.000    1.857    1.429    2.786    1.000    4.857 
#    0.000    1.786    0.000    5.143    0.000    3.000 
#    0.000    0.000    0.000    0.000    0.000    0.000 
#
# Total GULP energy -694104.711919 kJ/mol
# GULP energy per Si atom -12394.726999 kJ/mol
# Density = 1.909317 g / cm^3
# Si number density = 19.136729 Si / 1000 Ang^3
#
#
#
# Elastic Constant Matrix: (Units=GPa)
#
#
# Indices 1 2 3 4 5 6 
#
# 1 100.7336 42.1915 23.9892 0.0000 0.0000 0.0000
# 2 42.1915 126.5224 29.2594 0.0000 0.0000 0.0000
# 3 23.9892 29.2594 65.5965 0.0000 0.0000 0.0000
# 4 0.0000 0.0000 0.0000 27.8237 0.0000 0.0000
# 5 0.0000 0.0000 0.0000 0.0000 16.2481 0.0000
# 6 0.0000 0.0000 0.0000 0.0000 0.0000 26.1673
#
#
#
# Elastic Compliance Matrix: (Units=1/GPa)
#
#
# Indices 1 2 3 4 5 6 
#
# 1 0.012016 -0.003335 -0.002907 0.000000 0.000000 0.000000
# 2 -0.003335 0.009738 -0.003124 0.000000 0.000000 0.000000
# 3 -0.002907 -0.003124 0.017701 0.000000 0.000000 0.000000
# 4 0.000000 0.000000 0.000000 0.035941 0.000000 0.000000
# 5 0.000000 0.000000 0.000000 0.000000 0.061546 0.000000
# 6 0.000000 0.000000 0.000000 0.000000 0.000000 0.038216
#
#
# Mechanical properties :
#
#
# Convention : Reuss Voigt Hill
#
# Bulk Modulus (GPa) = 48.25330 53.74808 51.00069
# Shear Modulus (GPa) = 24.90068 27.20864 26.05466
#
# Velocity S-wave (km/s) = 3.61113 3.77477 3.69385
# Velocity P-wave (km/s) = 6.53121 6.86628 6.70084
#
# Compressibility (1/GPa) = 0.02072397
#
# Stress axis : x y z
#
# Youngs Moduli (GPa) = 83.22096 102.68733 56.49277
#
# Poissons Ratio (x) = 0.34244 0.16422
# Poissons Ratio (y) = 0.27753 0.17650
# Poissons Ratio (z) = 0.24192 0.32082
#
# Static dielectric constant tensor:
#      x y z
#    x 3.481970 0.000000 0.000000 
#    y 0.000000 3.723600 0.000000 
#    z 0.000000 0.000000 3.470230 
# 
# 
# High freq. dielectric constant tensor:
#      x y z
#    x 1.729840 0.000000 0.000000 
#    y 0.000000 1.746800 0.000000 
#    z 0.000000 0.000000 1.745480 
# 
# From -- ./inp_files/11387.got.cif
#   From: 2010.03.12/outbox.cif.g09.slc.cpg/sg47_6_cif.got.tgz:11387.got - 2010.04.14 03:12:58.
