data_PCOD8198264
_publ_section_title
;
Structure prediction by ZEFSAII (Michael W. Deem and Ramdas Pophale) SiO2 
 PCOD8198264
Probable space group: P M M M
;
_chemical_formula_sum "Si O2"
_cell_formula_units_Z 40
_cell_length_a 9.474863
_cell_length_b 25.697834
_cell_length_c 9.064775
_cell_angle_alpha 90.000000
_cell_angle_beta 90.000000
_cell_angle_gamma 90.000000
_cell_volume 2207.122750
_symmetry_space_group_name_H-M "P M M M"
_symmetry_group_IT_number 47
_symmetry_cell_setting 'orthorhombic'
loop_
_space_group_symop_operation_xyz
x,y,z
-x,-y,z
x,-y,-z
-x,y,-z
-x,-y,-z
x,y,-z
-x,y,z
x,-y,z
loop_
_atom_site_type_symbol
_atom_site_label
_atom_site_fract_x
_atom_site_fract_y
_atom_site_fract_z
Si Si1 0.832113 0.500000 0.666464
Si Si2 0.162893 0.397788 0.172252
Si Si3 0.663346 0.701644 0.830294
Si Si4 0.167677 0.000000 0.333588
Si Si5 0.335396 0.193030 0.328723
Si Si6 0.834795 0.896744 0.827854
O O1 0.776462 0.500000 0.500000
O O2 0.774384 0.448293 0.745914
O O3 0.000000 0.500000 0.676171
O O4 0.247976 0.347474 0.226692
O O5 0.000000 0.388439 0.212621
O O6 0.184567 0.407512 0.000000
O O7 0.500000 0.687600 0.811044
O O8 0.707080 0.750248 0.730008
O O9 0.699483 0.715056 0.000000
O O10 0.223164 0.051085 0.249810
O O11 0.227484 0.000000 0.500000
O O12 0.000000 0.000000 0.333013
O O13 0.295651 0.189288 0.500000
O O14 0.500000 0.182213 0.301029
O O15 0.246834 0.151710 0.238068
O O16 0.000000 0.888776 0.797062
O O17 0.802231 0.901533 0.000000
#
# Coordination Sequence:
#
# PCOD8198264 Si02
#       6
#     4   8   8   4   8   8
#     4   9  17  29  46  69  96 124 154 191 238 288
#     4   9  17  30  49  71  94 122 158 198 238 284
#     4   9  18  33  51  70  95 128 163 200 245 295
#     4   9  17  31  52  77 106 137 166 202 252 303
#     4  10  21  36  53  74 102 136 171 208 253 302
#     4  10  20  34  54  79 105 134 170 210 250 296
#
# _framework density 18.123142999999999
#
# number of rings (size 3 to 8) (size 9 to 14) (size 15 to 20)
#    0.000    2.600    0.000    1.800    0.000    6.400 
#    0.000    3.000    0.000    6.000    0.000    0.000 
#    0.000    0.000    0.000    0.000    0.000    0.000 
#
# Total GULP energy -496090.372722 kJ/mol
# GULP energy per Si atom -12402.259318 kJ/mol
# Density = 1.808189 g / cm^3
# Si number density = 18.123143 Si / 1000 Ang^3
#
#
#
# Elastic Constant Matrix: (Units=GPa)
#
#
# Indices 1 2 3 4 5 6 
#
# 1 44.9263 61.4143 41.4706 0.0000 0.0000 0.0000
# 2 61.4143 169.8669 81.7688 0.0000 0.0000 0.0000
# 3 41.4706 81.7688 110.2843 0.0000 0.0000 0.0000
# 4 0.0000 0.0000 0.0000 20.0350 0.0000 0.0000
# 5 0.0000 0.0000 0.0000 0.0000 21.2889 0.0000
# 6 0.0000 0.0000 0.0000 0.0000 0.0000 -18.9675
#
#
#
# Elastic Compliance Matrix: (Units=1/GPa)
#
#
# Indices 1 2 3 4 5 6 
#
# 1 0.048255 -0.013546 -0.008102 0.000000 0.000000 0.000000
# 2 -0.013546 0.012957 -0.004513 0.000000 0.000000 0.000000
# 3 -0.008102 -0.004513 0.015460 0.000000 0.000000 0.000000
# 4 0.000000 0.000000 0.000000 0.049913 0.000000 0.000000
# 5 0.000000 0.000000 0.000000 0.000000 0.046973 0.000000
# 6 0.000000 0.000000 0.000000 0.000000 0.000000 -0.052722
#
#
# Mechanical properties :
#
#
# Convention : Reuss Voigt Hill
#
# Bulk Modulus (GPa) = 41.06762 77.15390 59.11076
# Shear Modulus (GPa) = 27.58247 13.83287 20.70767
#
# Velocity S-wave (km/s) = 3.90545 2.76573 3.38392
# Velocity P-wave (km/s) = 6.56096 7.27073 6.92494
#
# Compressibility (1/GPa) = 0.02435008
#
# Stress axis : x y z
#
# Youngs Moduli (GPa) = 20.72314 77.17892 64.68304
#
# Poissons Ratio (x) = 1.04550 0.52405
# Poissons Ratio (y) = 0.28072 0.29190
# Poissons Ratio (z) = 0.16790 0.34829
#
# Static dielectric constant tensor:
#      x y z
#    x 3.103840 0.000000 0.000000 
#    y 0.000000 3.519090 0.000000 
#    z 0.000000 0.000000 3.441650 
# 
# 
# High freq. dielectric constant tensor:
#      x y z
#    x 1.672400 0.000000 0.000000 
#    y 0.000000 1.715800 0.000000 
#    z 0.000000 0.000000 1.708980 
# 
# From -- ./inp_files/1710.got.cif
#   From: 2010.03.12/outbox.cif.g09.slc.cpg/sg47_1_cif.got.tgz:1710.got - 2010.04.14 03:12:58.
