data_PCOD8198032
_publ_section_title
;
Structure prediction by ZEFSAII (Michael W. Deem and Ramdas Pophale) SiO2 
 PCOD8198032
Probable space group: P M M M
;
_chemical_formula_sum "Si O2"
_cell_formula_units_Z 56
_cell_length_a 9.382600
_cell_length_b 22.590426
_cell_length_c 15.001844
_cell_angle_alpha 90.000000
_cell_angle_beta 90.000000
_cell_angle_gamma 90.000000
_cell_volume 3179.744813
_symmetry_space_group_name_H-M "P M M M"
_symmetry_group_IT_number 47
_symmetry_cell_setting 'orthorhombic'
loop_
_space_group_symop_operation_xyz
x,y,z
-x,-y,z
x,-y,-z
-x,y,-z
-x,-y,-z
x,y,-z
-x,y,z
x,-y,z
loop_
_atom_site_type_symbol
_atom_site_label
_atom_site_fract_x
_atom_site_fract_y
_atom_site_fract_z
Si Si1 0.161020 0.110677 0.147598
Si Si2 0.841071 0.932624 0.657540
Si Si3 0.660410 0.832159 0.598813
Si Si4 0.667330 0.385322 0.603843
Si Si5 0.652911 0.000000 0.099618
Si Si6 0.333223 0.725853 0.714663
Si Si7 0.664274 0.225334 0.100088
Si Si8 0.839463 0.500000 0.605450
O O1 0.158958 0.106079 0.253356
O O2 0.252625 0.056844 0.114193
O O3 0.232890 0.170183 0.113004
O O4 0.000000 0.107646 0.109561
O O5 0.741437 0.895059 0.592560
O O6 0.000000 0.935877 0.617563
O O7 0.783672 0.000000 0.672227
O O8 0.663337 0.803928 0.500000
O O9 0.500000 0.846581 0.629687
O O10 0.730859 0.784668 0.666979
O O11 0.697860 0.370442 0.500000
O O12 0.500000 0.397469 0.618555
O O13 0.727697 0.332640 0.666773
O O14 0.753779 0.442365 0.637542
O O15 0.500000 0.000000 0.154015
O O16 0.603132 0.000000 0.000000
O O17 0.500000 0.726126 0.694782
O O18 0.300153 0.726933 0.821435
O O19 0.500000 0.204615 0.110699
O O20 0.688506 0.252116 0.000000
O O21 0.846259 0.500000 0.500000
O O22 0.000000 0.500000 0.645386
#
# Coordination Sequence:
#
# PCOD8198032 Si02
#       8
#     8   8   8   8   4   8   8   4
#     4  11  21  35  52  70  93 122 157 198 246 301
#     4  10  21  37  52  67  90 122 160 200 248 303
#     4  10  20  34  53  75  96 122 160 203 247 295
#     4   9  16  28  49  75 103 138 176 206 237 282
#     4  11  23  35  49  71  94 117 150 195 253 316
#     4   9  17  31  51  75 102 131 163 205 247 286
#     4  10  20  34  52  74  99 128 161 198 248 303
#     4   9  17  29  45  71 110 145 170 202 243 283
#
# _framework density 17.611476
#
# number of rings (size 3 to 8) (size 9 to 14) (size 15 to 20)
#    0.000    2.143    2.143    1.714    0.000    6.571 
#    0.000    2.857    0.000    1.714    0.000    0.500 
#    0.000    4.000    0.000    0.000    0.000    0.000 
#
# Total GULP energy -693923.052392 kJ/mol
# GULP energy per Si atom -12391.483078 kJ/mol
# Density = 1.757139 g / cm^3
# Si number density = 17.611476 Si / 1000 Ang^3
#
#
#
# Elastic Constant Matrix: (Units=GPa)
#
#
# Indices 1 2 3 4 5 6 
#
# 1 85.2291 50.5590 30.1423 0.0000 0.0000 0.0000
# 2 50.5590 123.4048 49.8736 0.0000 0.0000 0.0000
# 3 30.1423 49.8736 95.2374 0.0000 0.0000 0.0000
# 4 0.0000 0.0000 0.0000 27.6352 0.0000 0.0000
# 5 0.0000 0.0000 0.0000 0.0000 13.7076 0.0000
# 6 0.0000 0.0000 0.0000 0.0000 0.0000 34.9073
#
#
#
# Elastic Compliance Matrix: (Units=1/GPa)
#
#
# Indices 1 2 3 4 5 6 
#
# 1 0.015808 -0.005650 -0.002044 0.000000 0.000000 0.000000
# 2 -0.005650 0.012298 -0.004652 0.000000 0.000000 0.000000
# 3 -0.002044 -0.004652 0.013583 0.000000 0.000000 0.000000
# 4 0.000000 0.000000 0.000000 0.036186 0.000000 0.000000
# 5 0.000000 0.000000 0.000000 0.000000 0.072952 0.000000
# 6 0.000000 0.000000 0.000000 0.000000 0.000000 0.028647
#
#
# Mechanical properties :
#
#
# Convention : Reuss Voigt Hill
#
# Bulk Modulus (GPa) = 58.83620 62.78012 60.80816
# Shear Modulus (GPa) = 23.82842 26.80312 25.31577
#
# Velocity S-wave (km/s) = 3.68231 3.90540 3.79550
# Velocity P-wave (km/s) = 7.18050 7.48738 7.33555
#
# Compressibility (1/GPa) = 0.01699634
#
# Stress axis : x y z
#
# Youngs Moduli (GPa) = 63.25954 81.31076 73.62006
#
# Poissons Ratio (x) = 0.45943 0.15049
# Poissons Ratio (y) = 0.35744 0.34249
# Poissons Ratio (z) = 0.12931 0.37827
#
# Static dielectric constant tensor:
#      x y z
#    x 3.286560 0.000000 0.000000 
#    y 0.000000 3.236500 0.000000 
#    z 0.000000 0.000000 3.318560 
# 
# 
# High freq. dielectric constant tensor:
#      x y z
#    x 1.672280 0.000000 0.000000 
#    y 0.000000 1.656380 0.000000 
#    z 0.000000 0.000000 1.671030 
# 
# From -- ./inp_files/21656.got.cif
#   From: 2010.03.12/outbox.cif.g09.slc.cpg/sg47_11_cif.got.tgz:21656.got - 2010.04.14 03:12:58.
