data_PCOD8198784
_publ_section_title
;
Structure prediction by ZEFSAII (Michael W. Deem and Ramdas Pophale) SiO2 
 PCOD8198784
Probable space group: P M M M
;
_chemical_formula_sum "Si O2"
_cell_formula_units_Z 44
_cell_length_a 8.650951
_cell_length_b 28.772965
_cell_length_c 9.007510
_cell_angle_alpha 90.000000
_cell_angle_beta 90.000000
_cell_angle_gamma 90.000000
_cell_volume 2242.090934
_symmetry_space_group_name_H-M "P M M M"
_symmetry_group_IT_number 47
_symmetry_cell_setting 'orthorhombic'
loop_
_space_group_symop_operation_xyz
x,y,z
-x,-y,z
x,-y,-z
-x,y,-z
-x,-y,-z
x,y,-z
-x,y,z
x,-y,z
loop_
_atom_site_type_symbol
_atom_site_label
_atom_site_fract_x
_atom_site_fract_y
_atom_site_fract_z
Si Si1 0.678526 0.149627 0.823180
Si Si2 0.182700 0.590680 0.666143
Si Si3 0.178817 0.763968 0.672230
Si Si4 0.679670 0.322511 0.829214
Si Si5 0.316649 0.049116 0.833900
Si Si6 0.184501 0.500000 0.832584
O O1 0.500000 0.159287 0.781300
O O2 0.787677 0.186064 0.742228
O O3 0.734554 0.098429 0.762262
O O4 0.700355 0.152807 0.000000
O O5 0.252355 0.592409 0.500000
O O6 0.224906 0.636924 0.752831
O O7 0.250165 0.545578 0.750045
O O8 0.000000 0.586905 0.658401
O O9 0.223070 0.764730 0.500000
O O10 0.283951 0.726177 0.752708
O O11 0.000000 0.751307 0.696047
O O12 0.500000 0.333594 0.812052
O O13 0.730079 0.319366 0.000000
O O14 0.500000 0.050795 0.841623
O O15 0.264630 0.000000 0.753172
O O16 0.249623 0.047413 0.000000
O O17 0.000000 0.500000 0.832357
O O18 0.248723 0.500000 0.000000
#
# Coordination Sequence:
#
# PCOD8198784 Si02
#       6
#     8   8   8   8   8   4
#     4   9  17  30  51  79 106 132 167 211 258 308
#     4  10  20  35  57  85 115 146 181 219 259 306
#     4  11  24  39  54  74 101 135 175 215 257 310
#     4  11  24  40  58  81 107 135 171 216 265 316
#     4   7  10  19  39  69 102 131 160 200 250 300
#     4   9  17  31  54  83 114 149 186 222 260 301
#
# _framework density 19.624538000000001
#
# number of rings (size 3 to 8) (size 9 to 14) (size 15 to 20)
#    0.000    2.455    0.000    4.636    0.000    9.818 
#    0.000    0.455    0.000    3.818    0.000    6.364 
#    0.000    0.000    0.000    0.000    0.000    0.000 
#
# Total GULP energy -545287.035065 kJ/mol
# GULP energy per Si atom -12392.887161 kJ/mol
# Density = 1.957987 g / cm^3
# Si number density = 19.624538 Si / 1000 Ang^3
#
#
#
# Elastic Constant Matrix: (Units=GPa)
#
#
# Indices 1 2 3 4 5 6 
#
# 1 19.2401 6.2381 20.4578 0.0000 0.0000 0.0000
# 2 6.2381 161.2479 57.0985 0.0000 0.0000 0.0000
# 3 20.4578 57.0985 107.1321 0.0000 0.0000 0.0000
# 4 0.0000 0.0000 0.0000 -21.6719 0.0000 0.0000
# 5 0.0000 0.0000 0.0000 0.0000 20.6992 0.0000
# 6 0.0000 0.0000 0.0000 0.0000 0.0000 -0.0477
#
#
#
# Elastic Compliance Matrix: (Units=1/GPa)
#
#
# Indices 1 2 3 4 5 6 
#
# 1 0.065932 0.002351 -0.013843 0.000000 0.000000 0.000000
# 2 0.002351 0.007728 -0.004568 0.000000 0.000000 0.000000
# 3 -0.013843 -0.004568 0.014412 0.000000 0.000000 0.000000
# 4 0.000000 0.000000 0.000000 -0.046143 0.000000 0.000000
# 5 0.000000 0.000000 0.000000 0.000000 0.048311 0.000000
# 6 0.000000 0.000000 0.000000 0.000000 0.000000-20.966843
#
#
# Mechanical properties :
#
#
# Convention : Reuss Voigt Hill
#
# Bulk Modulus (GPa) = 17.87231 50.57876 34.22553
# Shear Modulus (GPa) = -0.24009 13.38430 6.57211
#
# Velocity S-wave (km/s) = -0.35015 2.61438 1.83199
# Velocity P-wave (km/s) = 2.99390 5.91122 4.68540
#
# Compressibility (1/GPa) = 0.05595247
#
# Stress axis : x y z
#
# Youngs Moduli (GPa) = 15.16715 129.39648 69.38482
#
# Poissons Ratio (x) = -0.30426 0.96053
# Poissons Ratio (y) = -0.03566 0.31694
# Poissons Ratio (z) = 0.20997 0.59107
#
# Static dielectric constant tensor:
#      x y z
#    x 3.169460 0.000000 0.000000 
#    y 0.000000 4.043550 0.000000 
#    z 0.000000 0.000000 3.526330 
# 
# 
# High freq. dielectric constant tensor:
#      x y z
#    x 1.726000 0.000000 0.000000 
#    y 0.000000 1.794050 0.000000 
#    z 0.000000 0.000000 1.746330 
# 
# From -- ./inp_files/2145.got.cif
#   From: 2010.03.12/outbox.cif.g09.slc.cpg/sg47_2_cif.got.tgz:2145.got - 2010.04.14 03:12:58.
