data_PCOD8198593
_publ_section_title
;
Structure prediction by ZEFSAII (Michael W. Deem and Ramdas Pophale) SiO2 
 PCOD8198593
Probable space group: P M M M
;
_chemical_formula_sum "Si O2"
_cell_formula_units_Z 40
_cell_length_a 21.340570
_cell_length_b 12.955157
_cell_length_c 7.836422
_cell_angle_alpha 90.000000
_cell_angle_beta 90.000000
_cell_angle_gamma 90.000000
_cell_volume 2166.538998
_symmetry_space_group_name_H-M "P M M M"
_symmetry_group_IT_number 47
_symmetry_cell_setting 'orthorhombic'
loop_
_space_group_symop_operation_xyz
x,y,z
-x,-y,z
x,-y,-z
-x,y,-z
-x,-y,-z
x,y,-z
-x,y,z
x,-y,z
loop_
_atom_site_type_symbol
_atom_site_label
_atom_site_fract_x
_atom_site_fract_y
_atom_site_fract_z
Si Si1 0.429868 0.000000 0.204034
Si Si2 0.294245 0.385703 0.700899
Si Si3 0.068859 0.619760 0.000000
Si Si4 0.843975 0.317150 0.693930
Si Si5 0.338838 0.174290 0.801638
Si Si6 0.796581 0.115050 0.200658
O O1 0.395276 0.104348 0.274322
O O2 0.500000 0.000000 0.279439
O O3 0.431796 0.000000 0.000000
O O4 0.297333 0.386204 0.500000
O O5 0.312788 0.500000 0.772165
O O6 0.223138 0.360852 0.758768
O O7 0.343088 0.297814 0.765196
O O8 0.103661 0.647358 0.174967
O O9 0.059217 0.500000 0.000000
O O10 0.000000 0.673402 0.000000
O O11 0.859495 0.353740 0.500000
O O12 0.841973 0.192692 0.699194
O O13 0.273706 0.130718 0.727306
O O14 0.339825 0.154118 0.000000
O O15 0.819737 0.000000 0.240507
O O16 0.799268 0.140038 0.000000
#
# Coordination Sequence:
#
# PCOD8198593 Si02
#       6
#     4   8   4   8   8   8
#     4   9  16  28  47  71 103 139 171 208 251 298
#     4   9  18  31  48  73 102 129 159 207 269 316
#     4  11  24  40  57  77 103 139 180 217 258 308
#     4  10  20  35  54  79 108 137 173 216 264 318
#     4   9  16  27  45  72 100 130 170 210 254 307
#     4   9  15  27  50  78 108 135 165 213 266 317
#
# _framework density 18.462626
#
# number of rings (size 3 to 8) (size 9 to 14) (size 15 to 20)
#    0.000    2.600    2.000    0.600    1.400    2.400 
#    0.000    1.500    0.000    3.000    0.000    5.600 
#    0.000    0.000    0.000    0.000    0.000    0.000 
#
# Total GULP energy -495642.175182 kJ/mol
# GULP energy per Si atom -12391.054380 kJ/mol
# Density = 1.842060 g / cm^3
# Si number density = 18.462626 Si / 1000 Ang^3
#
#
#
# Elastic Constant Matrix: (Units=GPa)
#
#
# Indices 1 2 3 4 5 6 
#
# 1 99.5446 53.8346 31.3427 0.0000 0.0000 0.0000
# 2 53.8346 140.6451 18.8123 0.0000 0.0000 0.0000
# 3 31.3427 18.8123 50.2610 0.0000 0.0000 0.0000
# 4 0.0000 0.0000 0.0000 17.7212 0.0000 0.0000
# 5 0.0000 0.0000 0.0000 0.0000 11.7822 0.0000
# 6 0.0000 0.0000 0.0000 0.0000 0.0000 22.4265
#
#
#
# Elastic Compliance Matrix: (Units=1/GPa)
#
#
# Indices 1 2 3 4 5 6 
#
# 1 0.014986 -0.004722 -0.007577 0.000000 0.000000 0.000000
# 2 -0.004722 0.008973 -0.000414 0.000000 0.000000 0.000000
# 3 -0.007577 -0.000414 0.024776 0.000000 0.000000 0.000000
# 4 0.000000 0.000000 0.000000 0.056430 0.000000 0.000000
# 5 0.000000 0.000000 0.000000 0.000000 0.084874 0.000000
# 6 0.000000 0.000000 0.000000 0.000000 0.000000 0.044590
#
#
# Mechanical properties :
#
#
# Convention : Reuss Voigt Hill
#
# Bulk Modulus (GPa) = 42.90397 55.38109 49.14253
# Shear Modulus (GPa) = 18.66892 22.81669 20.74281
#
# Velocity S-wave (km/s) = 3.18335 3.51925 3.35551
# Velocity P-wave (km/s) = 6.06633 6.82459 6.45660
#
# Compressibility (1/GPa) = 0.02330787
#
# Stress axis : x y z
#
# Youngs Moduli (GPa) = 66.73104 111.44501 40.36128
#
# Poissons Ratio (x) = 0.52630 0.30583
# Poissons Ratio (y) = 0.31514 0.01669
# Poissons Ratio (z) = 0.50565 0.04609
#
# Static dielectric constant tensor:
#      x y z
#    x 3.300300 0.000000 0.000000 
#    y 0.000000 3.834440 0.000000 
#    z 0.000000 0.000000 3.337660 
# 
# 
# High freq. dielectric constant tensor:
#      x y z
#    x 1.662980 0.000000 0.000000 
#    y 0.000000 1.729670 0.000000 
#    z 0.000000 0.000000 1.705340 
# 
# From -- ./inp_files/10740.got.cif
#   From: 2010.03.12/outbox.cif.g09.slc.cpg/sg47_6_cif.got.tgz:10740.got - 2010.04.14 03:12:58.
