data_PCOD8198084
_publ_section_title
;
Structure prediction by ZEFSAII (Michael W. Deem and Ramdas Pophale) SiO2 
 PCOD8198084
Probable space group: P M M M
;
_chemical_formula_sum "Si O2"
_cell_formula_units_Z 48
_cell_length_a 9.147057
_cell_length_b 10.326449
_cell_length_c 27.949183
_cell_angle_alpha 90.000000
_cell_angle_beta 90.000000
_cell_angle_gamma 90.000000
_cell_volume 2639.985291
_symmetry_space_group_name_H-M "P M M M"
_symmetry_group_IT_number 47
_symmetry_cell_setting 'orthorhombic'
loop_
_space_group_symop_operation_xyz
x,y,z
-x,-y,z
x,-y,-z
-x,y,-z
-x,-y,-z
x,y,-z
-x,y,z
x,-y,z
loop_
_atom_site_type_symbol
_atom_site_label
_atom_site_fract_x
_atom_site_fract_y
_atom_site_fract_z
Si Si1 0.836060 0.653345 0.592026
Si Si2 0.836818 0.500000 0.056505
Si Si3 0.329315 0.849558 0.230333
Si Si4 0.672574 0.245118 0.944983
Si Si5 0.159775 0.146026 0.861267
Si Si6 0.328980 0.351204 0.312340
Si Si7 0.334805 0.345322 0.500000
O O1 0.841599 0.500000 0.587884
O O2 0.755838 0.694262 0.640549
O O3 0.747579 0.709602 0.546785
O O4 0.000000 0.710906 0.591897
O O5 0.744330 0.622299 0.073581
O O6 0.000000 0.500000 0.078903
O O7 0.848246 0.500000 0.000000
O O8 0.500000 0.837156 0.219588
O O9 0.247864 0.793708 0.183235
O O10 0.280967 0.751622 0.272111
O O11 0.290412 0.000000 0.242972
O O12 0.500000 0.251672 0.938214
O O13 0.744976 0.141238 0.910064
O O14 0.712531 0.212681 0.000000
O O15 0.000000 0.213895 0.868509
O O16 0.131825 0.000000 0.846742
O O17 0.500000 0.341089 0.323405
O O18 0.288778 0.500000 0.297642
O O19 0.335198 0.500000 0.500000
O O20 0.500000 0.292009 0.500000
#
# Coordination Sequence:
#
# PCOD8198084 Si02
#       7
#     8   4   8   8   8   8   4
#     4   9  16  25  39  62  94 129 162 199 243 290
#     4   9  17  31  51  73  99 129 159 193 233 278
#     4   9  18  34  54  72  94 128 167 205 247 299
#     4  10  20  34  53  76 101 130 163 198 239 291
#     4  10  21  36  53  73  98 128 162 202 248 296
#     4   9  17  30  48  71  98 126 159 202 249 292
#     4   9  15  23  37  59  90 129 168 201 238 288
#
# _framework density 18.181920000000002
#
# number of rings (size 3 to 8) (size 9 to 14) (size 15 to 20)
#    0.000    2.667    0.000    2.000    0.000    7.000 
#    1.500    1.667    0.000    0.000    0.000    0.583 
#    0.000    4.667    0.000    0.000    0.000    0.000 
#
# Total GULP energy -594904.949978 kJ/mol
# GULP energy per Si atom -12393.853125 kJ/mol
# Density = 1.814054 g / cm^3
# Si number density = 18.181920 Si / 1000 Ang^3
#
#
#
# Elastic Constant Matrix: (Units=GPa)
#
#
# Indices 1 2 3 4 5 6 
#
# 1 121.7422 26.4808 83.9296 0.0000 0.0000 0.0000
# 2 26.4808 45.6842 40.9182 0.0000 0.0000 0.0000
# 3 83.9296 40.9182 152.4469 0.0000 0.0000 0.0000
# 4 0.0000 0.0000 0.0000 16.0228 0.0000 0.0000
# 5 0.0000 0.0000 0.0000 0.0000 29.5799 0.0000
# 6 0.0000 0.0000 0.0000 0.0000 0.0000 16.8338
#
#
#
# Elastic Compliance Matrix: (Units=1/GPa)
#
#
# Indices 1 2 3 4 5 6 
#
# 1 0.013318 -0.001517 -0.006925 0.000000 0.000000 0.000000
# 2 -0.001517 0.028990 -0.006946 0.000000 0.000000 0.000000
# 3 -0.006925 -0.006946 0.012237 0.000000 0.000000 0.000000
# 4 0.000000 0.000000 0.000000 0.062411 0.000000 0.000000
# 5 0.000000 0.000000 0.000000 0.000000 0.033807 0.000000
# 6 0.000000 0.000000 0.000000 0.000000 0.000000 0.059404
#
#
# Mechanical properties :
#
#
# Convention : Reuss Voigt Hill
#
# Bulk Modulus (GPa) = 42.07250 69.17006 55.62128
# Shear Modulus (GPa) = 20.09108 23.72362 21.90735
#
# Velocity S-wave (km/s) = 3.32776 3.61611 3.47493
# Velocity P-wave (km/s) = 6.16079 7.45392 6.83799
#
# Compressibility (1/GPa) = 0.02376850
#
# Stress axis : x y z
#
# Youngs Moduli (GPa) = 75.08445 34.49446 81.72170
#
# Poissons Ratio (x) = 0.05234 0.56594
# Poissons Ratio (y) = 0.11392 0.56763
# Poissons Ratio (z) = 0.51997 0.23960
#
# Static dielectric constant tensor:
#      x y z
#    x 3.630620 0.000000 0.000000 
#    y 0.000000 3.082180 0.000000 
#    z 0.000000 0.000000 3.329270 
# 
# 
# High freq. dielectric constant tensor:
#      x y z
#    x 1.718520 0.000000 0.000000 
#    y 0.000000 1.659570 0.000000 
#    z 0.000000 0.000000 1.702690 
# 
# From -- ./inp_files/34169.got.cif
#   From: 2010.03.12/outbox.cif.g09.slc.cpg/sg47_18_cif.got.tgz:34169.got - 2010.04.14 03:12:58.
