data_PCOD8198430
_publ_section_title
;
Structure prediction by ZEFSAII (Michael W. Deem and Ramdas Pophale) SiO2 
 PCOD8198430
Probable space group: P M M M
;
_chemical_formula_sum "Si O2"
_cell_formula_units_Z 44
_cell_length_a 9.332590
_cell_length_b 31.793127
_cell_length_c 7.714774
_cell_angle_alpha 90.000000
_cell_angle_beta 90.000000
_cell_angle_gamma 90.000000
_cell_volume 2289.067713
_symmetry_space_group_name_H-M "P M M M"
_symmetry_group_IT_number 47
_symmetry_cell_setting 'orthorhombic'
loop_
_space_group_symop_operation_xyz
x,y,z
-x,-y,z
x,-y,-z
-x,y,-z
-x,-y,-z
x,y,-z
-x,y,z
x,-y,z
loop_
_atom_site_type_symbol
_atom_site_label
_atom_site_fract_x
_atom_site_fract_y
_atom_site_fract_z
Si Si1 0.832098 0.703933 0.200388
Si Si2 0.830430 0.858845 0.500000
Si Si3 0.835300 0.918668 0.195047
Si Si4 0.839555 0.452885 0.704543
Si Si5 0.656853 0.375223 0.801106
Si Si6 0.830299 0.234631 0.500000
Si Si7 0.331857 0.000000 0.297307
O O1 0.755000 0.662067 0.274390
O O2 0.780065 0.741860 0.324238
O O3 0.000000 0.695412 0.220774
O O4 0.793828 0.714767 0.000000
O O5 0.778414 0.883338 0.328054
O O6 0.762092 0.812142 0.500000
O O7 0.000000 0.854991 0.500000
O O8 0.000000 0.930808 0.237788
O O9 0.737718 0.959498 0.210317
O O10 0.822258 0.900631 0.000000
O O11 0.835652 0.448701 0.500000
O O12 0.794642 0.500000 0.761496
O O13 0.728989 0.420526 0.785094
O O14 0.000000 0.443108 0.772491
O O15 0.500000 0.375714 0.709851
O O16 0.635755 0.364880 0.000000
O O17 0.000000 0.231521 0.500000
O O18 0.500000 0.000000 0.257870
O O19 0.297880 0.000000 0.500000
#
# Coordination Sequence:
#
# PCOD8198430 Si02
#       7
#     8   4   8   8   8   4   4
#     4   9  18  33  53  77 104 134 172 218 263 310
#     4   9  18  33  52  79 112 137 171 226 272 315
#     4  10  20  34  55  81 109 146 185 220 268 323
#     4   9  19  35  53  74 101 133 169 208 250 301
#     4  10  21  35  51  74 104 135 168 209 256 306
#     4   9  18  32  54  82 106 135 174 216 268 320
#     4  11  22  35  54  79 109 146 187 230 271 313
#
# _framework density 19.221799000000001
#
# number of rings (size 3 to 8) (size 9 to 14) (size 15 to 20)
#    0.000    2.455    0.909    1.636    1.273    4.727 
#    0.000    6.364    0.000    2.182    0.000    2.545 
#    0.000    0.000    0.000    0.000    0.000    0.000 
#
# Total GULP energy -545474.898747 kJ/mol
# GULP energy per Si atom -12397.156790 kJ/mol
# Density = 1.917805 g / cm^3
# Si number density = 19.221799 Si / 1000 Ang^3
#
#
#
# Elastic Constant Matrix: (Units=GPa)
#
#
# Indices 1 2 3 4 5 6 
#
# 1 76.3776 56.9382 32.3683 0.0000 0.0000 0.0000
# 2 56.9382 166.5997 58.4798 0.0000 0.0000 0.0000
# 3 32.3683 58.4798 98.7475 0.0000 0.0000 0.0000
# 4 0.0000 0.0000 0.0000 16.9937 0.0000 0.0000
# 5 0.0000 0.0000 0.0000 0.0000 13.9639 0.0000
# 6 0.0000 0.0000 0.0000 0.0000 0.0000 0.5398
#
#
#
# Elastic Compliance Matrix: (Units=1/GPa)
#
#
# Indices 1 2 3 4 5 6 
#
# 1 0.018196 -0.005208 -0.002880 0.000000 0.000000 0.000000
# 2 -0.005208 0.009068 -0.003663 0.000000 0.000000 0.000000
# 3 -0.002880 -0.003663 0.013240 0.000000 0.000000 0.000000
# 4 0.000000 0.000000 0.000000 0.058845 0.000000 0.000000
# 5 0.000000 0.000000 0.000000 0.000000 0.071613 0.000000
# 6 0.000000 0.000000 0.000000 0.000000 0.000000 1.852515
#
#
# Mechanical properties :
#
#
# Convention : Reuss Voigt Hill
#
# Bulk Modulus (GPa) = 58.81729 70.81081 64.81405
# Shear Modulus (GPa) = 2.43588 19.22873 10.83230
#
# Velocity S-wave (km/s) = 1.12694 3.16628 2.37648
# Velocity P-wave (km/s) = 5.68850 7.09125 6.42825
#
# Compressibility (1/GPa) = 0.01700180
#
# Stress axis : x y z
#
# Youngs Moduli (GPa) = 54.95809 110.27695 75.52642
#
# Poissons Ratio (x) = 0.57428 0.21754
# Poissons Ratio (y) = 0.28620 0.27667
# Poissons Ratio (z) = 0.15830 0.40397
#
# Static dielectric constant tensor:
#      x y z
#    x 3.533280 0.000000 0.000000 
#    y 0.000000 3.732320 0.000000 
#    z 0.000000 0.000000 3.576970 
# 
# 
# High freq. dielectric constant tensor:
#      x y z
#    x 1.721740 0.000000 0.000000 
#    y 0.000000 1.743470 0.000000 
#    z 0.000000 0.000000 1.752680 
# 
# From -- ./inp_files/2355.got.cif
#   From: 2010.03.12/outbox.cif.g09.slc.cpg/sg47_2_cif.got.tgz:2355.got - 2010.04.14 03:12:58.
