data_PCOD8198749
_publ_section_title
;
Structure prediction by ZEFSAII (Michael W. Deem and Ramdas Pophale) SiO2 
 PCOD8198749
Probable space group: P M M M
;
_chemical_formula_sum "Si O2"
_cell_formula_units_Z 40
_cell_length_a 9.125155
_cell_length_b 28.979513
_cell_length_c 7.777867
_cell_angle_alpha 90.000000
_cell_angle_beta 90.000000
_cell_angle_gamma 90.000000
_cell_volume 2056.798967
_symmetry_space_group_name_H-M "P M M M"
_symmetry_group_IT_number 47
_symmetry_cell_setting 'orthorhombic'
loop_
_space_group_symop_operation_xyz
x,y,z
-x,-y,z
x,-y,-z
-x,y,-z
-x,-y,-z
x,y,-z
-x,y,z
x,-y,z
loop_
_atom_site_type_symbol
_atom_site_label
_atom_site_fract_x
_atom_site_fract_y
_atom_site_fract_z
Si Si1 0.165102 0.299441 0.694880
Si Si2 0.826445 0.051336 0.500000
Si Si3 0.331797 0.614270 0.190995
Si Si4 0.325722 0.551506 0.500000
Si Si5 0.667601 0.210969 0.799160
Si Si6 0.828410 0.882930 0.196371
O O1 0.165195 0.317276 0.500000
O O2 0.243507 0.338080 0.808431
O O3 0.249676 0.251313 0.700643
O O4 0.000000 0.292290 0.763691
O O5 0.774597 0.077235 0.673613
O O6 0.000000 0.047961 0.500000
O O7 0.757357 0.000000 0.500000
O O8 0.500000 0.626181 0.234841
O O9 0.269283 0.577803 0.329204
O O10 0.317232 0.592582 0.000000
O O11 0.258525 0.500000 0.500000
O O12 0.500000 0.548622 0.500000
O O13 0.500000 0.209280 0.737432
O O14 0.742366 0.162853 0.750682
O O15 0.680197 0.221075 0.000000
O O16 0.000000 0.872644 0.218635
O O17 0.792524 0.898040 0.000000
#
# Coordination Sequence:
#
# PCOD8198749 Si02
#       6
#     8   4   8   4   8   8
#     4  11  23  36  53  79 111 147 184 222 267 319
#     4   9  18  32  52  79 106 133 174 225 270 317
#     4  10  20  35  57  83 111 145 183 222 268 321
#     4   9  18  34  56  83 114 143 176 225 276 319
#     4  10  21  36  54  78 108 142 180 221 267 320
#     4   9  18  33  53  77 107 141 176 218 267 316
#
# _framework density 19.447696000000001
#
# number of rings (size 3 to 8) (size 9 to 14) (size 15 to 20)
#    0.000    2.200    1.000    1.800    1.400    6.000 
#    0.000    4.000    0.000    2.400    0.000    4.200 
#    0.000    0.000    0.000    0.000    0.000    0.000 
#
# Total GULP energy -496051.590518 kJ/mol
# GULP energy per Si atom -12401.289763 kJ/mol
# Density = 1.940343 g / cm^3
# Si number density = 19.447696 Si / 1000 Ang^3
#
#
#
# Elastic Constant Matrix: (Units=GPa)
#
#
# Indices 1 2 3 4 5 6 
#
# 1 80.4452 50.5784 31.7391 0.0000 0.0000 0.0000
# 2 50.5784 152.6720 69.9388 0.0000 0.0000 0.0000
# 3 31.7391 69.9388 116.4176 0.0000 0.0000 0.0000
# 4 0.0000 0.0000 0.0000 27.0114 0.0000 0.0000
# 5 0.0000 0.0000 0.0000 0.0000 16.3424 0.0000
# 6 0.0000 0.0000 0.0000 0.0000 0.0000 22.6477
#
#
#
# Elastic Compliance Matrix: (Units=1/GPa)
#
#
# Indices 1 2 3 4 5 6 
#
# 1 0.015919 -0.004533 -0.001617 0.000000 0.000000 0.000000
# 2 -0.004533 0.010328 -0.004969 0.000000 0.000000 0.000000
# 3 -0.001617 -0.004969 0.012016 0.000000 0.000000 0.000000
# 4 0.000000 0.000000 0.000000 0.037021 0.000000 0.000000
# 5 0.000000 0.000000 0.000000 0.000000 0.061190 0.000000
# 6 0.000000 0.000000 0.000000 0.000000 0.000000 0.044155
#
#
# Mechanical properties :
#
#
# Convention : Reuss Voigt Hill
#
# Bulk Modulus (GPa) = 62.40154 72.67191 67.53673
# Shear Modulus (GPa) = 24.01453 26.35221 25.18337
#
# Velocity S-wave (km/s) = 3.51782 3.68507 3.60241
# Velocity P-wave (km/s) = 6.97543 7.45354 7.21844
#
# Compressibility (1/GPa) = 0.01602524
#
# Stress axis : x y z
#
# Youngs Moduli (GPa) = 62.81894 96.82502 83.22581
#
# Poissons Ratio (x) = 0.43892 0.13455
# Poissons Ratio (y) = 0.28476 0.41352
# Poissons Ratio (z) = 0.10156 0.48109
#
# Static dielectric constant tensor:
#      x y z
#    x 3.386050 0.000000 0.000000 
#    y 0.000000 3.556540 0.000000 
#    z 0.000000 0.000000 3.642290 
# 
# 
# High freq. dielectric constant tensor:
#      x y z
#    x 1.732880 0.000000 0.000000 
#    y 0.000000 1.748810 0.000000 
#    z 0.000000 0.000000 1.768450 
# 
# From -- ./inp_files/1798.got.cif
#   From: 2010.03.12/outbox.cif.g09.slc.cpg/sg47_1_cif.got.tgz:1798.got - 2010.04.14 03:12:58.
