data_PCOD8198192
_publ_section_title
;
Structure prediction by ZEFSAII (Michael W. Deem and Ramdas Pophale) SiO2 
 PCOD8198192
Probable space group: P M M M
;
_chemical_formula_sum "Si O2"
_cell_formula_units_Z 52
_cell_length_a 14.148829
_cell_length_b 23.035578
_cell_length_c 8.915303
_cell_angle_alpha 90.000000
_cell_angle_beta 90.000000
_cell_angle_gamma 90.000000
_cell_volume 2905.733093
_symmetry_space_group_name_H-M "P M M M"
_symmetry_group_IT_number 47
_symmetry_cell_setting 'orthorhombic'
loop_
_space_group_symop_operation_xyz
x,y,z
-x,-y,z
x,-y,-z
-x,y,-z
-x,-y,-z
x,y,-z
-x,y,z
x,-y,z
loop_
_atom_site_type_symbol
_atom_site_label
_atom_site_fract_x
_atom_site_fract_y
_atom_site_fract_z
Si Si1 0.106525 0.758025 0.827504
Si Si2 0.612381 0.500000 0.330830
Si Si3 0.286487 0.933863 0.328161
Si Si4 0.610282 0.831899 0.174716
Si Si5 0.611821 0.616345 0.172575
Si Si6 0.893274 0.893862 0.172331
Si Si7 0.288468 0.724175 0.323243
O O1 0.126111 0.825939 0.805788
O O2 0.178792 0.721939 0.725308
O O3 0.000000 0.742564 0.776849
O O4 0.121974 0.740538 0.000000
O O5 0.500000 0.500000 0.330609
O O6 0.652083 0.500000 0.500000
O O7 0.649927 0.556831 0.245203
O O8 0.294118 0.913469 0.500000
O O9 0.354514 0.894859 0.226435
O O10 0.177707 0.929247 0.276826
O O11 0.320345 0.000000 0.309676
O O12 0.500000 0.826292 0.208416
O O13 0.664597 0.782824 0.264922
O O14 0.633254 0.823998 0.000000
O O15 0.500000 0.621975 0.190458
O O16 0.657991 0.669570 0.256983
O O17 0.642525 0.617228 0.000000
O O18 0.000000 0.909551 0.220619
O O19 0.876416 0.911465 0.000000
O O20 0.296529 0.721975 0.500000
#
# Coordination Sequence:
#
# PCOD8198192 Si02
#       7
#     8   4   8   8   8   8   8
#     4   9  18  34  56  80 107 139 174 214 262 318
#     4   9  17  31  51  77 112 149 186 231 277 315
#     4  11  24  39  55  78 106 135 169 213 267 324
#     4  11  24  41  59  77 100 134 177 222 266 316
#     4  10  20  34  53  78 111 153 195 228 262 312
#     4   9  18  34  57  81 104 134 171 211 258 315
#     4  12  23  34  54  84 114 142 175 220 272 320
#
# _framework density 17.895655999999999
#
# number of rings (size 3 to 8) (size 9 to 14) (size 15 to 20)
#    0.000    1.769    1.538    4.385    0.000    7.385 
#    0.000    4.615    0.000    0.000    0.000    0.538 
#    0.000    4.308    0.000    0.000    0.000    0.000 
#
# Total GULP energy -644963.089163 kJ/mol
# GULP energy per Si atom -12403.136330 kJ/mol
# Density = 1.785493 g / cm^3
# Si number density = 17.895656 Si / 1000 Ang^3
#
#
#
# Elastic Constant Matrix: (Units=GPa)
#
#
# Indices 1 2 3 4 5 6 
#
# 1 68.9482 30.2050 52.7572 0.0000 0.0000 0.0000
# 2 30.2050 85.0803 52.6967 0.0000 0.0000 0.0000
# 3 52.7572 52.6967 127.5843 0.0000 0.0000 0.0000
# 4 0.0000 0.0000 0.0000 33.1587 0.0000 0.0000
# 5 0.0000 0.0000 0.0000 0.0000 19.3789 0.0000
# 6 0.0000 0.0000 0.0000 0.0000 0.0000 51.6864
#
#
#
# Elastic Compliance Matrix: (Units=1/GPa)
#
#
# Indices 1 2 3 4 5 6 
#
# 1 0.021732 -0.002888 -0.007794 0.000000 0.000000 0.000000
# 2 -0.002888 0.016178 -0.005488 0.000000 0.000000 0.000000
# 3 -0.007794 -0.005488 0.013327 0.000000 0.000000 0.000000
# 4 0.000000 0.000000 0.000000 0.030158 0.000000 0.000000
# 5 0.000000 0.000000 0.000000 0.000000 0.051603 0.000000
# 6 0.000000 0.000000 0.000000 0.000000 0.000000 0.019347
#
#
# Mechanical properties :
#
#
# Convention : Reuss Voigt Hill
#
# Bulk Modulus (GPa) = 52.91421 61.43673 57.17547
# Shear Modulus (GPa) = 26.18019 30.57507 28.37763
#
# Velocity S-wave (km/s) = 3.82898 4.13791 3.98644
# Velocity P-wave (km/s) = 7.01288 7.56537 7.29436
#
# Compressibility (1/GPa) = 0.01889852
#
# Stress axis : x y z
#
# Youngs Moduli (GPa) = 46.01445 61.81255 75.03400
#
# Poissons Ratio (x) = 0.17853 0.58478
# Poissons Ratio (y) = 0.13290 0.41177
# Poissons Ratio (z) = 0.35862 0.33921
#
# Static dielectric constant tensor:
#      x y z
#    x 3.332290 0.000000 0.000000 
#    y 0.000000 3.269780 0.000000 
#    z 0.000000 0.000000 3.406260 
# 
# 
# High freq. dielectric constant tensor:
#      x y z
#    x 1.684130 0.000000 0.000000 
#    y 0.000000 1.680530 0.000000 
#    z 0.000000 0.000000 1.702160 
# 
# From -- ./inp_files/6928.got.cif
#   From: 2010.03.12/outbox.cif.g09.slc.cpg/sg47_4_cif.got.tgz:6928.got - 2010.04.14 03:12:58.
