data_PCOD8198951
_publ_section_title
;
Structure prediction by ZEFSAII (Michael W. Deem and Ramdas Pophale) SiO2 
 PCOD8198951
Probable space group: P M M M
;
_chemical_formula_sum "Si O2"
_cell_formula_units_Z 48
_cell_length_a 19.149109
_cell_length_b 15.822375
_cell_length_c 8.403381
_cell_angle_alpha 90.000000
_cell_angle_beta 90.000000
_cell_angle_gamma 90.000000
_cell_volume 2546.093212
_symmetry_space_group_name_H-M "P M M M"
_symmetry_group_IT_number 47
_symmetry_cell_setting 'orthorhombic'
loop_
_space_group_symop_operation_xyz
x,y,z
-x,-y,z
x,-y,-z
-x,y,-z
-x,-y,-z
x,y,-z
-x,y,z
x,-y,z
loop_
_atom_site_type_symbol
_atom_site_label
_atom_site_fract_x
_atom_site_fract_y
_atom_site_fract_z
Si Si1 0.078922 0.766238 0.814231
Si Si2 0.582185 0.407690 0.000000
Si Si3 0.580842 0.310354 0.679305
Si Si4 0.917411 0.408088 0.682315
Si Si5 0.574892 0.000000 0.182199
Si Si6 0.334222 0.858321 0.320925
Si Si7 0.817593 0.095658 0.312357
O O1 0.113012 0.674215 0.772979
O O2 0.120377 0.844451 0.742881
O O3 0.000000 0.770692 0.745855
O O4 0.079218 0.777424 0.000000
O O5 0.604644 0.366154 0.831079
O O6 0.616987 0.500000 0.000000
O O7 0.500000 0.414488 0.000000
O O8 0.588097 0.352607 0.500000
O O9 0.500000 0.281116 0.701070
O O10 0.635274 0.234737 0.687346
O O11 0.895198 0.398452 0.500000
O O12 0.889114 0.500000 0.746539
O O13 0.000000 0.408930 0.702909
O O14 0.616865 0.916224 0.217396
O O15 0.500000 0.000000 0.273962
O O16 0.557914 0.000000 0.000000
O O17 0.334418 0.893784 0.500000
O O18 0.255456 0.863520 0.252701
O O19 0.819711 0.092120 0.500000
O O20 0.826077 0.000000 0.243563
#
# Coordination Sequence:
#
# PCOD8198951 Si02
#       7
#     8   4   8   8   4   8   8
#     4  10  21  35  52  78 110 142 177 220 272 326
#     4   9  18  32  52  79 111 145 182 230 279 325
#     4   9  18  32  53  81 111 144 181 224 275 327
#     4   8  14  27  50  79 107 134 167 210 260 314
#     4  11  23  33  49  81 114 145 178 215 261 318
#     4  10  20  37  56  76 105 141 181 225 271 321
#     4  10  21  38  57  76 101 137 185 231 271 322
#
# _framework density 18.852414
#
# number of rings (size 3 to 8) (size 9 to 14) (size 15 to 20)
#    0.000    2.500    0.833    1.750    1.167    4.333 
#    0.000    5.000    0.000    1.000    0.000    2.333 
#    0.000    0.000    0.000    0.000    0.000    0.000 
#
# Total GULP energy -594630.425502 kJ/mol
# GULP energy per Si atom -12388.133865 kJ/mol
# Density = 1.880950 g / cm^3
# Si number density = 18.852414 Si / 1000 Ang^3
#
#
#
# Elastic Constant Matrix: (Units=GPa)
#
#
# Indices 1 2 3 4 5 6 
#
# 1 80.6295 57.4488 25.2904 0.0000 0.0000 0.0000
# 2 57.4488 143.5390 51.4504 0.0000 0.0000 0.0000
# 3 25.2904 51.4504 80.1918 0.0000 0.0000 0.0000
# 4 0.0000 0.0000 0.0000 43.3653 0.0000 0.0000
# 5 0.0000 0.0000 0.0000 0.0000 -0.3419 0.0000
# 6 0.0000 0.0000 0.0000 0.0000 0.0000 22.4379
#
#
#
# Elastic Compliance Matrix: (Units=1/GPa)
#
#
# Indices 1 2 3 4 5 6 
#
# 1 0.017458 -0.006511 -0.001328 0.000000 0.000000 0.000000
# 2 -0.006511 0.011476 -0.005309 0.000000 0.000000 0.000000
# 3 -0.001328 -0.005309 0.016295 0.000000 0.000000 0.000000
# 4 0.000000 0.000000 0.000000 0.023060 0.000000 0.000000
# 5 0.000000 0.000000 0.000000 0.000000 -2.924605 0.000000
# 6 0.000000 0.000000 0.000000 0.000000 0.000000 0.044567
#
#
# Mechanical properties :
#
#
# Convention : Reuss Voigt Hill
#
# Bulk Modulus (GPa) = 52.82118 63.63772 58.22945
# Shear Modulus (GPa) = -1.79912 24.43698 11.31893
#
# Velocity S-wave (km/s) = -0.97795 3.60422 2.45296
# Velocity P-wave (km/s) = 5.17725 7.15189 6.24313
#
# Compressibility (1/GPa) = 0.01893180
#
# Stress axis : x y z
#
# Youngs Moduli (GPa) = 57.27924 87.13956 61.36676
#
# Poissons Ratio (x) = 0.56739 0.08152
# Poissons Ratio (y) = 0.37296 0.32582
# Poissons Ratio (z) = 0.07609 0.46265
#
# Static dielectric constant tensor:
#      x y z
#    x 3.448910 0.000000 0.000000 
#    y 0.000000 3.796030 0.000000 
#    z 0.000000 0.000000 3.580180 
# 
# 
# High freq. dielectric constant tensor:
#      x y z
#    x 1.701960 0.000000 0.000000 
#    y 0.000000 1.734700 0.000000 
#    z 0.000000 0.000000 1.732140 
# 
# From -- ./inp_files/9191.got.cif
#   From: 2010.03.12/outbox.cif.g09.slc.cpg/sg47_5_cif.got.tgz:9191.got - 2010.04.14 03:12:58.
