data_PCOD8198919
_publ_section_title
;
Structure prediction by ZEFSAII (Michael W. Deem and Ramdas Pophale) SiO2 
 PCOD8198919
Probable space group: P M M M
;
_chemical_formula_sum "Si O2"
_cell_formula_units_Z 48
_cell_length_a 17.323982
_cell_length_b 9.060116
_cell_length_c 15.609793
_cell_angle_alpha 90.000000
_cell_angle_beta 90.000000
_cell_angle_gamma 90.000000
_cell_volume 2450.070752
_symmetry_space_group_name_H-M "P M M M"
_symmetry_group_IT_number 47
_symmetry_cell_setting 'orthorhombic'
loop_
_space_group_symop_operation_xyz
x,y,z
-x,-y,z
x,-y,-z
-x,y,-z
-x,-y,-z
x,y,-z
-x,y,z
x,-y,z
loop_
_atom_site_type_symbol
_atom_site_label
_atom_site_fract_x
_atom_site_fract_y
_atom_site_fract_z
Si Si1 0.586350 0.825396 0.500000
Si Si2 0.692254 0.176002 0.343085
Si Si3 0.000000 0.834704 0.900170
Si Si4 0.685127 0.324442 0.161143
Si Si5 0.146061 0.659091 0.154475
Si Si6 0.000000 0.162391 0.599060
Si Si7 0.587014 0.675364 0.000000
Si Si8 0.152809 0.663173 0.645999
O O1 0.500000 0.757707 0.500000
O O2 0.629123 0.773873 0.586838
O O3 0.582774 0.000000 0.500000
O O4 0.667849 0.241839 0.250659
O O5 0.773136 0.239302 0.379277
O O6 0.699354 0.000000 0.334917
O O7 0.078083 0.769510 0.864315
O O8 0.000000 0.000000 0.868334
O O9 0.000000 0.814811 0.000000
O O10 0.678850 0.500000 0.177667
O O11 0.770236 0.283491 0.123440
O O12 0.626974 0.267543 0.087517
O O13 0.126670 0.500000 0.111906
O O14 0.154452 0.637706 0.254211
O O15 0.924780 0.253523 0.622572
O O16 0.000000 0.134052 0.500000
O O17 0.000000 0.000000 0.644609
O O18 0.590442 0.500000 0.000000
O O19 0.500000 0.735713 0.000000
O O20 0.155490 0.500000 0.601858
#
# Coordination Sequence:
#
# PCOD8198919 Si02
#       8
#     4   8   4   8   8   4   4   8
#     4   9  20  38  59  84 115 152 191 231 282 351
#     4  10  20  36  60  86 114 151 193 238 290 345
#     4  11  24  35  46  74 110 139 174 225 276 318
#     4   9  19  36  58  85 115 148 190 234 281 342
#     4   9  19  35  55  75 100 139 184 225 266 322
#     4  11  24  37  52  80 116 151 190 231 276 334
#     4   9  18  34  59  88 117 150 186 231 289 349
#     4  10  21  38  58  81 110 145 189 237 284 332
#
# _framework density 19.591270999999999
#
# number of rings (size 3 to 8) (size 9 to 14) (size 15 to 20)
#    0.000    2.333    0.000    3.000    2.333    7.333 
#    0.000    1.667    0.000    4.000    0.000    0.000 
#    0.000    0.000    0.000    0.000    0.000    0.000 
#
# Total GULP energy -594901.067974 kJ/mol
# GULP energy per Si atom -12393.772249 kJ/mol
# Density = 1.954668 g / cm^3
# Si number density = 19.591271 Si / 1000 Ang^3
#
#
#
# Elastic Constant Matrix: (Units=GPa)
#
#
# Indices 1 2 3 4 5 6 
#
# 1 195.0026 71.4519 75.4784 0.0000 0.0000 0.0000
# 2 71.4519 111.5315 41.2780 0.0000 0.0000 0.0000
# 3 75.4784 41.2780 80.0078 0.0000 0.0000 0.0000
# 4 0.0000 0.0000 0.0000 -12.2561 0.0000 0.0000
# 5 0.0000 0.0000 0.0000 0.0000 37.7911 0.0000
# 6 0.0000 0.0000 0.0000 0.0000 0.0000 25.0223
#
#
#
# Elastic Compliance Matrix: (Units=1/GPa)
#
#
# Indices 1 2 3 4 5 6 
#
# 1 0.008922 -0.003214 -0.006758 0.000000 0.000000 0.000000
# 2 -0.003214 0.012240 -0.003283 0.000000 0.000000 0.000000
# 3 -0.006758 -0.003283 0.020568 0.000000 0.000000 0.000000
# 4 0.000000 0.000000 0.000000 -0.081592 0.000000 0.000000
# 5 0.000000 0.000000 0.000000 0.000000 0.026461 0.000000
# 6 0.000000 0.000000 0.000000 0.000000 0.000000 0.039964
#
#
# Mechanical properties :
#
#
# Convention : Reuss Voigt Hill
#
# Bulk Modulus (GPa) = 65.70539 84.77318 75.23929
# Shear Modulus (GPa) = 85.98753 23.33370 54.66061
#
# Velocity S-wave (km/s) = 6.63220 3.45487 5.28782
# Velocity P-wave (km/s) = 9.60515 7.69933 8.70456
#
# Compressibility (1/GPa) = 0.01521945
#
# Stress axis : x y z
#
# Youngs Moduli (GPa) = 112.08387 81.69745 48.61891
#
# Poissons Ratio (x) = 0.26261 0.32859
# Poissons Ratio (y) = 0.36029 0.15960
# Poissons Ratio (z) = 0.75751 0.26818
#
# Static dielectric constant tensor:
#      x y z
#    x 3.749080 0.000000 0.000000 
#    y 0.000000 3.409860 0.000000 
#    z 0.000000 0.000000 3.548330 
# 
# 
# High freq. dielectric constant tensor:
#      x y z
#    x 1.769590 0.000000 0.000000 
#    y 0.000000 1.752370 0.000000 
#    z 0.000000 0.000000 1.763600 
# 
# From -- ./inp_files/24536.got.cif
#   From: 2010.03.12/outbox.cif.g09.slc.cpg/sg47_13_cif.got.tgz:24536.got - 2010.04.14 03:12:58.
