data_PCOD8198353
_publ_section_title
;
Structure prediction by ZEFSAII (Michael W. Deem and Ramdas Pophale) SiO2 
 PCOD8198353
Probable space group: P M M M
;
_chemical_formula_sum "Si O2"
_cell_formula_units_Z 48
_cell_length_a 9.176043
_cell_length_b 8.118939
_cell_length_c 32.287247
_cell_angle_alpha 90.000000
_cell_angle_beta 90.000000
_cell_angle_gamma 90.000000
_cell_volume 2405.391293
_symmetry_space_group_name_H-M "P M M M"
_symmetry_group_IT_number 47
_symmetry_cell_setting 'orthorhombic'
loop_
_space_group_symop_operation_xyz
x,y,z
-x,-y,z
x,-y,-z
-x,y,-z
-x,-y,-z
x,y,-z
-x,y,z
x,-y,z
loop_
_atom_site_type_symbol
_atom_site_label
_atom_site_fract_x
_atom_site_fract_y
_atom_site_fract_z
Si Si1 0.336876 0.809843 0.577545
Si Si2 0.832029 0.305993 0.656237
Si Si3 0.173447 0.000000 0.953416
Si Si4 0.170621 0.315374 0.902111
Si Si5 0.666039 0.693378 0.262412
Si Si6 0.331208 0.188463 0.825907
Si Si7 0.159398 0.689444 0.500000
O O1 0.500000 0.733941 0.580150
O O2 0.255291 0.785297 0.620599
O O3 0.248954 0.727234 0.540889
O O4 0.347035 0.000000 0.567032
O O5 0.811656 0.500000 0.650340
O O6 0.767359 0.246915 0.700048
O O7 0.000000 0.253324 0.654113
O O8 0.231238 0.168545 0.931636
O O9 0.000000 0.000000 0.953830
O O10 0.235602 0.000000 0.000000
O O11 0.203456 0.500000 0.920207
O O12 0.243573 0.303552 0.857214
O O13 0.000000 0.290613 0.895897
O O14 0.500000 0.745110 0.272496
O O15 0.679052 0.500000 0.255299
O O16 0.723138 0.781529 0.220881
O O17 0.500000 0.237201 0.829165
O O18 0.302922 0.000000 0.838186
O O19 0.126239 0.500000 0.500000
O O20 0.000000 0.779868 0.500000
#
# Coordination Sequence:
#
# PCOD8198353 Si02
#       7
#     8   8   4   8   8   8   4
#     4  11  24  40  59  84 113 145 183 226 272 326
#     4  10  21  37  57  82 112 146 185 228 276 331
#     4   9  18  34  55  81 115 149 185 235 289 342
#     4  10  20  34  55  82 111 146 188 234 286 342
#     4   9  18  33  52  75 106 145 187 228 271 324
#     4  10  20  34  54  80 111 148 188 232 283 338
#     4  11  24  41  62  88 114 141 178 223 272 328
#
# _framework density 19.955175000000001
#
# number of rings (size 3 to 8) (size 9 to 14) (size 15 to 20)
#    0.000    2.000    0.833    2.500    0.000    8.667 
#    0.000    5.000    0.000    1.000    0.000    1.167 
#    0.000    0.000    0.000    0.000    0.000    0.000 
#
# Total GULP energy -595221.305677 kJ/mol
# GULP energy per Si atom -12400.443868 kJ/mol
# Density = 1.990976 g / cm^3
# Si number density = 19.955175 Si / 1000 Ang^3
#
#
#
# Elastic Constant Matrix: (Units=GPa)
#
#
# Indices 1 2 3 4 5 6 
#
# 1 100.4622 34.7655 55.7197 0.0000 0.0000 0.0000
# 2 34.7655 87.1344 50.0870 0.0000 0.0000 0.0000
# 3 55.7197 50.0870 135.5771 0.0000 0.0000 0.0000
# 4 0.0000 0.0000 0.0000 42.6066 0.0000 0.0000
# 5 0.0000 0.0000 0.0000 0.0000 31.3341 0.0000
# 6 0.0000 0.0000 0.0000 0.0000 0.0000 19.8514
#
#
#
# Elastic Compliance Matrix: (Units=1/GPa)
#
#
# Indices 1 2 3 4 5 6 
#
# 1 0.013399 -0.002769 -0.004484 0.000000 0.000000 0.000000
# 2 -0.002769 0.015143 -0.004456 0.000000 0.000000 0.000000
# 3 -0.004484 -0.004456 0.010865 0.000000 0.000000 0.000000
# 4 0.000000 0.000000 0.000000 0.023471 0.000000 0.000000
# 5 0.000000 0.000000 0.000000 0.000000 0.031914 0.000000
# 6 0.000000 0.000000 0.000000 0.000000 0.000000 0.050374
#
#
# Mechanical properties :
#
#
# Convention : Reuss Voigt Hill
#
# Bulk Modulus (GPa) = 62.54310 67.14647 64.84478
# Shear Modulus (GPa) = 28.74995 30.93187 29.84091
#
# Velocity S-wave (km/s) = 3.79981 3.94136 3.87123
# Velocity P-wave (km/s) = 7.11767 7.37795 7.24898
#
# Compressibility (1/GPa) = 0.01598897
#
# Stress axis : x y z
#
# Youngs Moduli (GPa) = 74.63241 66.03781 92.03797
#
# Poissons Ratio (x) = 0.18283 0.41269
# Poissons Ratio (y) = 0.20662 0.41017
# Poissons Ratio (z) = 0.33465 0.29430
#
# Static dielectric constant tensor:
#      x y z
#    x 3.701410 0.000000 0.000000 
#    y 0.000000 3.690490 0.000000 
#    z 0.000000 0.000000 3.702780 
# 
# 
# High freq. dielectric constant tensor:
#      x y z
#    x 1.769350 0.000000 0.000000 
#    y 0.000000 1.780230 0.000000 
#    z 0.000000 0.000000 1.781500 
# 
# From -- ./inp_files/34171.got.cif
#   From: 2010.03.12/outbox.cif.g09.slc.cpg/sg47_18_cif.got.tgz:34171.got - 2010.04.14 03:12:58.
