data_PCOD8198219
_publ_section_title
;
Structure prediction by ZEFSAII (Michael W. Deem and Ramdas Pophale) SiO2 
 PCOD8198219
Probable space group: P M M M
;
_chemical_formula_sum "Si O2"
_cell_formula_units_Z 32
_cell_length_a 9.260968
_cell_length_b 22.550152
_cell_length_c 7.847681
_cell_angle_alpha 90.000000
_cell_angle_beta 90.000000
_cell_angle_gamma 90.000000
_cell_volume 1638.880162
_symmetry_space_group_name_H-M "P M M M"
_symmetry_group_IT_number 47
_symmetry_cell_setting 'orthorhombic'
loop_
_space_group_symop_operation_xyz
x,y,z
-x,-y,z
x,-y,-z
-x,y,-z
-x,-y,-z
x,y,-z
-x,y,z
x,-y,z
loop_
_atom_site_type_symbol
_atom_site_label
_atom_site_fract_x
_atom_site_fract_y
_atom_site_fract_z
Si Si1 0.659821 0.885537 0.199333
Si Si2 0.160128 0.223055 0.798418
Si Si3 0.836391 0.000000 0.299219
Si Si4 0.172137 0.645497 0.810042
Si Si5 0.827659 0.566938 0.500000
O O1 0.500000 0.893266 0.280824
O O2 0.735948 0.827369 0.280633
O O3 0.755845 0.942584 0.231906
O O4 0.643668 0.875874 0.000000
O O5 0.223073 0.288400 0.755782
O O6 0.000000 0.215091 0.718664
O O7 0.148726 0.215778 0.000000
O O8 0.835179 0.000000 0.500000
O O9 0.000000 0.000000 0.228369
O O10 0.231776 0.599222 0.670307
O O11 0.000000 0.645078 0.814475
O O12 0.230307 0.628769 0.000000
O O13 0.768406 0.500000 0.500000
O O14 0.000000 0.568057 0.500000
#
# Coordination Sequence:
#
# PCOD8198219 Si02
#       5
#     8   8   4   8   4
#     4  10  20  34  54  78 101 127 161 204 256 307
#     4   8  14  27  47  68  92 124 161 200 243 294
#     4  11  24  39  52  70  98 133 172 207 244 296
#     4   8  14  25  40  59  87 124 162 201 247 295
#     4   9  16  24  36  60  93 126 161 200 243 295
#
# _framework density 19.525527
#
# number of rings (size 3 to 8) (size 9 to 14) (size 15 to 20)
#    0.000    3.000    0.000    3.000    0.000    4.500 
#    2.250    2.500    0.000    0.000    0.000    0.000 
#    0.000    2.000    0.000    9.750    0.000   10.000 
#
# Total GULP energy -396594.869059 kJ/mol
# GULP energy per Si atom -12393.589658 kJ/mol
# Density = 1.948109 g / cm^3
# Si number density = 19.525527 Si / 1000 Ang^3
#
#
#
# Elastic Constant Matrix: (Units=GPa)
#
#
# Indices 1 2 3 4 5 6 
#
# 1 93.0263 59.6675 21.3809 0.0000 0.0000 0.0000
# 2 59.6675 191.0708 57.3770 0.0000 0.0000 0.0000
# 3 21.3809 57.3770 70.4413 0.0000 0.0000 0.0000
# 4 0.0000 0.0000 0.0000 -8.9625 0.0000 0.0000
# 5 0.0000 0.0000 0.0000 0.0000 7.4081 0.0000
# 6 0.0000 0.0000 0.0000 0.0000 0.0000 0.0232
#
#
#
# Elastic Compliance Matrix: (Units=1/GPa)
#
#
# Indices 1 2 3 4 5 6 
#
# 1 0.013483 -0.003947 -0.000878 0.000000 0.000000 0.000000
# 2 -0.003947 0.008084 -0.005386 0.000000 0.000000 0.000000
# 3 -0.000878 -0.005386 0.018850 0.000000 0.000000 0.000000
# 4 0.000000 0.000000 0.000000 -0.111576 0.000000 0.000000
# 5 0.000000 0.000000 0.000000 0.000000 0.134988 0.000000
# 6 0.000000 0.000000 0.000000 0.000000 0.000000 43.189936
#
#
# Mechanical properties :
#
#
# Convention : Reuss Voigt Hill
#
# Bulk Modulus (GPa) = 50.01292 70.15435 60.08363
# Shear Modulus (GPa) = 0.11552 14.10127 7.10840
#
# Velocity S-wave (km/s) = 0.24350 2.69029 1.91010
# Velocity P-wave (km/s) = 5.07433 6.75705 5.97522
#
# Compressibility (1/GPa) = 0.01999483
#
# Stress axis : x y z
#
# Youngs Moduli (GPa) = 74.16790 123.70532 53.05022
#
# Poissons Ratio (x) = 0.48826 0.04655
# Poissons Ratio (y) = 0.29274 0.28575
# Poissons Ratio (z) = 0.06508 0.66634
#
# Static dielectric constant tensor:
#      x y z
#    x 3.530650 0.000000 0.000000 
#    y 0.000000 3.801930 0.000000 
#    z 0.000000 0.000000 3.512470 
# 
# 
# High freq. dielectric constant tensor:
#      x y z
#    x 1.713270 0.000000 0.000000 
#    y 0.000000 1.767500 0.000000 
#    z 0.000000 0.000000 1.744530 
# 
# From -- ./inp_files/1302.got.cif
#   From: 2010.03.12/outbox.cif.g09.slc.cpg/sg47_1_cif.got.tgz:1302.got - 2010.04.14 03:12:58.
