data_PCOD8198152
_publ_section_title
;
Structure prediction by ZEFSAII (Michael W. Deem and Ramdas Pophale) SiO2 
 PCOD8198152
Probable space group: P M M M
;
_chemical_formula_sum "Si O2"
_cell_formula_units_Z 32
_cell_length_a 7.878050
_cell_length_b 22.119343
_cell_length_c 9.468799
_cell_angle_alpha 90.000000
_cell_angle_beta 90.000000
_cell_angle_gamma 90.000000
_cell_volume 1650.007254
_symmetry_space_group_name_H-M "P M M M"
_symmetry_group_IT_number 47
_symmetry_cell_setting 'orthorhombic'
loop_
_space_group_symop_operation_xyz
x,y,z
-x,-y,z
x,-y,-z
-x,y,-z
-x,-y,-z
x,y,-z
-x,y,z
x,-y,z
loop_
_atom_site_type_symbol
_atom_site_label
_atom_site_fract_x
_atom_site_fract_y
_atom_site_fract_z
Si Si1 0.701050 0.612367 0.839777
Si Si2 0.195021 0.256511 0.838389
Si Si3 0.702349 0.500000 0.659638
Si Si4 0.000000 0.067558 0.332118
Si Si5 0.689392 0.851907 0.662858
O O1 0.500000 0.616335 0.832066
O O2 0.777812 0.675299 0.783720
O O3 0.771732 0.559230 0.740018
O O4 0.761282 0.599311 0.000000
O O5 0.305395 0.210991 0.745935
O O6 0.000000 0.238020 0.822332
O O7 0.257169 0.251867 0.000000
O O8 0.500000 0.500000 0.661732
O O9 0.772428 0.500000 0.500000
O O10 0.829836 0.101317 0.277722
O O11 0.000000 0.064231 0.500000
O O12 0.000000 0.000000 0.267968
O O13 0.728367 0.837442 0.500000
O O14 0.500000 0.879773 0.681084
#
# Coordination Sequence:
#
# PCOD8198152 Si02
#       5
#     8   8   4   4   8
#     4   9  17  30  48  69  94 128 170 214 263 320
#     4  10  20  34  53  77 105 139 178 222 273 324
#     4   9  17  29  46  69  96 126 166 217 268 318
#     4   9  18  34  55  81 115 148 179 220 265 313
#     4  10  20  34  55  82 110 143 182 223 270 320
#
# _framework density 19.393854000000001
#
# number of rings (size 3 to 8) (size 9 to 14) (size 15 to 20)
#    0.000    2.500    1.250    1.125    0.000    4.500 
#    0.000    5.625    0.000    5.250    0.000    1.750 
#    0.000    0.000    0.000    0.000    0.000    0.000 
#
# Total GULP energy -396804.949891 kJ/mol
# GULP energy per Si atom -12400.154684 kJ/mol
# Density = 1.934971 g / cm^3
# Si number density = 19.393854 Si / 1000 Ang^3
#
#
#
# Elastic Constant Matrix: (Units=GPa)
#
#
# Indices 1 2 3 4 5 6 
#
# 1 85.1521 52.5265 27.1648 0.0000 0.0000 0.0000
# 2 52.5265 152.0363 61.1201 0.0000 0.0000 0.0000
# 3 27.1648 61.1201 70.7711 0.0000 0.0000 0.0000
# 4 0.0000 0.0000 0.0000 22.6767 0.0000 0.0000
# 5 0.0000 0.0000 0.0000 0.0000 15.9836 0.0000
# 6 0.0000 0.0000 0.0000 0.0000 0.0000 28.7320
#
#
#
# Elastic Compliance Matrix: (Units=1/GPa)
#
#
# Indices 1 2 3 4 5 6 
#
# 1 0.015103 -0.004423 -0.001977 0.000000 0.000000 0.000000
# 2 -0.004423 0.011371 -0.008122 0.000000 0.000000 0.000000
# 3 -0.001977 -0.008122 0.021904 0.000000 0.000000 0.000000
# 4 0.000000 0.000000 0.000000 0.044098 0.000000 0.000000
# 5 0.000000 0.000000 0.000000 0.000000 0.062564 0.000000
# 6 0.000000 0.000000 0.000000 0.000000 0.000000 0.034804
#
#
# Mechanical properties :
#
#
# Convention : Reuss Voigt Hill
#
# Bulk Modulus (GPa) = 51.72757 65.50914 58.61836
# Shear Modulus (GPa) = 22.18938 24.62168 23.40553
#
# Velocity S-wave (km/s) = 3.38619 3.56696 3.47775
# Velocity P-wave (km/s) = 6.48216 7.12852 6.81301
#
# Compressibility (1/GPa) = 0.01933205
#
# Stress axis : x y z
#
# Youngs Moduli (GPa) = 66.21308 87.94513 45.65421
#
# Poissons Ratio (x) = 0.38897 0.09027
# Poissons Ratio (y) = 0.29285 0.37082
# Poissons Ratio (z) = 0.13092 0.71433
#
# Static dielectric constant tensor:
#      x y z
#    x 3.474230 0.000000 0.000000 
#    y 0.000000 3.593830 0.000000 
#    z 0.000000 0.000000 3.403720 
# 
# 
# High freq. dielectric constant tensor:
#      x y z
#    x 1.752370 0.000000 0.000000 
#    y 0.000000 1.752030 0.000000 
#    z 0.000000 0.000000 1.729750 
# 
# From -- ./inp_files/1286.got.cif
#   From: 2010.03.12/outbox.cif.g09.slc.cpg/sg47_1_cif.got.tgz:1286.got - 2010.04.14 03:12:58.
