data_PCOD8198204
_publ_section_title
;
Structure prediction by ZEFSAII (Michael W. Deem and Ramdas Pophale) SiO2 
 PCOD8198204
Probable space group: P M M M
;
_chemical_formula_sum "Si O2"
_cell_formula_units_Z 40
_cell_length_a 8.519217
_cell_length_b 15.060765
_cell_length_c 15.034261
_cell_angle_alpha 90.000000
_cell_angle_beta 90.000000
_cell_angle_gamma 90.000000
_cell_volume 1928.984768
_symmetry_space_group_name_H-M "P M M M"
_symmetry_group_IT_number 47
_symmetry_cell_setting 'orthorhombic'
loop_
_space_group_symop_operation_xyz
x,y,z
-x,-y,z
x,-y,-z
-x,y,-z
-x,-y,-z
x,y,-z
-x,y,z
x,-y,z
loop_
_atom_site_type_symbol
_atom_site_label
_atom_site_fract_x
_atom_site_fract_y
_atom_site_fract_z
Si Si1 0.316828 0.902152 0.156147
Si Si2 0.815369 0.500000 0.397494
Si Si3 0.672361 0.102200 0.500000
Si Si4 0.681346 0.651808 0.273423
Si Si5 0.181231 0.832991 0.325037
Si Si6 0.817831 0.279351 0.098691
O O1 0.500000 0.887635 0.174565
O O2 0.223907 0.903734 0.249234
O O3 0.256816 0.819565 0.097710
O O4 0.288476 0.000000 0.111385
O O5 0.746496 0.500000 0.500000
O O6 0.765053 0.585057 0.340755
O O7 0.000000 0.500000 0.405656
O O8 0.500000 0.150216 0.500000
O O9 0.781658 0.125491 0.418467
O O10 0.636663 0.000000 0.500000
O O11 0.500000 0.626042 0.269717
O O12 0.707202 0.748615 0.312719
O O13 0.746167 0.652777 0.171539
O O14 0.000000 0.804604 0.319094
O O15 0.000000 0.268107 0.121184
O O16 0.791022 0.319772 0.000000
#
# Coordination Sequence:
#
# PCOD8198204 Si02
#       6
#     8   4   4   8   8   8
#     4  10  20  34  53  79 114 156 202 252 304 356
#     4  11  25  45  70  97 128 159 195 242 293 354
#     4  11  23  37  53  76 109 150 199 251 299 351
#     4  11  23  41  65  92 124 158 196 244 297 358
#     4  11  22  36  56  80 112 153 198 245 299 358
#     4  10  21  38  61  88 120 160 205 252 303 360
#
# _framework density 20.736297
#
# number of rings (size 3 to 8) (size 9 to 14) (size 15 to 20)
#    0.000    1.400    0.000    8.400    1.400    7.600 
#    0.000    2.500    0.000    3.000    0.000    0.000 
#    0.000    0.000    0.000    0.000    0.000    0.000 
#
# Total GULP energy -495771.509933 kJ/mol
# GULP energy per Si atom -12394.287748 kJ/mol
# Density = 2.068910 g / cm^3
# Si number density = 20.736297 Si / 1000 Ang^3
#
#
#
# Elastic Constant Matrix: (Units=GPa)
#
#
# Indices 1 2 3 4 5 6 
#
# 1 112.4802 18.4315 41.3064 0.0000 0.0000 0.0000
# 2 18.4315 72.8592 37.5030 0.0000 0.0000 0.0000
# 3 41.3064 37.5030 154.3325 0.0000 0.0000 0.0000
# 4 0.0000 0.0000 0.0000 12.7337 0.0000 0.0000
# 5 0.0000 0.0000 0.0000 0.0000 19.1263 0.0000
# 6 0.0000 0.0000 0.0000 0.0000 0.0000 26.7357
#
#
#
# Elastic Compliance Matrix: (Units=1/GPa)
#
#
# Indices 1 2 3 4 5 6 
#
# 1 0.009968 -0.001313 -0.002349 0.000000 0.000000 0.000000
# 2 -0.001313 0.015860 -0.003503 0.000000 0.000000 0.000000
# 3 -0.002349 -0.003503 0.007959 0.000000 0.000000 0.000000
# 4 0.000000 0.000000 0.000000 0.078532 0.000000 0.000000
# 5 0.000000 0.000000 0.000000 0.000000 0.052284 0.000000
# 6 0.000000 0.000000 0.000000 0.000000 0.000000 0.037403
#
#
# Mechanical properties :
#
#
# Convention : Reuss Voigt Hill
#
# Bulk Modulus (GPa) = 51.38988 59.35042 55.37015
# Shear Modulus (GPa) = 22.43946 27.88120 25.16033
#
# Velocity S-wave (km/s) = 3.29315 3.67080 3.48709
# Velocity P-wave (km/s) = 6.26866 6.83008 6.55539
#
# Compressibility (1/GPa) = 0.01945909
#
# Stress axis : x y z
#
# Youngs Moduli (GPa) = 100.31940 63.05117 125.63799
#
# Poissons Ratio (x) = 0.08276 0.29512
# Poissons Ratio (y) = 0.13168 0.44008
# Poissons Ratio (z) = 0.23565 0.22085
#
# Static dielectric constant tensor:
#      x y z
#    x 3.833390 0.000000 0.000000 
#    y 0.000000 3.697610 0.000000 
#    z 0.000000 0.000000 3.928230 
# 
# 
# High freq. dielectric constant tensor:
#      x y z
#    x 1.827350 0.000000 0.000000 
#    y 0.000000 1.791880 0.000000 
#    z 0.000000 0.000000 1.819420 
# 
# From -- ./inp_files/20713.got.cif
#   From: 2010.03.12/outbox.cif.g09.slc.cpg/sg47_11_cif.got.tgz:20713.got - 2010.04.14 03:12:58.
