data_PCOD8198246
_publ_section_title
;
Structure prediction by ZEFSAII (Michael W. Deem and Ramdas Pophale) SiO2 
 PCOD8198246
Probable space group: P M M M
;
_chemical_formula_sum "Si O2"
_cell_formula_units_Z 52
_cell_length_a 8.864893
_cell_length_b 33.310686
_cell_length_c 9.911473
_cell_angle_alpha 90.000000
_cell_angle_beta 90.000000
_cell_angle_gamma 90.000000
_cell_volume 2926.815032
_symmetry_space_group_name_H-M "P M M M"
_symmetry_group_IT_number 47
_symmetry_cell_setting 'orthorhombic'
loop_
_space_group_symop_operation_xyz
x,y,z
-x,-y,z
x,-y,-z
-x,y,-z
-x,-y,-z
x,y,-z
-x,y,z
x,-y,z
loop_
_atom_site_type_symbol
_atom_site_label
_atom_site_fract_x
_atom_site_fract_y
_atom_site_fract_z
Si Si1 0.330608 0.000000 0.339869
Si Si2 0.179600 0.611572 0.348792
Si Si3 0.820790 0.299381 0.348886
Si Si4 0.179548 0.455452 0.151109
Si Si5 0.177763 0.918923 0.655075
Si Si6 0.676459 0.146385 0.155298
Si Si7 0.174984 0.769838 0.845197
O O1 0.246841 0.039738 0.287412
O O2 0.500000 0.000000 0.282153
O O3 0.328731 0.000000 0.500000
O O4 0.234489 0.601701 0.500000
O O5 0.236421 0.656130 0.306580
O O6 0.250363 0.578161 0.249560
O O7 0.000000 0.610329 0.342305
O O8 0.764256 0.288976 0.500000
O O9 0.758399 0.266343 0.244988
O O10 0.000000 0.299128 0.345129
O O11 0.232285 0.500000 0.197127
O O12 0.000000 0.453405 0.154514
O O13 0.237567 0.446631 0.000000
O O14 0.227414 0.911212 0.500000
O O15 0.235221 0.883093 0.746988
O O16 0.000000 0.922272 0.666845
O O17 0.500000 0.142418 0.183414
O O18 0.728717 0.191122 0.190796
O O19 0.716088 0.136134 0.000000
O O20 0.000000 0.778837 0.812825
O O21 0.196442 0.757077 0.000000
#
# Coordination Sequence:
#
# PCOD8198246 Si02
#       7
#     4   8   8   8   8   8   8
#     4   9  17  31  52  77 106 137 166 200 242 285
#     4   8  13  20  29  42  61  86 118 158 204 252
#     4   8  14  24  37  54  76 100 129 170 218 264
#     4   8  13  19  25  35  54  82 118 160 203 246
#     4  10  20  34  54  79 104 131 165 203 241 282
#     4  10  21  36  52  71  98 130 161 196 239 284
#     4   9  17  29  45  64  85 111 145 183 223 270
#
# _framework density 17.766753000000001
#
# number of rings (size 3 to 8) (size 9 to 14) (size 15 to 20)
#    0.000    3.154    0.000    2.538    0.000    4.308 
#    0.000    6.538    0.000    2.308    0.000    0.000 
#    0.000    0.000    0.000    0.000    0.000    0.769 
#
# Total GULP energy -644567.443017 kJ/mol
# GULP energy per Si atom -12395.527750 kJ/mol
# Density = 1.772632 g / cm^3
# Si number density = 17.766753 Si / 1000 Ang^3
#
#
#
# Elastic Constant Matrix: (Units=GPa)
#
#
# Indices 1 2 3 4 5 6 
#
# 1 37.7363 29.1152 24.2966 0.0000 0.0000 0.0000
# 2 29.1152 147.7425 89.1084 0.0000 0.0000 0.0000
# 3 24.2966 89.1084 94.7159 0.0000 0.0000 0.0000
# 4 0.0000 0.0000 0.0000 27.9380 0.0000 0.0000
# 5 0.0000 0.0000 0.0000 0.0000 13.1502 0.0000
# 6 0.0000 0.0000 0.0000 0.0000 0.0000 -1.1703
#
#
#
# Elastic Compliance Matrix: (Units=1/GPa)
#
#
# Indices 1 2 3 4 5 6 
#
# 1 0.032372 -0.003169 -0.005322 0.000000 0.000000 0.000000
# 2 -0.003169 0.015957 -0.014200 0.000000 0.000000 0.000000
# 3 -0.005322 -0.014200 0.025282 0.000000 0.000000 0.000000
# 4 0.000000 0.000000 0.000000 0.035794 0.000000 0.000000
# 5 0.000000 0.000000 0.000000 0.000000 0.076045 0.000000
# 6 0.000000 0.000000 0.000000 0.000000 0.000000 -0.854514
#
#
# Mechanical properties :
#
#
# Convention : Reuss Voigt Hill
#
# Bulk Modulus (GPa) = 35.42498 62.80391 49.11444
# Shear Modulus (GPa) = -8.13971 17.16188 4.51109
#
# Velocity S-wave (km/s) = -2.14275 3.11135 1.59517
# Velocity P-wave (km/s) = 3.72295 6.95221 5.57645
#
# Compressibility (1/GPa) = 0.02822867
#
# Stress axis : x y z
#
# Youngs Moduli (GPa) = 30.89109 62.66695 39.55359
#
# Poissons Ratio (x) = 0.19861 0.21052
# Poissons Ratio (y) = 0.09790 0.56165
# Poissons Ratio (z) = 0.16441 0.88985
#
# Static dielectric constant tensor:
#      x y z
#    x 2.858760 0.000000 0.000000 
#    y 0.000000 3.612780 0.000000 
#    z 0.000000 0.000000 3.399680 
# 
# 
# High freq. dielectric constant tensor:
#      x y z
#    x 1.640510 0.000000 0.000000 
#    y 0.000000 1.699470 0.000000 
#    z 0.000000 0.000000 1.679360 
# 
# From -- ./inp_files/15454.got.cif
#   From: 2010.03.12/outbox.cif.g09.slc.cpg/sg47_8_cif.got.tgz:15454.got - 2010.04.14 03:12:58.
