data_PCOD8198832
_publ_section_title
;
Structure prediction by ZEFSAII (Michael W. Deem and Ramdas Pophale) SiO2 
 PCOD8198832
Probable space group: P M M M
;
_chemical_formula_sum "Si O2"
_cell_formula_units_Z 48
_cell_length_a 18.940737
_cell_length_b 9.115600
_cell_length_c 14.893824
_cell_angle_alpha 90.000000
_cell_angle_beta 90.000000
_cell_angle_gamma 90.000000
_cell_volume 2571.510790
_symmetry_space_group_name_H-M "P M M M"
_symmetry_group_IT_number 47
_symmetry_cell_setting 'orthorhombic'
loop_
_space_group_symop_operation_xyz
x,y,z
-x,-y,z
x,-y,-z
-x,y,-z
-x,-y,-z
x,y,-z
-x,y,z
x,-y,z
loop_
_atom_site_type_symbol
_atom_site_label
_atom_site_fract_x
_atom_site_fract_y
_atom_site_fract_z
Si Si1 0.186928 0.831563 0.602448
Si Si2 0.582013 0.172222 0.000000
Si Si3 0.670459 0.329980 0.646030
Si Si4 0.079612 0.827552 0.245741
Si Si5 0.670967 0.330120 0.146932
Si Si6 0.416857 0.831172 0.500000
Si Si7 0.827674 0.330824 0.895885
O O1 0.162729 0.809678 0.500000
O O2 0.252166 0.728320 0.624525
O O3 0.121878 0.782847 0.664662
O O4 0.208926 0.000000 0.620813
O O5 0.615754 0.238719 0.910601
O O6 0.500000 0.212552 0.000000
O O7 0.595346 0.000000 0.000000
O O8 0.668289 0.500000 0.619531
O O9 0.651396 0.305882 0.749665
O O10 0.612536 0.244149 0.589158
O O11 0.113830 0.756884 0.158199
O O12 0.000000 0.768642 0.256590
O O13 0.080570 0.000000 0.231009
O O14 0.665991 0.500000 0.118351
O O15 0.749761 0.270831 0.127804
O O16 0.500000 0.813299 0.500000
O O17 0.392864 0.000000 0.500000
O O18 0.832532 0.500000 0.867684
O O19 0.843802 0.306675 0.000000
#
# Coordination Sequence:
#
# PCOD8198832 Si02
#       7
#     8   4   8   8   8   4   8
#     4  10  20  35  58  86 116 154 197 238 288 350
#     4  11  25  41  59  89 124 155 192 241 293 348
#     4  11  22  37  62  91 118 151 196 247 291 343
#     4  10  22  38  56  84 121 156 193 240 291 345
#     4  10  21  39  62  88 117 154 197 242 292 349
#     4  11  25  43  61  85 122 161 194 237 293 350
#     4  10  20  37  60  84 112 148 195 242 288 347
#
# _framework density 18.666070999999999
#
# number of rings (size 3 to 8) (size 9 to 14) (size 15 to 20)
#    0.000    1.667    3.333    1.000    0.000    5.333 
#    0.000    6.667    0.000    0.000    0.000    2.333 
#    0.000    0.000    0.000    0.000    0.000    0.000 
#
# Total GULP energy -595429.791772 kJ/mol
# GULP energy per Si atom -12404.787329 kJ/mol
# Density = 1.862359 g / cm^3
# Si number density = 18.666071 Si / 1000 Ang^3
#
#
#
# Elastic Constant Matrix: (Units=GPa)
#
#
# Indices 1 2 3 4 5 6 
#
# 1 133.1894 62.2903 67.3581 0.0000 0.0000 0.0000
# 2 62.2903 77.9839 54.3260 0.0000 0.0000 0.0000
# 3 67.3581 54.3260 125.1422 0.0000 0.0000 0.0000
# 4 0.0000 0.0000 0.0000 32.4549 0.0000 0.0000
# 5 0.0000 0.0000 0.0000 0.0000 31.4992 0.0000
# 6 0.0000 0.0000 0.0000 0.0000 0.0000 21.2167
#
#
#
# Elastic Compliance Matrix: (Units=1/GPa)
#
#
# Indices 1 2 3 4 5 6 
#
# 1 0.013011 -0.007905 -0.003572 0.000000 0.000000 0.000000
# 2 -0.007905 0.023185 -0.005810 0.000000 0.000000 0.000000
# 3 -0.003572 -0.005810 0.012436 0.000000 0.000000 0.000000
# 4 0.000000 0.000000 0.000000 0.030812 0.000000 0.000000
# 5 0.000000 0.000000 0.000000 0.000000 0.031747 0.000000
# 6 0.000000 0.000000 0.000000 0.000000 0.000000 0.047133
#
#
# Mechanical properties :
#
#
# Convention : Reuss Voigt Hill
#
# Bulk Modulus (GPa) = 71.13155 78.25158 74.69157
# Shear Modulus (GPa) = 25.30589 27.19024 26.24807
#
# Velocity S-wave (km/s) = 3.68600 3.82077 3.75399
# Velocity P-wave (km/s) = 7.50370 7.84074 7.67407
#
# Compressibility (1/GPa) = 0.01405846
#
# Stress axis : x y z
#
# Youngs Moduli (GPa) = 76.85565 43.13222 80.41369
#
# Poissons Ratio (x) = 0.34095 0.28723
# Poissons Ratio (y) = 0.60752 0.46720
# Poissons Ratio (z) = 0.27452 0.25060
#
# Static dielectric constant tensor:
#      x y z
#    x 3.468760 0.000000 0.000000 
#    y 0.000000 3.454230 0.000000 
#    z 0.000000 0.000000 3.751870 
# 
# 
# High freq. dielectric constant tensor:
#      x y z
#    x 1.722610 0.000000 0.000000 
#    y 0.000000 1.723670 0.000000 
#    z 0.000000 0.000000 1.740710 
# 
# From -- ./inp_files/6471.got.cif
#   From: 2010.03.12/outbox.cif.g09.slc.cpg/sg47_4_cif.got.tgz:6471.got - 2010.04.14 03:12:58.
