data_PCOD8198168
_publ_section_title
;
Structure prediction by ZEFSAII (Michael W. Deem and Ramdas Pophale) SiO2 
 PCOD8198168
Probable space group: P M M M
;
_chemical_formula_sum "Si O2"
_cell_formula_units_Z 48
_cell_length_a 8.790851
_cell_length_b 19.148300
_cell_length_c 15.482074
_cell_angle_alpha 90.000000
_cell_angle_beta 90.000000
_cell_angle_gamma 90.000000
_cell_volume 2606.095228
_symmetry_space_group_name_H-M "P M M M"
_symmetry_group_IT_number 47
_symmetry_cell_setting 'orthorhombic'
loop_
_space_group_symop_operation_xyz
x,y,z
-x,-y,z
x,-y,-z
-x,y,-z
-x,-y,-z
x,y,-z
-x,y,z
x,-y,z
loop_
_atom_site_type_symbol
_atom_site_label
_atom_site_fract_x
_atom_site_fract_y
_atom_site_fract_z
Si Si1 0.817570 0.078592 0.723326
Si Si2 0.830304 0.917157 0.091290
Si Si3 0.171042 0.582845 0.000000
Si Si4 0.819332 0.196636 0.596911
Si Si5 0.180035 0.346809 0.661032
Si Si6 0.320377 0.419547 0.823788
Si Si7 0.329140 0.417741 0.500000
O O1 0.752817 0.105204 0.817498
O O2 0.754238 0.130697 0.650305
O O3 0.000000 0.079875 0.727201
O O4 0.761041 0.000000 0.701684
O O5 0.000000 0.885744 0.088185
O O6 0.840341 0.000000 0.094597
O O7 0.747340 0.894169 0.000000
O O8 0.258237 0.609302 0.914913
O O9 0.170065 0.500000 0.000000
O O10 0.000000 0.612988 0.000000
O O11 0.751443 0.194293 0.500000
O O12 0.767711 0.267454 0.643846
O O13 0.000000 0.193087 0.592366
O O14 0.250371 0.371185 0.750582
O O15 0.239773 0.394712 0.584462
O O16 0.000000 0.353987 0.665481
O O17 0.500000 0.412133 0.823117
O O18 0.271202 0.500000 0.808381
O O19 0.337100 0.500000 0.500000
O O20 0.500000 0.386423 0.500000
#
# Coordination Sequence:
#
# PCOD8198168 Si02
#       7
#     8   8   4   8   8   8   4
#     4   8  13  21  36  58  83 114 154 200 247 296
#     4   7   9  14  26  46  72 102 138 180 226 277
#     4   9  17  31  53  81 109 137 170 207 252 307
#     4   9  17  29  42  58  86 125 165 204 251 307
#     4  11  21  34  51  71 100 139 173 206 257 317
#     4  10  20  34  53  78 106 135 171 216 258 296
#     4  11  23  37  53  75 100 123 160 218 267 307
#
# _framework density 18.41836
#
# number of rings (size 3 to 8) (size 9 to 14) (size 15 to 20)
#    0.000    2.833    0.833    3.500    0.000    5.000 
#    0.000    1.667    1.833    0.000    0.000    0.000 
#    0.000    3.333    0.000    0.000    0.000    2.167 
#
# Total GULP energy -594714.201633 kJ/mol
# GULP energy per Si atom -12389.879201 kJ/mol
# Density = 1.837644 g / cm^3
# Si number density = 18.418360 Si / 1000 Ang^3
#
#
#
# Elastic Constant Matrix: (Units=GPa)
#
#
# Indices 1 2 3 4 5 6 
#
# 1 45.6230 23.5380 40.0512 0.0000 0.0000 0.0000
# 2 23.5380 91.1328 80.6620 0.0000 0.0000 0.0000
# 3 40.0512 80.6620 205.9658 0.0000 0.0000 0.0000
# 4 0.0000 0.0000 0.0000 2.7611 0.0000 0.0000
# 5 0.0000 0.0000 0.0000 0.0000 17.4538 0.0000
# 6 0.0000 0.0000 0.0000 0.0000 0.0000 3.6684
#
#
#
# Elastic Compliance Matrix: (Units=1/GPa)
#
#
# Indices 1 2 3 4 5 6 
#
# 1 0.027175 -0.003584 -0.003881 0.000000 0.000000 0.000000
# 2 -0.003584 0.017267 -0.006065 0.000000 0.000000 0.000000
# 3 -0.003881 -0.006065 0.007985 0.000000 0.000000 0.000000
# 4 0.000000 0.000000 0.000000 0.362174 0.000000 0.000000
# 5 0.000000 0.000000 0.000000 0.000000 0.057294 0.000000
# 6 0.000000 0.000000 0.000000 0.000000 0.000000 0.272599
#
#
# Mechanical properties :
#
#
# Convention : Reuss Voigt Hill
#
# Bulk Modulus (GPa) = 39.42139 70.13600 54.77869
# Shear Modulus (GPa) = 6.41018 18.00802 12.20910
#
# Velocity S-wave (km/s) = 1.86758 3.13025 2.57743
# Velocity P-wave (km/s) = 5.10884 7.15728 6.21799
#
# Compressibility (1/GPa) = 0.02536694
#
# Stress axis : x y z
#
# Youngs Moduli (GPa) = 36.79911 57.91345 125.23209
#
# Poissons Ratio (x) = 0.20756 0.48599
# Poissons Ratio (y) = 0.13188 0.75958
# Poissons Ratio (z) = 0.14281 0.35127
#
# Static dielectric constant tensor:
#      x y z
#    x 3.013830 0.000000 0.000000 
#    y 0.000000 3.242070 0.000000 
#    z 0.000000 0.000000 3.971560 
# 
# 
# High freq. dielectric constant tensor:
#      x y z
#    x 1.665540 0.000000 0.000000 
#    y 0.000000 1.683570 0.000000 
#    z 0.000000 0.000000 1.741180 
# 
# From -- ./inp_files/21126.got.cif
#   From: 2010.03.12/outbox.cif.g09.slc.cpg/sg47_11_cif.got.tgz:21126.got - 2010.04.14 03:12:58.
