data_PCOD8198884
_publ_section_title
;
Structure prediction by ZEFSAII (Michael W. Deem and Ramdas Pophale) SiO2 
 PCOD8198884
Probable space group: P M M M
;
_chemical_formula_sum "Si O2"
_cell_formula_units_Z 48
_cell_length_a 9.439438
_cell_length_b 7.786590
_cell_length_c 33.870732
_cell_angle_alpha 90.000000
_cell_angle_beta 90.000000
_cell_angle_gamma 90.000000
_cell_volume 2489.533809
_symmetry_space_group_name_H-M "P M M M"
_symmetry_group_IT_number 47
_symmetry_cell_setting 'orthorhombic'
loop_
_space_group_symop_operation_xyz
x,y,z
-x,-y,z
x,-y,-z
-x,y,-z
-x,-y,-z
x,y,-z
-x,y,z
x,-y,z
loop_
_atom_site_type_symbol
_atom_site_label
_atom_site_fract_x
_atom_site_fract_y
_atom_site_fract_z
Si Si1 0.336835 0.500000 0.546675
Si Si2 0.156233 0.306323 0.668909
Si Si3 0.834133 0.806683 0.585246
Si Si4 0.659449 0.297831 0.823873
Si Si5 0.833458 0.303090 0.100282
Si Si6 0.339992 0.803773 0.260685
Si Si7 0.167870 0.000000 0.043971
O O1 0.500000 0.500000 0.561368
O O2 0.328768 0.500000 0.500000
O O3 0.260509 0.327396 0.561381
O O4 0.152690 0.500000 0.653142
O O5 0.209221 0.195495 0.631633
O O6 0.255041 0.300838 0.706943
O O7 0.000000 0.244171 0.682106
O O8 0.000000 0.757903 0.580566
O O9 0.805255 0.000000 0.569418
O O10 0.500000 0.228733 0.831445
O O11 0.660452 0.500000 0.819572
O O12 0.757669 0.239591 0.859928
O O13 0.722937 0.220102 0.783354
O O14 0.791988 0.500000 0.089081
O O15 0.781837 0.174318 0.065857
O O16 0.000000 0.287317 0.107611
O O17 0.500000 0.732569 0.260430
O O18 0.332885 0.000000 0.273445
O O19 0.000000 0.000000 0.041441
O O20 0.234050 0.000000 0.000000
#
# Coordination Sequence:
#
# PCOD8198884 Si02
#       7
#     4   8   8   8   8   8   4
#     4  11  25  43  63  91 127 163 199 245 301 359
#     4  10  20  36  58  82 111 148 190 236 285 335
#     4  10  21  40  66  92 120 157 201 248 297 354
#     4   9  18  33  51  71  99 137 177 217 265 317
#     4   9  18  32  51  75 101 131 170 214 259 315
#     4  10  21  34  49  75 109 144 184 228 273 328
#     4   9  18  32  51  77 105 131 165 213 269 323
#
# _framework density 19.280718
#
# number of rings (size 3 to 8) (size 9 to 14) (size 15 to 20)
#    0.000    2.333    0.833    1.250    1.167    5.000 
#    0.000    5.000    0.000    1.000    0.000    2.333 
#    0.000    0.000    0.000    0.000    0.000    0.000 
#
# Total GULP energy -595110.053460 kJ/mol
# GULP energy per Si atom -12398.126114 kJ/mol
# Density = 1.923683 g / cm^3
# Si number density = 19.280718 Si / 1000 Ang^3
#
#
#
# Elastic Constant Matrix: (Units=GPa)
#
#
# Indices 1 2 3 4 5 6 
#
# 1 69.2454 41.2036 56.4440 0.0000 0.0000 0.0000
# 2 41.2036 99.9909 52.6645 0.0000 0.0000 0.0000
# 3 56.4440 52.6645 122.3307 0.0000 0.0000 0.0000
# 4 0.0000 0.0000 0.0000 25.6816 0.0000 0.0000
# 5 0.0000 0.0000 0.0000 0.0000 -17.1072 0.0000
# 6 0.0000 0.0000 0.0000 0.0000 0.0000 27.3597
#
#
#
# Elastic Compliance Matrix: (Units=1/GPa)
#
#
# Indices 1 2 3 4 5 6 
#
# 1 0.025312 -0.005534 -0.009297 0.000000 0.000000 0.000000
# 2 -0.005534 0.014143 -0.003535 0.000000 0.000000 0.000000
# 3 -0.009297 -0.003535 0.013986 0.000000 0.000000 0.000000
# 4 0.000000 0.000000 0.000000 0.038938 0.000000 0.000000
# 5 0.000000 0.000000 0.000000 0.000000 -0.058455 0.000000
# 6 0.000000 0.000000 0.000000 0.000000 0.000000 0.036550
#
#
# Mechanical properties :
#
#
# Convention : Reuss Voigt Hill
#
# Bulk Modulus (GPa) = 59.84628 65.79903 62.82266
# Shear Modulus (GPa) = 44.33491 16.60384 30.46938
#
# Velocity S-wave (km/s) = 4.80045 2.93774 3.97962
# Velocity P-wave (km/s) = 7.86337 6.76077 7.33283
#
# Compressibility (1/GPa) = 0.01670948
#
# Stress axis : x y z
#
# Youngs Moduli (GPa) = 39.50621 70.70417 71.49896
#
# Poissons Ratio (x) = 0.39128 0.66471
# Poissons Ratio (y) = 0.21863 0.25278
# Poissons Ratio (z) = 0.36728 0.24997
#
# Static dielectric constant tensor:
#      x y z
#    x 3.455940 0.000000 0.000000 
#    y 0.000000 3.601890 0.000000 
#    z 0.000000 0.000000 3.514360 
# 
# 
# High freq. dielectric constant tensor:
#      x y z
#    x 1.728190 0.000000 0.000000 
#    y 0.000000 1.760480 0.000000 
#    z 0.000000 0.000000 1.746920 
# 
# From -- ./inp_files/34073.got.cif
#   From: 2010.03.12/outbox.cif.g09.slc.cpg/sg47_18_cif.got.tgz:34073.got - 2010.04.14 03:12:58.
