data_PCOD8198517
_publ_section_title
;
Structure prediction by ZEFSAII (Michael W. Deem and Ramdas Pophale) SiO2 
 PCOD8198517
Probable space group: P M M M
;
_chemical_formula_sum "Si O2"
_cell_formula_units_Z 44
_cell_length_a 7.841154
_cell_length_b 30.516270
_cell_length_c 9.238628
_cell_angle_alpha 90.000000
_cell_angle_beta 90.000000
_cell_angle_gamma 90.000000
_cell_volume 2210.644523
_symmetry_space_group_name_H-M "P M M M"
_symmetry_group_IT_number 47
_symmetry_cell_setting 'orthorhombic'
loop_
_space_group_symop_operation_xyz
x,y,z
-x,-y,z
x,-y,-z
-x,y,-z
-x,-y,-z
x,y,-z
-x,y,z
x,-y,z
loop_
_atom_site_type_symbol
_atom_site_label
_atom_site_fract_x
_atom_site_fract_y
_atom_site_fract_z
Si Si1 0.201625 0.806879 0.167120
Si Si2 0.308233 0.891121 0.666912
Si Si3 0.000000 0.048806 0.328413
Si Si4 0.703093 0.359707 0.837169
Si Si5 0.690747 0.453668 0.171902
Si Si6 0.801335 0.723699 0.340002
O O1 0.295790 0.847361 0.240203
O O2 0.273906 0.762626 0.241221
O O3 0.000000 0.812316 0.187907
O O4 0.253347 0.804806 0.000000
O O5 0.268574 0.879427 0.500000
O O6 0.500000 0.910418 0.683542
O O7 0.170856 0.926384 0.725184
O O8 0.000000 0.045587 0.500000
O O9 0.000000 0.000000 0.260720
O O10 0.500000 0.361386 0.836637
O O11 0.776080 0.407284 0.780284
O O12 0.769492 0.323169 0.729894
O O13 0.769272 0.349577 0.000000
O O14 0.500000 0.455464 0.235189
O O15 0.783542 0.500000 0.219662
O O16 0.682506 0.451750 0.000000
O O17 0.717099 0.725111 0.500000
O O18 0.000000 0.731627 0.354376
#
# Coordination Sequence:
#
# PCOD8198517 Si02
#       6
#     8   8   4   8   8   8
#     4  10  20  35  56  78 101 134 176 221 270 321
#     4  10  20  34  56  85 115 149 187 227 273 322
#     4   9  18  34  57  85 119 155 189 231 274 313
#     4   9  17  29  47  72  99 125 158 205 257 307
#     4   7  10  19  38  64  91 118 151 195 248 302
#     4  10  21  35  51  71  98 135 174 210 252 306
#
# _framework density 19.903696
#
# number of rings (size 3 to 8) (size 9 to 14) (size 15 to 20)
#    0.000    2.818    0.909    2.727    0.000    3.636 
#    0.000    1.818    0.000    2.182    0.000    7.636 
#    0.000    0.000    0.000    0.000    0.000    0.000 
#
# Total GULP energy -545117.084096 kJ/mol
# GULP energy per Si atom -12389.024639 kJ/mol
# Density = 1.985839 g / cm^3
# Si number density = 19.903696 Si / 1000 Ang^3
#
#
#
# Elastic Constant Matrix: (Units=GPa)
#
#
# Indices 1 2 3 4 5 6 
#
# 1 58.5156 41.5709 25.7932 0.0000 0.0000 0.0000
# 2 41.5709 190.3464 63.6285 0.0000 0.0000 0.0000
# 3 25.7932 63.6285 94.8785 0.0000 0.0000 0.0000
# 4 0.0000 0.0000 0.0000 27.8913 0.0000 0.0000
# 5 0.0000 0.0000 0.0000 0.0000 16.4128 0.0000
# 6 0.0000 0.0000 0.0000 0.0000 0.0000 21.9198
#
#
#
# Elastic Compliance Matrix: (Units=1/GPa)
#
#
# Indices 1 2 3 4 5 6 
#
# 1 0.021047 -0.003459 -0.003402 0.000000 0.000000 0.000000
# 2 -0.003459 0.007340 -0.003982 0.000000 0.000000 0.000000
# 3 -0.003402 -0.003982 0.014135 0.000000 0.000000 0.000000
# 4 0.000000 0.000000 0.000000 0.035854 0.000000 0.000000
# 5 0.000000 0.000000 0.000000 0.000000 0.060928 0.000000
# 6 0.000000 0.000000 0.000000 0.000000 0.000000 0.045621
#
#
# Mechanical properties :
#
#
# Convention : Reuss Voigt Hill
#
# Bulk Modulus (GPa) = 47.99493 67.30283 57.64888
# Shear Modulus (GPa) = 23.41312 27.42799 25.42055
#
# Velocity S-wave (km/s) = 3.43347 3.71622 3.57764
# Velocity P-wave (km/s) = 6.31540 7.23197 6.78917
#
# Compressibility (1/GPa) = 0.02083553
#
# Stress axis : x y z
#
# Youngs Moduli (GPa) = 47.51383 136.23547 70.74596
#
# Poissons Ratio (x) = 0.47129 0.24065
# Poissons Ratio (y) = 0.16437 0.28172
# Poissons Ratio (z) = 0.16162 0.54251
#
# Static dielectric constant tensor:
#      x y z
#    x 3.376160 0.000000 0.000000 
#    y 0.000000 4.152670 0.000000 
#    z 0.000000 0.000000 3.474870 
# 
# 
# High freq. dielectric constant tensor:
#      x y z
#    x 1.750770 0.000000 0.000000 
#    y 0.000000 1.792290 0.000000 
#    z 0.000000 0.000000 1.737510 
# 
# From -- ./inp_files/1977.got.cif
#   From: 2010.03.12/outbox.cif.g09.slc.cpg/sg47_1_cif.got.tgz:1977.got - 2010.04.14 03:12:58.
