data_PCOD8198513
_publ_section_title
;
Structure prediction by ZEFSAII (Michael W. Deem and Ramdas Pophale) SiO2 
 PCOD8198513
Probable space group: P M M M
;
_chemical_formula_sum "Si O2"
_cell_formula_units_Z 52
_cell_length_a 9.171801
_cell_length_b 14.258897
_cell_length_c 20.180408
_cell_angle_alpha 90.000000
_cell_angle_beta 90.000000
_cell_angle_gamma 90.000000
_cell_volume 2639.189031
_symmetry_space_group_name_H-M "P M M M"
_symmetry_group_IT_number 47
_symmetry_cell_setting 'orthorhombic'
loop_
_space_group_symop_operation_xyz
x,y,z
-x,-y,z
x,-y,-z
-x,y,-z
-x,-y,-z
x,y,-z
-x,y,z
x,-y,z
loop_
_atom_site_type_symbol
_atom_site_label
_atom_site_fract_x
_atom_site_fract_y
_atom_site_fract_z
Si Si1 0.336202 0.610794 0.500000
Si Si2 0.829645 0.783214 0.923176
Si Si3 0.331176 0.893069 0.817504
Si Si4 0.663516 0.602761 0.921308
Si Si5 0.327674 0.104620 0.573299
Si Si6 0.672624 0.230991 0.692587
Si Si7 0.171159 0.391153 0.367771
O O1 0.348191 0.500000 0.500000
O O2 0.500000 0.655212 0.500000
O O3 0.249370 0.643373 0.564899
O O4 0.759169 0.868610 0.883205
O O5 0.768742 0.684311 0.894855
O O6 0.000000 0.783297 0.911341
O O7 0.788847 0.797118 0.000000
O O8 0.500000 0.879257 0.834413
O O9 0.282589 0.825473 0.758055
O O10 0.298072 0.000000 0.796812
O O11 0.500000 0.623265 0.895453
O O12 0.715706 0.500000 0.895487
O O13 0.665251 0.601852 0.000000
O O14 0.285850 0.143512 0.500000
O O15 0.500000 0.098277 0.581089
O O16 0.266239 0.172430 0.629873
O O17 0.262501 0.000000 0.582682
O O18 0.500000 0.248826 0.689212
O O19 0.757764 0.330365 0.691746
O O20 0.202766 0.500000 0.352740
O O21 0.000000 0.372028 0.374213
#
# Coordination Sequence:
#
# PCOD8198513 Si02
#       7
#     4   8   8   8   8   8   8
#     4   9  17  31  53  79 106 141 188 237 279 320
#     4  10  21  36  56  84 115 146 185 234 285 341
#     4  10  22  40  60  82 110 145 186 233 285 343
#     4   8  14  27  50  80 113 147 180 215 260 318
#     4   8  14  26  47  77 109 136 167 213 266 315
#     4  10  20  34  56  83 109 140 184 230 271 326
#     4  10  21  36  53  77 113 153 189 228 278 334
#
# _framework density 19.703021
#
# number of rings (size 3 to 8) (size 9 to 14) (size 15 to 20)
#    0.000    2.692    0.000    2.538    1.077    6.154 
#    0.000    3.846    0.000    2.308    0.000    1.077 
#    0.000    0.000    0.000    0.000    0.000    0.000 
#
# Total GULP energy -644691.919590 kJ/mol
# GULP energy per Si atom -12397.921531 kJ/mol
# Density = 1.965818 g / cm^3
# Si number density = 19.703021 Si / 1000 Ang^3
#
#
#
# Elastic Constant Matrix: (Units=GPa)
#
#
# Indices 1 2 3 4 5 6 
#
# 1 83.2661 55.9595 50.6155 0.0000 0.0000 0.0000
# 2 55.9595 108.6111 59.4235 0.0000 0.0000 0.0000
# 3 50.6155 59.4235 86.4782 0.0000 0.0000 0.0000
# 4 0.0000 0.0000 0.0000 33.8625 0.0000 0.0000
# 5 0.0000 0.0000 0.0000 0.0000 22.6033 0.0000
# 6 0.0000 0.0000 0.0000 0.0000 0.0000 18.0873
#
#
#
# Elastic Compliance Matrix: (Units=1/GPa)
#
#
# Indices 1 2 3 4 5 6 
#
# 1 0.021266 -0.006645 -0.007881 0.000000 0.000000 0.000000
# 2 -0.006645 0.016830 -0.007676 0.000000 0.000000 0.000000
# 3 -0.007881 -0.007676 0.021451 0.000000 0.000000 0.000000
# 4 0.000000 0.000000 0.000000 0.029531 0.000000 0.000000
# 5 0.000000 0.000000 0.000000 0.000000 0.044241 0.000000
# 6 0.000000 0.000000 0.000000 0.000000 0.000000 0.055287
#
#
# Mechanical properties :
#
#
# Convention : Reuss Voigt Hill
#
# Bulk Modulus (GPa) = 66.03308 67.81691 66.92499
# Shear Modulus (GPa) = 21.00325 22.40107 21.70216
#
# Velocity S-wave (km/s) = 3.26849 3.37551 3.32243
# Velocity P-wave (km/s) = 6.91600 7.04885 6.98274
#
# Compressibility (1/GPa) = 0.01514393
#
# Stress axis : x y z
#
# Youngs Moduli (GPa) = 47.02303 59.41616 46.61881
#
# Poissons Ratio (x) = 0.39483 0.36740
# Poissons Ratio (y) = 0.31248 0.35783
# Poissons Ratio (z) = 0.37058 0.45606
#
# Static dielectric constant tensor:
#      x y z
#    x 3.338290 0.000000 0.000000 
#    y 0.000000 3.831160 0.000000 
#    z 0.000000 0.000000 3.434260 
# 
# 
# High freq. dielectric constant tensor:
#      x y z
#    x 1.741580 0.000000 0.000000 
#    y 0.000000 1.778820 0.000000 
#    z 0.000000 0.000000 1.747370 
# 
# From -- ./inp_files/29579.got.cif
#   From: 2010.03.12/outbox.cif.g09.slc.cpg/sg47_15_cif.got.tgz:29579.got - 2010.04.14 03:12:58.
