data_PCOD8198930
_publ_section_title
;
Structure prediction by ZEFSAII (Michael W. Deem and Ramdas Pophale) SiO2 
 PCOD8198930
Probable space group: P M M M
;
_chemical_formula_sum "Si O2"
_cell_formula_units_Z 44
_cell_length_a 7.822482
_cell_length_b 19.984360
_cell_length_c 14.124123
_cell_angle_alpha 90.000000
_cell_angle_beta 90.000000
_cell_angle_gamma 90.000000
_cell_volume 2207.985962
_symmetry_space_group_name_H-M "P M M M"
_symmetry_group_IT_number 47
_symmetry_cell_setting 'orthorhombic'
loop_
_space_group_symop_operation_xyz
x,y,z
-x,-y,z
x,-y,-z
-x,y,-z
-x,-y,-z
x,y,-z
-x,y,z
x,-y,z
loop_
_atom_site_type_symbol
_atom_site_label
_atom_site_fract_x
_atom_site_fract_y
_atom_site_fract_z
Si Si1 0.699125 0.628971 0.283574
Si Si2 0.000000 0.923535 0.797317
Si Si3 0.198637 0.698626 0.894003
Si Si4 0.193331 0.500000 0.603653
Si Si5 0.306330 0.760321 0.609138
Si Si6 0.306630 0.156467 0.110577
Si Si7 0.000000 0.139913 0.608142
O O1 0.500000 0.620911 0.289822
O O2 0.757627 0.636215 0.174213
O O3 0.774295 0.564293 0.332542
O O4 0.762098 0.695285 0.336838
O O5 0.171961 0.889143 0.834885
O O6 0.000000 0.920700 0.682622
O O7 0.000000 0.000000 0.830495
O O8 0.292793 0.765934 0.857224
O O9 0.000000 0.714991 0.893270
O O10 0.260320 0.679518 0.000000
O O11 0.291370 0.500000 0.500000
O O12 0.000000 0.500000 0.575330
O O13 0.305358 0.740496 0.500000
O O14 0.500000 0.781618 0.640357
O O15 0.172588 0.818942 0.629633
O O16 0.500000 0.131709 0.132046
O O17 0.262805 0.151581 0.000000
O O18 0.000000 0.113197 0.500000
#
# Coordination Sequence:
#
# PCOD8198930 Si02
#       7
#     8   4   8   4   8   8   4
#     4  11  22  36  57  84 116 153 192 236 289 348
#     4  12  25  39  58  85 120 160 200 240 287 352
#     4  10  20  36  60  89 119 150 189 238 288 340
#     4  11  25  41  58  81 114 157 199 240 292 355
#     4   9  19  35  57  86 114 142 186 245 301 349
#     4  10  21  39  63  91 122 154 192 241 297 355
#     4  10  22  38  59  83 112 152 195 245 298 346
#
# _framework density 19.927662000000002
#
# number of rings (size 3 to 8) (size 9 to 14) (size 15 to 20)
#    0.000    1.727    0.909    3.273    2.545    6.000 
#    0.000    1.364    0.000    2.727    0.000    3.818 
#    0.000    0.000    0.000    0.000    0.000    0.000 
#
# Total GULP energy -545517.280004 kJ/mol
# GULP energy per Si atom -12398.120000 kJ/mol
# Density = 1.988231 g / cm^3
# Si number density = 19.927662 Si / 1000 Ang^3
#
#
#
# Elastic Constant Matrix: (Units=GPa)
#
#
# Indices 1 2 3 4 5 6 
#
# 1 68.2970 27.7354 28.6000 0.0000 0.0000 0.0000
# 2 27.7354 84.9144 72.3278 0.0000 0.0000 0.0000
# 3 28.6000 72.3278 109.4145 0.0000 0.0000 0.0000
# 4 0.0000 0.0000 0.0000 24.1919 0.0000 0.0000
# 5 0.0000 0.0000 0.0000 0.0000 22.0322 0.0000
# 6 0.0000 0.0000 0.0000 0.0000 0.0000 10.3990
#
#
#
# Elastic Compliance Matrix: (Units=1/GPa)
#
#
# Indices 1 2 3 4 5 6 
#
# 1 0.017030 -0.004053 -0.001772 0.000000 0.000000 0.000000
# 2 -0.004053 0.027917 -0.017395 0.000000 0.000000 0.000000
# 3 -0.001772 -0.017395 0.021102 0.000000 0.000000 0.000000
# 4 0.000000 0.000000 0.000000 0.041336 0.000000 0.000000
# 5 0.000000 0.000000 0.000000 0.000000 0.045388 0.000000
# 6 0.000000 0.000000 0.000000 0.000000 0.000000 0.096163
#
#
# Mechanical properties :
#
#
# Convention : Reuss Voigt Hill
#
# Bulk Modulus (GPa) = 50.99888 57.77248 54.38568
# Shear Modulus (GPa) = 16.56113 20.25547 18.40830
#
# Velocity S-wave (km/s) = 2.88594 3.19164 3.04263
# Velocity P-wave (km/s) = 6.06238 6.52963 6.30034
#
# Compressibility (1/GPa) = 0.01960828
#
# Stress axis : x y z
#
# Youngs Moduli (GPa) = 58.72000 35.82085 47.38980
#
# Poissons Ratio (x) = 0.14517 0.08400
# Poissons Ratio (y) = 0.23798 0.82434
# Poissons Ratio (z) = 0.10408 0.62310
#
# Static dielectric constant tensor:
#      x y z
#    x 3.773310 0.000000 0.000000 
#    y 0.000000 3.303370 0.000000 
#    z 0.000000 0.000000 3.290060 
# 
# 
# High freq. dielectric constant tensor:
#      x y z
#    x 1.791890 0.000000 0.000000 
#    y 0.000000 1.737120 0.000000 
#    z 0.000000 0.000000 1.797050 
# 
# From -- ./inp_files/20967.got.cif
#   From: 2010.03.12/outbox.cif.g09.slc.cpg/sg47_11_cif.got.tgz:20967.got - 2010.04.14 03:12:58.
