data_PCOD8198502
_publ_section_title
;
Structure prediction by ZEFSAII (Michael W. Deem and Ramdas Pophale) SiO2 
 PCOD8198502
Probable space group: P M M M
;
_chemical_formula_sum "Si O2"
_cell_formula_units_Z 48
_cell_length_a 8.327665
_cell_length_b 29.026384
_cell_length_c 9.626624
_cell_angle_alpha 90.000000
_cell_angle_beta 90.000000
_cell_angle_gamma 90.000000
_cell_volume 2326.966827
_symmetry_space_group_name_H-M "P M M M"
_symmetry_group_IT_number 47
_symmetry_cell_setting 'orthorhombic'
loop_
_space_group_symop_operation_xyz
x,y,z
-x,-y,z
x,-y,-z
-x,y,-z
-x,-y,-z
x,y,-z
-x,y,z
x,-y,z
loop_
_atom_site_type_symbol
_atom_site_label
_atom_site_fract_x
_atom_site_fract_y
_atom_site_fract_z
Si Si1 0.685994 0.205424 0.340567
Si Si2 0.311411 0.632683 0.656122
Si Si3 0.680404 0.053950 0.500000
Si Si4 0.809027 0.947953 0.000000
Si Si5 0.186129 0.108416 0.740008
Si Si6 0.308878 0.551357 0.155658
Si Si7 0.813589 0.285380 0.160019
O O1 0.745728 0.212329 0.500000
O O2 0.500000 0.218822 0.329325
O O3 0.709619 0.153099 0.294259
O O4 0.786110 0.236507 0.233885
O O5 0.237126 0.637390 0.500000
O O6 0.500000 0.626604 0.641830
O O7 0.237258 0.587856 0.733903
O O8 0.278978 0.676989 0.749740
O O9 0.500000 0.075659 0.500000
O O10 0.787423 0.069708 0.372996
O O11 0.666093 0.000000 0.500000
O O12 0.746190 0.917158 0.874273
O O13 0.000000 0.952148 0.000000
O O14 0.735652 0.000000 0.000000
O O15 0.000000 0.122734 0.751846
O O16 0.500000 0.553322 0.156493
O O17 0.250408 0.500000 0.197202
O O18 0.247432 0.563649 0.000000
O O19 0.000000 0.297479 0.161427
O O20 0.750410 0.284209 0.000000
#
# Coordination Sequence:
#
# PCOD8198502 Si02
#       7
#     8   8   4   4   8   8   8
#     4  11  24  42  63  88 119 150 185 233 292 352
#     4  10  20  34  55  85 119 154 194 241 295 350
#     4  11  23  39  59  87 123 159 199 245 288 337
#     4   9  20  38  59  87 121 153 191 239 284 333
#     4  11  22  38  63  90 118 155 196 239 290 346
#     4   8  14  26  47  77 114 156 199 242 289 344
#     4  11  25  42  61  85 113 148 194 242 289 346
#
# _framework density 20.627711999999999
#
# number of rings (size 3 to 8) (size 9 to 14) (size 15 to 20)
#    0.000    1.833    0.833    3.750    1.167    7.000 
#    0.000    2.917    0.000    3.500    0.000    3.500 
#    0.000    0.000    0.000    0.000    0.000    0.000 
#
# Total GULP energy -595065.330030 kJ/mol
# GULP energy per Si atom -12397.194376 kJ/mol
# Density = 2.058076 g / cm^3
# Si number density = 20.627712 Si / 1000 Ang^3
#
#
#
# Elastic Constant Matrix: (Units=GPa)
#
#
# Indices 1 2 3 4 5 6 
#
# 1 25.0943 6.6010 13.3026 0.0000 0.0000 0.0000
# 2 6.6010 120.3855 77.4270 0.0000 0.0000 0.0000
# 3 13.3026 77.4270 193.2490 0.0000 0.0000 0.0000
# 4 0.0000 0.0000 0.0000 41.1295 0.0000 0.0000
# 5 0.0000 0.0000 0.0000 0.0000 20.3267 0.0000
# 6 0.0000 0.0000 0.0000 0.0000 0.0000 2.8833
#
#
#
# Elastic Compliance Matrix: (Units=1/GPa)
#
#
# Indices 1 2 3 4 5 6 
#
# 1 0.041390 -0.000589 -0.002613 0.000000 0.000000 0.000000
# 2 -0.000589 0.011199 -0.004446 0.000000 0.000000 0.000000
# 3 -0.002613 -0.004446 0.007136 0.000000 0.000000 0.000000
# 4 0.000000 0.000000 0.000000 0.024313 0.000000 0.000000
# 5 0.000000 0.000000 0.000000 0.000000 0.049196 0.000000
# 6 0.000000 0.000000 0.000000 0.000000 0.000000 0.346819
#
#
# Mechanical properties :
#
#
# Convention : Reuss Voigt Hill
#
# Bulk Modulus (GPa) = 22.50842 59.26556 40.88699
# Shear Modulus (GPa) = 9.80086 28.96114 19.38100
#
# Velocity S-wave (km/s) = 2.18211 3.75105 3.06855
# Velocity P-wave (km/s) = 4.15743 6.89594 5.69378
#
# Compressibility (1/GPa) = 0.04442781
#
# Stress axis : x y z
#
# Youngs Moduli (GPa) = 24.16054 89.29685 140.13435
#
# Poissons Ratio (x) = 0.05257 0.36620
# Poissons Ratio (y) = 0.01422 0.62308
# Poissons Ratio (z) = 0.06314 0.39704
#
# Static dielectric constant tensor:
#      x y z
#    x 3.414810 0.000000 0.000000 
#    y 0.000000 3.845720 0.000000 
#    z 0.000000 0.000000 4.144100 
# 
# 
# High freq. dielectric constant tensor:
#      x y z
#    x 1.775460 0.000000 0.000000 
#    y 0.000000 1.818000 0.000000 
#    z 0.000000 0.000000 1.821310 
# 
# From -- ./inp_files/2557.got.cif
#   From: 2010.03.12/outbox.cif.g09.slc.cpg/sg47_2_cif.got.tgz:2557.got - 2010.04.14 03:12:58.
