data_PCOD8198175
_publ_section_title
;
Structure prediction by ZEFSAII (Michael W. Deem and Ramdas Pophale) SiO2 
 PCOD8198175
Probable space group: P M M M
;
_chemical_formula_sum "Si O2"
_cell_formula_units_Z 48
_cell_length_a 18.529143
_cell_length_b 8.876085
_cell_length_c 16.202253
_cell_angle_alpha 90.000000
_cell_angle_beta 90.000000
_cell_angle_gamma 90.000000
_cell_volume 2664.723764
_symmetry_space_group_name_H-M "P M M M"
_symmetry_group_IT_number 47
_symmetry_cell_setting 'orthorhombic'
loop_
_space_group_symop_operation_xyz
x,y,z
-x,-y,z
x,-y,-z
-x,y,-z
-x,-y,-z
x,y,-z
-x,y,z
x,-y,z
loop_
_atom_site_type_symbol
_atom_site_label
_atom_site_fract_x
_atom_site_fract_y
_atom_site_fract_z
Si Si1 0.711639 0.678659 0.253236
Si Si2 0.080326 0.176426 0.826129
Si Si3 0.841575 0.822183 0.341633
Si Si4 0.416747 0.822650 0.667112
Si Si5 0.791795 0.676084 0.091214
Si Si6 0.915875 0.678749 0.500000
Si Si7 0.585377 0.668539 0.500000
O O1 0.711954 0.500000 0.264254
O O2 0.763060 0.752268 0.322589
O O3 0.630975 0.743520 0.262585
O O4 0.735799 0.729809 0.161341
O O5 0.106533 0.217285 0.734486
O O6 0.130508 0.249695 0.895220
O O7 0.000000 0.241496 0.836932
O O8 0.082103 0.000000 0.840562
O O9 0.876338 0.745784 0.420817
O O10 0.833436 0.000000 0.356313
O O11 0.500000 0.780144 0.683541
O O12 0.388441 0.758916 0.579943
O O13 0.404891 0.000000 0.667967
O O14 0.803791 0.500000 0.098592
O O15 0.762821 0.721171 0.000000
O O16 0.907590 0.500000 0.500000
O O17 0.000000 0.726970 0.500000
O O18 0.618728 0.500000 0.500000
O O19 0.500000 0.659391 0.500000
#
# Coordination Sequence:
#
# PCOD8198175 Si02
#       7
#     8   8   8   8   8   4   4
#     4  10  20  35  55  77 102 132 168 210 255 304
#     4   9  18  32  50  73 100 129 163 205 251 299
#     4  10  20  35  53  72  98 134 175 214 255 303
#     4  10  20  34  53  78 108 139 171 208 251 299
#     4   9  19  35  53  74 100 130 164 203 250 303
#     4  11  23  36  51  74 104 137 177 223 263 298
#     4   9  17  30  49  74 103 133 165 199 236 280
#
# _framework density 18.013124999999999
#
# number of rings (size 3 to 8) (size 9 to 14) (size 15 to 20)
#    0.000    2.333    0.000    2.500    0.000    6.333 
#    0.000    5.000    0.000    0.500    0.000    3.500 
#    0.000    0.000    0.000    0.000    0.000    0.000 
#
# Total GULP energy -595214.512495 kJ/mol
# GULP energy per Si atom -12400.302344 kJ/mol
# Density = 1.797213 g / cm^3
# Si number density = 18.013125 Si / 1000 Ang^3
#
#
#
# Elastic Constant Matrix: (Units=GPa)
#
#
# Indices 1 2 3 4 5 6 
#
# 1 114.0835 45.8129 63.5047 0.0000 0.0000 0.0000
# 2 45.8129 72.7768 46.1683 0.0000 0.0000 0.0000
# 3 63.5047 46.1683 115.0386 0.0000 0.0000 0.0000
# 4 0.0000 0.0000 0.0000 25.0302 0.0000 0.0000
# 5 0.0000 0.0000 0.0000 0.0000 17.9221 0.0000
# 6 0.0000 0.0000 0.0000 0.0000 0.0000 30.5047
#
#
#
# Elastic Compliance Matrix: (Units=1/GPa)
#
#
# Indices 1 2 3 4 5 6 
#
# 1 0.014003 -0.005247 -0.005625 0.000000 0.000000 0.000000
# 2 -0.005247 0.020400 -0.005291 0.000000 0.000000 0.000000
# 3 -0.005625 -0.005291 0.013921 0.000000 0.000000 0.000000
# 4 0.000000 0.000000 0.000000 0.039952 0.000000 0.000000
# 5 0.000000 0.000000 0.000000 0.000000 0.055797 0.000000
# 6 0.000000 0.000000 0.000000 0.000000 0.000000 0.032782
#
#
# Mechanical properties :
#
#
# Convention : Reuss Voigt Hill
#
# Bulk Modulus (GPa) = 62.50003 68.09674 65.29838
# Shear Modulus (GPa) = 23.30867 24.45227 23.88047
#
# Velocity S-wave (km/s) = 3.60110 3.68838 3.64500
# Velocity P-wave (km/s) = 7.21546 7.48498 7.35145
#
# Compressibility (1/GPa) = 0.01599999
#
# Stress axis : x y z
#
# Youngs Moduli (GPa) = 71.41073 49.01991 71.83448
#
# Poissons Ratio (x) = 0.25721 0.40404
# Poissons Ratio (y) = 0.37470 0.38004
# Poissons Ratio (z) = 0.40165 0.25934
#
# Static dielectric constant tensor:
#      x y z
#    x 3.449420 0.000000 0.000000 
#    y 0.000000 3.386620 0.000000 
#    z 0.000000 0.000000 3.451550 
# 
# 
# High freq. dielectric constant tensor:
#      x y z
#    x 1.689200 0.000000 0.000000 
#    y 0.000000 1.706950 0.000000 
#    z 0.000000 0.000000 1.690840 
# 
# From -- ./inp_files/9250.got.cif
#   From: 2010.03.12/outbox.cif.g09.slc.cpg/sg47_5_cif.got.tgz:9250.got - 2010.04.14 03:12:58.
