data_PCOD8198871
_publ_section_title
;
Structure prediction by ZEFSAII (Michael W. Deem and Ramdas Pophale) SiO2 
 PCOD8198871
Probable space group: P M M M
;
_chemical_formula_sum "Si O2"
_cell_formula_units_Z 48
_cell_length_a 15.771039
_cell_length_b 16.829648
_cell_length_c 8.941679
_cell_angle_alpha 90.000000
_cell_angle_beta 90.000000
_cell_angle_gamma 90.000000
_cell_volume 2373.309694
_symmetry_space_group_name_H-M "P M M M"
_symmetry_group_IT_number 47
_symmetry_cell_setting 'orthorhombic'
loop_
_space_group_symop_operation_xyz
x,y,z
-x,-y,z
x,-y,-z
-x,y,-z
-x,-y,-z
x,y,-z
-x,y,z
x,-y,z
loop_
_atom_site_type_symbol
_atom_site_label
_atom_site_fract_x
_atom_site_fract_y
_atom_site_fract_z
Si Si1 0.903625 0.340229 0.670570
Si Si2 0.162287 0.811612 0.822334
Si Si3 0.500000 0.090170 0.677685
Si Si4 0.596699 0.652024 0.331564
Si Si5 0.000000 0.089376 0.177576
Si Si6 0.333643 0.180251 0.323920
Si Si7 0.853872 0.500000 0.821832
Si Si8 0.662023 0.500000 0.824913
O O1 0.871809 0.350191 0.500000
O O2 0.845526 0.276208 0.753709
O O3 0.899535 0.423219 0.756252
O O4 0.000000 0.309889 0.675168
O O5 0.249825 0.849803 0.762497
O O6 0.084460 0.866008 0.765531
O O7 0.164168 0.805029 0.000000
O O8 0.500000 0.096310 0.500000
O O9 0.585182 0.132190 0.738622
O O10 0.500000 0.000000 0.734840
O O11 0.616579 0.624436 0.500000
O O12 0.500000 0.680360 0.316354
O O13 0.654400 0.726684 0.286957
O O14 0.613299 0.578239 0.225489
O O15 0.000000 0.000000 0.242814
O O16 0.000000 0.087544 0.000000
O O17 0.321853 0.165528 0.500000
O O18 0.757410 0.500000 0.763763
O O19 0.862259 0.500000 0.000000
O O20 0.662636 0.500000 0.000000
#
# Coordination Sequence:
#
# PCOD8198871 Si02
#       8
#     8   8   4   8   4   8   4   4
#     4  11  23  39  60  86 118 155 200 252 303 353
#     4  11  22  38  62  90 120 159 204 247 300 364
#     4   9  18  36  63  92 123 158 196 243 303 367
#     4  10  20  36  57  79 107 150 198 237 280 343
#     4   9  20  40  63  86 117 158 199 241 296 367
#     4  10  20  37  61  89 121 157 199 246 296 356
#     4  11  24  39  56  82 120 159 202 246 293 357
#     4  11  24  37  50  78 114 147 188 242 293 337
#
# _framework density 20.224920999999998
#
# number of rings (size 3 to 8) (size 9 to 14) (size 15 to 20)
#    0.000    1.667    1.667    3.000    0.000    8.667 
#    0.000    0.417    0.000    4.000    0.000    0.000 
#    0.000    0.000    0.000    0.000    0.000    0.000 
#
# Total GULP energy -595369.516712 kJ/mol
# GULP energy per Si atom -12403.531598 kJ/mol
# Density = 2.017889 g / cm^3
# Si number density = 20.224921 Si / 1000 Ang^3
#
#
#
# Elastic Constant Matrix: (Units=GPa)
#
#
# Indices 1 2 3 4 5 6 
#
# 1 147.8952 55.1103 41.2033 0.0000 0.0000 0.0000
# 2 55.1103 115.3102 34.1179 0.0000 0.0000 0.0000
# 3 41.2033 34.1179 69.4911 0.0000 0.0000 0.0000
# 4 0.0000 0.0000 0.0000 14.1438 0.0000 0.0000
# 5 0.0000 0.0000 0.0000 0.0000 32.6920 0.0000
# 6 0.0000 0.0000 0.0000 0.0000 0.0000 21.7930
#
#
#
# Elastic Compliance Matrix: (Units=1/GPa)
#
#
# Indices 1 2 3 4 5 6 
#
# 1 0.008999 -0.003185 -0.003772 0.000000 0.000000 0.000000
# 2 -0.003185 0.011273 -0.003646 0.000000 0.000000 0.000000
# 3 -0.003772 -0.003646 0.018417 0.000000 0.000000 0.000000
# 4 0.000000 0.000000 0.000000 0.070702 0.000000 0.000000
# 5 0.000000 0.000000 0.000000 0.000000 0.030589 0.000000
# 6 0.000000 0.000000 0.000000 0.000000 0.000000 0.045886
#
#
# Mechanical properties :
#
#
# Convention : Reuss Voigt Hill
#
# Bulk Modulus (GPa) = 57.19927 65.95105 61.57516
# Shear Modulus (GPa) = 23.48501 27.21010 25.34755
#
# Velocity S-wave (km/s) = 3.41132 3.67191 3.54401
# Velocity P-wave (km/s) = 6.62262 7.11736 6.87445
#
# Compressibility (1/GPa) = 0.01748274
#
# Stress axis : x y z
#
# Youngs Moduli (GPa) = 111.12000 88.70496 54.29686
#
# Poissons Ratio (x) = 0.28252 0.20482
# Poissons Ratio (y) = 0.35391 0.19799
# Poissons Ratio (z) = 0.41917 0.32346
#
# Static dielectric constant tensor:
#      x y z
#    x 3.908260 0.000000 0.000000 
#    y 0.000000 3.601980 0.000000 
#    z 0.000000 0.000000 3.429260 
# 
# 
# High freq. dielectric constant tensor:
#      x y z
#    x 1.807400 0.000000 0.000000 
#    y 0.000000 1.785890 0.000000 
#    z 0.000000 0.000000 1.769050 
# 
# From -- ./inp_files/6603.got.cif
#   From: 2010.03.12/outbox.cif.g09.slc.cpg/sg47_4_cif.got.tgz:6603.got - 2010.04.14 03:12:58.
