data_PCOD8198184
_publ_section_title
;
Structure prediction by ZEFSAII (Michael W. Deem and Ramdas Pophale) SiO2 
 PCOD8198184
Probable space group: P M M M
;
_chemical_formula_sum "Si O2"
_cell_formula_units_Z 56
_cell_length_a 15.225931
_cell_length_b 9.096803
_cell_length_c 20.400743
_cell_angle_alpha 90.000000
_cell_angle_beta 90.000000
_cell_angle_gamma 90.000000
_cell_volume 2825.651725
_symmetry_space_group_name_H-M "P M M M"
_symmetry_group_IT_number 47
_symmetry_cell_setting 'orthorhombic'
loop_
_space_group_symop_operation_xyz
x,y,z
-x,-y,z
x,-y,-z
-x,y,-z
-x,-y,-z
x,y,-z
-x,y,z
x,-y,z
loop_
_atom_site_type_symbol
_atom_site_label
_atom_site_fract_x
_atom_site_fract_y
_atom_site_fract_z
Si Si1 0.599474 0.670435 0.868361
Si Si2 0.900381 0.673459 0.186507
Si Si3 0.600211 0.160251 0.256606
Si Si4 0.000000 0.825538 0.576423
Si Si5 0.601465 0.174270 0.500000
Si Si6 0.777662 0.327164 0.928600
Si Si7 0.864755 0.331796 0.332775
Si Si8 0.334603 0.667708 0.374425
O O1 0.500000 0.718271 0.890247
O O2 0.598395 0.500000 0.849274
O O3 0.639011 0.755099 0.805668
O O4 0.672664 0.704328 0.923198
O O5 0.886238 0.500000 0.189158
O O6 0.835827 0.742535 0.130690
O O7 0.879200 0.734411 0.259598
O O8 0.000000 0.715509 0.167507
O O9 0.500000 0.132721 0.240134
O O10 0.603939 0.261335 0.320081
O O11 0.646349 0.000000 0.266607
O O12 0.914694 0.762762 0.612797
O O13 0.000000 0.776420 0.500000
O O14 0.000000 0.000000 0.582091
O O15 0.500000 0.225089 0.500000
O O16 0.653428 0.237831 0.438958
O O17 0.608666 0.000000 0.500000
O O18 0.794812 0.500000 0.927538
O O19 0.806689 0.263720 0.000000
O O20 0.898713 0.500000 0.336110
O O21 0.763568 0.320848 0.349262
O O22 0.363082 0.500000 0.387327
#
# Coordination Sequence:
#
# PCOD8198184 Si02
#       8
#     8   8   8   4   4   8   8   8
#     4   9  17  30  49  73 104 142 182 228 282 337
#     4   9  16  29  51  76 106 144 183 225 276 334
#     4  10  20  34  53  78 108 143 183 229 283 338
#     4  11  25  41  59  87 118 145 178 228 287 341
#     4  11  25  43  59  78 113 158 195 231 280 335
#     4   9  17  28  45  75 112 144 181 232 285 339
#     4  10  21  39  61  84 112 149 189 229 280 340
#     4  11  23  37  58  85 110 142 187 236 284 335
#
# _framework density 19.818438
#
# number of rings (size 3 to 8) (size 9 to 14) (size 15 to 20)
#    0.000    2.143    0.714    2.571    1.000    7.714 
#    0.000    2.857    0.000    0.429    0.000    2.000 
#    0.000    0.571    0.000    0.000    0.000    0.000 
#
# Total GULP energy -694065.928418 kJ/mol
# GULP energy per Si atom -12394.034436 kJ/mol
# Density = 1.977333 g / cm^3
# Si number density = 19.818438 Si / 1000 Ang^3
#
#
#
# Elastic Constant Matrix: (Units=GPa)
#
#
# Indices 1 2 3 4 5 6 
#
# 1 84.3869 23.2318 54.4965 0.0000 0.0000 0.0000
# 2 23.2318 60.2865 34.5646 0.0000 0.0000 0.0000
# 3 54.4965 34.5646 165.7194 0.0000 0.0000 0.0000
# 4 0.0000 0.0000 0.0000 44.8679 0.0000 0.0000
# 5 0.0000 0.0000 0.0000 0.0000 30.5863 0.0000
# 6 0.0000 0.0000 0.0000 0.0000 0.0000 16.0813
#
#
#
# Elastic Compliance Matrix: (Units=1/GPa)
#
#
# Indices 1 2 3 4 5 6 
#
# 1 0.015671 -0.003503 -0.004423 0.000000 0.000000 0.000000
# 2 -0.003503 0.019624 -0.002941 0.000000 0.000000 0.000000
# 3 -0.004423 -0.002941 0.008102 0.000000 0.000000 0.000000
# 4 0.000000 0.000000 0.000000 0.022288 0.000000 0.000000
# 5 0.000000 0.000000 0.000000 0.000000 0.032694 0.000000
# 6 0.000000 0.000000 0.000000 0.000000 0.000000 0.062184
#
#
# Mechanical properties :
#
#
# Convention : Reuss Voigt Hill
#
# Bulk Modulus (GPa) = 46.16181 59.44205 52.80193
# Shear Modulus (GPa) = 26.38288 31.51377 28.94832
#
# Velocity S-wave (km/s) = 3.65256 3.99196 3.82603
# Velocity P-wave (km/s) = 6.41336 7.16283 6.79843
#
# Compressibility (1/GPa) = 0.02166293
#
# Stress axis : x y z
#
# Youngs Moduli (GPa) = 63.81334 50.95906 123.42528
#
# Poissons Ratio (x) = 0.17852 0.54586
# Poissons Ratio (y) = 0.22355 0.36299
# Poissons Ratio (z) = 0.28222 0.14987
#
# Static dielectric constant tensor:
#      x y z
#    x 3.597070 0.000000 0.000000 
#    y 0.000000 3.583850 0.000000 
#    z 0.000000 0.000000 3.443490 
# 
# 
# High freq. dielectric constant tensor:
#      x y z
#    x 1.775730 0.000000 0.000000 
#    y 0.000000 1.737440 0.000000 
#    z 0.000000 0.000000 1.779530 
# 
# From -- ./inp_files/30997.got.cif
#   From: 2010.03.12/outbox.cif.g09.slc.cpg/sg47_16_cif.got.tgz:30997.got - 2010.04.14 03:12:58.
