data_PCOD8198971
_publ_section_title
;
Structure prediction by ZEFSAII (Michael W. Deem and Ramdas Pophale) SiO2 
 PCOD8198971
Probable space group: P M M M
;
_chemical_formula_sum "Si O2"
_cell_formula_units_Z 48
_cell_length_a 8.956611
_cell_length_b 17.741935
_cell_length_c 15.382113
_cell_angle_alpha 90.000000
_cell_angle_beta 90.000000
_cell_angle_gamma 90.000000
_cell_volume 2444.334816
_symmetry_space_group_name_H-M "P M M M"
_symmetry_group_IT_number 47
_symmetry_cell_setting 'orthorhombic'
loop_
_space_group_symop_operation_xyz
x,y,z
-x,-y,z
x,-y,-z
-x,y,-z
-x,-y,-z
x,y,-z
-x,y,z
x,-y,z
loop_
_atom_site_type_symbol
_atom_site_label
_atom_site_fract_x
_atom_site_fract_y
_atom_site_fract_z
Si Si1 0.174745 0.914186 0.226035
Si Si2 0.826967 0.651617 0.161540
Si Si3 0.328449 0.202830 0.901407
Si Si4 0.675715 0.415023 0.500000
Si Si5 0.171849 0.315720 0.362154
Si Si6 0.675302 0.500000 0.101373
Si Si7 0.822887 0.149207 0.594893
O O1 0.260178 0.860204 0.160702
O O2 0.233310 0.902618 0.325304
O O3 0.000000 0.893966 0.220203
O O4 0.206287 0.000000 0.198837
O O5 0.756002 0.717693 0.104210
O O6 0.803751 0.673958 0.260753
O O7 0.745632 0.573316 0.144689
O O8 0.000000 0.643301 0.136727
O O9 0.500000 0.215715 0.875277
O O10 0.313571 0.173364 0.000000
O O11 0.733925 0.500000 0.500000
O O12 0.500000 0.409917 0.500000
O O13 0.734645 0.377637 0.587583
O O14 0.233425 0.233972 0.388933
O O15 0.000000 0.324631 0.388990
O O16 0.500000 0.500000 0.119566
O O17 0.712737 0.500000 0.000000
O O18 0.762466 0.121187 0.500000
O O19 0.000000 0.147494 0.593611
#
# Coordination Sequence:
#
# PCOD8198971 Si02
#       7
#     8   8   8   4   8   4   8
#     4  10  21  38  61  91 124 157 200 253 303 358
#     4  11  23  40  64  92 120 154 202 254 302 356
#     4  11  24  41  62  88 120 161 205 250 307 371
#     4  11  25  39  53  83 122 157 198 246 296 352
#     4  10  20  37  60  84 112 152 198 245 295 350
#     4  11  25  43  61  86 123 160 195 241 300 365
#     4   9  16  32  59  88 117 150 190 238 292 350
#
# _framework density 19.637245
#
# number of rings (size 3 to 8) (size 9 to 14) (size 15 to 20)
#    0.000    1.667    2.500    2.000    1.167    7.000 
#    0.000    3.333    0.000    0.000    0.000    1.167 
#    0.000    0.000    0.000    0.000    0.000    0.000 
#
# Total GULP energy -595254.601871 kJ/mol
# GULP energy per Si atom -12401.137539 kJ/mol
# Density = 1.959255 g / cm^3
# Si number density = 19.637245 Si / 1000 Ang^3
#
#
#
# Elastic Constant Matrix: (Units=GPa)
#
#
# Indices 1 2 3 4 5 6 
#
# 1 67.6754 34.1498 36.8506 0.0000 0.0000 0.0000
# 2 34.1498 96.6274 40.4390 0.0000 0.0000 0.0000
# 3 36.8506 40.4390 106.3135 0.0000 0.0000 0.0000
# 4 0.0000 0.0000 0.0000 27.2344 0.0000 0.0000
# 5 0.0000 0.0000 0.0000 0.0000 -9.8071 0.0000
# 6 0.0000 0.0000 0.0000 0.0000 0.0000 113.9940
#
#
#
# Elastic Compliance Matrix: (Units=1/GPa)
#
#
# Indices 1 2 3 4 5 6 
#
# 1 0.020035 -0.004965 -0.005056 0.000000 0.000000 0.000000
# 2 -0.004965 0.013539 -0.003429 0.000000 0.000000 0.000000
# 3 -0.005056 -0.003429 0.012463 0.000000 0.000000 0.000000
# 4 0.000000 0.000000 0.000000 0.036718 0.000000 0.000000
# 5 0.000000 0.000000 0.000000 0.000000 -0.101967 0.000000
# 6 0.000000 0.000000 0.000000 0.000000 0.000000 0.008772
#
#
# Mechanical properties :
#
#
# Convention : Reuss Voigt Hill
#
# Bulk Modulus (GPa) = 52.25444 54.83278 53.54361
# Shear Modulus (GPa) = 218.92716 36.89605 127.91160
#
# Velocity S-wave (km/s) = 10.57013 4.33931 8.07952
# Velocity P-wave (km/s) = 13.25285 7.28626 10.69410
#
# Compressibility (1/GPa) = 0.01913713
#
# Stress axis : x y z
#
# Youngs Moduli (GPa) = 49.91323 73.86270 80.23779
#
# Poissons Ratio (x) = 0.36670 0.40569
# Poissons Ratio (y) = 0.24780 0.27513
# Poissons Ratio (z) = 0.25236 0.25327
#
# Static dielectric constant tensor:
#      x y z
#    x 3.457640 0.000000 0.000000 
#    y 0.000000 3.757900 0.000000 
#    z 0.000000 0.000000 3.802620 
# 
# 
# High freq. dielectric constant tensor:
#      x y z
#    x 1.746750 0.000000 0.000000 
#    y 0.000000 1.769350 0.000000 
#    z 0.000000 0.000000 1.782780 
# 
# From -- ./inp_files/21083.got.cif
#   From: 2010.03.12/outbox.cif.g09.slc.cpg/sg47_11_cif.got.tgz:21083.got - 2010.04.14 03:12:58.
