data_PCOD8198042
_publ_section_title
;
Structure prediction by ZEFSAII (Michael W. Deem and Ramdas Pophale) SiO2 
 PCOD8198042
Probable space group: P M M M
;
_chemical_formula_sum "Si O2"
_cell_formula_units_Z 40
_cell_length_a 27.217130
_cell_length_b 8.999636
_cell_length_c 9.292034
_cell_angle_alpha 90.000000
_cell_angle_beta 90.000000
_cell_angle_gamma 90.000000
_cell_volume 2276.030420
_symmetry_space_group_name_H-M "P M M M"
_symmetry_group_IT_number 47
_symmetry_cell_setting 'orthorhombic'
loop_
_space_group_symop_operation_xyz
x,y,z
-x,-y,z
x,-y,-z
-x,y,-z
-x,-y,-z
x,y,-z
-x,y,z
x,-y,z
loop_
_atom_site_type_symbol
_atom_site_label
_atom_site_fract_x
_atom_site_fract_y
_atom_site_fract_z
Si Si1 0.000000 0.672915 0.830690
Si Si2 0.367230 0.835007 0.341571
Si Si3 0.275284 0.172880 0.831367
Si Si4 0.555524 0.674910 0.500000
Si Si5 0.912440 0.174055 0.333602
Si Si6 0.188941 0.327311 0.665649
O O1 0.951955 0.746767 0.765103
O O2 0.000000 0.500000 0.791642
O O3 0.000000 0.701001 0.000000
O O4 0.341844 0.841085 0.500000
O O5 0.327555 0.769248 0.230277
O O6 0.416476 0.734020 0.355623
O O7 0.383404 0.000000 0.291926
O O8 0.232639 0.270953 0.764524
O O9 0.267599 0.000000 0.790587
O O10 0.275443 0.199213 0.000000
O O11 0.556781 0.500000 0.500000
O O12 0.500000 0.735706 0.500000
O O13 0.924727 0.207532 0.500000
O O14 0.859527 0.237388 0.290962
O O15 0.913112 0.000000 0.301095
O O16 0.202882 0.298315 0.500000
O O17 0.179284 0.500000 0.695837
#
# Coordination Sequence:
#
# PCOD8198042 Si02
#       6
#     4   8   8   4   8   8
#     4  11  24  39  56  80 110 141 172 211 260 314
#     4   8  16  30  49  73  99 131 169 211 255 301
#     4  10  20  34  52  75 105 140 175 212 258 311
#     4   9  17  29  49  77 103 129 169 218 261 302
#     4  10  21  38  60  83 104 133 174 218 262 311
#     4  10  21  36  55  79 106 137 174 215 260 309
#
# _framework density 17.574456999999999
#
# number of rings (size 3 to 8) (size 9 to 14) (size 15 to 20)
#    0.600    1.800    0.000    2.400    0.000    8.000 
#    0.000    0.000    0.000    0.600    0.000    4.200 
#    0.000    0.000    0.000    0.000    0.000    0.000 
#
# Total GULP energy -495877.998854 kJ/mol
# GULP energy per Si atom -12396.949971 kJ/mol
# Density = 1.753446 g / cm^3
# Si number density = 17.574457 Si / 1000 Ang^3
#
#
#
# Elastic Constant Matrix: (Units=GPa)
#
#
# Indices 1 2 3 4 5 6 
#
# 1 147.4032 70.9112 65.0454 0.0000 0.0000 0.0000
# 2 70.9112 94.6423 48.3009 0.0000 0.0000 0.0000
# 3 65.0454 48.3009 75.4123 0.0000 0.0000 0.0000
# 4 0.0000 0.0000 0.0000 23.8606 0.0000 0.0000
# 5 0.0000 0.0000 0.0000 0.0000 -9.5874 0.0000
# 6 0.0000 0.0000 0.0000 0.0000 0.0000 40.3815
#
#
#
# Elastic Compliance Matrix: (Units=1/GPa)
#
#
# Indices 1 2 3 4 5 6 
#
# 1 0.012842 -0.005896 -0.007300 0.000000 0.000000 0.000000
# 2 -0.005896 0.018404 -0.006702 0.000000 0.000000 0.000000
# 3 -0.007300 -0.006702 0.023850 0.000000 0.000000 0.000000
# 4 0.000000 0.000000 0.000000 0.041910 0.000000 0.000000
# 5 0.000000 0.000000 0.000000 0.000000 -0.104303 0.000000
# 6 0.000000 0.000000 0.000000 0.000000 0.000000 0.024764
#
#
# Mechanical properties :
#
#
# Convention : Reuss Voigt Hill
#
# Bulk Modulus (GPa) = 65.36368 76.21920 70.79144
# Shear Modulus (GPa) = 80.17549 19.81094 49.99321
#
# Velocity S-wave (km/s) = 6.76162 3.36111 5.33931
# Velocity P-wave (km/s) = 9.91123 7.65024 8.85321
#
# Compressibility (1/GPa) = 0.01529902
#
# Stress axis : x y z
#
# Youngs Moduli (GPa) = 77.86946 54.33490 41.92939
#
# Poissons Ratio (x) = 0.32038 0.30609
# Poissons Ratio (y) = 0.45914 0.28101
# Poissons Ratio (z) = 0.56845 0.36416
#
# Static dielectric constant tensor:
#      x y z
#    x 4.461640 0.000000 0.000000 
#    y 0.000000 3.300790 0.000000 
#    z 0.000000 0.000000 3.138450 
# 
# 
# High freq. dielectric constant tensor:
#      x y z
#    x 1.679010 0.000000 0.000000 
#    y 0.000000 1.685810 0.000000 
#    z 0.000000 0.000000 1.662170 
# 
# From -- ./inp_files/13022.got.cif
#   From: 2010.03.12/outbox.cif.g09.slc.cpg/sg47_7_cif.got.tgz:13022.got - 2010.04.14 03:12:58.
