data_PCOD8198074
_publ_section_title
;
Structure prediction by ZEFSAII (Michael W. Deem and Ramdas Pophale) SiO2 
 PCOD8198074
Probable space group: P M M M
;
_chemical_formula_sum "Si O2"
_cell_formula_units_Z 52
_cell_length_a 9.317132
_cell_length_b 21.625824
_cell_length_c 14.089517
_cell_angle_alpha 90.000000
_cell_angle_beta 90.000000
_cell_angle_gamma 90.000000
_cell_volume 2838.906035
_symmetry_space_group_name_H-M "P M M M"
_symmetry_group_IT_number 47
_symmetry_cell_setting 'orthorhombic'
loop_
_space_group_symop_operation_xyz
x,y,z
-x,-y,z
x,-y,-z
-x,y,-z
-x,-y,-z
x,y,-z
-x,y,z
x,-y,z
loop_
_atom_site_type_symbol
_atom_site_label
_atom_site_fract_x
_atom_site_fract_y
_atom_site_fract_z
Si Si1 0.331910 0.567554 0.281822
Si Si2 0.829025 0.000000 0.894315
Si Si3 0.333240 0.351713 0.891936
Si Si4 0.670240 0.687019 0.609501
Si Si5 0.663941 0.929772 0.393415
Si Si6 0.166872 0.254138 0.777507
Si Si7 0.164306 0.114621 0.227396
O O1 0.500000 0.559558 0.292595
O O2 0.258989 0.500000 0.298721
O O3 0.293662 0.590528 0.175488
O O4 0.279926 0.617835 0.359324
O O5 0.771466 0.062186 0.842652
O O6 0.000000 0.000000 0.898745
O O7 0.764234 0.000000 0.000000
O O8 0.500000 0.333468 0.879369
O O9 0.237794 0.293526 0.861355
O O10 0.297668 0.370130 0.000000
O O11 0.712995 0.697861 0.500000
O O12 0.500000 0.695526 0.625171
O O13 0.753231 0.735441 0.676599
O O14 0.681182 0.904945 0.500000
O O15 0.500000 0.925974 0.360739
O O16 0.756928 0.885912 0.327826
O O17 0.719639 0.000000 0.385659
O O18 0.183791 0.183496 0.813110
O O19 0.000000 0.271852 0.765187
O O20 0.000000 0.098759 0.246947
#
# Coordination Sequence:
#
# PCOD8198074 Si02
#       7
#     8   4   8   8   8   8   8
#     4   8  14  26  47  77 107 130 160 207 255 296
#     4   9  18  34  54  73  94 120 153 197 248 299
#     4   9  18  33  52  74 101 133 168 206 251 302
#     4   9  18  33  52  74 102 137 173 207 248 296
#     4   9  18  32  50  73 100 129 157 188 236 296
#     4  10  21  34  50  74 101 131 170 212 251 297
#     4  10  20  34  53  75  97 126 164 206 251 294
#
# _framework density 18.316915000000002
#
# number of rings (size 3 to 8) (size 9 to 14) (size 15 to 20)
#    0.000    2.846    0.769    1.846    0.000    4.000 
#    0.000    8.462    0.000    8.308    0.000    8.615 
#    0.000    0.000    0.000    0.000    0.000    0.000 
#
# Total GULP energy -644564.294602 kJ/mol
# GULP energy per Si atom -12395.467204 kJ/mol
# Density = 1.827522 g / cm^3
# Si number density = 18.316915 Si / 1000 Ang^3
#
#
#
# Elastic Constant Matrix: (Units=GPa)
#
#
# Indices 1 2 3 4 5 6 
#
# 1 43.6891 26.3372 23.2527 0.0000 0.0000 0.0000
# 2 26.3372 100.1662 26.8750 0.0000 0.0000 0.0000
# 3 23.2527 26.8750 93.6280 0.0000 0.0000 0.0000
# 4 0.0000 0.0000 0.0000 11.1482 0.0000 0.0000
# 5 0.0000 0.0000 0.0000 0.0000 22.5300 0.0000
# 6 0.0000 0.0000 0.0000 0.0000 0.0000 21.2679
#
#
#
# Elastic Compliance Matrix: (Units=1/GPa)
#
#
# Indices 1 2 3 4 5 6 
#
# 1 0.029645 -0.006305 -0.005553 0.000000 0.000000 0.000000
# 2 -0.006305 0.012157 -0.001924 0.000000 0.000000 0.000000
# 3 -0.005553 -0.001924 0.012612 0.000000 0.000000 0.000000
# 4 0.000000 0.000000 0.000000 0.089701 0.000000 0.000000
# 5 0.000000 0.000000 0.000000 0.000000 0.044385 0.000000
# 6 0.000000 0.000000 0.000000 0.000000 0.000000 0.047019
#
#
# Mechanical properties :
#
#
# Convention : Reuss Voigt Hill
#
# Bulk Modulus (GPa) = 37.24190 43.37924 40.31057
# Shear Modulus (GPa) = 18.38013 21.72377 20.05195
#
# Velocity S-wave (km/s) = 3.17117 3.44756 3.31225
# Velocity P-wave (km/s) = 5.81244 6.29139 6.05665
#
# Compressibility (1/GPa) = 0.02685147
#
# Stress axis : x y z
#
# Youngs Moduli (GPa) = 33.73231 82.25466 79.29089
#
# Poissons Ratio (x) = 0.51861 0.44028
# Poissons Ratio (y) = 0.21268 0.15254
# Poissons Ratio (z) = 0.18730 0.15824
#
# Static dielectric constant tensor:
#      x y z
#    x 3.115410 0.000000 0.000000 
#    y 0.000000 3.543830 0.000000 
#    z 0.000000 0.000000 3.400720 
# 
# 
# High freq. dielectric constant tensor:
#      x y z
#    x 1.679440 0.000000 0.000000 
#    y 0.000000 1.710010 0.000000 
#    z 0.000000 0.000000 1.707420 
# 
# From -- ./inp_files/11029.got.cif
#   From: 2010.03.12/outbox.cif.g09.slc.cpg/sg47_6_cif.got.tgz:11029.got - 2010.04.14 03:12:58.
