data_PCOD8198801
_publ_section_title
;
Structure prediction by ZEFSAII (Michael W. Deem and Ramdas Pophale) SiO2 
 PCOD8198801
Probable space group: P M M M
;
_chemical_formula_sum "Si O2"
_cell_formula_units_Z 56
_cell_length_a 8.736668
_cell_length_b 22.813657
_cell_length_c 14.357830
_cell_angle_alpha 90.000000
_cell_angle_beta 90.000000
_cell_angle_gamma 90.000000
_cell_volume 2861.735870
_symmetry_space_group_name_H-M "P M M M"
_symmetry_group_IT_number 47
_symmetry_cell_setting 'orthorhombic'
loop_
_space_group_symop_operation_xyz
x,y,z
-x,-y,z
x,-y,-z
-x,y,-z
-x,-y,-z
x,y,-z
-x,y,z
x,-y,z
loop_
_atom_site_type_symbol
_atom_site_label
_atom_site_fract_x
_atom_site_fract_y
_atom_site_fract_z
Si Si1 0.318532 0.607308 0.289970
Si Si2 0.679320 0.934902 0.687742
Si Si3 0.822229 0.629837 0.102747
Si Si4 0.824611 0.822916 0.258926
Si Si5 0.832037 0.930946 0.500000
Si Si6 0.173048 0.500000 0.390072
Si Si7 0.819512 0.718989 0.608424
Si Si8 0.672415 0.245774 0.896124
O O1 0.500000 0.606181 0.279534
O O2 0.241697 0.592107 0.189302
O O3 0.263949 0.557405 0.359638
O O4 0.267684 0.669786 0.331958
O O5 0.500000 0.940020 0.684330
O O6 0.731332 0.883558 0.756284
O O7 0.739988 0.910625 0.589625
O O8 0.746245 0.000000 0.712790
O O9 0.719141 0.687116 0.103390
O O10 0.000000 0.645064 0.119821
O O11 0.803137 0.599173 0.000000
O O12 0.776229 0.782238 0.347102
O O13 0.795285 0.788307 0.164592
O O14 0.000000 0.840637 0.267532
O O15 0.000000 0.901085 0.500000
O O16 0.848441 0.000000 0.500000
O O17 0.167239 0.500000 0.500000
O O18 0.000000 0.500000 0.349605
O O19 0.768369 0.718219 0.500000
O O20 0.000000 0.706964 0.617864
O O21 0.500000 0.240277 0.855325
O O22 0.678621 0.219717 0.000000
#
# Coordination Sequence:
#
# PCOD8198801 Si02
#       8
#     8   8   8   8   4   4   8   8
#     4  12  24  39  62  91 123 156 196 246 296 346
#     4  10  21  36  53  75 108 149 192 239 291 347
#     4  10  20  36  60  88 119 156 196 238 289 349
#     4  11  22  35  57  85 114 150 193 240 290 348
#     4   9  17  31  51  73  99 137 187 234 277 332
#     4  11  25  45  68  89 116 161 209 248 288 341
#     4  10  22  39  57  81 117 157 196 239 289 344
#     4  10  20  35  57  86 118 150 187 235 292 351
#
# _framework density 19.568542999999998
#
# number of rings (size 3 to 8) (size 9 to 14) (size 15 to 20)
#    0.000    1.571    1.429    3.857    1.000    6.571 
#    0.000    0.357    0.000    2.571    0.000    3.000 
#    0.000    0.000    0.000    0.000    0.000    0.000 
#
# Total GULP energy -694189.167239 kJ/mol
# GULP energy per Si atom -12396.235129 kJ/mol
# Density = 1.952400 g / cm^3
# Si number density = 19.568543 Si / 1000 Ang^3
#
#
#
# Elastic Constant Matrix: (Units=GPa)
#
#
# Indices 1 2 3 4 5 6 
#
# 1 90.4173 33.6059 34.2922 0.0000 0.0000 0.0000
# 2 33.6059 80.4732 19.9470 0.0000 0.0000 0.0000
# 3 34.2922 19.9470 97.6749 0.0000 0.0000 0.0000
# 4 0.0000 0.0000 0.0000 20.6479 0.0000 0.0000
# 5 0.0000 0.0000 0.0000 0.0000 29.9147 0.0000
# 6 0.0000 0.0000 0.0000 0.0000 0.0000 27.7357
#
#
#
# Elastic Compliance Matrix: (Units=1/GPa)
#
#
# Indices 1 2 3 4 5 6 
#
# 1 0.014469 -0.005038 -0.004051 0.000000 0.000000 0.000000
# 2 -0.005038 0.014843 -0.001262 0.000000 0.000000 0.000000
# 3 -0.004051 -0.001262 0.011918 0.000000 0.000000 0.000000
# 4 0.000000 0.000000 0.000000 0.048431 0.000000 0.000000
# 5 0.000000 0.000000 0.000000 0.000000 0.033428 0.000000
# 6 0.000000 0.000000 0.000000 0.000000 0.000000 0.036055
#
#
# Mechanical properties :
#
#
# Convention : Reuss Voigt Hill
#
# Bulk Modulus (GPa) = 48.71577 49.36173 49.03875
# Shear Modulus (GPa) = 26.78242 27.70767 27.24504
#
# Velocity S-wave (km/s) = 3.70354 3.76697 3.73539
# Velocity P-wave (km/s) = 6.57550 6.64830 6.61200
#
# Compressibility (1/GPa) = 0.02052723
#
# Stress axis : x y z
#
# Youngs Moduli (GPa) = 69.11450 67.37020 83.90612
#
# Poissons Ratio (x) = 0.33942 0.33989
# Poissons Ratio (y) = 0.34821 0.10593
# Poissons Ratio (z) = 0.27998 0.08505
#
# Static dielectric constant tensor:
#      x y z
#    x 3.631720 0.000000 0.000000 
#    y 0.000000 3.480800 0.000000 
#    z 0.000000 0.000000 3.833770 
# 
# 
# High freq. dielectric constant tensor:
#      x y z
#    x 1.771660 0.000000 0.000000 
#    y 0.000000 1.746410 0.000000 
#    z 0.000000 0.000000 1.760550 
# 
# From -- ./inp_files/21695.got.cif
#   From: 2010.03.12/outbox.cif.g09.slc.cpg/sg47_11_cif.got.tgz:21695.got - 2010.04.14 03:12:58.
