data_PCOD8198290
_publ_section_title
;
Structure prediction by ZEFSAII (Michael W. Deem and Ramdas Pophale) SiO2 
 PCOD8198290
Probable space group: P M M M
;
_chemical_formula_sum "Si O2"
_cell_formula_units_Z 52
_cell_length_a 14.741634
_cell_length_b 8.847311
_cell_length_c 22.371401
_cell_angle_alpha 90.000000
_cell_angle_beta 90.000000
_cell_angle_gamma 90.000000
_cell_volume 2917.763592
_symmetry_space_group_name_H-M "P M M M"
_symmetry_group_IT_number 47
_symmetry_cell_setting 'orthorhombic'
loop_
_space_group_symop_operation_xyz
x,y,z
-x,-y,z
x,-y,-z
-x,y,-z
-x,-y,-z
x,y,-z
-x,y,z
x,-y,z
loop_
_atom_site_type_symbol
_atom_site_label
_atom_site_fract_x
_atom_site_fract_y
_atom_site_fract_z
Si Si1 0.901705 0.824743 0.500000
Si Si2 0.393515 0.323235 0.121975
Si Si3 0.392756 0.169998 0.000000
Si Si4 0.356735 0.667448 0.653735
Si Si5 0.844649 0.663859 0.387586
Si Si6 0.101110 0.321909 0.259778
Si Si7 0.500000 0.179484 0.569624
Si Si8 0.712411 0.179036 0.770495
O O1 0.848877 0.781359 0.440784
O O2 0.000000 0.745055 0.500000
O O3 0.913140 0.000000 0.500000
O O4 0.500000 0.292461 0.132087
O O5 0.370951 0.500000 0.126873
O O6 0.336202 0.229930 0.169472
O O7 0.360304 0.262720 0.057816
O O8 0.500000 0.159248 0.000000
O O9 0.351408 0.000000 0.000000
O O10 0.399458 0.500000 0.665066
O O11 0.259132 0.645697 0.627042
O O12 0.413033 0.759502 0.604821
O O13 0.347912 0.755103 0.716368
O O14 0.883642 0.500000 0.407166
O O15 0.898662 0.724058 0.329747
O O16 0.120801 0.500000 0.253258
O O17 0.182590 0.234602 0.226855
O O18 0.000000 0.280918 0.234389
O O19 0.500000 0.234481 0.500000
O O20 0.500000 0.000000 0.571917
O O21 0.712737 0.000000 0.765002
#
# Coordination Sequence:
#
# PCOD8198290 Si02
#       8
#     4   8   4   8   8   8   4   8
#     4  11  23  33  45  70  99 124 151 191 250 315
#     4  10  20  34  54  79 112 153 193 227 265 316
#     4   9  17  31  51  79 114 149 186 227 271 315
#     4  10  22  40  58  75  99 133 176 218 262 318
#     4   9  19  35  54  73  93 123 162 204 251 307
#     4   9  18  35  57  78 102 134 174 219 266 322
#     4  11  25  41  57  79 103 130 169 218 275 327
#     4  11  22  35  54  82 114 144 179 225 277 323
#
# _framework density 17.821869
#
# number of rings (size 3 to 8) (size 9 to 14) (size 15 to 20)
#    0.000    2.077    0.000    4.385    2.154    7.077 
#    0.000    0.000    0.000    0.000    0.000    0.538 
#    0.000    4.308    0.000    0.000    0.000    0.000 
#
# Total GULP energy -644570.700068 kJ/mol
# GULP energy per Si atom -12395.590386 kJ/mol
# Density = 1.778131 g / cm^3
# Si number density = 17.821869 Si / 1000 Ang^3
#
#
#
# Elastic Constant Matrix: (Units=GPa)
#
#
# Indices 1 2 3 4 5 6 
#
# 1 71.1389 35.2703 46.5705 0.0000 0.0000 0.0000
# 2 35.2703 107.8311 51.4209 0.0000 0.0000 0.0000
# 3 46.5705 51.4209 120.0131 0.0000 0.0000 0.0000
# 4 0.0000 0.0000 0.0000 25.4141 0.0000 0.0000
# 5 0.0000 0.0000 0.0000 0.0000 -5.3095 0.0000
# 6 0.0000 0.0000 0.0000 0.0000 0.0000 25.0455
#
#
#
# Elastic Compliance Matrix: (Units=1/GPa)
#
#
# Indices 1 2 3 4 5 6 
#
# 1 0.019868 -0.003547 -0.006190 0.000000 0.000000 0.000000
# 2 -0.003547 0.012288 -0.003889 0.000000 0.000000 0.000000
# 3 -0.006190 -0.003889 0.012401 0.000000 0.000000 0.000000
# 4 0.000000 0.000000 0.000000 0.039348 0.000000 0.000000
# 5 0.000000 0.000000 0.000000 0.000000 -0.188340 0.000000
# 6 0.000000 0.000000 0.000000 0.000000 0.000000 0.039927
#
#
# Mechanical properties :
#
#
# Convention : Reuss Voigt Hill
#
# Bulk Modulus (GPa) = 57.78444 62.83408 60.30926
# Shear Modulus (GPa) = -158.78630 20.07808 -69.35411
#
# Velocity S-wave (km/s) = -9.44932 3.36012 -6.24497
# Velocity P-wave (km/s) = 9.30372 7.09839 4.25277
#
# Compressibility (1/GPa) = 0.01730570
#
# Stress axis : x y z
#
# Youngs Moduli (GPa) = 50.33309 81.37843 80.64145
#
# Poissons Ratio (x) = 0.28863 0.49916
# Poissons Ratio (y) = 0.17852 0.31359
# Poissons Ratio (z) = 0.31156 0.31646
#
# Static dielectric constant tensor:
#      x y z
#    x 2.743730 0.000000 0.000000 
#    y 0.000000 3.427460 0.000000 
#    z 0.000000 0.000000 2.753370 
# 
# 
# High freq. dielectric constant tensor:
#      x y z
#    x 1.681220 0.000000 0.000000 
#    y 0.000000 1.700020 0.000000 
#    z 0.000000 0.000000 1.675870 
# 
# From -- ./inp_files/30950.got.cif
#   From: 2010.03.12/outbox.cif.g09.slc.cpg/sg47_16_cif.got.tgz:30950.got - 2010.04.14 03:12:58.
