data_PCOD8198979
_publ_section_title
;
Structure prediction by ZEFSAII (Michael W. Deem and Ramdas Pophale) SiO2 
 PCOD8198979
Probable space group: P M M M
;
_chemical_formula_sum "Si O2"
_cell_formula_units_Z 48
_cell_length_a 8.965453
_cell_length_b 13.716232
_cell_length_c 19.087245
_cell_angle_alpha 90.000000
_cell_angle_beta 90.000000
_cell_angle_gamma 90.000000
_cell_volume 2347.201146
_symmetry_space_group_name_H-M "P M M M"
_symmetry_group_IT_number 47
_symmetry_cell_setting 'orthorhombic'
loop_
_space_group_symop_operation_xyz
x,y,z
-x,-y,z
x,-y,-z
-x,y,-z
-x,-y,-z
x,y,-z
-x,y,z
x,-y,z
loop_
_atom_site_type_symbol
_atom_site_label
_atom_site_fract_x
_atom_site_fract_y
_atom_site_fract_z
Si Si1 0.327483 0.391498 0.151127
Si Si2 0.671448 0.347694 0.308555
Si Si3 0.323892 0.000000 0.125690
Si Si4 0.832966 0.822458 0.634507
Si Si5 0.324237 0.110161 0.500000
Si Si6 0.836590 0.000000 0.735050
Si Si7 0.324163 0.500000 0.578013
Si Si8 0.172243 0.796233 0.918641
O O1 0.500000 0.372721 0.132346
O O2 0.278850 0.500000 0.121809
O O3 0.304886 0.400596 0.234637
O O4 0.237350 0.298918 0.121045
O O5 0.500000 0.316592 0.317110
O O6 0.779068 0.256819 0.310357
O O7 0.725811 0.408513 0.375948
O O8 0.254829 0.100545 0.095331
O O9 0.500000 0.000000 0.110202
O O10 0.294511 0.000000 0.208383
O O11 0.727955 0.830279 0.567339
O O12 0.818252 0.913787 0.682585
O O13 0.000000 0.803431 0.607765
O O14 0.500000 0.106325 0.500000
O O15 0.257293 0.000000 0.500000
O O16 0.000000 0.000000 0.772325
O O17 0.500000 0.500000 0.569707
O O18 0.250106 0.500000 0.500000
O O19 0.000000 0.808693 0.895893
O O20 0.187335 0.772098 0.000000
#
# Coordination Sequence:
#
# PCOD8198979 Si02
#       8
#     8   8   4   8   4   4   4   8
#     4  10  21  40  66  96 131 170 215 269 321 375
#     4  10  20  37  60  88 119 156 204 252 302 362
#     4  12  25  41  67  98 128 163 209 263 315 373
#     4  11  23  38  57  83 118 157 197 247 306 365
#     4  11  23  39  59  82 111 154 207 259 310 370
#     4  10  22  40  60  84 121 164 198 235 296 367
#     4   9  18  34  57  83 114 151 197 247 298 354
#     4  11  25  44  66  94 130 170 212 259 316 388
#
# _framework density 20.449888999999999
#
# number of rings (size 3 to 8) (size 9 to 14) (size 15 to 20)
#    0.000    1.500    1.667    3.250    1.167    8.000 
#    0.000    2.083    0.000    0.500    0.000    0.000 
#    0.000    0.000    0.000    0.000    0.000    0.000 
#
# Total GULP energy -594799.095382 kJ/mol
# GULP energy per Si atom -12391.647820 kJ/mol
# Density = 2.040334 g / cm^3
# Si number density = 20.449889 Si / 1000 Ang^3
#
#
#
# Elastic Constant Matrix: (Units=GPa)
#
#
# Indices 1 2 3 4 5 6 
#
# 1 106.2116 68.0044 45.4438 0.0000 0.0000 0.0000
# 2 68.0044 156.4955 37.5811 0.0000 0.0000 0.0000
# 3 45.4438 37.5811 94.3480 0.0000 0.0000 0.0000
# 4 0.0000 0.0000 0.0000 60.8406 0.0000 0.0000
# 5 0.0000 0.0000 0.0000 0.0000 30.1152 0.0000
# 6 0.0000 0.0000 0.0000 0.0000 0.0000 44.1995
#
#
#
# Elastic Compliance Matrix: (Units=1/GPa)
#
#
# Indices 1 2 3 4 5 6 
#
# 1 0.014986 -0.005284 -0.005114 0.000000 0.000000 0.000000
# 2 -0.005284 0.008929 -0.001011 0.000000 0.000000 0.000000
# 3 -0.005114 -0.001011 0.013465 0.000000 0.000000 0.000000
# 4 0.000000 0.000000 0.000000 0.016436 0.000000 0.000000
# 5 0.000000 0.000000 0.000000 0.000000 0.033206 0.000000
# 6 0.000000 0.000000 0.000000 0.000000 0.000000 0.022625
#
#
# Mechanical properties :
#
#
# Convention : Reuss Voigt Hill
#
# Bulk Modulus (GPa) = 68.67213 73.23485 70.95349
# Shear Modulus (GPa) = 36.41133 40.76612 38.58873
#
# Velocity S-wave (km/s) = 4.22419 4.46967 4.34866
# Velocity P-wave (km/s) = 7.57927 7.90739 7.74507
#
# Compressibility (1/GPa) = 0.01456195
#
# Stress axis : x y z
#
# Youngs Moduli (GPa) = 66.72695 111.99310 74.26702
#
# Poissons Ratio (x) = 0.59181 0.37977
# Poissons Ratio (y) = 0.35261 0.07512
# Poissons Ratio (z) = 0.34121 0.11327
#
# Static dielectric constant tensor:
#      x y z
#    x 3.720820 0.000000 0.000000 
#    y 0.000000 3.971340 0.000000 
#    z 0.000000 0.000000 3.858740 
# 
# 
# High freq. dielectric constant tensor:
#      x y z
#    x 1.787340 0.000000 0.000000 
#    y 0.000000 1.816390 0.000000 
#    z 0.000000 0.000000 1.805230 
# 
# From -- ./inp_files/26574.got.cif
#   From: 2010.03.12/outbox.cif.g09.slc.cpg/sg47_14_cif.got.tgz:26574.got - 2010.04.14 03:12:58.
