data_PCOD8198169
_publ_section_title
;
Structure prediction by ZEFSAII (Michael W. Deem and Ramdas Pophale) SiO2 
 PCOD8198169
Probable space group: P M M M
;
_chemical_formula_sum "Si O2"
_cell_formula_units_Z 40
_cell_length_a 8.006438
_cell_length_b 27.164330
_cell_length_c 9.275537
_cell_angle_alpha 90.000000
_cell_angle_beta 90.000000
_cell_angle_gamma 90.000000
_cell_volume 2017.332127
_symmetry_space_group_name_H-M "P M M M"
_symmetry_group_IT_number 47
_symmetry_cell_setting 'orthorhombic'
loop_
_space_group_symop_operation_xyz
x,y,z
-x,-y,z
x,-y,-z
-x,y,-z
-x,-y,-z
x,y,-z
-x,y,z
x,-y,z
loop_
_atom_site_type_symbol
_atom_site_label
_atom_site_fract_x
_atom_site_fract_y
_atom_site_fract_z
Si Si1 0.313468 0.381888 0.332338
Si Si2 0.693374 0.812387 0.838429
Si Si3 0.190499 0.707564 0.165875
Si Si4 0.000000 0.444769 0.671614
Si Si5 0.197797 0.905580 0.664432
Si Si6 0.198971 0.000000 0.163201
O O1 0.281985 0.372700 0.500000
O O2 0.500000 0.404128 0.305511
O O3 0.305409 0.329081 0.256188
O O4 0.169185 0.418174 0.271488
O O5 0.500000 0.799692 0.841169
O O6 0.787049 0.763709 0.781166
O O7 0.727701 0.856204 0.729398
O O8 0.756290 0.826564 0.000000
O O9 0.000000 0.691572 0.189051
O O10 0.245797 0.703912 0.000000
O O11 0.000000 0.500000 0.734667
O O12 0.000000 0.446190 0.500000
O O13 0.258270 0.911114 0.500000
O O14 0.267495 0.951902 0.754632
O O15 0.000000 0.903261 0.674046
O O16 0.000000 0.000000 0.164155
O O17 0.268274 0.000000 0.000000
#
# Coordination Sequence:
#
# PCOD8198169 Si02
#       6
#     8   8   8   4   8   4
#     4  10  20  34  55  83 113 147 187 232 283 336
#     4  10  21  36  53  75 104 138 177 220 266 321
#     4  10  20  35  57  82 108 143 184 226 276 333
#     4   9  18  34  55  81 115 151 189 236 283 330
#     4  10  20  34  53  78 106 136 172 217 269 323
#     4   9  17  31  54  79 102 133 174 220 268 321
#
# _framework density 19.828167000000001
#
# number of rings (size 3 to 8) (size 9 to 14) (size 15 to 20)
#    0.000    2.200    1.000    2.100    0.000    6.000 
#    0.000    2.500    0.000    4.200    0.000    1.400 
#    0.000    0.000    0.000    0.000    0.000    0.000 
#
# Total GULP energy -496029.240376 kJ/mol
# GULP energy per Si atom -12400.731009 kJ/mol
# Density = 1.978304 g / cm^3
# Si number density = 19.828167 Si / 1000 Ang^3
#
#
#
# Elastic Constant Matrix: (Units=GPa)
#
#
# Indices 1 2 3 4 5 6 
#
# 1 85.4257 50.9082 36.1872 0.0000 0.0000 0.0000
# 2 50.9082 137.3843 50.3159 0.0000 0.0000 0.0000
# 3 36.1872 50.3159 79.2507 0.0000 0.0000 0.0000
# 4 0.0000 0.0000 0.0000 24.0280 0.0000 0.0000
# 5 0.0000 0.0000 0.0000 0.0000 20.5737 0.0000
# 6 0.0000 0.0000 0.0000 0.0000 0.0000 18.5791
#
#
#
# Elastic Compliance Matrix: (Units=1/GPa)
#
#
# Indices 1 2 3 4 5 6 
#
# 1 0.016260 -0.004308 -0.004690 0.000000 0.000000 0.000000
# 2 -0.004308 0.010625 -0.004779 0.000000 0.000000 0.000000
# 3 -0.004690 -0.004779 0.017794 0.000000 0.000000 0.000000
# 4 0.000000 0.000000 0.000000 0.041618 0.000000 0.000000
# 5 0.000000 0.000000 0.000000 0.000000 0.048606 0.000000
# 6 0.000000 0.000000 0.000000 0.000000 0.000000 0.053824
#
#
# Mechanical properties :
#
#
# Convention : Reuss Voigt Hill
#
# Bulk Modulus (GPa) = 58.38973 64.09816 61.24395
# Shear Modulus (GPa) = 22.52378 23.61280 23.06829
#
# Velocity S-wave (km/s) = 3.37404 3.45464 3.41458
# Velocity P-wave (km/s) = 6.68511 6.95052 6.81911
#
# Compressibility (1/GPa) = 0.01712630
#
# Stress axis : x y z
#
# Youngs Moduli (GPa) = 61.50198 94.11485 56.19953
#
# Poissons Ratio (x) = 0.40540 0.26355
# Poissons Ratio (y) = 0.26492 0.26858
# Poissons Ratio (z) = 0.28842 0.44978
#
# Static dielectric constant tensor:
#      x y z
#    x 3.613390 0.000000 0.000000 
#    y 0.000000 3.616320 0.000000 
#    z 0.000000 0.000000 3.523100 
# 
# 
# High freq. dielectric constant tensor:
#      x y z
#    x 1.771730 0.000000 0.000000 
#    y 0.000000 1.772720 0.000000 
#    z 0.000000 0.000000 1.756280 
# 
# From -- ./inp_files/1870.got.cif
#   From: 2010.03.12/outbox.cif.g09.slc.cpg/sg47_1_cif.got.tgz:1870.got - 2010.04.14 03:12:58.
