data_PCOD8198889
_publ_section_title
;
Structure prediction by ZEFSAII (Michael W. Deem and Ramdas Pophale) SiO2 
 PCOD8198889
Probable space group: P M M M
;
_chemical_formula_sum "Si O2"
_cell_formula_units_Z 64
_cell_length_a 8.969089
_cell_length_b 15.098102
_cell_length_c 24.472575
_cell_angle_alpha 90.000000
_cell_angle_beta 90.000000
_cell_angle_gamma 90.000000
_cell_volume 3313.983614
_symmetry_space_group_name_H-M "P M M M"
_symmetry_group_IT_number 47
_symmetry_cell_setting 'orthorhombic'
loop_
_space_group_symop_operation_xyz
x,y,z
-x,-y,z
x,-y,-z
-x,y,-z
-x,-y,-z
x,y,-z
-x,y,z
x,-y,z
loop_
_atom_site_type_symbol
_atom_site_label
_atom_site_fract_x
_atom_site_fract_y
_atom_site_fract_z
Si Si1 0.333177 0.369014 0.789261
Si Si2 0.829794 0.099938 0.856067
Si Si3 0.326132 0.401932 0.666964
Si Si4 0.331401 0.827961 0.242314
Si Si5 0.328719 0.232771 0.937407
Si Si6 0.170997 0.401509 0.103252
Si Si7 0.329215 0.101319 0.436237
Si Si8 0.175720 0.225151 0.647071
O O1 0.500000 0.403520 0.802148
O O2 0.280390 0.403926 0.730476
O O3 0.329961 0.263209 0.791041
O O4 0.219310 0.405627 0.833566
O O5 0.750365 0.102607 0.796956
O O6 0.758085 0.163325 0.900687
O O7 0.000000 0.129376 0.847882
O O8 0.817069 0.000000 0.878210
O O9 0.500000 0.376980 0.661585
O O10 0.293292 0.500000 0.642071
O O11 0.232779 0.325764 0.636495
O O12 0.500000 0.859477 0.254261
O O13 0.248167 0.818930 0.299715
O O14 0.500000 0.232017 0.919086
O O15 0.269022 0.332465 0.930590
O O16 0.309252 0.203808 0.000000
O O17 0.191420 0.500000 0.078112
O O18 0.000000 0.371230 0.100153
O O19 0.301038 0.116205 0.500000
O O20 0.500000 0.123895 0.421178
O O21 0.218379 0.166196 0.404752
O O22 0.293349 0.000000 0.420154
O O23 0.000000 0.227180 0.654578
#
# Coordination Sequence:
#
# PCOD8198889 Si02
#       8
#     8   8   8   8   8   8   8   8
#     4   9  17  31  53  80 109 144 186 230 276 329
#     4  11  24  41  63  90 117 145 180 228 289 349
#     4   9  18  33  53  78 112 156 202 243 282 330
#     4  10  20  36  58  83 115 155 194 230 274 331
#     4  11  25  44  64  84 108 144 189 234 279 334
#     4  11  23  36  55  84 115 147 182 226 283 341
#     4   9  19  38  63  87 112 148 197 249 296 345
#     4  11  22  34  54  86 124 161 194 236 290 345
#
# _framework density 19.312104999999999
#
# number of rings (size 3 to 8) (size 9 to 14) (size 15 to 20)
#    0.000    1.875    1.250    4.125    0.000    7.250 
#    0.000    3.125    0.000    0.375    0.000    2.625 
#    0.000    0.000    0.000    0.000    0.000    0.000 
#
# Total GULP energy -793678.587380 kJ/mol
# GULP energy per Si atom -12401.227928 kJ/mol
# Density = 1.926815 g / cm^3
# Si number density = 19.312105 Si / 1000 Ang^3
#
#
#
# Elastic Constant Matrix: (Units=GPa)
#
#
# Indices 1 2 3 4 5 6 
#
# 1 141.8635 59.8105 48.4844 0.0000 0.0000 0.0000
# 2 59.8105 105.7818 45.5601 0.0000 0.0000 0.0000
# 3 48.4844 45.5601 67.4631 0.0000 0.0000 0.0000
# 4 0.0000 0.0000 0.0000 12.8505 0.0000 0.0000
# 5 0.0000 0.0000 0.0000 0.0000 17.1826 0.0000
# 6 0.0000 0.0000 0.0000 0.0000 0.0000 25.3344
#
#
#
# Elastic Compliance Matrix: (Units=1/GPa)
#
#
# Indices 1 2 3 4 5 6 
#
# 1 0.010283 -0.003710 -0.004884 0.000000 0.000000 0.000000
# 2 -0.003710 0.014670 -0.007240 0.000000 0.000000 0.000000
# 3 -0.004884 -0.007240 0.023223 0.000000 0.000000 0.000000
# 4 0.000000 0.000000 0.000000 0.077818 0.000000 0.000000
# 5 0.000000 0.000000 0.000000 0.000000 0.058199 0.000000
# 6 0.000000 0.000000 0.000000 0.000000 0.000000 0.039472
#
#
# Mechanical properties :
#
#
# Convention : Reuss Voigt Hill
#
# Bulk Modulus (GPa) = 60.58682 69.20202 64.89442
# Shear Modulus (GPa) = 19.16921 21.82374 20.49647
#
# Velocity S-wave (km/s) = 3.15397 3.36528 3.26134
# Velocity P-wave (km/s) = 6.68610 7.14223 6.91792
#
# Compressibility (1/GPa) = 0.01650524
#
# Stress axis : x y z
#
# Youngs Moduli (GPa) = 97.25195 68.16760 43.06116
#
# Poissons Ratio (x) = 0.25292 0.21032
# Poissons Ratio (y) = 0.36083 0.31178
# Poissons Ratio (z) = 0.47500 0.49356
#
# Static dielectric constant tensor:
#      x y z
#    x 3.556510 0.000000 0.000000 
#    y 0.000000 3.597210 0.000000 
#    z 0.000000 0.000000 3.264720 
# 
# 
# High freq. dielectric constant tensor:
#      x y z
#    x 1.754660 0.000000 0.000000 
#    y 0.000000 1.757550 0.000000 
#    z 0.000000 0.000000 1.728670 
# 
# From -- ./inp_files/32108.got.cif
#   From: 2010.03.12/outbox.cif.g09.slc.cpg/sg47_17_cif.got.tgz:32108.got - 2010.04.14 03:12:58.
