data_PCOD8198215
_publ_section_title
;
Structure prediction by ZEFSAII (Michael W. Deem and Ramdas Pophale) SiO2 
 PCOD8198215
Probable space group: P M M M
;
_chemical_formula_sum "Si O2"
_cell_formula_units_Z 40
_cell_length_a 20.577010
_cell_length_b 11.947165
_cell_length_c 8.877632
_cell_angle_alpha 90.000000
_cell_angle_beta 90.000000
_cell_angle_gamma 90.000000
_cell_volume 2182.449829
_symmetry_space_group_name_H-M "P M M M"
_symmetry_group_IT_number 47
_symmetry_cell_setting 'orthorhombic'
loop_
_space_group_symop_operation_xyz
x,y,z
-x,-y,z
x,-y,-z
-x,y,-z
-x,-y,-z
x,y,-z
-x,y,z
x,-y,z
loop_
_atom_site_type_symbol
_atom_site_label
_atom_site_fract_x
_atom_site_fract_y
_atom_site_fract_z
Si Si1 0.234601 0.000000 0.179082
Si Si2 0.617929 0.000000 0.178666
Si Si3 0.426040 0.775819 0.672802
Si Si4 0.680518 0.369947 0.823618
Si Si5 0.071819 0.374127 0.820755
Si Si6 0.807272 0.761932 0.820606
O O1 0.197913 0.889342 0.239349
O O2 0.308205 0.000000 0.238743
O O3 0.235548 0.000000 0.000000
O O4 0.581975 0.890660 0.237404
O O5 0.615307 0.000000 0.000000
O O6 0.407529 0.797721 0.500000
O O7 0.500000 0.734735 0.689775
O O8 0.381630 0.677621 0.738127
O O9 0.688026 0.500000 0.786108
O O10 0.745137 0.307995 0.764258
O O11 0.670578 0.347872 0.000000
O O12 0.085416 0.500000 0.762843
O O13 0.126774 0.291985 0.753143
O O14 0.000000 0.334508 0.767178
O O15 0.074945 0.373124 0.000000
O O16 0.809404 0.758910 0.000000
#
# Coordination Sequence:
#
# PCOD8198215 Si02
#       6
#     4   4   8   8   8   8
#     4   9  16  26  45  69  93 122 157 202 256 300
#     4  11  20  36  59  81 102 129 169 216 257 301
#     4  11  24  39  54  75 105 137 167 206 262 320
#     4  10  20  34  54  77  99 131 177 221 260 304
#     4   8  13  21  35  58  91 131 168 201 245 302
#     4   9  15  26  43  66  95 126 165 212 256 300
#
# _framework density 18.328028
#
# number of rings (size 3 to 8) (size 9 to 14) (size 15 to 20)
#    0.000    2.400    2.000    2.400    0.000    6.000 
#    0.000    2.500    0.000    3.000    0.000    0.000 
#    0.000    0.800    0.000    6.000    0.000    6.600 
#
# Total GULP energy -495932.457955 kJ/mol
# GULP energy per Si atom -12398.311449 kJ/mol
# Density = 1.828631 g / cm^3
# Si number density = 18.328028 Si / 1000 Ang^3
#
#
#
# Elastic Constant Matrix: (Units=GPa)
#
#
# Indices 1 2 3 4 5 6 
#
# 1 157.2762 87.3602 29.4484 0.0000 0.0000 0.0000
# 2 87.3602 145.2532 30.1653 0.0000 0.0000 0.0000
# 3 29.4484 30.1653 36.8167 0.0000 0.0000 0.0000
# 4 0.0000 0.0000 0.0000 11.1326 0.0000 0.0000
# 5 0.0000 0.0000 0.0000 0.0000 -0.3313 0.0000
# 6 0.0000 0.0000 0.0000 0.0000 0.0000 39.4865
#
#
#
# Elastic Compliance Matrix: (Units=1/GPa)
#
#
# Indices 1 2 3 4 5 6 
#
# 1 0.009945 -0.005217 -0.003680 0.000000 0.000000 0.000000
# 2 -0.005217 0.011033 -0.004867 0.000000 0.000000 0.000000
# 3 -0.003680 -0.004867 0.034093 0.000000 0.000000 0.000000
# 4 0.000000 0.000000 0.000000 0.089826 0.000000 0.000000
# 5 0.000000 0.000000 0.000000 0.000000 -3.018452 0.000000
# 6 0.000000 0.000000 0.000000 0.000000 0.000000 0.025325
#
#
# Mechanical properties :
#
#
# Convention : Reuss Voigt Hill
#
# Bulk Modulus (GPa) = 36.30719 70.36600 53.33659
# Shear Modulus (GPa) = -1.77840 22.88238 10.55199
#
# Velocity S-wave (km/s) = -0.98611 3.53723 2.40204
# Velocity P-wave (km/s) = 4.30768 7.42688 6.07103
#
# Compressibility (1/GPa) = 0.02754275
#
# Stress axis : x y z
#
# Youngs Moduli (GPa) = 100.55089 90.63753 29.33172
#
# Poissons Ratio (x) = 0.47286 0.10795
# Poissons Ratio (y) = 0.52458 0.14275
# Poissons Ratio (z) = 0.37006 0.44111
#
# Static dielectric constant tensor:
#      x y z
#    x 3.667830 0.000000 0.000000 
#    y 0.000000 3.567180 0.000000 
#    z 0.000000 0.000000 2.880680 
# 
# 
# High freq. dielectric constant tensor:
#      x y z
#    x 1.718970 0.000000 0.000000 
#    y 0.000000 1.716100 0.000000 
#    z 0.000000 0.000000 1.656570 
# 
# From -- ./inp_files/10717.got.cif
#   From: 2010.03.12/outbox.cif.g09.slc.cpg/sg47_6_cif.got.tgz:10717.got - 2010.04.14 03:12:58.
