data_PCOD8198106
_publ_section_title
;
Structure prediction by ZEFSAII (Michael W. Deem and Ramdas Pophale) SiO2 
 PCOD8198106
Probable space group: P M M M
;
_chemical_formula_sum "Si O2"
_cell_formula_units_Z 48
_cell_length_a 14.323349
_cell_length_b 8.900468
_cell_length_c 20.835955
_cell_angle_alpha 90.000000
_cell_angle_beta 90.000000
_cell_angle_gamma 90.000000
_cell_volume 2656.261502
_symmetry_space_group_name_H-M "P M M M"
_symmetry_group_IT_number 47
_symmetry_cell_setting 'orthorhombic'
loop_
_space_group_symop_operation_xyz
x,y,z
-x,-y,z
x,-y,-z
-x,y,-z
-x,-y,-z
x,y,-z
-x,y,z
x,-y,z
loop_
_atom_site_type_symbol
_atom_site_label
_atom_site_fract_x
_atom_site_fract_y
_atom_site_fract_z
Si Si1 0.727911 0.327334 0.571431
Si Si2 0.105366 0.675374 0.764248
Si Si3 0.717754 0.178230 0.191326
Si Si4 0.105078 0.826892 0.629417
Si Si5 0.607252 0.676517 0.692251
Si Si6 0.395405 0.821506 0.070638
O O1 0.686320 0.302167 0.500000
O O2 0.756597 0.500000 0.581953
O O3 0.821327 0.227170 0.576575
O O4 0.650223 0.278551 0.623208
O O5 0.127001 0.500000 0.767918
O O6 0.176106 0.763161 0.810422
O O7 0.122676 0.727220 0.691919
O O8 0.000000 0.712754 0.786465
O O9 0.662736 0.237449 0.252839
O O10 0.670811 0.242481 0.126406
O O11 0.716932 0.000000 0.193323
O O12 0.000000 0.803542 0.602838
O O13 0.122530 0.000000 0.647519
O O14 0.500000 0.729173 0.692750
O O15 0.616112 0.500000 0.704991
O O16 0.500000 0.760607 0.082801
O O17 0.396256 0.000000 0.073233
O O18 0.360348 0.768143 0.000000
#
# Coordination Sequence:
#
# PCOD8198106 Si02
#       6
#     8   8   8   8   8   8
#     4  10  21  36  53  73 100 138 179 215 257 311
#     4  10  20  34  53  76 104 138 173 210 256 312
#     4  11  20  31  54  84 109 135 171 216 262 306
#     4  10  20  34  53  77 103 131 166 212 266 316
#     4  10  21  36  53  74 102 137 176 217 260 307
#     4   8  15  29  49  76 111 146 176 207 249 302
#
# _framework density 18.070509000000001
#
# number of rings (size 3 to 8) (size 9 to 14) (size 15 to 20)
#    0.000    2.167    1.667    2.500    0.000    4.000 
#    0.000    3.333    0.000    2.500    0.000   11.667 
#    0.000    0.000    0.000    0.000    0.000    0.000 
#
# Total GULP energy -595166.562044 kJ/mol
# GULP energy per Si atom -12399.303376 kJ/mol
# Density = 1.802938 g / cm^3
# Si number density = 18.070509 Si / 1000 Ang^3
#
#
#
# Elastic Constant Matrix: (Units=GPa)
#
#
# Indices 1 2 3 4 5 6 
#
# 1 126.9698 41.5789 70.2159 0.0000 0.0000 0.0000
# 2 41.5789 49.8075 36.1191 0.0000 0.0000 0.0000
# 3 70.2159 36.1191 132.0229 0.0000 0.0000 0.0000
# 4 0.0000 0.0000 0.0000 3.5388 0.0000 0.0000
# 5 0.0000 0.0000 0.0000 0.0000 31.5543 0.0000
# 6 0.0000 0.0000 0.0000 0.0000 0.0000 27.6525
#
#
#
# Elastic Compliance Matrix: (Units=1/GPa)
#
#
# Indices 1 2 3 4 5 6 
#
# 1 0.012971 -0.007267 -0.004911 0.000000 0.000000 0.000000
# 2 -0.007267 0.029118 -0.004101 0.000000 0.000000 0.000000
# 3 -0.004911 -0.004101 0.011308 0.000000 0.000000 0.000000
# 4 0.000000 0.000000 0.000000 0.282583 0.000000 0.000000
# 5 0.000000 0.000000 0.000000 0.000000 0.031691 0.000000
# 6 0.000000 0.000000 0.000000 0.000000 0.000000 0.036163
#
#
# Mechanical properties :
#
#
# Convention : Reuss Voigt Hill
#
# Bulk Modulus (GPa) = 47.98574 67.18089 57.58332
# Shear Modulus (GPa) = 11.27804 23.27486 17.27645
#
# Velocity S-wave (km/s) = 2.50094 3.59277 3.09537
# Velocity P-wave (km/s) = 5.91202 7.38027 6.68657
#
# Compressibility (1/GPa) = 0.02083952
#
# Stress axis : x y z
#
# Youngs Moduli (GPa) = 77.09317 34.34296 88.43252
#
# Poissons Ratio (x) = 0.24958 0.43425
# Poissons Ratio (y) = 0.56027 0.36267
# Poissons Ratio (z) = 0.37857 0.14084
#
# Static dielectric constant tensor:
#      x y z
#    x 3.569090 0.000000 0.000000 
#    y 0.000000 3.204280 0.000000 
#    z 0.000000 0.000000 3.385900 
# 
# 
# High freq. dielectric constant tensor:
#      x y z
#    x 1.703910 0.000000 0.000000 
#    y 0.000000 1.688860 0.000000 
#    z 0.000000 0.000000 1.685830 
# 
# From -- ./inp_files/6382.got.cif
#   From: 2010.03.12/outbox.cif.g09.slc.cpg/sg47_4_cif.got.tgz:6382.got - 2010.04.14 03:12:58.
