data_PCOD8198427
_publ_section_title
;
Structure prediction by ZEFSAII (Michael W. Deem and Ramdas Pophale) SiO2 
 PCOD8198427
Probable space group: P M M M
;
_chemical_formula_sum "Si O2"
_cell_formula_units_Z 44
_cell_length_a 7.638111
_cell_length_b 32.040531
_cell_length_c 9.307116
_cell_angle_alpha 90.000000
_cell_angle_beta 90.000000
_cell_angle_gamma 90.000000
_cell_volume 2277.722423
_symmetry_space_group_name_H-M "P M M M"
_symmetry_group_IT_number 47
_symmetry_cell_setting 'orthorhombic'
loop_
_space_group_symop_operation_xyz
x,y,z
-x,-y,z
x,-y,-z
-x,y,-z
-x,-y,-z
x,y,-z
-x,y,z
x,-y,z
loop_
_atom_site_type_symbol
_atom_site_label
_atom_site_fract_x
_atom_site_fract_y
_atom_site_fract_z
Si Si1 0.795300 0.000000 0.168038
Si Si2 0.292063 0.623134 0.160699
Si Si3 0.000000 0.858965 0.670200
Si Si4 0.303631 0.080959 0.335503
Si Si5 0.708188 0.546091 0.661203
Si Si6 0.700613 0.295438 0.331478
Si Si7 0.000000 0.233730 0.670020
O O1 0.709047 0.959663 0.237975
O O2 0.000000 0.000000 0.200531
O O3 0.752814 0.000000 0.000000
O O4 0.500000 0.620474 0.158030
O O5 0.213080 0.581512 0.234531
O O6 0.232938 0.663450 0.249986
O O7 0.215742 0.626343 0.000000
O O8 0.827661 0.883605 0.723023
O O9 0.000000 0.855096 0.500000
O O10 0.000000 0.812632 0.738976
O O11 0.256813 0.068892 0.500000
O O12 0.500000 0.099045 0.325089
O O13 0.777768 0.554136 0.500000
O O14 0.500000 0.548552 0.661117
O O15 0.768574 0.500000 0.714001
O O16 0.720952 0.304406 0.500000
O O17 0.500000 0.283982 0.292404
O O18 0.824212 0.257578 0.279908
O O19 0.000000 0.230162 0.500000
#
# Coordination Sequence:
#
# PCOD8198427 Si02
#       7
#     4   8   4   8   8   8   4
#     4  11  22  35  54  79 109 146 185 224 263 301
#     4   9  16  25  39  61  90 123 159 200 244 291
#     4   9  18  33  52  77 108 133 163 216 262 301
#     4  10  20  34  55  81 108 143 181 215 261 314
#     4   8  13  21  34  55  86 123 160 197 238 287
#     4   9  17  30  49  71  95 124 159 201 246 293
#     4   9  18  32  52  78 102 127 164 206 252 302
#
# _framework density 19.317540999999999
#
# number of rings (size 3 to 8) (size 9 to 14) (size 15 to 20)
#    0.000    2.818    0.909    1.636    0.000    5.091 
#    0.000    5.909    0.000    2.182    0.000    3.182 
#    0.000    5.091    0.000    0.545    0.000    0.000 
#
# Total GULP energy -545480.081334 kJ/mol
# GULP energy per Si atom -12397.274576 kJ/mol
# Density = 1.927357 g / cm^3
# Si number density = 19.317541 Si / 1000 Ang^3
#
#
#
# Elastic Constant Matrix: (Units=GPa)
#
#
# Indices 1 2 3 4 5 6 
#
# 1 92.5785 62.1834 28.3947 0.0000 0.0000 0.0000
# 2 62.1834 186.9912 59.1197 0.0000 0.0000 0.0000
# 3 28.3947 59.1197 73.6826 0.0000 0.0000 0.0000
# 4 0.0000 0.0000 0.0000 2.2920 0.0000 0.0000
# 5 0.0000 0.0000 0.0000 0.0000 8.9742 0.0000
# 6 0.0000 0.0000 0.0000 0.0000 0.0000 16.4227
#
#
#
# Elastic Compliance Matrix: (Units=1/GPa)
#
#
# Indices 1 2 3 4 5 6 
#
# 1 0.014182 -0.004004 -0.002253 0.000000 0.000000 0.000000
# 2 -0.004004 0.008296 -0.005113 0.000000 0.000000 0.000000
# 3 -0.002253 -0.005113 0.018543 0.000000 0.000000 0.000000
# 4 0.000000 0.000000 0.000000 0.436291 0.000000 0.000000
# 5 0.000000 0.000000 0.000000 0.000000 0.111431 0.000000
# 6 0.000000 0.000000 0.000000 0.000000 0.000000 0.060891
#
#
# Mechanical properties :
#
#
# Convention : Reuss Voigt Hill
#
# Bulk Modulus (GPa) = 54.70281 72.51643 63.60962
# Shear Modulus (GPa) = 7.36955 19.10808 13.23882
#
# Velocity S-wave (km/s) = 1.95531 3.14850 2.62071
# Velocity P-wave (km/s) = 5.78591 7.13008 6.49288
#
# Compressibility (1/GPa) = 0.01828060
#
# Stress axis : x y z
#
# Youngs Moduli (GPa) = 70.51218 120.53988 53.93007
#
# Poissons Ratio (x) = 0.48264 0.12148
# Poissons Ratio (y) = 0.28233 0.27576
# Poissons Ratio (z) = 0.15884 0.61636
#
# Static dielectric constant tensor:
#      x y z
#    x 3.391430 0.000000 0.000000 
#    y 0.000000 3.742920 0.000000 
#    z 0.000000 0.000000 3.405370 
# 
# 
# High freq. dielectric constant tensor:
#      x y z
#    x 1.741970 0.000000 0.000000 
#    y 0.000000 1.749920 0.000000 
#    z 0.000000 0.000000 1.722360 
# 
# From -- ./inp_files/2365.got.cif
#   From: 2010.03.12/outbox.cif.g09.slc.cpg/sg47_2_cif.got.tgz:2365.got - 2010.04.14 03:12:58.
