data_PCOD8198402
_publ_section_title
;
Structure prediction by ZEFSAII (Michael W. Deem and Ramdas Pophale) SiO2 
 PCOD8198402
Probable space group: P M M M
;
_chemical_formula_sum "Si O2"
_cell_formula_units_Z 48
_cell_length_a 8.945111
_cell_length_b 18.867540
_cell_length_c 15.375648
_cell_angle_alpha 90.000000
_cell_angle_beta 90.000000
_cell_angle_gamma 90.000000
_cell_volume 2594.982548
_symmetry_space_group_name_H-M "P M M M"
_symmetry_group_IT_number 47
_symmetry_cell_setting 'orthorhombic'
loop_
_space_group_symop_operation_xyz
x,y,z
-x,-y,z
x,-y,-z
-x,y,-z
-x,-y,-z
x,y,-z
-x,y,z
x,-y,z
loop_
_atom_site_type_symbol
_atom_site_label
_atom_site_fract_x
_atom_site_fract_y
_atom_site_fract_z
Si Si1 0.678108 0.080326 0.720918
Si Si2 0.667467 0.915824 0.092155
Si Si3 0.168021 0.584009 0.000000
Si Si4 0.826197 0.191872 0.599628
Si Si5 0.175601 0.347080 0.661940
Si Si6 0.324085 0.417554 0.824732
Si Si7 0.331609 0.416371 0.500000
O O1 0.500000 0.083622 0.723355
O O2 0.741887 0.108147 0.815780
O O3 0.737370 0.128582 0.643956
O O4 0.731935 0.000000 0.702704
O O5 0.500000 0.885208 0.088518
O O6 0.660683 0.000000 0.096108
O O7 0.748470 0.892344 0.000000
O O8 0.256565 0.610362 0.915321
O O9 0.162831 0.500000 0.000000
O O10 0.000000 0.615399 0.000000
O O11 0.773264 0.198635 0.500000
O O12 0.788802 0.264643 0.648403
O O13 0.000000 0.173915 0.604866
O O14 0.249941 0.370305 0.751178
O O15 0.244650 0.392075 0.584686
O O16 0.000000 0.362271 0.664498
O O17 0.500000 0.404729 0.825751
O O18 0.285833 0.500000 0.808489
O O19 0.337796 0.500000 0.500000
O O20 0.500000 0.385180 0.500000
#
# Coordination Sequence:
#
# PCOD8198402 Si02
#       7
#     8   8   4   8   8   8   4
#     4   9  18  32  53  83 110 133 172 222 266 315
#     4   7  10  20  42  72 104 133 159 195 247 302
#     4   9  17  31  53  81 111 147 188 223 264 321
#     4  10  22  40  56  72 100 140 183 223 269 324
#     4  11  22  38  57  77 104 143 189 229 267 324
#     4  10  20  34  54  83 116 145 178 226 278 324
#     4  11  23  37  55  83 114 139 170 219 279 334
#
# _framework density 18.497233999999999
#
# number of rings (size 3 to 8) (size 9 to 14) (size 15 to 20)
#    0.000    2.500    0.833    3.500    0.000    7.000 
#    0.000    1.667    1.833    0.500    0.000    2.333 
#    0.000    0.000    0.000    0.000    0.000    0.000 
#
# Total GULP energy -594845.477158 kJ/mol
# GULP energy per Si atom -12392.614107 kJ/mol
# Density = 1.845513 g / cm^3
# Si number density = 18.497234 Si / 1000 Ang^3
#
#
#
# Elastic Constant Matrix: (Units=GPa)
#
#
# Indices 1 2 3 4 5 6 
#
# 1 79.6946 44.5452 67.1670 0.0000 0.0000 0.0000
# 2 44.5452 71.1117 63.5045 0.0000 0.0000 0.0000
# 3 67.1670 63.5045 180.7822 0.0000 0.0000 0.0000
# 4 0.0000 0.0000 0.0000 923.6891 0.0000 0.0000
# 5 0.0000 0.0000 0.0000 0.0000 31.7520 0.0000
# 6 0.0000 0.0000 0.0000 0.0000 0.0000 24.2078
#
#
#
# Elastic Compliance Matrix: (Units=1/GPa)
#
#
# Indices 1 2 3 4 5 6 
#
# 1 0.021860 -0.009384 -0.004825 0.000000 0.000000 0.000000
# 2 -0.009384 0.024519 -0.005126 0.000000 0.000000 0.000000
# 3 -0.004825 -0.005126 0.009125 0.000000 0.000000 0.000000
# 4 0.000000 0.000000 0.000000 0.001083 0.000000 0.000000
# 5 0.000000 0.000000 0.000000 0.000000 0.031494 0.000000
# 6 0.000000 0.000000 0.000000 0.000000 0.000000 0.041309
#
#
# Mechanical properties :
#
#
# Convention : Reuss Voigt Hill
#
# Bulk Modulus (GPa) = 59.41031 75.78022 67.59527
# Shear Modulus (GPa) = 28.78996 206.35457 117.57227
#
# Velocity S-wave (km/s) = 3.94946 10.57364 7.98123
# Velocity P-wave (km/s) = 7.27914 13.78864 11.02525
#
# Compressibility (1/GPa) = 0.01683209
#
# Stress axis : x y z
#
# Youngs Moduli (GPa) = 45.74564 40.78528 109.58876
#
# Poissons Ratio (x) = 0.38274 0.52880
# Poissons Ratio (y) = 0.42929 0.56178
# Poissons Ratio (z) = 0.22074 0.20908
#
# Static dielectric constant tensor:
#      x y z
#    x 3.320050 0.000000 0.000000 
#    y 0.000000 3.122070 0.000000 
#    z 0.000000 0.000000 3.880230 
# 
# 
# High freq. dielectric constant tensor:
#      x y z
#    x 1.701780 0.000000 0.000000 
#    y 0.000000 1.685370 0.000000 
#    z 0.000000 0.000000 1.743320 
# 
# From -- ./inp_files/21127.got.cif
#   From: 2010.03.12/outbox.cif.g09.slc.cpg/sg47_11_cif.got.tgz:21127.got - 2010.04.14 03:12:58.
