data_PCOD8198746
_publ_section_title
;
Structure prediction by ZEFSAII (Michael W. Deem and Ramdas Pophale) SiO2 
 PCOD8198746
Probable space group: P M M M
;
_chemical_formula_sum "Si O2"
_cell_formula_units_Z 40
_cell_length_a 25.310266
_cell_length_b 9.261079
_cell_length_c 9.040116
_cell_angle_alpha 90.000000
_cell_angle_beta 90.000000
_cell_angle_gamma 90.000000
_cell_volume 2119.006562
_symmetry_space_group_name_H-M "P M M M"
_symmetry_group_IT_number 47
_symmetry_cell_setting 'orthorhombic'
loop_
_space_group_symop_operation_xyz
x,y,z
-x,-y,z
x,-y,-z
-x,y,-z
-x,-y,-z
x,y,-z
-x,y,z
x,-y,z
loop_
_atom_site_type_symbol
_atom_site_label
_atom_site_fract_x
_atom_site_fract_y
_atom_site_fract_z
Si Si1 0.300727 0.330579 0.171613
Si Si2 0.089535 0.165574 0.330032
Si Si3 0.000000 0.662550 0.174224
Si Si4 0.394940 0.167678 0.326478
Si Si5 0.500000 0.828464 0.166684
Si Si6 0.788960 0.832753 0.670154
O O1 0.300796 0.500000 0.202565
O O2 0.346184 0.258028 0.267373
O O3 0.244721 0.266938 0.221617
O O4 0.309980 0.295086 0.000000
O O5 0.074504 0.192319 0.500000
O O6 0.053131 0.262818 0.228920
O O7 0.150217 0.206869 0.301050
O O8 0.079442 0.000000 0.287548
O O9 0.000000 0.500000 0.234284
O O10 0.000000 0.668835 0.000000
O O11 0.400967 0.191706 0.500000
O O12 0.447968 0.228148 0.249957
O O13 0.385387 0.000000 0.288002
O O14 0.500000 0.000000 0.168456
O O15 0.500000 0.767461 0.000000
O O16 0.773649 0.801625 0.500000
O O17 0.778033 0.000000 0.706845
#
# Coordination Sequence:
#
# PCOD8198746 Si02
#       6
#     8   8   4   8   4   8
#     4  11  24  38  52  76 111 147 181 219 265 317
#     4   9  19  37  60  83 106 135 176 224 269 316
#     4  11  24  37  50  76 114 149 180 217 262 314
#     4  10  20  35  57  83 109 139 179 225 268 314
#     4   9  17  31  54  83 112 141 174 216 268 321
#     4   9  19  37  60  84 107 134 174 223 271 319
#
# _framework density 18.876768999999999
#
# number of rings (size 3 to 8) (size 9 to 14) (size 15 to 20)
#    0.000    2.200    0.000    3.900    0.000   10.800 
#    0.000    6.500    0.000    3.000    0.000    0.000 
#    0.000    0.000    0.000    0.000    0.000    0.000 
#
# Total GULP energy -496129.774066 kJ/mol
# GULP energy per Si atom -12403.244352 kJ/mol
# Density = 1.883381 g / cm^3
# Si number density = 18.876769 Si / 1000 Ang^3
#
#
#
# Elastic Constant Matrix: (Units=GPa)
#
#
# Indices 1 2 3 4 5 6 
#
# 1 119.1653 56.5668 51.8920 0.0000 0.0000 0.0000
# 2 56.5668 83.0232 50.6147 0.0000 0.0000 0.0000
# 3 51.8920 50.6147 87.4241 0.0000 0.0000 0.0000
# 4 0.0000 0.0000 0.0000 29.1358 0.0000 0.0000
# 5 0.0000 0.0000 0.0000 0.0000 23.9146 0.0000
# 6 0.0000 0.0000 0.0000 0.0000 0.0000 -11.6231
#
#
#
# Elastic Compliance Matrix: (Units=1/GPa)
#
#
# Indices 1 2 3 4 5 6 
#
# 1 0.013286 -0.006560 -0.004088 0.000000 0.000000 0.000000
# 2 -0.006560 0.021854 -0.008759 0.000000 0.000000 0.000000
# 3 -0.004088 -0.008759 0.018936 0.000000 0.000000 0.000000
# 4 0.000000 0.000000 0.000000 0.034322 0.000000 0.000000
# 5 0.000000 0.000000 0.000000 0.000000 0.041815 0.000000
# 6 0.000000 0.000000 0.000000 0.000000 0.000000 -0.086036
#
#
# Mechanical properties :
#
#
# Convention : Reuss Voigt Hill
#
# Bulk Modulus (GPa) = 65.52093 67.52884 66.52488
# Shear Modulus (GPa) = 56.76729 16.98807 36.87768
#
# Velocity S-wave (km/s) = 5.48980 3.00316 4.42475
# Velocity P-wave (km/s) = 8.65846 6.91928 7.83727
#
# Compressibility (1/GPa) = 0.01526230
#
# Stress axis : x y z
#
# Youngs Moduli (GPa) = 75.26811 45.75814 52.80923
#
# Poissons Ratio (x) = 0.30016 0.21589
# Poissons Ratio (y) = 0.49374 0.46255
# Poissons Ratio (z) = 0.30771 0.40079
#
# Static dielectric constant tensor:
#      x y z
#    x 3.757210 0.000000 0.000000 
#    y 0.000000 3.334880 0.000000 
#    z 0.000000 0.000000 3.483580 
# 
# 
# High freq. dielectric constant tensor:
#      x y z
#    x 1.749540 0.000000 0.000000 
#    y 0.000000 1.717100 0.000000 
#    z 0.000000 0.000000 1.738480 
# 
# From -- ./inp_files/13042.got.cif
#   From: 2010.03.12/outbox.cif.g09.slc.cpg/sg47_7_cif.got.tgz:13042.got - 2010.04.14 03:12:58.
