data_PCOD8198391
_publ_section_title
;
Structure prediction by ZEFSAII (Michael W. Deem and Ramdas Pophale) SiO2 
 PCOD8198391
Probable space group: P M M M
;
_chemical_formula_sum "Si O2"
_cell_formula_units_Z 48
_cell_length_a 8.882615
_cell_length_b 29.293749
_cell_length_c 9.563494
_cell_angle_alpha 90.000000
_cell_angle_beta 90.000000
_cell_angle_gamma 90.000000
_cell_volume 2488.469858
_symmetry_space_group_name_H-M "P M M M"
_symmetry_group_IT_number 47
_symmetry_cell_setting 'orthorhombic'
loop_
_space_group_symop_operation_xyz
x,y,z
-x,-y,z
x,-y,-z
-x,y,-z
-x,-y,-z
x,y,-z
-x,y,z
x,-y,z
loop_
_atom_site_type_symbol
_atom_site_label
_atom_site_fract_x
_atom_site_fract_y
_atom_site_fract_z
Si Si1 0.822269 0.051981 0.500000
Si Si2 0.822732 0.200003 0.163177
Si Si3 0.178575 0.372442 0.159426
Si Si4 0.677968 0.891754 0.742357
Si Si5 0.677232 0.950107 0.000000
Si Si6 0.674964 0.552937 0.341819
Si Si7 0.178471 0.287814 0.340530
O O1 0.764636 0.081737 0.374591
O O2 0.000000 0.049567 0.500000
O O3 0.756404 0.000000 0.500000
O O4 0.732707 0.159605 0.237361
O O5 0.771357 0.244155 0.250377
O O6 0.000000 0.191079 0.176919
O O7 0.777048 0.205659 0.000000
O O8 0.230577 0.419706 0.227457
O O9 0.242407 0.331569 0.256639
O O10 0.000000 0.370969 0.156600
O O11 0.240052 0.368029 0.000000
O O12 0.500000 0.891789 0.715325
O O13 0.732383 0.920975 0.871868
O O14 0.500000 0.956164 0.000000
O O15 0.754597 0.000000 0.000000
O O16 0.724002 0.566320 0.500000
O O17 0.500000 0.563748 0.320717
O O18 0.708664 0.500000 0.315345
O O19 0.243523 0.286122 0.500000
O O20 0.000000 0.290307 0.348178
#
# Coordination Sequence:
#
# PCOD8198391 Si02
#       7
#     4   8   8   8   4   8   8
#     4  11  25  43  61  85 117 151 189 233 280 333
#     4  10  20  35  56  82 114 149 186 230 283 339
#     4  10  20  34  54  82 115 148 188 237 285 336
#     4  11  22  38  60  86 117 151 188 231 280 335
#     4   9  18  34  57  83 111 145 185 225 270 327
#     4   9  19  36  56  78 108 148 192 236 285 342
#     4   9  18  33  55  81 108 146 192 235 281 334
#
# _framework density 19.288961
#
# number of rings (size 3 to 8) (size 9 to 14) (size 15 to 20)
#    0.000    2.167    0.833    2.750    1.167    5.333 
#    0.000    3.333    0.000    5.000    0.000    0.000 
#    0.000    0.000    0.000    0.000    0.000    0.000 
#
# Total GULP energy -595008.912753 kJ/mol
# GULP energy per Si atom -12396.019016 kJ/mol
# Density = 1.924506 g / cm^3
# Si number density = 19.288961 Si / 1000 Ang^3
#
#
#
# Elastic Constant Matrix: (Units=GPa)
#
#
# Indices 1 2 3 4 5 6 
#
# 1 33.5848 27.3099 31.1074 0.0000 0.0000 0.0000
# 2 27.3099 138.7803 81.9699 0.0000 0.0000 0.0000
# 3 31.1074 81.9699 171.3466 0.0000 0.0000 0.0000
# 4 0.0000 0.0000 0.0000 32.5965 0.0000 0.0000
# 5 0.0000 0.0000 0.0000 0.0000 -487.2298 0.0000
# 6 0.0000 0.0000 0.0000 0.0000 0.0000 -14.9087
#
#
#
# Elastic Compliance Matrix: (Units=1/GPa)
#
#
# Indices 1 2 3 4 5 6 
#
# 1 0.037899 -0.004731 -0.004617 0.000000 0.000000 0.000000
# 2 -0.004731 0.010634 -0.004228 0.000000 0.000000 0.000000
# 3 -0.004617 -0.004228 0.008697 0.000000 0.000000 0.000000
# 4 0.000000 0.000000 0.000000 0.030678 0.000000 0.000000
# 5 0.000000 0.000000 0.000000 0.000000 -0.002052 0.000000
# 6 0.000000 0.000000 0.000000 0.000000 0.000000 -0.067075
#
#
# Mechanical properties :
#
#
# Convention : Reuss Voigt Hill
#
# Bulk Modulus (GPa) = 33.24762 69.38733 51.31747
# Shear Modulus (GPa) = 89.35041 -80.35344 4.49848
#
# Velocity S-wave (km/s) = 6.81341 -6.46128 1.52880
# Velocity P-wave (km/s) = 8.89780 4.42872 5.45698
#
# Compressibility (1/GPa) = 0.03007734
#
# Stress axis : x y z
#
# Youngs Moduli (GPa) = 26.38597 94.03787 114.98029
#
# Poissons Ratio (x) = 0.44487 0.53090
# Poissons Ratio (y) = 0.12483 0.48617
# Poissons Ratio (z) = 0.12183 0.39762
#
# Static dielectric constant tensor:
#      x y z
#    x 3.171440 0.000000 0.000000 
#    y 0.000000 3.707590 0.000000 
#    z 0.000000 0.000000 3.705610 
# 
# 
# High freq. dielectric constant tensor:
#      x y z
#    x 1.717670 0.000000 0.000000 
#    y 0.000000 1.765960 0.000000 
#    z 0.000000 0.000000 1.767680 
# 
# From -- ./inp_files/2662.got.cif
#   From: 2010.03.12/outbox.cif.g09.slc.cpg/sg47_2_cif.got.tgz:2662.got - 2010.04.14 03:12:58.
