data_PCOD8198115
_publ_section_title
;
Structure prediction by ZEFSAII (Michael W. Deem and Ramdas Pophale) SiO2 
 PCOD8198115
Probable space group: P M M M
;
_chemical_formula_sum "Si O2"
_cell_formula_units_Z 64
_cell_length_a 14.430810
_cell_length_b 31.216885
_cell_length_c 9.213428
_cell_angle_alpha 90.000000
_cell_angle_beta 90.000000
_cell_angle_gamma 90.000000
_cell_volume 4150.510525
_symmetry_space_group_name_H-M "P M M M"
_symmetry_group_IT_number 47
_symmetry_cell_setting 'orthorhombic'
loop_
_space_group_symop_operation_xyz
x,y,z
-x,-y,z
x,-y,-z
-x,y,-z
-x,-y,-z
x,y,-z
-x,y,z
x,-y,z
loop_
_atom_site_type_symbol
_atom_site_label
_atom_site_fract_x
_atom_site_fract_y
_atom_site_fract_z
Si Si1 0.610080 0.546628 0.662313
Si Si2 0.390662 0.875615 0.831776
Si Si3 0.100005 0.825170 0.671701
Si Si4 0.295475 0.203426 0.327317
Si Si5 0.390039 0.625388 0.160077
Si Si6 0.295496 0.048377 0.330655
Si Si7 0.391895 0.720655 0.168992
Si Si8 0.899713 0.078631 0.672033
O O1 0.648981 0.549263 0.500000
O O2 0.500000 0.550864 0.661617
O O3 0.637737 0.500000 0.729884
O O4 0.654568 0.586676 0.747630
O O5 0.500000 0.871764 0.814988
O O6 0.345996 0.836521 0.745407
O O7 0.359018 0.920572 0.763914
O O8 0.360791 0.873485 0.000000
O O9 0.097540 0.827447 0.500000
O O10 0.187088 0.796449 0.720328
O O11 0.114613 0.873215 0.731833
O O12 0.000000 0.806953 0.728210
O O13 0.308485 0.200049 0.500000
O O14 0.335503 0.247780 0.270675
O O15 0.500000 0.620976 0.154333
O O16 0.365037 0.672533 0.220811
O O17 0.348219 0.620599 0.000000
O O18 0.303256 0.061520 0.500000
O O19 0.188216 0.050831 0.276563
O O20 0.330610 0.000000 0.306055
O O21 0.500000 0.729485 0.192855
O O22 0.366699 0.727461 0.000000
O O23 0.902657 0.078797 0.500000
O O24 0.000000 0.060719 0.728964
#
# Coordination Sequence:
#
# PCOD8198115 Si02
#       8
#     8   8   8   8   8   8   8   8
#     4   8  13  20  30  46  69  97 131 176 227 266
#     4  11  24  39  52  65  86 118 148 173 207 250
#     4   8  14  26  46  70  93 113 132 161 203 248
#     4  11  20  31  51  74  90 107 139 179 212 246
#     4   8  14  24  36  49  69 102 142 179 212 251
#     4  10  20  34  53  76  96 112 137 174 208 238
#     4   9  18  31  43  58  86 120 148 177 219 263
#     4   8  13  25  47  73  98 118 134 158 198 246
#
# _framework density 15.419790000000001
#
# number of rings (size 3 to 8) (size 9 to 14) (size 15 to 20)
#    0.000    2.875    1.250    3.000    0.000    4.250 
#    0.000    5.000    0.000    2.625    0.000    0.875 
#    0.000    0.000    0.000    0.000    0.000    0.625 
#
# Total GULP energy -792921.699989 kJ/mol
# GULP energy per Si atom -12389.401562 kJ/mol
# Density = 1.538469 g / cm^3
# Si number density = 15.419790 Si / 1000 Ang^3
#
#
#
# Elastic Constant Matrix: (Units=GPa)
#
#
# Indices 1 2 3 4 5 6 
#
# 1 67.7249 42.9327 35.2680 0.0000 0.0000 0.0000
# 2 42.9327 120.0215 53.3381 0.0000 0.0000 0.0000
# 3 35.2680 53.3381 64.1524 0.0000 0.0000 0.0000
# 4 0.0000 0.0000 0.0000 25.9216 0.0000 0.0000
# 5 0.0000 0.0000 0.0000 0.0000 5.3512 0.0000
# 6 0.0000 0.0000 0.0000 0.0000 0.0000 3.4605
#
#
#
# Elastic Compliance Matrix: (Units=1/GPa)
#
#
# Indices 1 2 3 4 5 6 
#
# 1 0.021792 -0.003919 -0.008722 0.000000 0.000000 0.000000
# 2 -0.003919 0.013919 -0.009418 0.000000 0.000000 0.000000
# 3 -0.008722 -0.009418 0.028213 0.000000 0.000000 0.000000
# 4 0.000000 0.000000 0.000000 0.038578 0.000000 0.000000
# 5 0.000000 0.000000 0.000000 0.000000 0.186875 0.000000
# 6 0.000000 0.000000 0.000000 0.000000 0.000000 0.288972
#
#
# Mechanical properties :
#
#
# Convention : Reuss Voigt Hill
#
# Bulk Modulus (GPa) = 50.48926 57.21959 53.85443
# Shear Modulus (GPa) = 7.94825 14.97066 11.45946
#
# Velocity S-wave (km/s) = 2.27283 3.11926 2.72906
# Velocity P-wave (km/s) = 6.30095 7.08248 6.70311
#
# Compressibility (1/GPa) = 0.01980619
#
# Stress axis : x y z
#
# Youngs Moduli (GPa) = 45.88849 71.84266 35.44430
#
# Poissons Ratio (x) = 0.28157 0.30913
# Poissons Ratio (y) = 0.17985 0.33382
# Poissons Ratio (z) = 0.40022 0.67664
#
# Static dielectric constant tensor:
#      x y z
#    x 3.013280 0.000000 0.000000 
#    y 0.000000 3.068390 0.000000 
#    z 0.000000 0.000000 2.879340 
# 
# 
# High freq. dielectric constant tensor:
#      x y z
#    x 1.558490 0.000000 0.000000 
#    y 0.000000 1.586850 0.000000 
#    z 0.000000 0.000000 1.572000 
# 
# From -- ./inp_files/8211.got.cif
#   From: 2010.03.12/outbox.cif.g09.slc.cpg/sg47_5_cif.got.tgz:8211.got - 2010.04.14 03:12:58.
