data_PCOD8198559
_publ_section_title
;
Structure prediction by ZEFSAII (Michael W. Deem and Ramdas Pophale) SiO2 
 PCOD8198559
Probable space group: P M M M
;
_chemical_formula_sum "Si O2"
_cell_formula_units_Z 52
_cell_length_a 9.349602
_cell_length_b 24.604392
_cell_length_c 13.871287
_cell_angle_alpha 90.000000
_cell_angle_beta 90.000000
_cell_angle_gamma 90.000000
_cell_volume 3190.968515
_symmetry_space_group_name_H-M "P M M M"
_symmetry_group_IT_number 47
_symmetry_cell_setting 'orthorhombic'
loop_
_space_group_symop_operation_xyz
x,y,z
-x,-y,z
x,-y,-z
-x,y,-z
-x,-y,-z
x,y,-z
-x,y,z
x,-y,z
loop_
_atom_site_type_symbol
_atom_site_label
_atom_site_fract_x
_atom_site_fract_y
_atom_site_fract_z
Si Si1 0.245521 0.866207 0.385392
Si Si2 0.500000 0.937962 0.384974
Si Si3 0.327923 0.653004 0.278642
Si Si4 0.337222 0.500000 0.113634
Si Si5 0.833889 0.252560 0.385438
Si Si6 0.000000 0.059714 0.615060
Si Si7 0.168953 0.392255 0.112236
Si Si8 0.162813 0.437530 0.612692
O O1 0.243628 0.862397 0.500000
O O2 0.377632 0.899345 0.345010
O O3 0.223877 0.805333 0.345869
O O4 0.128252 0.906003 0.344136
O O5 0.500000 0.942978 0.500000
O O6 0.500000 0.000000 0.343056
O O7 0.500000 0.655094 0.269496
O O8 0.270353 0.703754 0.338593
O O9 0.250518 0.654320 0.173597
O O10 0.278816 0.598116 0.331785
O O11 0.500000 0.500000 0.157555
O O12 0.245125 0.447998 0.145877
O O13 0.351655 0.500000 0.000000
O O14 0.819081 0.256974 0.500000
O O15 0.000000 0.260825 0.355513
O O16 0.000000 0.055355 0.500000
O O17 0.000000 0.000000 0.661097
O O18 0.000000 0.395325 0.136195
O O19 0.193454 0.379698 0.000000
O O20 0.183101 0.427241 0.500000
O O21 0.192975 0.500000 0.638952
O O22 0.000000 0.421443 0.642244
#
# Coordination Sequence:
#
# PCOD8198559 Si02
#       8
#     8   4   8   4   8   4   8   8
#     4   9  16  26  40  59  84 120 159 202 247 280
#     4   9  16  24  36  58  88 120 154 196 245 292
#     4  12  25  35  50  75  99 126 159 200 249 296
#     4   9  17  31  53  79 104 123 140 175 227 281
#     4  10  20  35  51  66  91 128 173 216 249 284
#     4   9  14  22  38  60  84 112 156 204 241 280
#     4  10  21  38  58  77  98 126 158 190 233 293
#     4   9  19  37  57  73  93 124 161 202 246 288
#
# _framework density 16.295992999999999
#
# number of rings (size 3 to 8) (size 9 to 14) (size 15 to 20)
#    0.000    2.231    0.769    3.462    2.154    6.462 
#    0.000    0.769    0.000    0.000    0.000    0.000 
#    0.000    0.000    0.000    0.000    0.000    4.615 
#
# Total GULP energy -644190.875065 kJ/mol
# GULP energy per Si atom -12388.286059 kJ/mol
# Density = 1.625890 g / cm^3
# Si number density = 16.295993 Si / 1000 Ang^3
#
#
#
# Elastic Constant Matrix: (Units=GPa)
#
#
# Indices 1 2 3 4 5 6 
#
# 1 159.8421 66.9219 32.1200 0.0000 0.0000 0.0000
# 2 66.9219 111.6504 33.9750 0.0000 0.0000 0.0000
# 3 32.1200 33.9750 43.7661 0.0000 0.0000 0.0000
# 4 0.0000 0.0000 0.0000 3.1991 0.0000 0.0000
# 5 0.0000 0.0000 0.0000 0.0000 19.6564 0.0000
# 6 0.0000 0.0000 0.0000 0.0000 0.0000 73.5905
#
#
#
# Elastic Compliance Matrix: (Units=1/GPa)
#
#
# Indices 1 2 3 4 5 6 
#
# 1 0.008651 -0.004259 -0.003042 0.000000 0.000000 0.000000
# 2 -0.004259 0.013824 -0.007605 0.000000 0.000000 0.000000
# 3 -0.003042 -0.007605 0.030985 0.000000 0.000000 0.000000
# 4 0.000000 0.000000 0.000000 0.312587 0.000000 0.000000
# 5 0.000000 0.000000 0.000000 0.000000 0.050874 0.000000
# 6 0.000000 0.000000 0.000000 0.000000 0.000000 0.013589
#
#
# Mechanical properties :
#
#
# Convention : Reuss Voigt Hill
#
# Bulk Modulus (GPa) = 42.29039 64.58805 53.43922
# Shear Modulus (GPa) = 10.67906 31.43865 21.05886
#
# Velocity S-wave (km/s) = 2.56270 4.39706 3.59872
# Velocity P-wave (km/s) = 5.89613 8.09316 7.08038
#
# Compressibility (1/GPa) = 0.02364603
#
# Stress axis : x y z
#
# Youngs Moduli (GPa) = 115.59568 72.33867 32.27326
#
# Poissons Ratio (x) = 0.30812 0.09819
# Poissons Ratio (y) = 0.49237 0.24545
# Poissons Ratio (z) = 0.35168 0.55016
#
# Static dielectric constant tensor:
#      x y z
#    x 3.322190 0.000000 0.000000 
#    y 0.000000 3.210680 0.000000 
#    z 0.000000 0.000000 2.757760 
# 
# 
# High freq. dielectric constant tensor:
#      x y z
#    x 1.644430 0.000000 0.000000 
#    y 0.000000 1.625600 0.000000 
#    z 0.000000 0.000000 1.572790 
# 
# From -- ./inp_files/21839.got.cif
#   From: 2010.03.12/outbox.cif.g09.slc.cpg/sg47_11_cif.got.tgz:21839.got - 2010.04.14 03:12:58.
