data_PCOD8198907
_publ_section_title
;
Structure prediction by ZEFSAII (Michael W. Deem and Ramdas Pophale) SiO2 
 PCOD8198907
Probable space group: P M M M
;
_chemical_formula_sum "Si O2"
_cell_formula_units_Z 44
_cell_length_a 9.547467
_cell_length_b 7.845903
_cell_length_c 29.542564
_cell_angle_alpha 90.000000
_cell_angle_beta 90.000000
_cell_angle_gamma 90.000000
_cell_volume 2212.989155
_symmetry_space_group_name_H-M "P M M M"
_symmetry_group_IT_number 47
_symmetry_cell_setting 'orthorhombic'
loop_
_space_group_symop_operation_xyz
x,y,z
-x,-y,z
x,-y,-z
-x,y,-z
-x,-y,-z
x,y,-z
-x,y,z
x,-y,z
loop_
_atom_site_type_symbol
_atom_site_label
_atom_site_fract_x
_atom_site_fract_y
_atom_site_fract_z
Si Si1 0.659253 0.697113 0.272067
Si Si2 0.338233 0.000000 0.053521
Si Si3 0.842992 0.202715 0.549889
Si Si4 0.844985 0.807448 0.808381
Si Si5 0.163885 0.692644 0.904710
Si Si6 0.342720 0.202175 0.369254
O O1 0.500000 0.764102 0.271055
O O2 0.669584 0.500000 0.260674
O O3 0.742491 0.796140 0.233876
O O4 0.723137 0.735516 0.321698
O O5 0.260927 0.828212 0.069756
O O6 0.500000 0.000000 0.070814
O O7 0.333694 0.000000 0.000000
O O8 0.789695 0.261000 0.500000
O O9 0.745259 0.280709 0.589094
O O10 0.000000 0.270663 0.557807
O O11 0.841349 0.000000 0.552480
O O12 0.799288 0.693907 0.851172
O O13 0.000000 0.753230 0.791798
O O14 0.844065 0.000000 0.826469
O O15 0.194561 0.500000 0.922416
O O16 0.000000 0.739779 0.912113
O O17 0.500000 0.273709 0.374052
O O18 0.340338 0.000000 0.370775
#
# Coordination Sequence:
#
# PCOD8198907 Si02
#       6
#     8   4   8   8   8   8
#     4  10  21  35  50  72 105 143 180 219 267 325
#     4  11  25  43  63  91 129 169 207 253 306 359
#     4   8  14  25  42  65  91 117 150 199 258 316
#     4  10  20  36  59  85 113 145 184 232 283 336
#     4  10  21  40  66  93 123 161 206 255 304 357
#     4   9  17  29  45  66  93 125 163 208 256 310
#
# _framework density 19.88261
#
# number of rings (size 3 to 8) (size 9 to 14) (size 15 to 20)
#    0.000    2.455    0.909    1.909    0.000    5.455 
#    0.000    5.455    0.000    0.545    0.000    3.818 
#    0.000    0.000    0.000    0.000    0.000    0.000 
#
# Total GULP energy -545457.315880 kJ/mol
# GULP energy per Si atom -12396.757179 kJ/mol
# Density = 1.983736 g / cm^3
# Si number density = 19.882610 Si / 1000 Ang^3
#
#
#
# Elastic Constant Matrix: (Units=GPa)
#
#
# Indices 1 2 3 4 5 6 
#
# 1 96.4641 38.7376 66.7387 0.0000 0.0000 0.0000
# 2 38.7376 73.3038 32.4236 0.0000 0.0000 0.0000
# 3 66.7387 32.4236 117.4741 0.0000 0.0000 0.0000
# 4 0.0000 0.0000 0.0000 10.2935 0.0000 0.0000
# 5 0.0000 0.0000 0.0000 0.0000 39.6504 0.0000
# 6 0.0000 0.0000 0.0000 0.0000 0.0000 18.7868
#
#
#
# Elastic Compliance Matrix: (Units=1/GPa)
#
#
# Indices 1 2 3 4 5 6 
#
# 1 0.019181 -0.006056 -0.009226 0.000000 0.000000 0.000000
# 2 -0.006056 0.017451 -0.001376 0.000000 0.000000 0.000000
# 3 -0.009226 -0.001376 0.014134 0.000000 0.000000 0.000000
# 4 0.000000 0.000000 0.000000 0.097148 0.000000 0.000000
# 5 0.000000 0.000000 0.000000 0.000000 0.025220 0.000000
# 6 0.000000 0.000000 0.000000 0.000000 0.000000 0.053229
#
#
# Mechanical properties :
#
#
# Convention : Reuss Voigt Hill
#
# Bulk Modulus (GPa) = 57.30535 62.56019 59.93277
# Shear Modulus (GPa) = 18.83276 23.70230 21.26753
#
# Velocity S-wave (km/s) = 3.08100 3.45644 3.27411
# Velocity P-wave (km/s) = 6.44524 6.88930 6.67096
#
# Compressibility (1/GPa) = 0.01745038
#
# Stress axis : x y z
#
# Youngs Moduli (GPa) = 52.13458 57.30433 70.75335
#
# Poissons Ratio (x) = 0.34701 0.65275
# Poissons Ratio (y) = 0.31571 0.09737
# Poissons Ratio (z) = 0.48098 0.07886
#
# Static dielectric constant tensor:
#      x y z
#    x 3.723780 0.000000 0.000000 
#    y 0.000000 3.432290 0.000000 
#    z 0.000000 0.000000 3.660590 
# 
# 
# High freq. dielectric constant tensor:
#      x y z
#    x 1.762530 0.000000 0.000000 
#    y 0.000000 1.765670 0.000000 
#    z 0.000000 0.000000 1.779030 
# 
# From -- ./inp_files/13646.got.cif
#   From: 2010.03.12/outbox.cif.g09.slc.cpg/sg47_7_cif.got.tgz:13646.got - 2010.04.14 03:12:58.
