data_PCOD8198256
_publ_section_title
;
Structure prediction by ZEFSAII (Michael W. Deem and Ramdas Pophale) SiO2 
 PCOD8198256
Probable space group: P M M M
;
_chemical_formula_sum "Si O2"
_cell_formula_units_Z 48
_cell_length_a 32.615036
_cell_length_b 9.458766
_cell_length_c 8.019592
_cell_angle_alpha 90.000000
_cell_angle_beta 90.000000
_cell_angle_gamma 90.000000
_cell_volume 2474.028042
_symmetry_space_group_name_H-M "P M M M"
_symmetry_group_IT_number 47
_symmetry_cell_setting 'orthorhombic'
loop_
_space_group_symop_operation_xyz
x,y,z
-x,-y,z
x,-y,-z
-x,y,-z
-x,-y,-z
x,y,-z
-x,y,z
x,-y,z
loop_
_atom_site_type_symbol
_atom_site_label
_atom_site_fract_x
_atom_site_fract_y
_atom_site_fract_z
Si Si1 0.180187 0.159031 0.304581
Si Si2 0.045809 0.667571 0.000000
Si Si3 0.899041 0.666562 0.308400
Si Si4 0.732561 0.157182 0.805725
Si Si5 0.500000 0.167577 0.813118
Si Si6 0.413147 0.839002 0.307644
Si Si7 0.660164 0.344077 0.192931
O O1 0.186323 0.159353 0.500000
O O2 0.142957 0.259517 0.252685
O O3 0.221998 0.219614 0.224610
O O4 0.171187 0.000000 0.238967
O O5 0.067507 0.718084 0.827732
O O6 0.044180 0.500000 0.000000
O O7 0.000000 0.731715 0.000000
O O8 0.911881 0.708264 0.500000
O O9 0.892011 0.500000 0.296712
O O10 0.697951 0.257743 0.723064
O O11 0.729516 0.000000 0.724711
O O12 0.723735 0.145623 0.000000
O O13 0.459113 0.220814 0.719921
O O14 0.500000 0.000000 0.811182
O O15 0.500000 0.228070 0.000000
O O16 0.401845 0.832623 0.500000
O O17 0.382112 0.739880 0.209687
O O18 0.409314 0.000000 0.239883
O O19 0.656883 0.500000 0.276634
O O20 0.669768 0.363665 0.000000
#
# Coordination Sequence:
#
# PCOD8198256 Si02
#       7
#     8   4   8   8   4   8   8
#     4   9  18  32  50  73 101 133 168 208 256 307
#     4   9  18  32  51  77 105 135 175 219 261 308
#     4   9  18  32  50  74 103 135 172 215 263 312
#     4   9  18  32  50  72  98 131 171 212 253 300
#     4   9  17  31  54  81 104 129 164 206 252 301
#     4  10  20  34  54  79 105 133 167 209 255 303
#     4  10  21  36  52  73 103 138 174 211 255 306
#
# _framework density 19.401558000000001
#
# number of rings (size 3 to 8) (size 9 to 14) (size 15 to 20)
#    0.000    2.667    0.000    1.250    1.167    4.667 
#    0.000    3.750    0.000    3.500    0.000    2.333 
#    0.000    0.000    0.000    0.000    0.000    0.000 
#
# Total GULP energy -594994.580697 kJ/mol
# GULP energy per Si atom -12395.720431 kJ/mol
# Density = 1.935740 g / cm^3
# Si number density = 19.401558 Si / 1000 Ang^3
#
#
#
# Elastic Constant Matrix: (Units=GPa)
#
#
# Indices 1 2 3 4 5 6 
#
# 1 170.9925 67.9683 40.5854 0.0000 0.0000 0.0000
# 2 67.9683 77.2281 22.5728 0.0000 0.0000 0.0000
# 3 40.5854 22.5728 53.6088 0.0000 0.0000 0.0000
# 4 0.0000 0.0000 0.0000 14.5593 0.0000 0.0000
# 5 0.0000 0.0000 0.0000 0.0000 18.4075 0.0000
# 6 0.0000 0.0000 0.0000 0.0000 0.0000 22.6635
#
#
#
# Elastic Compliance Matrix: (Units=1/GPa)
#
#
# Indices 1 2 3 4 5 6 
#
# 1 0.009800 -0.007362 -0.004319 0.000000 0.000000 0.000000
# 2 -0.007362 0.020297 -0.002973 0.000000 0.000000 0.000000
# 3 -0.004319 -0.002973 0.023175 0.000000 0.000000 0.000000
# 4 0.000000 0.000000 0.000000 0.068685 0.000000 0.000000
# 5 0.000000 0.000000 0.000000 0.000000 0.054326 0.000000
# 6 0.000000 0.000000 0.000000 0.000000 0.000000 0.044124
#
#
# Mechanical properties :
#
#
# Convention : Reuss Voigt Hill
#
# Bulk Modulus (GPa) = 41.72928 62.67581 52.20254
# Shear Modulus (GPa) = 19.40221 22.50624 20.95423
#
# Velocity S-wave (km/s) = 3.16576 3.40961 3.28994
# Velocity P-wave (km/s) = 5.90911 6.91919 6.43400
#
# Compressibility (1/GPa) = 0.02396399
#
# Stress axis : x y z
#
# Youngs Moduli (GPa) = 102.04221 49.26796 43.14970
#
# Poissons Ratio (x) = 0.36273 0.18637
# Poissons Ratio (y) = 0.75128 0.12827
# Poissons Ratio (z) = 0.44073 0.14645
#
# Static dielectric constant tensor:
#      x y z
#    x 3.680650 0.000000 0.000000 
#    y 0.000000 3.580180 0.000000 
#    z 0.000000 0.000000 3.459150 
# 
# 
# High freq. dielectric constant tensor:
#      x y z
#    x 1.759440 0.000000 0.000000 
#    y 0.000000 1.727510 0.000000 
#    z 0.000000 0.000000 1.747780 
# 
# From -- ./inp_files/2783.got.cif
#   From: 2010.03.12/outbox.cif.g09.slc.cpg/sg47_2_cif.got.tgz:2783.got - 2010.04.14 03:12:58.
