data_PCOD8198479
_publ_section_title
;
Structure prediction by ZEFSAII (Michael W. Deem and Ramdas Pophale) SiO2 
 PCOD8198479
Probable space group: P M M M
;
_chemical_formula_sum "Si O2"
_cell_formula_units_Z 40
_cell_length_a 8.991464
_cell_length_b 9.051088
_cell_length_c 25.732857
_cell_angle_alpha 90.000000
_cell_angle_beta 90.000000
_cell_angle_gamma 90.000000
_cell_volume 2094.205056
_symmetry_space_group_name_H-M "P M M M"
_symmetry_group_IT_number 47
_symmetry_cell_setting 'orthorhombic'
loop_
_space_group_symop_operation_xyz
x,y,z
-x,-y,z
x,-y,-z
-x,y,-z
-x,-y,-z
x,y,-z
-x,y,z
x,-y,z
loop_
_atom_site_type_symbol
_atom_site_label
_atom_site_fract_x
_atom_site_fract_y
_atom_site_fract_z
Si Si1 0.330807 0.674226 0.907176
Si Si2 0.174228 0.672467 0.596584
Si Si3 0.325029 0.170704 0.691116
Si Si4 0.325740 0.172777 0.500000
Si Si5 0.323788 0.663301 0.207674
Si Si6 0.175194 0.166066 0.000000
O O1 0.500000 0.728360 0.914784
O O2 0.320652 0.500000 0.915848
O O3 0.270267 0.715664 0.849412
O O4 0.228448 0.753926 0.948331
O O5 0.210309 0.500000 0.591970
O O6 0.234159 0.731424 0.650967
O O7 0.255993 0.756919 0.550838
O O8 0.000000 0.704060 0.592437
O O9 0.500000 0.198281 0.682683
O O10 0.273033 0.220512 0.748581
O O11 0.283938 0.000000 0.683533
O O12 0.500000 0.204904 0.500000
O O13 0.290609 0.000000 0.500000
O O14 0.500000 0.651862 0.205541
O O15 0.259239 0.500000 0.220862
O O16 0.000000 0.169391 0.000000
O O17 0.237433 0.000000 0.000000
#
# Coordination Sequence:
#
# PCOD8198479 Si02
#       6
#     8   8   8   4   8   4
#     4   9  18  34  57  82 104 131 174 223 268 319
#     4  11  24  40  58  82 112 147 187 226 265 314
#     4  10  20  34  55  84 114 144 180 220 264 317
#     4  11  24  41  62  88 114 141 178 223 272 326
#     4   8  15  30  53  80 108 137 172 218 268 315
#     4  11  24  37  48  70 106 143 178 217 264 320
#
# _framework density 19.100325999999999
#
# number of rings (size 3 to 8) (size 9 to 14) (size 15 to 20)
#    0.000    2.200    0.000    4.200    0.000   10.400 
#    0.000    3.000    0.000    1.200    0.000    0.000 
#    0.000    0.000    0.000    0.000    0.000    0.000 
#
# Total GULP energy -496010.071652 kJ/mol
# GULP energy per Si atom -12400.251791 kJ/mol
# Density = 1.905685 g / cm^3
# Si number density = 19.100326 Si / 1000 Ang^3
#
#
#
# Elastic Constant Matrix: (Units=GPa)
#
#
# Indices 1 2 3 4 5 6 
#
# 1 65.0059 65.1543 56.8193 0.0000 0.0000 0.0000
# 2 65.1543 93.6915 72.2166 0.0000 0.0000 0.0000
# 3 56.8193 72.2166 160.7942 0.0000 0.0000 0.0000
# 4 0.0000 0.0000 0.0000 39.1050 0.0000 0.0000
# 5 0.0000 0.0000 0.0000 0.0000 -112.3651 0.0000
# 6 0.0000 0.0000 0.0000 0.0000 0.0000 26.8867
#
#
#
# Elastic Compliance Matrix: (Units=1/GPa)
#
#
# Indices 1 2 3 4 5 6 
#
# 1 0.051860 -0.033555 -0.003255 0.000000 0.000000 0.000000
# 2 -0.033555 0.038036 -0.005226 0.000000 0.000000 0.000000
# 3 -0.003255 -0.005226 0.009716 0.000000 0.000000 0.000000
# 4 0.000000 0.000000 0.000000 0.025572 0.000000 0.000000
# 5 0.000000 0.000000 0.000000 0.000000 -0.008900 0.000000
# 6 0.000000 0.000000 0.000000 0.000000 0.000000 0.037193
#
#
# Mechanical properties :
#
#
# Convention : Reuss Voigt Hill
#
# Bulk Modulus (GPa) = 64.34790 78.65245 71.50017
# Shear Modulus (GPa) = 20.59900 -0.92124 9.83888
#
# Velocity S-wave (km/s) = 3.28756 -0.69524 2.27208
# Velocity P-wave (km/s) = 6.94070 6.37366 6.66321
#
# Compressibility (1/GPa) = 0.01554052
#
# Stress axis : x y z
#
# Youngs Moduli (GPa) = 19.28257 26.29103 102.91951
#
# Poissons Ratio (x) = 0.88220 0.33503
# Poissons Ratio (y) = 0.64703 0.53781
# Poissons Ratio (z) = 0.06277 0.13738
#
# Static dielectric constant tensor:
#      x y z
#    x 3.292650 0.000000 0.000000 
#    y 0.000000 3.602690 0.000000 
#    z 0.000000 0.000000 3.893350 
# 
# 
# High freq. dielectric constant tensor:
#      x y z
#    x 1.718670 0.000000 0.000000 
#    y 0.000000 1.747660 0.000000 
#    z 0.000000 0.000000 1.763170 
# 
# From -- ./inp_files/33021.got.cif
#   From: 2010.03.12/outbox.cif.g09.slc.cpg/sg47_17_cif.got.tgz:33021.got - 2010.04.14 03:12:58.
