data_PCOD8198954
_publ_section_title
;
Structure prediction by ZEFSAII (Michael W. Deem and Ramdas Pophale) SiO2 
 PCOD8198954
Probable space group: P M M M
;
_chemical_formula_sum "Si O2"
_cell_formula_units_Z 52
_cell_length_a 12.837845
_cell_length_b 7.988961
_cell_length_c 27.616569
_cell_angle_alpha 90.000000
_cell_angle_beta 90.000000
_cell_angle_gamma 90.000000
_cell_volume 2832.384122
_symmetry_space_group_name_H-M "P M M M"
_symmetry_group_IT_number 47
_symmetry_cell_setting 'orthorhombic'
loop_
_space_group_symop_operation_xyz
x,y,z
-x,-y,z
x,-y,-z
-x,y,-z
-x,-y,-z
x,y,-z
-x,y,z
x,-y,z
loop_
_atom_site_type_symbol
_atom_site_label
_atom_site_fract_x
_atom_site_fract_y
_atom_site_fract_z
Si Si1 0.118073 0.697577 0.053939
Si Si2 0.382882 0.306078 0.315665
Si Si3 0.000000 0.309720 0.793476
Si Si4 0.121445 0.000000 0.556788
Si Si5 0.198888 0.193104 0.849436
Si Si6 0.000000 0.303230 0.312260
Si Si7 0.386045 0.806723 0.211443
Si Si8 0.811038 0.301918 0.380090
O O1 0.121668 0.500000 0.059838
O O2 0.196223 0.779519 0.092711
O O3 0.000000 0.761497 0.062734
O O4 0.154690 0.750414 0.000000
O O5 0.500000 0.252042 0.331654
O O6 0.378215 0.500000 0.302772
O O7 0.347922 0.212162 0.266793
O O8 0.303461 0.264446 0.358780
O O9 0.900355 0.275981 0.825631
O O10 0.000000 0.215855 0.741168
O O11 0.000000 0.500000 0.778909
O O12 0.173824 0.173067 0.575668
O O13 0.139528 0.000000 0.500000
O O14 0.000000 0.000000 0.570639
O O15 0.302945 0.274596 0.825895
O O16 0.195506 0.000000 0.836360
O O17 0.103856 0.248246 0.340301
O O18 0.000000 0.500000 0.307953
O O19 0.500000 0.720214 0.204883
O O20 0.396598 0.000000 0.198791
O O21 0.822417 0.500000 0.395501
#
# Coordination Sequence:
#
# PCOD8198954 Si02
#       8
#     8   8   4   4   8   4   8   8
#     4   9  18  33  52  71  93 127 169 212 263 319
#     4   9  18  33  55  82 109 141 183 222 261 318
#     4  11  21  33  48  70 106 141 167 203 260 322
#     4  11  24  40  59  87 113 145 194 233 275 332
#     4  11  21  32  47  74 104 132 170 211 258 315
#     4   9  18  32  50  74 104 143 178 209 260 318
#     4   9  19  34  50  73 107 144 177 212 256 308
#     4  10  20  37  57  82 115 145 181 230 279 324
#
# _framework density 18.359093000000001
#
# number of rings (size 3 to 8) (size 9 to 14) (size 15 to 20)
#    0.000    2.231    1.538    2.077    1.077    3.077 
#    2.769    1.538    0.000    1.385    0.000    5.385 
#    0.000    0.000    0.000    0.000    0.000    0.000 
#
# Total GULP energy -644510.423472 kJ/mol
# GULP energy per Si atom -12394.431221 kJ/mol
# Density = 1.831731 g / cm^3
# Si number density = 18.359093 Si / 1000 Ang^3
#
#
#
# Elastic Constant Matrix: (Units=GPa)
#
#
# Indices 1 2 3 4 5 6 
#
# 1 121.4837 30.2279 65.9334 0.0000 0.0000 0.0000
# 2 30.2279 48.8034 34.1902 0.0000 0.0000 0.0000
# 3 65.9334 34.1902 118.6671 0.0000 0.0000 0.0000
# 4 0.0000 0.0000 0.0000 28.2540 0.0000 0.0000
# 5 0.0000 0.0000 0.0000 0.0000 27.2194 0.0000
# 6 0.0000 0.0000 0.0000 0.0000 0.0000 -2.7902
#
#
#
# Elastic Compliance Matrix: (Units=1/GPa)
#
#
# Indices 1 2 3 4 5 6 
#
# 1 0.012253 -0.003533 -0.005790 0.000000 0.000000 0.000000
# 2 -0.003533 0.026691 -0.005727 0.000000 0.000000 0.000000
# 3 -0.005790 -0.005727 0.013294 0.000000 0.000000 0.000000
# 4 0.000000 0.000000 0.000000 0.035393 0.000000 0.000000
# 5 0.000000 0.000000 0.000000 0.000000 0.036739 0.000000
# 6 0.000000 0.000000 0.000000 0.000000 0.000000 -0.358395
#
#
# Mechanical properties :
#
#
# Convention : Reuss Voigt Hill
#
# Bulk Modulus (GPa) = 45.17193 61.07301 53.12247
# Shear Modulus (GPa) = -25.43948 21.11015 -2.16466
#
# Velocity S-wave (km/s) = -3.72648 3.39462 -1.08703
# Velocity P-wave (km/s) = 2.47841 6.97873 5.23665
#
# Compressibility (1/GPa) = 0.02213764
#
# Stress axis : x y z
#
# Youngs Moduli (GPa) = 81.61161 37.46597 75.22107
#
# Poissons Ratio (x) = 0.13237 0.43554
# Poissons Ratio (y) = 0.28833 0.43080
# Poissons Ratio (z) = 0.47254 0.21457
#
# Static dielectric constant tensor:
#      x y z
#    x 3.762540 0.000000 0.000000 
#    y 0.000000 3.286280 0.000000 
#    z 0.000000 0.000000 3.364080 
# 
# 
# High freq. dielectric constant tensor:
#      x y z
#    x 1.704470 0.000000 0.000000 
#    y 0.000000 1.705090 0.000000 
#    z 0.000000 0.000000 1.697970 
# 
# From -- ./inp_files/33644.got.cif
#   From: 2010.03.12/outbox.cif.g09.slc.cpg/sg47_17_cif.got.tgz:33644.got - 2010.04.14 03:12:58.
