data_PCOD8198693
_publ_section_title
;
Structure prediction by ZEFSAII (Michael W. Deem and Ramdas Pophale) SiO2 
 PCOD8198693
Probable space group: P M M M
;
_chemical_formula_sum "Si O2"
_cell_formula_units_Z 48
_cell_length_a 8.801642
_cell_length_b 20.580359
_cell_length_c 13.980908
_cell_angle_alpha 90.000000
_cell_angle_beta 90.000000
_cell_angle_gamma 90.000000
_cell_volume 2532.514987
_symmetry_space_group_name_H-M "P M M M"
_symmetry_group_IT_number 47
_symmetry_cell_setting 'orthorhombic'
loop_
_space_group_symop_operation_xyz
x,y,z
-x,-y,z
x,-y,-z
-x,y,-z
-x,-y,-z
x,y,-z
-x,y,z
x,-y,z
loop_
_atom_site_type_symbol
_atom_site_label
_atom_site_fract_x
_atom_site_fract_y
_atom_site_fract_z
Si Si1 0.176986 0.184051 0.108123
Si Si2 0.320350 0.500000 0.609085
Si Si3 0.678828 0.872606 0.283466
Si Si4 0.822209 0.621129 0.714483
Si Si5 0.677827 0.677515 0.890898
Si Si6 0.825046 0.245327 0.611394
Si Si7 0.680620 0.000000 0.392484
O O1 0.240015 0.129613 0.180008
O O2 0.261241 0.250862 0.131790
O O3 0.000000 0.196082 0.125976
O O4 0.209672 0.160691 0.000000
O O5 0.500000 0.500000 0.613793
O O6 0.261552 0.500000 0.500000
O O7 0.260057 0.436676 0.661205
O O8 0.500000 0.875973 0.267078
O O9 0.718612 0.810286 0.346668
O O10 0.740183 0.936404 0.337450
O O11 0.761159 0.625722 0.823078
O O12 0.780549 0.686984 0.659551
O O13 0.000000 0.606923 0.715922
O O14 0.500000 0.676806 0.869668
O O15 0.714369 0.657893 0.000000
O O16 0.791753 0.252137 0.500000
O O17 0.000000 0.227483 0.632423
O O18 0.500000 0.000000 0.397130
O O19 0.747910 0.000000 0.500000
#
# Coordination Sequence:
#
# PCOD8198693 Si02
#       7
#     8   4   8   8   8   8   4
#     4  10  20  35  56  83 116 152 189 233 288 347
#     4  11  25  43  62  85 118 159 201 244 290 343
#     4  11  21  35  58  84 112 149 193 241 292 343
#     4  11  22  38  61  87 118 156 195 237 290 348
#     4  10  20  35  58  89 121 152 190 237 288 342
#     4  10  21  36  55  82 115 148 188 238 288 342
#     4   9  20  38  56  79 114 154 193 235 290 351
#
# _framework density 18.953489999999999
#
# number of rings (size 3 to 8) (size 9 to 14) (size 15 to 20)
#    0.000    1.667    1.667    3.250    0.000    5.000 
#    0.000    2.500    0.000    8.000    0.000    0.000 
#    0.000    0.000    0.000    0.000    0.000    0.000 
#
# Total GULP energy -595407.698649 kJ/mol
# GULP energy per Si atom -12404.327055 kJ/mol
# Density = 1.891035 g / cm^3
# Si number density = 18.953490 Si / 1000 Ang^3
#
#
#
# Elastic Constant Matrix: (Units=GPa)
#
#
# Indices 1 2 3 4 5 6 
#
# 1 49.0201 33.1280 39.9546 0.0000 0.0000 0.0000
# 2 33.1280 109.0491 70.3165 0.0000 0.0000 0.0000
# 3 39.9546 70.3165 158.9638 0.0000 0.0000 0.0000
# 4 0.0000 0.0000 0.0000 37.1465 0.0000 0.0000
# 5 0.0000 0.0000 0.0000 0.0000 33.0698 0.0000
# 6 0.0000 0.0000 0.0000 0.0000 0.0000 -1.5446
#
#
#
# Elastic Compliance Matrix: (Units=1/GPa)
#
#
# Indices 1 2 3 4 5 6 
#
# 1 0.027845 -0.005521 -0.004556 0.000000 0.000000 0.000000
# 2 -0.005521 0.013924 -0.004772 0.000000 0.000000 0.000000
# 3 -0.004556 -0.004772 0.009547 0.000000 0.000000 0.000000
# 4 0.000000 0.000000 0.000000 0.026920 0.000000 0.000000
# 5 0.000000 0.000000 0.000000 0.000000 0.030239 0.000000
# 6 0.000000 0.000000 0.000000 0.000000 0.000000 -0.647433
#
#
# Mechanical properties :
#
#
# Convention : Reuss Voigt Hill
#
# Bulk Modulus (GPa) = 46.25859 67.09234 56.67546
# Shear Modulus (GPa) = -9.95909 25.30995 7.67543
#
# Velocity S-wave (km/s) = -2.29475 3.65824 2.01455
# Velocity P-wave (km/s) = 4.17590 7.30198 5.94798
#
# Compressibility (1/GPa) = 0.02161761
#
# Stress axis : x y z
#
# Youngs Moduli (GPa) = 35.91357 71.81753 104.74841
#
# Poissons Ratio (x) = 0.39649 0.47728
# Poissons Ratio (y) = 0.19827 0.49982
# Poissons Ratio (z) = 0.16364 0.34269
#
# Static dielectric constant tensor:
#      x y z
#    x 3.453230 0.000000 0.000000 
#    y 0.000000 3.401520 0.000000 
#    z 0.000000 0.000000 3.801650 
# 
# 
# High freq. dielectric constant tensor:
#      x y z
#    x 1.739770 0.000000 0.000000 
#    y 0.000000 1.718690 0.000000 
#    z 0.000000 0.000000 1.758000 
# 
# From -- ./inp_files/21059.got.cif
#   From: 2010.03.12/outbox.cif.g09.slc.cpg/sg47_11_cif.got.tgz:21059.got - 2010.04.14 03:12:58.
