data_PCOD8198909
_publ_section_title
;
Structure prediction by ZEFSAII (Michael W. Deem and Ramdas Pophale) SiO2 
 PCOD8198909
Probable space group: P M M M
;
_chemical_formula_sum "Si O2"
_cell_formula_units_Z 40
_cell_length_a 9.355754
_cell_length_b 7.895802
_cell_length_c 27.012827
_cell_angle_alpha 90.000000
_cell_angle_beta 90.000000
_cell_angle_gamma 90.000000
_cell_volume 1995.469437
_symmetry_space_group_name_H-M "P M M M"
_symmetry_group_IT_number 47
_symmetry_cell_setting 'orthorhombic'
loop_
_space_group_symop_operation_xyz
x,y,z
-x,-y,z
x,-y,-z
-x,y,-z
-x,-y,-z
x,y,-z
-x,y,z
x,-y,z
loop_
_atom_site_type_symbol
_atom_site_label
_atom_site_fract_x
_atom_site_fract_y
_atom_site_fract_z
Si Si1 0.161389 0.700713 0.907117
Si Si2 0.837010 0.195388 0.198997
Si Si3 0.341558 0.308389 0.711094
Si Si4 0.667842 0.191311 0.606396
Si Si5 0.338863 0.297922 0.000000
Si Si6 0.164516 0.500000 0.558513
O O1 0.161709 0.500000 0.907579
O O2 0.227554 0.765481 0.855230
O O3 0.000000 0.770349 0.914212
O O4 0.258554 0.772663 0.951426
O O5 0.757890 0.297753 0.241336
O O6 0.000000 0.257607 0.199101
O O7 0.821345 0.000000 0.211790
O O8 0.500000 0.251160 0.727586
O O9 0.340941 0.500000 0.691602
O O10 0.289671 0.196906 0.664582
O O11 0.500000 0.234330 0.599899
O O12 0.759529 0.328296 0.576679
O O13 0.701133 0.000000 0.587326
O O14 0.337253 0.500000 0.000000
O O15 0.500000 0.227719 0.000000
O O16 0.172961 0.500000 0.500000
O O17 0.000000 0.500000 0.576960
#
# Coordination Sequence:
#
# PCOD8198909 Si02
#       6
#     8   8   8   8   4   4
#     4   9  17  31  50  70  95 131 173 216 266 327
#     4  10  21  35  51  76 110 145 182 225 275 335
#     4  10  20  36  59  85 114 149 189 235 287 343
#     4  10  21  40  66  93 123 162 209 257 304 360
#     4   9  17  29  48  73  96 120 162 221 276 327
#     4  11  25  43  63  91 129 169 207 254 309 362
#
# _framework density 20.045407999999998
#
# number of rings (size 3 to 8) (size 9 to 14) (size 15 to 20)
#    0.000    2.200    1.000    1.800    0.000    6.800 
#    0.000    4.500    0.000    3.000    0.000    0.000 
#    0.000    0.000    0.000    0.000    0.000    0.000 
#
# Total GULP energy -495971.143658 kJ/mol
# GULP energy per Si atom -12399.278591 kJ/mol
# Density = 1.999978 g / cm^3
# Si number density = 20.045408 Si / 1000 Ang^3
#
#
#
# Elastic Constant Matrix: (Units=GPa)
#
#
# Indices 1 2 3 4 5 6 
#
# 1 98.7580 42.0888 63.6137 0.0000 0.0000 0.0000
# 2 42.0888 82.3706 38.8356 0.0000 0.0000 0.0000
# 3 63.6137 38.8356 116.5868 0.0000 0.0000 0.0000
# 4 0.0000 0.0000 0.0000 15.6334 0.0000 0.0000
# 5 0.0000 0.0000 0.0000 0.0000 17.1161 0.0000
# 6 0.0000 0.0000 0.0000 0.0000 0.0000 20.7739
#
#
#
# Elastic Compliance Matrix: (Units=1/GPa)
#
#
# Indices 1 2 3 4 5 6 
#
# 1 0.017314 -0.005211 -0.007711 0.000000 0.000000 0.000000
# 2 -0.005211 0.015971 -0.002476 0.000000 0.000000 0.000000
# 3 -0.007711 -0.002476 0.013610 0.000000 0.000000 0.000000
# 4 0.000000 0.000000 0.000000 0.063966 0.000000 0.000000
# 5 0.000000 0.000000 0.000000 0.000000 0.058424 0.000000
# 6 0.000000 0.000000 0.000000 0.000000 0.000000 0.048137
#
#
# Mechanical properties :
#
#
# Convention : Reuss Voigt Hill
#
# Bulk Modulus (GPa) = 62.12544 65.19908 63.66226
# Shear Modulus (GPa) = 19.71732 20.91650 20.31691
#
# Velocity S-wave (km/s) = 3.13969 3.23376 3.18707
# Velocity P-wave (km/s) = 6.64855 6.82197 6.73582
#
# Compressibility (1/GPa) = 0.01609647
#
# Stress axis : x y z
#
# Youngs Moduli (GPa) = 57.75792 62.61503 73.47738
#
# Poissons Ratio (x) = 0.32630 0.56659
# Poissons Ratio (y) = 0.30099 0.18197
# Poissons Ratio (z) = 0.44537 0.15506
#
# Static dielectric constant tensor:
#      x y z
#    x 3.665490 0.000000 0.000000 
#    y 0.000000 3.524280 0.000000 
#    z 0.000000 0.000000 3.618810 
# 
# 
# High freq. dielectric constant tensor:
#      x y z
#    x 1.769050 0.000000 0.000000 
#    y 0.000000 1.778990 0.000000 
#    z 0.000000 0.000000 1.785930 
# 
# From -- ./inp_files/33007.got.cif
#   From: 2010.03.12/outbox.cif.g09.slc.cpg/sg47_17_cif.got.tgz:33007.got - 2010.04.14 03:12:58.
