data_PCOD8198015
_publ_section_title
;
Structure prediction by ZEFSAII (Michael W. Deem and Ramdas Pophale) SiO2 
 PCOD8198015
Probable space group: P M M M
;
_chemical_formula_sum "Si O2"
_cell_formula_units_Z 48
_cell_length_a 17.132895
_cell_length_b 17.296203
_cell_length_c 8.960587
_cell_angle_alpha 90.000000
_cell_angle_beta 90.000000
_cell_angle_gamma 90.000000
_cell_volume 2655.326856
_symmetry_space_group_name_H-M "P M M M"
_symmetry_group_IT_number 47
_symmetry_cell_setting 'orthorhombic'
loop_
_space_group_symop_operation_xyz
x,y,z
-x,-y,z
x,-y,-z
-x,y,-z
-x,-y,-z
x,y,-z
-x,y,z
x,-y,z
loop_
_atom_site_type_symbol
_atom_site_label
_atom_site_fract_x
_atom_site_fract_y
_atom_site_fract_z
Si Si1 0.913449 0.756036 0.827595
Si Si2 0.500000 0.591855 0.332758
Si Si3 0.147814 0.916936 0.167642
Si Si4 0.758444 0.288551 0.675071
Si Si5 0.591061 0.000000 0.824094
Si Si6 0.655154 0.589405 0.825159
Si Si7 0.300635 0.121920 0.325316
O O1 0.912980 0.848579 0.800431
O O2 0.848644 0.717743 0.723348
O O3 0.000000 0.726292 0.783144
O O4 0.895496 0.736007 0.000000
O O5 0.500000 0.500000 0.332561
O O6 0.500000 0.625517 0.500000
O O7 0.423729 0.622385 0.248448
O O8 0.219301 0.917252 0.282424
O O9 0.104756 0.000000 0.184481
O O10 0.182245 0.907401 0.000000
O O11 0.755389 0.303696 0.500000
O O12 0.726848 0.362827 0.760861
O O13 0.707131 0.212899 0.718567
O O14 0.628909 0.078730 0.758792
O O15 0.500000 0.000000 0.781531
O O16 0.604183 0.000000 0.000000
O O17 0.669005 0.500000 0.783984
O O18 0.648040 0.601791 0.000000
O O19 0.315148 0.111733 0.500000
#
# Coordination Sequence:
#
# PCOD8198015 Si02
#       7
#     8   4   8   8   4   8   8
#     4   9  18  32  50  74 105 140 176 217 265 316
#     4   9  17  31  53  81 113 144 171 206 255 309
#     4   9  16  27  47  72  98 131 168 209 256 310
#     4  10  21  36  55  80 108 142 180 219 267 322
#     4  11  23  37  53  73  98 133 178 225 271 316
#     4  10  20  35  57  84 112 143 179 218 264 318
#     4  10  20  34  52  73  99 134 175 217 261 311
#
# _framework density 18.076871000000001
#
# number of rings (size 3 to 8) (size 9 to 14) (size 15 to 20)
#    0.000    2.333    0.833    2.000    0.000    5.333 
#    1.500    1.667    0.000    0.500    0.000    8.167 
#    0.000    0.000    0.000    0.000    0.000    0.000 
#
# Total GULP energy -595028.499931 kJ/mol
# GULP energy per Si atom -12396.427082 kJ/mol
# Density = 1.803573 g / cm^3
# Si number density = 18.076871 Si / 1000 Ang^3
#
#
#
# Elastic Constant Matrix: (Units=GPa)
#
#
# Indices 1 2 3 4 5 6 
#
# 1 102.7137 44.7423 44.1806 0.0000 0.0000 0.0000
# 2 44.7423 76.8029 43.8608 0.0000 0.0000 0.0000
# 3 44.1806 43.8608 84.2881 0.0000 0.0000 0.0000
# 4 0.0000 0.0000 0.0000 25.5628 0.0000 0.0000
# 5 0.0000 0.0000 0.0000 0.0000 21.1064 0.0000
# 6 0.0000 0.0000 0.0000 0.0000 0.0000 20.1417
#
#
#
# Elastic Compliance Matrix: (Units=1/GPa)
#
#
# Indices 1 2 3 4 5 6 
#
# 1 0.014126 -0.005692 -0.004442 0.000000 0.000000 0.000000
# 2 -0.005692 0.020820 -0.007850 0.000000 0.000000 0.000000
# 3 -0.004442 -0.007850 0.018277 0.000000 0.000000 0.000000
# 4 0.000000 0.000000 0.000000 0.039119 0.000000 0.000000
# 5 0.000000 0.000000 0.000000 0.000000 0.047379 0.000000
# 6 0.000000 0.000000 0.000000 0.000000 0.000000 0.049648
#
#
# Mechanical properties :
#
#
# Convention : Reuss Voigt Hill
#
# Bulk Modulus (GPa) = 57.95865 58.81912 58.38888
# Shear Modulus (GPa) = 21.63655 22.09693 21.86674
#
# Velocity S-wave (km/s) = 3.46340 3.50006 3.48178
# Velocity P-wave (km/s) = 6.93725 6.99592 6.96665
#
# Compressibility (1/GPa) = 0.01725368
#
# Stress axis : x y z
#
# Youngs Moduli (GPa) = 70.79036 48.03171 54.71233
#
# Poissons Ratio (x) = 0.27342 0.24304
# Poissons Ratio (y) = 0.40297 0.42949
# Poissons Ratio (z) = 0.31447 0.37705
#
# Static dielectric constant tensor:
#      x y z
#    x 3.205810 0.000000 0.000000 
#    y 0.000000 3.257900 0.000000 
#    z 0.000000 0.000000 3.400890 
# 
# 
# High freq. dielectric constant tensor:
#      x y z
#    x 1.686940 0.000000 0.000000 
#    y 0.000000 1.682510 0.000000 
#    z 0.000000 0.000000 1.707930 
# 
# From -- ./inp_files/6447.got.cif
#   From: 2010.03.12/outbox.cif.g09.slc.cpg/sg47_4_cif.got.tgz:6447.got - 2010.04.14 03:12:58.
