data_PCOD8198144
_publ_section_title
;
Structure prediction by ZEFSAII (Michael W. Deem and Ramdas Pophale) SiO2 
 PCOD8198144
Probable space group: P M M M
;
_chemical_formula_sum "Si O2"
_cell_formula_units_Z 48
_cell_length_a 8.940331
_cell_length_b 8.836941
_cell_length_c 31.082653
_cell_angle_alpha 90.000000
_cell_angle_beta 90.000000
_cell_angle_gamma 90.000000
_cell_volume 2455.690520
_symmetry_space_group_name_H-M "P M M M"
_symmetry_group_IT_number 47
_symmetry_cell_setting 'orthorhombic'
loop_
_space_group_symop_operation_xyz
x,y,z
-x,-y,z
x,-y,-z
-x,y,-z
-x,-y,-z
x,y,-z
-x,y,z
x,-y,z
loop_
_atom_site_type_symbol
_atom_site_label
_atom_site_fract_x
_atom_site_fract_y
_atom_site_fract_z
Si Si1 0.668645 0.179613 0.666437
Si Si2 0.323925 0.175322 0.838302
Si Si3 0.827139 0.677119 0.081171
Si Si4 0.668684 0.320088 0.500000
Si Si5 0.168401 0.820181 0.248857
Si Si6 0.175100 0.675559 0.586033
Si Si7 0.329968 0.179089 0.000000
O O1 0.500000 0.243259 0.663917
O O2 0.746249 0.244983 0.709460
O O3 0.761741 0.232078 0.625707
O O4 0.667869 0.000000 0.667639
O O5 0.500000 0.200351 0.836501
O O6 0.255217 0.277219 0.875383
O O7 0.254812 0.233953 0.793620
O O8 0.283787 0.000000 0.846824
O O9 0.807744 0.500000 0.073145
O O10 0.753910 0.764357 0.041936
O O11 0.000000 0.723813 0.084549
O O12 0.673682 0.500000 0.500000
O O13 0.500000 0.257961 0.500000
O O14 0.751301 0.259321 0.542500
O O15 0.000000 0.755101 0.248141
O O16 0.166134 0.000000 0.250807
O O17 0.214660 0.500000 0.592541
O O18 0.000000 0.703285 0.582557
O O19 0.500000 0.240116 0.000000
O O20 0.328065 0.000000 0.000000
#
# Coordination Sequence:
#
# PCOD8198144 Si02
#       7
#     8   8   8   4   8   8   4
#     4  10  20  34  53  78 108 141 177 219 267 318
#     4  10  20  35  57  84 111 141 181 225 266 314
#     4  11  24  40  58  83 115 149 184 223 270 322
#     4   9  17  31  52  75 100 133 172 214 262 317
#     4   9  17  31  53  79 107 141 179 219 265 316
#     4  10  20  34  53  77 104 135 173 217 264 316
#     4  11  24  41  62  88 114 143 184 229 270 318
#
# _framework density 19.546436
#
# number of rings (size 3 to 8) (size 9 to 14) (size 15 to 20)
#    0.000    2.000    0.000    3.750    0.000   11.000 
#    0.000    1.250    0.000    7.500    0.000    0.000 
#    0.000    0.000    0.000    0.000    0.000    0.000 
#
# Total GULP energy -595364.058559 kJ/mol
# GULP energy per Si atom -12403.417887 kJ/mol
# Density = 1.950195 g / cm^3
# Si number density = 19.546436 Si / 1000 Ang^3
#
#
#
# Elastic Constant Matrix: (Units=GPa)
#
#
# Indices 1 2 3 4 5 6 
#
# 1 119.7668 23.3654 57.1951 0.0000 0.0000 0.0000
# 2 23.3654 26.1815 19.6591 0.0000 0.0000 0.0000
# 3 57.1951 19.6591 163.5478 0.0000 0.0000 0.0000
# 4 0.0000 0.0000 0.0000 98.2277 0.0000 0.0000
# 5 0.0000 0.0000 0.0000 0.0000 47.5127 0.0000
# 6 0.0000 0.0000 0.0000 0.0000 0.0000 25.6001
#
#
#
# Elastic Compliance Matrix: (Units=1/GPa)
#
#
# Indices 1 2 3 4 5 6 
#
# 1 0.011319 -0.007836 -0.003016 0.000000 0.000000 0.000000
# 2 -0.007836 0.047410 -0.002958 0.000000 0.000000 0.000000
# 3 -0.003016 -0.002958 0.007525 0.000000 0.000000 0.000000
# 4 0.000000 0.000000 0.000000 0.010180 0.000000 0.000000
# 5 0.000000 0.000000 0.000000 0.000000 0.021047 0.000000
# 6 0.000000 0.000000 0.000000 0.000000 0.000000 0.039062
#
#
# Mechanical properties :
#
#
# Convention : Reuss Voigt Hill
#
# Bulk Modulus (GPa) = 25.88582 56.65948 41.27265
# Shear Modulus (GPa) = 28.24178 48.21988 38.23083
#
# Velocity S-wave (km/s) = 3.80525 4.97222 4.42735
# Velocity P-wave (km/s) = 5.70776 7.87490 6.87723
#
# Compressibility (1/GPa) = 0.03863119
#
# Stress axis : x y z
#
# Youngs Moduli (GPa) = 88.34798 21.09270 132.89195
#
# Poissons Ratio (x) = 0.16529 0.40086
# Poissons Ratio (y) = 0.69233 0.39314
# Poissons Ratio (z) = 0.26649 0.06240
#
# Static dielectric constant tensor:
#      x y z
#    x 3.868960 0.000000 0.000000 
#    y 0.000000 3.226410 0.000000 
#    z 0.000000 0.000000 3.733640 
# 
# 
# High freq. dielectric constant tensor:
#      x y z
#    x 1.783180 0.000000 0.000000 
#    y 0.000000 1.725320 0.000000 
#    z 0.000000 0.000000 1.781470 
# 
# From -- ./inp_files/13964.got.cif
#   From: 2010.03.12/outbox.cif.g09.slc.cpg/sg47_7_cif.got.tgz:13964.got - 2010.04.14 03:12:58.
