data_PCOD8198276
_publ_section_title
;
Structure prediction by ZEFSAII (Michael W. Deem and Ramdas Pophale) SiO2 
 PCOD8198276
Probable space group: P M M M
;
_chemical_formula_sum "Si O2"
_cell_formula_units_Z 64
_cell_length_a 8.926834
_cell_length_b 18.276174
_cell_length_c 20.803483
_cell_angle_alpha 90.000000
_cell_angle_beta 90.000000
_cell_angle_gamma 90.000000
_cell_volume 3394.054372
_symmetry_space_group_name_H-M "P M M M"
_symmetry_group_IT_number 47
_symmetry_cell_setting 'orthorhombic'
loop_
_space_group_symop_operation_xyz
x,y,z
-x,-y,z
x,-y,-z
-x,y,-z
-x,-y,-z
x,y,-z
-x,y,z
x,-y,z
loop_
_atom_site_type_symbol
_atom_site_label
_atom_site_fract_x
_atom_site_fract_y
_atom_site_fract_z
Si Si1 0.677939 0.581439 0.428689
Si Si2 0.171886 0.412713 0.793973
Si Si3 0.822516 0.418432 0.067637
Si Si4 0.330794 0.913046 0.803241
Si Si5 0.676578 0.677829 0.312737
Si Si6 0.831219 0.913037 0.070718
Si Si7 0.326242 0.915768 0.426261
Si Si8 0.176769 0.166469 0.312460
O O1 0.732231 0.604516 0.500000
O O2 0.500000 0.579272 0.425850
O O3 0.739305 0.500000 0.411972
O O4 0.738549 0.640775 0.378236
O O5 0.188010 0.500000 0.791549
O O6 0.224893 0.381817 0.864582
O O7 0.285897 0.377106 0.744547
O O8 0.000000 0.389983 0.778908
O O9 0.755210 0.500000 0.065556
O O10 0.000000 0.423934 0.069676
O O11 0.772488 0.378164 0.000000
O O12 0.500000 0.885061 0.794160
O O13 0.271450 0.881967 0.871737
O O14 0.230949 0.884878 0.745024
O O15 0.322460 0.000000 0.802322
O O16 0.500000 0.691795 0.315554
O O17 0.759780 0.753285 0.301718
O O18 0.000000 0.884159 0.081350
O O19 0.829955 0.000000 0.072785
O O20 0.772728 0.887005 0.000000
O O21 0.292922 0.894390 0.500000
O O22 0.500000 0.902956 0.410047
O O23 0.228327 0.864572 0.381017
O O24 0.283231 0.000000 0.413926
O O25 0.000000 0.169347 0.311307
#
# Coordination Sequence:
#
# PCOD8198276 Si02
#       8
#     8   8   8   8   8   8   8   8
#     4   8  15  30  53  79 102 125 160 205 248 293
#     4   9  17  30  50  76 105 135 168 211 261 310
#     4   7  10  19  39  68  98 127 162 203 246 296
#     4  10  20  34  54  79 106 137 175 219 266 317
#     4  11  22  35  52  74 102 137 176 216 259 310
#     4   8  14  26  46  74 107 139 171 210 257 309
#     4   9  19  38  63  87 110 137 170 209 254 308
#     4  12  25  38  53  75 106 142 179 221 267 314
#
# _framework density 18.856503
#
# number of rings (size 3 to 8) (size 9 to 14) (size 15 to 20)
#    0.000    2.750    0.000    4.875    0.000    4.250 
#    0.000    3.125    0.000    2.250    0.000    7.875 
#    0.000    0.000    0.000    0.000    0.000    0.000 
#
# Total GULP energy -793048.786140 kJ/mol
# GULP energy per Si atom -12391.387283 kJ/mol
# Density = 1.881359 g / cm^3
# Si number density = 18.856503 Si / 1000 Ang^3
#
#
#
# Elastic Constant Matrix: (Units=GPa)
#
#
# Indices 1 2 3 4 5 6 
#
# 1 82.6840 26.2820 47.7817 0.0000 0.0000 0.0000
# 2 26.2820 39.5586 33.1536 0.0000 0.0000 0.0000
# 3 47.7817 33.1536 144.8154 0.0000 0.0000 0.0000
# 4 0.0000 0.0000 0.0000 0.7001 0.0000 0.0000
# 5 0.0000 0.0000 0.0000 0.0000 31.6845 0.0000
# 6 0.0000 0.0000 0.0000 0.0000 0.0000 21.6267
#
#
#
# Elastic Compliance Matrix: (Units=1/GPa)
#
#
# Indices 1 2 3 4 5 6 
#
# 1 0.016791 -0.008059 -0.003695 0.000000 0.000000 0.000000
# 2 -0.008059 0.035149 -0.005388 0.000000 0.000000 0.000000
# 3 -0.003695 -0.005388 0.009358 0.000000 0.000000 0.000000
# 4 0.000000 0.000000 0.000000 1.428298 0.000000 0.000000
# 5 0.000000 0.000000 0.000000 0.000000 0.031561 0.000000
# 6 0.000000 0.000000 0.000000 0.000000 0.000000 0.046239
#
#
# Mechanical properties :
#
#
# Convention : Reuss Voigt Hill
#
# Bulk Modulus (GPa) = 37.01783 53.49919 45.25851
# Shear Modulus (GPa) = 3.10427 21.45831 12.28129
#
# Velocity S-wave (km/s) = 1.28446 3.37705 2.55483
# Velocity P-wave (km/s) = 4.67694 6.60601 5.72333
#
# Compressibility (1/GPa) = 0.02701401
#
# Stress axis : x y z
#
# Youngs Moduli (GPa) = 59.55464 28.45071 106.85963
#
# Poissons Ratio (x) = 0.22928 0.39488
# Poissons Ratio (y) = 0.47994 0.57574
# Poissons Ratio (z) = 0.22007 0.15329
#
# Static dielectric constant tensor:
#      x y z
#    x 3.243850 0.000000 0.000000 
#    y 0.000000 3.257940 0.000000 
#    z 0.000000 0.000000 4.037830 
# 
# 
# High freq. dielectric constant tensor:
#      x y z
#    x 1.704130 0.000000 0.000000 
#    y 0.000000 1.694770 0.000000 
#    z 0.000000 0.000000 1.759480 
# 
# From -- ./inp_files/29999.got.cif
#   From: 2010.03.12/outbox.cif.g09.slc.cpg/sg47_15_cif.got.tgz:29999.got - 2010.04.14 03:12:58.
