data_PCOD8198556
_publ_section_title
;
Structure prediction by ZEFSAII (Michael W. Deem and Ramdas Pophale) SiO2 
 PCOD8198556
Probable space group: P M M M
;
_chemical_formula_sum "Si O2"
_cell_formula_units_Z 56
_cell_length_a 9.033842
_cell_length_b 14.368582
_cell_length_c 21.129454
_cell_angle_alpha 90.000000
_cell_angle_beta 90.000000
_cell_angle_gamma 90.000000
_cell_volume 2742.677073
_symmetry_space_group_name_H-M "P M M M"
_symmetry_group_IT_number 47
_symmetry_cell_setting 'orthorhombic'
loop_
_space_group_symop_operation_xyz
x,y,z
-x,-y,z
x,-y,-z
-x,y,-z
-x,-y,-z
x,y,-z
-x,y,z
x,-y,z
loop_
_atom_site_type_symbol
_atom_site_label
_atom_site_fract_x
_atom_site_fract_y
_atom_site_fract_z
Si Si1 0.827339 0.607443 0.315214
Si Si2 0.329020 0.106323 0.764251
Si Si3 0.327632 0.281778 0.071215
Si Si4 0.674539 0.706512 0.570865
Si Si5 0.675143 0.100625 0.380104
Si Si6 0.174210 0.283629 0.192616
Si Si7 0.838555 0.899357 0.073202
O O1 0.793073 0.500000 0.302710
O O2 0.748493 0.637484 0.379649
O O3 0.763825 0.664025 0.254855
O O4 0.000000 0.626932 0.324007
O O5 0.500000 0.136184 0.772464
O O6 0.277461 0.117996 0.692008
O O7 0.225222 0.174892 0.805486
O O8 0.305056 0.000000 0.786171
O O9 0.500000 0.301489 0.078435
O O10 0.240268 0.333023 0.128674
O O11 0.294228 0.173042 0.083496
O O12 0.274644 0.312221 0.000000
O O13 0.714616 0.673247 0.500000
O O14 0.500000 0.704038 0.582835
O O15 0.734740 0.812651 0.578958
O O16 0.500000 0.094823 0.384737
O O17 0.739524 0.000000 0.403602
O O18 0.000000 0.293521 0.189924
O O19 0.000000 0.863435 0.099950
O O20 0.796925 0.000000 0.103878
O O21 0.860435 0.914913 0.000000
#
# Coordination Sequence:
#
# PCOD8198556 Si02
#       7
#     8   8   8   8   8   8   8
#     4  10  23  43  63  83 109 144 187 232 282 341
#     4   9  17  31  53  79 109 148 190 230 274 327
#     4  10  21  35  52  76 106 140 176 217 271 336
#     4  10  20  34  57  90 123 153 189 234 278 322
#     4   8  14  27  49  78 114 154 191 227 269 317
#     4  11  22  36  58  83 107 141 185 234 282 329
#     4   8  14  26  44  66  96 136 180 223 263 305
#
# _framework density 20.418006999999999
#
# number of rings (size 3 to 8) (size 9 to 14) (size 15 to 20)
#    0.000    2.571    1.429    2.143    0.000    3.714 
#    0.000    4.286    0.000    0.857    0.000    4.000 
#    0.000    0.000    0.000    0.000    0.000    0.000 
#
# Total GULP energy -693820.217705 kJ/mol
# GULP energy per Si atom -12389.646745 kJ/mol
# Density = 2.037153 g / cm^3
# Si number density = 20.418007 Si / 1000 Ang^3
#
#
#
# Elastic Constant Matrix: (Units=GPa)
#
#
# Indices 1 2 3 4 5 6 
#
# 1 56.1506 22.0119 46.5133 0.0000 0.0000 0.0000
# 2 22.0119 61.9618 42.9600 0.0000 0.0000 0.0000
# 3 46.5133 42.9600 149.2261 0.0000 0.0000 0.0000
# 4 0.0000 0.0000 0.0000 5.5509 0.0000 0.0000
# 5 0.0000 0.0000 0.0000 0.0000 28.6855 0.0000
# 6 0.0000 0.0000 0.0000 0.0000 0.0000 21.1355
#
#
#
# Elastic Compliance Matrix: (Units=1/GPa)
#
#
# Indices 1 2 3 4 5 6 
#
# 1 0.024904 -0.004329 -0.006516 0.000000 0.000000 0.000000
# 2 -0.004329 0.020916 -0.004672 0.000000 0.000000 0.000000
# 3 -0.006516 -0.004672 0.010077 0.000000 0.000000 0.000000
# 4 0.000000 0.000000 0.000000 0.180151 0.000000 0.000000
# 5 0.000000 0.000000 0.000000 0.000000 0.034861 0.000000
# 6 0.000000 0.000000 0.000000 0.000000 0.000000 0.047314
#
#
# Mechanical properties :
#
#
# Convention : Reuss Voigt Hill
#
# Bulk Modulus (GPa) = 40.22102 54.47879 47.34990
# Shear Modulus (GPa) = 13.98423 21.46461 17.72442
#
# Velocity S-wave (km/s) = 2.61989 3.24583 2.94951
# Velocity P-wave (km/s) = 5.37525 6.38646 5.90255
#
# Compressibility (1/GPa) = 0.02486262
#
# Stress axis : x y z
#
# Youngs Moduli (GPa) = 40.15381 47.80975 99.23253
#
# Poissons Ratio (x) = 0.20698 0.64662
# Poissons Ratio (y) = 0.17384 0.46362
# Poissons Ratio (z) = 0.26165 0.22337
#
# Static dielectric constant tensor:
#      x y z
#    x 3.369450 0.000000 0.000000 
#    y 0.000000 3.890100 0.000000 
#    z 0.000000 0.000000 4.024960 
# 
# 
# High freq. dielectric constant tensor:
#      x y z
#    x 1.769310 0.000000 0.000000 
#    y 0.000000 1.767370 0.000000 
#    z 0.000000 0.000000 1.817050 
# 
# From -- ./inp_files/29720.got.cif
#   From: 2010.03.12/outbox.cif.g09.slc.cpg/sg47_15_cif.got.tgz:29720.got - 2010.04.14 03:12:58.
