data_PCOD8198250
_publ_section_title
;
Structure prediction by ZEFSAII (Michael W. Deem and Ramdas Pophale) SiO2 
 PCOD8198250
Probable space group: P M M M
;
_chemical_formula_sum "Si O2"
_cell_formula_units_Z 56
_cell_length_a 14.694133
_cell_length_b 13.887603
_cell_length_c 15.018115
_cell_angle_alpha 90.000000
_cell_angle_beta 90.000000
_cell_angle_gamma 90.000000
_cell_volume 3064.690944
_symmetry_space_group_name_H-M "P M M M"
_symmetry_group_IT_number 47
_symmetry_cell_setting 'orthorhombic'
loop_
_space_group_symop_operation_xyz
x,y,z
-x,-y,z
x,-y,-z
-x,y,-z
-x,-y,-z
x,y,-z
-x,y,z
x,-y,z
loop_
_atom_site_type_symbol
_atom_site_label
_atom_site_fract_x
_atom_site_fract_y
_atom_site_fract_z
Si Si1 0.601222 0.308630 0.603811
Si Si2 0.648495 0.103028 0.396819
Si Si3 0.398093 0.385606 0.900400
Si Si4 0.898294 0.249519 0.248433
Si Si5 0.891947 0.106833 0.900885
Si Si6 0.861198 0.108247 0.398518
Si Si7 0.732131 0.611998 0.745452
O O1 0.629757 0.310098 0.500000
O O2 0.500000 0.351569 0.617073
O O3 0.600387 0.198414 0.641860
O O4 0.673393 0.373168 0.656161
O O5 0.624836 0.096239 0.500000
O O6 0.754721 0.116403 0.381034
O O7 0.616544 0.000000 0.353277
O O8 0.500000 0.347649 0.877241
O O9 0.398935 0.500000 0.895805
O O10 0.325306 0.345632 0.829113
O O11 0.370289 0.351543 0.000000
O O12 0.855465 0.184591 0.169339
O O13 0.910655 0.184616 0.336086
O O14 0.829746 0.337380 0.263327
O O15 0.000000 0.288717 0.224911
O O16 0.000000 0.104202 0.896185
O O17 0.854140 0.000000 0.877423
O O18 0.859667 0.136696 0.000000
O O19 0.885459 0.134352 0.500000
O O20 0.895239 0.000000 0.376740
O O21 0.752736 0.500000 0.757874
#
# Coordination Sequence:
#
# PCOD8198250 Si02
#       7
#     8   8   8   8   8   8   8
#     4  10  20  34  54  79 104 132 168 208 257 318
#     4   8  14  27  48  73 102 133 160 191 241 307
#     4   8  15  31  56  81  99 117 150 202 262 314
#     4  11  22  34  51  74 101 138 180 216 255 305
#     4   8  15  30  52  77 104 131 160 200 251 305
#     4   9  17  31  52  76 102 131 165 210 262 311
#     4  11  23  37  52  71 100 137 177 223 267 301
#
# _framework density 18.272642000000001
#
# number of rings (size 3 to 8) (size 9 to 14) (size 15 to 20)
#    0.000    2.714    1.429    2.571    0.000    3.429 
#    0.000    2.857    0.000    0.000    0.000    6.000 
#    0.000    0.000    0.000    9.429    0.000    1.143 
#
# Total GULP energy -693951.596852 kJ/mol
# GULP energy per Si atom -12391.992801 kJ/mol
# Density = 1.823105 g / cm^3
# Si number density = 18.272642 Si / 1000 Ang^3
#
#
#
# Elastic Constant Matrix: (Units=GPa)
#
#
# Indices 1 2 3 4 5 6 
#
# 1 86.6829 37.4803 39.3917 0.0000 0.0000 0.0000
# 2 37.4803 68.2873 37.4303 0.0000 0.0000 0.0000
# 3 39.3917 37.4303 91.7149 0.0000 0.0000 0.0000
# 4 0.0000 0.0000 0.0000 20.4676 0.0000 0.0000
# 5 0.0000 0.0000 0.0000 0.0000 20.7915 0.0000
# 6 0.0000 0.0000 0.0000 0.0000 0.0000 -0.2685
#
#
#
# Elastic Compliance Matrix: (Units=1/GPa)
#
#
# Indices 1 2 3 4 5 6 
#
# 1 0.016361 -0.006606 -0.004331 0.000000 0.000000 0.000000
# 2 -0.006606 0.021531 -0.005950 0.000000 0.000000 0.000000
# 3 -0.004331 -0.005950 0.015192 0.000000 0.000000 0.000000
# 4 0.000000 0.000000 0.000000 0.048858 0.000000 0.000000
# 5 0.000000 0.000000 0.000000 0.000000 0.048097 0.000000
# 6 0.000000 0.000000 0.000000 0.000000 0.000000 -3.725010
#
#
# Mechanical properties :
#
#
# Convention : Reuss Voigt Hill
#
# Bulk Modulus (GPa) = 51.78665 52.80996 52.29831
# Shear Modulus (GPa) = -1.41452 17.02363 7.80456
#
# Velocity S-wave (km/s) = -0.88080 3.05560 2.06892
# Velocity P-wave (km/s) = 5.23146 6.43528 5.86434
#
# Compressibility (1/GPa) = 0.01930999
#
# Stress axis : x y z
#
# Youngs Moduli (GPa) = 61.12195 46.44461 65.82502
#
# Poissons Ratio (x) = 0.30680 0.28509
# Poissons Ratio (y) = 0.40376 0.39165
# Poissons Ratio (z) = 0.26472 0.27634
#
# Static dielectric constant tensor:
#      x y z
#    x 3.181210 0.000000 0.000000 
#    y 0.000000 3.277940 0.000000 
#    z 0.000000 0.000000 3.432060 
# 
# 
# High freq. dielectric constant tensor:
#      x y z
#    x 1.693270 0.000000 0.000000 
#    y 0.000000 1.685530 0.000000 
#    z 0.000000 0.000000 1.696110 
# 
# From -- ./inp_files/23803.got.cif
#   From: 2010.03.12/outbox.cif.g09.slc.cpg/sg47_12_cif.got.tgz:23803.got - 2010.04.14 03:12:58.
