data_PCOD8198459
_publ_section_title
;
Structure prediction by ZEFSAII (Michael W. Deem and Ramdas Pophale) SiO2 
 PCOD8198459
Probable space group: P M M M
;
_chemical_formula_sum "Si O2"
_cell_formula_units_Z 44
_cell_length_a 8.091991
_cell_length_b 9.199640
_cell_length_c 29.545718
_cell_angle_alpha 90.000000
_cell_angle_beta 90.000000
_cell_angle_gamma 90.000000
_cell_volume 2199.483824
_symmetry_space_group_name_H-M "P M M M"
_symmetry_group_IT_number 47
_symmetry_cell_setting 'orthorhombic'
loop_
_space_group_symop_operation_xyz
x,y,z
-x,-y,z
x,-y,-z
-x,y,-z
-x,-y,-z
x,y,-z
-x,y,z
x,-y,z
loop_
_atom_site_type_symbol
_atom_site_label
_atom_site_fract_x
_atom_site_fract_y
_atom_site_fract_z
Si Si1 0.307692 0.833216 0.948842
Si Si2 0.811368 0.336700 0.134126
Si Si3 0.312600 0.828079 0.596424
Si Si4 0.310731 0.839123 0.216643
Si Si5 0.816170 0.171075 0.690556
Si Si6 0.000000 0.667130 0.553486
O O1 0.500000 0.812849 0.938112
O O2 0.203140 0.736067 0.914879
O O3 0.255951 0.000000 0.942099
O O4 0.267680 0.783420 0.000000
O O5 0.743825 0.500000 0.130354
O O6 0.706409 0.255102 0.171802
O O7 0.000000 0.332993 0.149774
O O8 0.500000 0.789077 0.579666
O O9 0.302109 0.781559 0.649338
O O10 0.169743 0.744249 0.569353
O O11 0.279240 0.000000 0.590743
O O12 0.500000 0.855042 0.229043
O O13 0.229456 0.760255 0.260589
O O14 0.234509 0.000000 0.207410
O O15 0.000000 0.219893 0.676670
O O16 0.801972 0.000000 0.697671
O O17 0.000000 0.500000 0.570481
O O18 0.000000 0.675006 0.500000
#
# Coordination Sequence:
#
# PCOD8198459 Si02
#       6
#     8   8   8   8   8   4
#     4   9  19  37  60  83 104 129 168 219 272 328
#     4  11  24  38  51  73 108 146 182 222 269 323
#     4  10  20  37  64  95 124 156 201 258 313 364
#     4  10  20  34  55  83 111 142 184 230 276 331
#     4   9  16  30  56  88 119 149 184 233 291 346
#     4  11  25  43  61  85 123 169 211 253 304 365
#
# _framework density 20.004691999999999
#
# number of rings (size 3 to 8) (size 9 to 14) (size 15 to 20)
#    0.000    2.091    0.909    3.000    0.000    9.455 
#    0.000    5.455    0.000    2.182    0.000    0.000 
#    0.000    0.000    0.000    0.000    0.000    0.000 
#
# Total GULP energy -545437.797569 kJ/mol
# GULP energy per Si atom -12396.313581 kJ/mol
# Density = 1.995916 g / cm^3
# Si number density = 20.004692 Si / 1000 Ang^3
#
#
#
# Elastic Constant Matrix: (Units=GPa)
#
#
# Indices 1 2 3 4 5 6 
#
# 1 99.0857 38.6945 38.2829 0.0000 0.0000 0.0000
# 2 38.6945 84.7427 46.9166 0.0000 0.0000 0.0000
# 3 38.2829 46.9166 108.9619 0.0000 0.0000 0.0000
# 4 0.0000 0.0000 0.0000 -5.7713 0.0000 0.0000
# 5 0.0000 0.0000 0.0000 0.0000 33.0587 0.0000
# 6 0.0000 0.0000 0.0000 0.0000 0.0000 21.6637
#
#
#
# Elastic Compliance Matrix: (Units=1/GPa)
#
#
# Indices 1 2 3 4 5 6 
#
# 1 0.012822 -0.004412 -0.002605 0.000000 0.000000 0.000000
# 2 -0.004412 0.017012 -0.005775 0.000000 0.000000 0.000000
# 3 -0.002605 -0.005775 0.012579 0.000000 0.000000 0.000000
# 4 0.000000 0.000000 0.000000 -0.173270 0.000000 0.000000
# 5 0.000000 0.000000 0.000000 0.000000 0.030249 0.000000
# 6 0.000000 0.000000 0.000000 0.000000 0.000000 0.046160
#
#
# Mechanical properties :
#
#
# Convention : Reuss Voigt Hill
#
# Bulk Modulus (GPa) = 59.42128 60.06426 59.74277
# Shear Modulus (GPa) = -215.02269 21.04996 -96.98636
#
# Velocity S-wave (km/s) = -10.37880 3.24736 -6.97044
# Velocity P-wave (km/s) = 10.67042 6.64460 5.90369
#
# Compressibility (1/GPa) = 0.01682899
#
# Stress axis : x y z
#
# Youngs Moduli (GPa) = 77.99188 58.78076 79.49570
#
# Poissons Ratio (x) = 0.25936 0.20708
# Poissons Ratio (y) = 0.34413 0.45908
# Poissons Ratio (z) = 0.20317 0.33945
#
# Static dielectric constant tensor:
#      x y z
#    x 3.638930 0.000000 0.000000 
#    y 0.000000 3.441190 0.000000 
#    z 0.000000 0.000000 3.657110 
# 
# 
# High freq. dielectric constant tensor:
#      x y z
#    x 1.785600 0.000000 0.000000 
#    y 0.000000 1.746150 0.000000 
#    z 0.000000 0.000000 1.789970 
# 
# From -- ./inp_files/33929.got.cif
#   From: 2010.03.12/outbox.cif.g09.slc.cpg/sg47_17_cif.got.tgz:33929.got - 2010.04.14 03:12:58.
