data_PCOD8198772
_publ_section_title
;
Structure prediction by ZEFSAII (Michael W. Deem and Ramdas Pophale) SiO2 
 PCOD8198772
Probable space group: P M M M
;
_chemical_formula_sum "Si O2"
_cell_formula_units_Z 64
_cell_length_a 8.950553
_cell_length_b 15.443754
_cell_length_c 24.000374
_cell_angle_alpha 90.000000
_cell_angle_beta 90.000000
_cell_angle_gamma 90.000000
_cell_volume 3317.575027
_symmetry_space_group_name_H-M "P M M M"
_symmetry_group_IT_number 47
_symmetry_cell_setting 'orthorhombic'
loop_
_space_group_symop_operation_xyz
x,y,z
-x,-y,z
x,-y,-z
-x,y,-z
-x,-y,-z
x,y,-z
-x,y,z
x,-y,z
loop_
_atom_site_type_symbol
_atom_site_label
_atom_site_fract_x
_atom_site_fract_y
_atom_site_fract_z
Si Si1 0.176634 0.250060 0.563067
Si Si2 0.324600 0.098268 0.371399
Si Si3 0.677813 0.095218 0.864406
Si Si4 0.676655 0.255880 0.935920
Si Si5 0.323119 0.158424 0.747196
Si Si6 0.828434 0.596002 0.641853
Si Si7 0.676646 0.355839 0.752483
Si Si8 0.828675 0.402242 0.865423
O O1 0.231729 0.263880 0.500000
O O2 0.245156 0.161343 0.585527
O O3 0.233169 0.332727 0.598483
O O4 0.000000 0.241956 0.566049
O O5 0.500000 0.117931 0.373079
O O6 0.261406 0.113817 0.308904
O O7 0.289165 0.000000 0.389206
O O8 0.500000 0.099369 0.863556
O O9 0.738438 0.169092 0.905919
O O10 0.741065 0.111127 0.802053
O O11 0.731748 0.000000 0.884531
O O12 0.500000 0.264147 0.928118
O O13 0.749857 0.340257 0.909579
O O14 0.723697 0.249760 0.000000
O O15 0.500000 0.151795 0.747775
O O16 0.269668 0.257056 0.748589
O O17 0.814289 0.500000 0.614920
O O18 0.730063 0.595814 0.697336
O O19 0.000000 0.616223 0.657501
O O20 0.500000 0.364356 0.758334
O O21 0.750411 0.399376 0.805732
O O22 0.815713 0.500000 0.888481
O O23 0.000000 0.373854 0.858672
#
# Coordination Sequence:
#
# PCOD8198772 Si02
#       8
#     8   8   8   8   8   8   8   8
#     4  10  22  39  57  78 107 146 191 236 279 324
#     4  10  20  35  57  84 112 143 182 229 280 333
#     4   9  16  29  53  84 115 144 176 219 271 326
#     4  10  21  37  57  84 115 146 187 236 281 326
#     4   9  16  29  52  82 112 140 173 218 270 323
#     4  10  21  37  57  82 112 145 183 227 277 334
#     4  11  20  34  59  87 115 145 179 223 277 335
#     4  11  24  40  58  81 111 148 189 231 277 332
#
# _framework density 19.2912
#
# number of rings (size 3 to 8) (size 9 to 14) (size 15 to 20)
#    0.000    2.000    2.500    1.500    0.000    6.000 
#    0.000    5.000    0.000    0.375    0.000    2.625 
#    0.000    0.000    0.000    0.000    0.000    0.000 
#
# Total GULP energy -793619.371730 kJ/mol
# GULP energy per Si atom -12400.302683 kJ/mol
# Density = 1.924729 g / cm^3
# Si number density = 19.291200 Si / 1000 Ang^3
#
#
#
# Elastic Constant Matrix: (Units=GPa)
#
#
# Indices 1 2 3 4 5 6 
#
# 1 28.4461 26.3709 39.2724 0.0000 0.0000 0.0000
# 2 26.3709 138.9736 69.8448 0.0000 0.0000 0.0000
# 3 39.2724 69.8448 139.8731 0.0000 0.0000 0.0000
# 4 0.0000 0.0000 0.0000 12.3388 0.0000 0.0000
# 5 0.0000 0.0000 0.0000 0.0000 23.5764 0.0000
# 6 0.0000 0.0000 0.0000 0.0000 0.0000 22.6805
#
#
#
# Elastic Compliance Matrix: (Units=1/GPa)
#
#
# Indices 1 2 3 4 5 6 
#
# 1 0.058891 -0.003825 -0.014625 0.000000 0.000000 0.000000
# 2 -0.003825 0.009855 -0.003847 0.000000 0.000000 0.000000
# 3 -0.014625 -0.003847 0.013177 0.000000 0.000000 0.000000
# 4 0.000000 0.000000 0.000000 0.081045 0.000000 0.000000
# 5 0.000000 0.000000 0.000000 0.000000 0.042415 0.000000
# 6 0.000000 0.000000 0.000000 0.000000 0.000000 0.044091
#
#
# Mechanical properties :
#
#
# Convention : Reuss Voigt Hill
#
# Bulk Modulus (GPa) = 26.78890 64.25211 45.52050
# Shear Modulus (GPa) = 16.31266 23.17279 19.74273
#
# Velocity S-wave (km/s) = 2.91108 3.46961 3.20254
# Velocity P-wave (km/s) = 5.02154 7.03062 6.10924
#
# Compressibility (1/GPa) = 0.03732890
#
# Stress axis : x y z
#
# Youngs Moduli (GPa) = 16.98047 101.47337 75.89155
#
# Poissons Ratio (x) = 0.38810 1.10993
# Poissons Ratio (y) = 0.06494 0.29196
# Poissons Ratio (z) = 0.24834 0.39038
#
# Static dielectric constant tensor:
#      x y z
#    x 3.209070 0.000000 0.000000 
#    y 0.000000 3.735990 0.000000 
#    z 0.000000 0.000000 3.618840 
# 
# 
# High freq. dielectric constant tensor:
#      x y z
#    x 1.716460 0.000000 0.000000 
#    y 0.000000 1.767710 0.000000 
#    z 0.000000 0.000000 1.749240 
# 
# From -- ./inp_files/7772.got.cif
#   From: 2010.03.12/outbox.cif.g09.slc.cpg/sg47_4_cif.got.tgz:7772.got - 2010.04.14 03:12:58.
