data_PCOD8198870
_publ_section_title
;
Structure prediction by ZEFSAII (Michael W. Deem and Ramdas Pophale) SiO2 
 PCOD8198870
Probable space group: P M M M
;
_chemical_formula_sum "Si O2"
_cell_formula_units_Z 52
_cell_length_a 11.712623
_cell_length_b 28.225692
_cell_length_c 8.959944
_cell_angle_alpha 90.000000
_cell_angle_beta 90.000000
_cell_angle_gamma 90.000000
_cell_volume 2962.129615
_symmetry_space_group_name_H-M "P M M M"
_symmetry_group_IT_number 47
_symmetry_cell_setting 'orthorhombic'
loop_
_space_group_symop_operation_xyz
x,y,z
-x,-y,z
x,-y,-z
-x,y,-z
-x,-y,-z
x,y,-z
-x,y,z
x,-y,z
loop_
_atom_site_type_symbol
_atom_site_label
_atom_site_fract_x
_atom_site_fract_y
_atom_site_fract_z
Si Si1 0.136230 0.500000 0.668144
Si Si2 0.131590 0.129421 0.327409
Si Si3 0.864028 0.592977 0.831840
Si Si4 0.500000 0.091222 0.677224
Si Si5 0.275071 0.222082 0.325139
Si Si6 0.500000 0.193785 0.823368
Si Si7 0.130195 0.312824 0.325089
Si Si8 0.278087 0.054242 0.171275
O O1 0.181901 0.500000 0.500000
O O2 0.185082 0.453212 0.748579
O O3 0.000000 0.500000 0.673201
O O4 0.150145 0.116193 0.500000
O O5 0.202277 0.175856 0.284003
O O6 0.173149 0.085854 0.227278
O O7 0.000000 0.139724 0.291941
O O8 0.818527 0.640722 0.754281
O O9 0.000000 0.592216 0.825021
O O10 0.818421 0.591832 0.000000
O O11 0.500000 0.095781 0.500000
O O12 0.500000 0.143133 0.745343
O O13 0.610817 0.062901 0.728998
O O14 0.305103 0.223041 0.500000
O O15 0.389653 0.222911 0.228561
O O16 0.203425 0.267739 0.275997
O O17 0.500000 0.187361 0.000000
O O18 0.137151 0.321959 0.500000
O O19 0.000000 0.303223 0.275368
O O20 0.239840 0.000000 0.188118
O O21 0.306827 0.066848 0.000000
#
# Coordination Sequence:
#
# PCOD8198870 Si02
#       8
#     4   8   8   4   8   4   8   8
#     4   9  15  23  37  57  85 126 175 220 259 301
#     4  10  21  37  58  82 107 139 178 214 250 300
#     4   9  16  25  38  60  93 132 172 213 257 303
#     4  12  23  39  62  85 106 132 169 213 259 308
#     4  10  20  36  57  79 104 135 172 213 257 305
#     4  12  24  37  57  82 108 134 165 208 259 312
#     4   9  17  30  49  73 102 136 173 211 252 301
#     4  11  24  40  58  82 111 140 170 209 258 309
#
# _framework density 17.554936999999999
#
# number of rings (size 3 to 8) (size 9 to 14) (size 15 to 20)
#    0.000    1.923    1.538    3.231    0.000    8.000 
#    0.000    1.538    0.000    2.769    0.000    0.000 
#    0.000    0.615    0.000    6.462    0.000    4.923 
#
# Total GULP energy -644962.369103 kJ/mol
# GULP energy per Si atom -12403.122483 kJ/mol
# Density = 1.751498 g / cm^3
# Si number density = 17.554937 Si / 1000 Ang^3
#
#
#
# Elastic Constant Matrix: (Units=GPa)
#
#
# Indices 1 2 3 4 5 6 
#
# 1 86.3598 47.4946 45.2523 0.0000 0.0000 0.0000
# 2 47.4946 149.1570 71.3713 0.0000 0.0000 0.0000
# 3 45.2523 71.3713 109.6686 0.0000 0.0000 0.0000
# 4 0.0000 0.0000 0.0000 24.1358 0.0000 0.0000
# 5 0.0000 0.0000 0.0000 0.0000 17.9584 0.0000
# 6 0.0000 0.0000 0.0000 0.0000 0.0000 20.3260
#
#
#
# Elastic Compliance Matrix: (Units=1/GPa)
#
#
# Indices 1 2 3 4 5 6 
#
# 1 0.015500 -0.002723 -0.004623 0.000000 0.000000 0.000000
# 2 -0.002723 0.010215 -0.005524 0.000000 0.000000 0.000000
# 3 -0.004623 -0.005524 0.014621 0.000000 0.000000 0.000000
# 4 0.000000 0.000000 0.000000 0.041432 0.000000 0.000000
# 5 0.000000 0.000000 0.000000 0.000000 0.055684 0.000000
# 6 0.000000 0.000000 0.000000 0.000000 0.000000 0.049198
#
#
# Mechanical properties :
#
#
# Convention : Reuss Voigt Hill
#
# Bulk Modulus (GPa) = 68.51931 74.82464 71.67198
# Shear Modulus (GPa) = 23.01435 24.55519 23.78477
#
# Velocity S-wave (km/s) = 3.62469 3.74406 3.68486
# Velocity P-wave (km/s) = 7.52555 7.83622 7.68246
#
# Compressibility (1/GPa) = 0.01459443
#
# Stress axis : x y z
#
# Youngs Moduli (GPa) = 64.51723 97.89860 68.39443
#
# Poissons Ratio (x) = 0.26659 0.31622
# Poissons Ratio (y) = 0.17569 0.37781
# Poissons Ratio (z) = 0.29829 0.54079
#
# Static dielectric constant tensor:
#      x y z
#    x 3.052940 0.000000 0.000000 
#    y 0.000000 3.388020 0.000000 
#    z 0.000000 0.000000 3.344040 
# 
# 
# High freq. dielectric constant tensor:
#      x y z
#    x 1.641650 0.000000 0.000000 
#    y 0.000000 1.686820 0.000000 
#    z 0.000000 0.000000 1.684920 
# 
# From -- ./inp_files/4617.got.cif
#   From: 2010.03.12/outbox.cif.g09.slc.cpg/sg47_3_cif.got.tgz:4617.got - 2010.04.14 03:12:58.
