data_PCOD8198957
_publ_section_title
;
Structure prediction by ZEFSAII (Michael W. Deem and Ramdas Pophale) SiO2 
 PCOD8198957
Probable space group: P M M M
;
_chemical_formula_sum "Si O2"
_cell_formula_units_Z 48
_cell_length_a 18.358502
_cell_length_b 15.114207
_cell_length_c 9.404798
_cell_angle_alpha 90.000000
_cell_angle_beta 90.000000
_cell_angle_gamma 90.000000
_cell_volume 2609.588796
_symmetry_space_group_name_H-M "P M M M"
_symmetry_group_IT_number 47
_symmetry_cell_setting 'orthorhombic'
loop_
_space_group_symop_operation_xyz
x,y,z
-x,-y,z
x,-y,-z
-x,y,-z
-x,-y,-z
x,y,-z
-x,y,z
x,-y,z
loop_
_atom_site_type_symbol
_atom_site_label
_atom_site_fract_x
_atom_site_fract_y
_atom_site_fract_z
Si Si1 0.086461 0.763021 0.837644
Si Si2 0.413385 0.500000 0.160145
Si Si3 0.583783 0.333551 0.663530
Si Si4 0.913435 0.402112 0.659804
Si Si5 0.585857 0.000000 0.162827
Si Si6 0.340116 0.848152 0.336554
Si Si7 0.823122 0.102717 0.335837
O O1 0.117245 0.673414 0.764283
O O2 0.117208 0.849292 0.760087
O O3 0.000000 0.767750 0.826033
O O4 0.112823 0.762280 0.000000
O O5 0.500000 0.500000 0.163092
O O6 0.385130 0.412943 0.240729
O O7 0.382812 0.500000 0.000000
O O8 0.590654 0.362593 0.500000
O O9 0.500000 0.310388 0.700636
O O10 0.633879 0.250176 0.698609
O O11 0.885439 0.382191 0.500000
O O12 0.886273 0.500000 0.708539
O O13 0.000000 0.400754 0.661966
O O14 0.615826 0.913002 0.236636
O O15 0.500000 0.000000 0.177207
O O16 0.611467 0.000000 0.000000
O O17 0.356332 0.873996 0.500000
O O18 0.254848 0.854172 0.303826
O O19 0.845092 0.114667 0.500000
O O20 0.820968 0.000000 0.293189
#
# Coordination Sequence:
#
# PCOD8198957 Si02
#       7
#     8   4   8   8   4   8   8
#     4  10  21  35  53  80 111 142 177 218 265 320
#     4   9  17  29  47  73 107 143 174 211 260 311
#     4   9  17  30  52  80 106 135 174 219 262 305
#     4   8  14  27  50  79 108 137 170 211 259 308
#     4  11  23  35  51  81 116 145 176 217 265 318
#     4  10  20  37  58  79 104 139 183 225 267 317
#     4  10  21  38  58  78 102 136 180 226 271 321
#
# _framework density 18.393701
#
# number of rings (size 3 to 8) (size 9 to 14) (size 15 to 20)
#    0.000    2.500    0.833    2.000    0.000    5.667 
#    0.000    5.000    1.833    0.000    0.000    0.000 
#    0.000    0.000    0.000    0.000    0.000    0.000 
#
# Total GULP energy -595234.688860 kJ/mol
# GULP energy per Si atom -12400.722685 kJ/mol
# Density = 1.835184 g / cm^3
# Si number density = 18.393701 Si / 1000 Ang^3
#
#
#
# Elastic Constant Matrix: (Units=GPa)
#
#
# Indices 1 2 3 4 5 6 
#
# 1 34.6890 41.9978 36.3332 0.0000 0.0000 0.0000
# 2 41.9978 151.6384 85.3028 0.0000 0.0000 0.0000
# 3 36.3332 85.3028 120.1784 0.0000 0.0000 0.0000
# 4 0.0000 0.0000 0.0000 400.1695 0.0000 0.0000
# 5 0.0000 0.0000 0.0000 0.0000 19.9847 0.0000
# 6 0.0000 0.0000 0.0000 0.0000 0.0000 41.8784
#
#
#
# Elastic Compliance Matrix: (Units=1/GPa)
#
#
# Indices 1 2 3 4 5 6 
#
# 1 0.048030 -0.008546 -0.008454 0.000000 0.000000 0.000000
# 2 -0.008546 0.012499 -0.006288 0.000000 0.000000 0.000000
# 3 -0.008454 -0.006288 0.015340 0.000000 0.000000 0.000000
# 4 0.000000 0.000000 0.000000 0.002499 0.000000 0.000000
# 5 0.000000 0.000000 0.000000 0.000000 0.050038 0.000000
# 6 0.000000 0.000000 0.000000 0.000000 0.000000 0.023879
#
#
# Mechanical properties :
#
#
# Convention : Reuss Voigt Hill
#
# Bulk Modulus (GPa) = 34.13985 70.41926 52.27956
# Shear Modulus (GPa) = 23.96634 101.93131 62.94883
#
# Velocity S-wave (km/s) = 3.61358 7.45230 5.85639
# Velocity P-wave (km/s) = 6.00096 10.60267 8.61476
#
# Compressibility (1/GPa) = 0.02929128
#
# Stress axis : x y z
#
# Youngs Moduli (GPa) = 20.82042 80.00746 65.18854
#
# Poissons Ratio (x) = 0.68377 0.55113
# Poissons Ratio (y) = 0.17794 0.40990
# Poissons Ratio (z) = 0.17603 0.50308
#
# Static dielectric constant tensor:
#      x y z
#    x 3.067110 0.000000 0.000000 
#    y 0.000000 3.552890 0.000000 
#    z 0.000000 0.000000 3.503000 
# 
# 
# High freq. dielectric constant tensor:
#      x y z
#    x 1.681080 0.000000 0.000000 
#    y 0.000000 1.726380 0.000000 
#    z 0.000000 0.000000 1.713070 
# 
# From -- ./inp_files/9190.got.cif
#   From: 2010.03.12/outbox.cif.g09.slc.cpg/sg47_5_cif.got.tgz:9190.got - 2010.04.14 03:12:58.
