data_PCOD8198464
_publ_section_title
;
Structure prediction by ZEFSAII (Michael W. Deem and Ramdas Pophale) SiO2 
 PCOD8198464
Probable space group: P M M M
;
_chemical_formula_sum "Si O2"
_cell_formula_units_Z 48
_cell_length_a 9.655486
_cell_length_b 8.120649
_cell_length_c 31.899610
_cell_angle_alpha 90.000000
_cell_angle_beta 90.000000
_cell_angle_gamma 90.000000
_cell_volume 2501.210547
_symmetry_space_group_name_H-M "P M M M"
_symmetry_group_IT_number 47
_symmetry_cell_setting 'orthorhombic'
loop_
_space_group_symop_operation_xyz
x,y,z
-x,-y,z
x,-y,-z
-x,y,-z
-x,-y,-z
x,y,-z
-x,y,z
x,-y,z
loop_
_atom_site_type_symbol
_atom_site_label
_atom_site_fract_x
_atom_site_fract_y
_atom_site_fract_z
Si Si1 0.654472 0.687601 0.239575
Si Si2 0.346306 0.692357 0.000000
Si Si3 0.846775 0.805110 0.073640
Si Si4 0.838964 0.314198 0.399757
Si Si5 0.164182 0.000000 0.453142
Si Si6 0.659987 0.187938 0.672262
Si Si7 0.838959 0.188555 0.832702
O O1 0.500000 0.744357 0.226382
O O2 0.654761 0.500000 0.254350
O O3 0.706660 0.792876 0.279359
O O4 0.753621 0.705113 0.199983
O O5 0.267149 0.744594 0.958420
O O6 0.360958 0.500000 0.000000
O O7 0.500000 0.772852 0.000000
O O8 0.807396 0.744934 0.120392
O O9 0.000000 0.737535 0.061253
O O10 0.852697 0.000000 0.073318
O O11 0.816604 0.500000 0.418489
O O12 0.754120 0.302870 0.356714
O O13 0.000000 0.285516 0.389458
O O14 0.785049 0.169705 0.430928
O O15 0.226874 0.000000 0.500000
O O16 0.000000 0.000000 0.455011
O O17 0.500000 0.241792 0.667312
O O18 0.682708 0.000000 0.658520
O O19 0.000000 0.208854 0.822446
O O20 0.792233 0.000000 0.828490
#
# Coordination Sequence:
#
# PCOD8198464 Si02
#       7
#     8   4   8   8   4   8   8
#     4  10  21  35  51  75 107 141 177 217 262 315
#     4  11  24  37  50  76 110 137 166 207 256 310
#     4   9  19  37  59  79 100 130 171 215 258 309
#     4  10  20  34  55  83 112 144 184 229 279 332
#     4   9  18  34  55  81 115 149 183 229 281 332
#     4  10  20  35  56  79 105 143 187 228 274 326
#     4   9  19  36  56  78 103 133 171 215 262 311
#
# _framework density 19.190705999999999
#
# number of rings (size 3 to 8) (size 9 to 14) (size 15 to 20)
#    0.000    2.333    0.833    2.500    0.000    6.667 
#    0.000    6.667    0.000    1.000    0.000    1.167 
#    0.000    0.000    0.000    0.000    0.000    0.000 
#
# Total GULP energy -595104.745043 kJ/mol
# GULP energy per Si atom -12398.015522 kJ/mol
# Density = 1.914703 g / cm^3
# Si number density = 19.190706 Si / 1000 Ang^3
#
#
#
# Elastic Constant Matrix: (Units=GPa)
#
#
# Indices 1 2 3 4 5 6 
#
# 1 78.7674 31.0370 65.0919 0.0000 0.0000 0.0000
# 2 31.0370 83.7500 44.0270 0.0000 0.0000 0.0000
# 3 65.0919 44.0270 129.6682 0.0000 0.0000 0.0000
# 4 0.0000 0.0000 0.0000 22.0802 0.0000 0.0000
# 5 0.0000 0.0000 0.0000 0.0000 -9.2641 0.0000
# 6 0.0000 0.0000 0.0000 0.0000 0.0000 24.8867
#
#
#
# Elastic Compliance Matrix: (Units=1/GPa)
#
#
# Indices 1 2 3 4 5 6 
#
# 1 0.022256 -0.002891 -0.010191 0.000000 0.000000 0.000000
# 2 -0.002891 0.014910 -0.003611 0.000000 0.000000 0.000000
# 3 -0.010191 -0.003611 0.014054 0.000000 0.000000 0.000000
# 4 0.000000 0.000000 0.000000 0.045289 0.000000 0.000000
# 5 0.000000 0.000000 0.000000 0.000000 -0.107943 0.000000
# 6 0.000000 0.000000 0.000000 0.000000 0.000000 0.040182
#
#
# Mechanical properties :
#
#
# Convention : Reuss Voigt Hill
#
# Bulk Modulus (GPa) = 56.07191 63.61083 59.84137
# Shear Modulus (GPa) = 73.44412 17.67587 45.55999
#
# Velocity S-wave (km/s) = 6.19304 3.03820 4.87772
# Velocity P-wave (km/s) = 8.96772 6.74731 7.93556
#
# Compressibility (1/GPa) = 0.01783424
#
# Stress axis : x y z
#
# Youngs Moduli (GPa) = 44.93146 67.06881 71.15478
#
# Poissons Ratio (x) = 0.19387 0.72513
# Poissons Ratio (y) = 0.12988 0.25697
# Poissons Ratio (z) = 0.45789 0.24221
#
# Static dielectric constant tensor:
#      x y z
#    x 0.661390 0.000000 0.000000 
#    y 0.000000 3.530860 0.000000 
#    z 0.000000 0.000000 3.404500 
# 
# 
# High freq. dielectric constant tensor:
#      x y z
#    x 1.732100 0.000000 0.000000 
#    y 0.000000 1.749700 0.000000 
#    z 0.000000 0.000000 1.743400 
# 
# From -- ./inp_files/34210.got.cif
#   From: 2010.03.12/outbox.cif.g09.slc.cpg/sg47_18_cif.got.tgz:34210.got - 2010.04.14 03:12:58.
