data_PCOD8198703
_publ_section_title
;
Structure prediction by ZEFSAII (Michael W. Deem and Ramdas Pophale) SiO2 
 PCOD8198703
Probable space group: P M M M
;
_chemical_formula_sum "Si O2"
_cell_formula_units_Z 48
_cell_length_a 7.877013
_cell_length_b 9.211027
_cell_length_c 32.929575
_cell_angle_alpha 90.000000
_cell_angle_beta 90.000000
_cell_angle_gamma 90.000000
_cell_volume 2389.217808
_symmetry_space_group_name_H-M "P M M M"
_symmetry_group_IT_number 47
_symmetry_cell_setting 'orthorhombic'
loop_
_space_group_symop_operation_xyz
x,y,z
-x,-y,z
x,-y,-z
-x,y,-z
-x,-y,-z
x,y,-z
-x,y,z
x,-y,z
loop_
_atom_site_type_symbol
_atom_site_label
_atom_site_fract_x
_atom_site_fract_y
_atom_site_fract_z
Si Si1 0.702935 0.336754 0.843976
Si Si2 0.194039 0.671434 0.601513
Si Si3 0.302375 0.161599 0.232105
Si Si4 0.698644 0.838128 0.079116
Si Si5 0.199900 0.837426 0.318861
Si Si6 0.500000 0.672452 0.545439
Si Si7 0.200090 0.664614 0.000000
O O1 0.500000 0.339226 0.844227
O O2 0.774715 0.500000 0.846676
O O3 0.775924 0.264007 0.802763
O O4 0.775764 0.246072 0.882136
O O5 0.201669 0.500000 0.606454
O O6 0.259025 0.738633 0.643768
O O7 0.326767 0.726125 0.567371
O O8 0.000000 0.720450 0.590502
O O9 0.500000 0.149043 0.223865
O O10 0.268856 0.229556 0.276649
O O11 0.219952 0.000000 0.229786
O O12 0.500000 0.853838 0.085384
O O13 0.733478 0.747229 0.039106
O O14 0.779398 0.000000 0.075916
O O15 0.000000 0.840503 0.316622
O O16 0.273408 0.000000 0.325075
O O17 0.500000 0.500000 0.544140
O O18 0.500000 0.737463 0.500000
O O19 0.271439 0.500000 0.000000
O O20 0.000000 0.664126 0.000000
#
# Coordination Sequence:
#
# PCOD8198703 Si02
#       7
#     8   8   8   8   8   4   4
#     4   9  17  30  49  74 102 131 165 207 254 301
#     4   9  18  32  50  73 101 133 170 214 262 310
#     4   9  17  29  46  69  96 127 164 204 246 295
#     4  10  20  35  57  81 103 132 172 214 255 306
#     4   9  18  32  49  70  98 133 170 208 252 303
#     4   9  18  32  51  77 105 133 171 217 263 314
#     4  11  24  39  54  76 106 135 166 209 260 312
#
# _framework density 20.090259
#
# number of rings (size 3 to 8) (size 9 to 14) (size 15 to 20)
#    0.000    2.667    0.000    1.500    1.167    5.667 
#    0.000    2.500    0.000    4.000    0.000    2.333 
#    0.000    0.000    0.000    0.000    0.000    0.000 
#
# Total GULP energy -595032.324402 kJ/mol
# GULP energy per Si atom -12396.506758 kJ/mol
# Density = 2.004453 g / cm^3
# Si number density = 20.090259 Si / 1000 Ang^3
#
#
#
# Elastic Constant Matrix: (Units=GPa)
#
#
# Indices 1 2 3 4 5 6 
#
# 1 42.8946 22.1503 41.3428 0.0000 0.0000 0.0000
# 2 22.1503 115.2273 80.1345 0.0000 0.0000 0.0000
# 3 41.3428 80.1345 202.7563 0.0000 0.0000 0.0000
# 4 0.0000 0.0000 0.0000 18.8926 0.0000 0.0000
# 5 0.0000 0.0000 0.0000 0.0000 -18.8737 0.0000
# 6 0.0000 0.0000 0.0000 0.0000 0.0000 12.7990
#
#
#
# Elastic Compliance Matrix: (Units=1/GPa)
#
#
# Indices 1 2 3 4 5 6 
#
# 1 0.029359 -0.002042 -0.005180 0.000000 0.000000 0.000000
# 2 -0.002042 0.012110 -0.004370 0.000000 0.000000 0.000000
# 3 -0.005180 -0.004370 0.007715 0.000000 0.000000 0.000000
# 4 0.000000 0.000000 0.000000 0.052931 0.000000 0.000000
# 5 0.000000 0.000000 0.000000 0.000000 -0.052984 0.000000
# 6 0.000000 0.000000 0.000000 0.000000 0.000000 0.078131
#
#
# Mechanical properties :
#
#
# Convention : Reuss Voigt Hill
#
# Bulk Modulus (GPa) = 38.45797 72.01484 55.23641
# Shear Modulus (GPa) = 31.42434 17.04696 24.23565
#
# Velocity S-wave (km/s) = 3.95923 2.91609 3.47701
# Velocity P-wave (km/s) = 6.33126 6.87471 6.60857
#
# Compressibility (1/GPa) = 0.02600241
#
# Stress axis : x y z
#
# Youngs Moduli (GPa) = 34.06058 82.57644 129.61343
#
# Poissons Ratio (x) = 0.16860 0.67134
# Poissons Ratio (y) = 0.06954 0.56639
# Poissons Ratio (z) = 0.17642 0.36085
#
# Static dielectric constant tensor:
#      x y z
#    x 3.447270 0.000000 0.000000 
#    y 0.000000 3.839670 0.000000 
#    z 0.000000 0.000000 3.865900 
# 
# 
# High freq. dielectric constant tensor:
#      x y z
#    x 1.762830 0.000000 0.000000 
#    y 0.000000 1.773000 0.000000 
#    z 0.000000 0.000000 1.790870 
# 
# From -- ./inp_files/13941.got.cif
#   From: 2010.03.12/outbox.cif.g09.slc.cpg/sg47_7_cif.got.tgz:13941.got - 2010.04.14 03:12:58.
