data_PCOD8198674
_publ_section_title
;
Structure prediction by ZEFSAII (Michael W. Deem and Ramdas Pophale) SiO2 
 PCOD8198674
Probable space group: P M M M
;
_chemical_formula_sum "Si O2"
_cell_formula_units_Z 48
_cell_length_a 13.904902
_cell_length_b 19.012233
_cell_length_c 10.168159
_cell_angle_alpha 90.000000
_cell_angle_beta 90.000000
_cell_angle_gamma 90.000000
_cell_volume 2688.087424
_symmetry_space_group_name_H-M "P M M M"
_symmetry_group_IT_number 47
_symmetry_cell_setting 'orthorhombic'
loop_
_space_group_symop_operation_xyz
x,y,z
-x,-y,z
x,-y,-z
-x,y,-z
-x,-y,-z
x,y,-z
-x,y,z
x,-y,z
loop_
_atom_site_type_symbol
_atom_site_label
_atom_site_fract_x
_atom_site_fract_y
_atom_site_fract_z
Si Si1 0.802098 0.345449 0.249094
Si Si2 0.109739 0.583182 0.000000
Si Si3 0.886258 0.420466 0.500000
Si Si4 0.610160 0.862324 0.351664
Si Si5 0.889857 0.793668 0.152555
Si Si6 0.607639 0.699036 0.653878
Si Si7 0.755088 0.079400 0.850757
O O1 0.850223 0.380085 0.373673
O O2 0.838737 0.265605 0.239149
O O3 0.686063 0.344932 0.263468
O O4 0.831813 0.391243 0.125185
O O5 0.105951 0.500000 0.000000
O O6 0.000000 0.613463 0.000000
O O7 0.845814 0.500000 0.500000
O O8 0.000000 0.421257 0.500000
O O9 0.648866 0.875078 0.500000
O O10 0.500000 0.886093 0.343124
O O11 0.620544 0.780891 0.313443
O O12 0.667586 0.909205 0.248497
O O13 0.842416 0.868695 0.183770
O O14 0.000000 0.799494 0.195278
O O15 0.879223 0.772493 0.000000
O O16 0.624542 0.685423 0.500000
O O17 0.500000 0.674395 0.694367
O O18 0.793705 0.000000 0.834970
O O19 0.718615 0.092868 0.000000
#
# Coordination Sequence:
#
# PCOD8198674 Si02
#       7
#     8   4   4   8   8   8   8
#     4  12  20  36  62  86 112 150 192 233 279 329
#     4  11  24  40  59  85 120 156 184 221 283 343
#     4  11  24  38  55  87 124 150 182 229 281 339
#     4   9  18  34  55  78 106 142 183 225 275 333
#     4  10  20  35  56  81 109 145 191 232 270 329
#     4   9  18  35  59  87 114 144 187 237 285 331
#     4  10  21  35  52  77 111 145 180 231 285 327
#
# _framework density 17.856563000000001
#
# number of rings (size 3 to 8) (size 9 to 14) (size 15 to 20)
#    0.000    1.833    3.333    3.000    0.000    2.667 
#    0.000    3.750    0.000    3.000    0.000    1.167 
#    0.000    0.000    0.000    0.000    0.000    0.000 
#
# Total GULP energy -595247.374771 kJ/mol
# GULP energy per Si atom -12400.986974 kJ/mol
# Density = 1.781592 g / cm^3
# Si number density = 17.856563 Si / 1000 Ang^3
#
#
#
# Elastic Constant Matrix: (Units=GPa)
#
#
# Indices 1 2 3 4 5 6 
#
# 1 127.6652 55.6840 55.8445 0.0000 0.0000 0.0000
# 2 55.6840 96.8077 50.8390 0.0000 0.0000 0.0000
# 3 55.8445 50.8390 102.2272 0.0000 0.0000 0.0000
# 4 0.0000 0.0000 0.0000 46.2603 0.0000 0.0000
# 5 0.0000 0.0000 0.0000 0.0000 28.7067 0.0000
# 6 0.0000 0.0000 0.0000 0.0000 0.0000 28.5314
#
#
#
# Elastic Compliance Matrix: (Units=1/GPa)
#
#
# Indices 1 2 3 4 5 6 
#
# 1 0.011592 -0.004524 -0.004083 0.000000 0.000000 0.000000
# 2 -0.004524 0.015746 -0.005360 0.000000 0.000000 0.000000
# 3 -0.004083 -0.005360 0.014678 0.000000 0.000000 0.000000
# 4 0.000000 0.000000 0.000000 0.021617 0.000000 0.000000
# 5 0.000000 0.000000 0.000000 0.000000 0.034835 0.000000
# 6 0.000000 0.000000 0.000000 0.000000 0.000000 0.035049
#
#
# Mechanical properties :
#
#
# Convention : Reuss Voigt Hill
#
# Bulk Modulus (GPa) = 71.00242 72.38168 71.69205
# Shear Modulus (GPa) = 30.09429 31.65519 30.87474
#
# Velocity S-wave (km/s) = 4.10974 4.21497 4.16269
# Velocity P-wave (km/s) = 7.89740 8.01941 7.95864
#
# Compressibility (1/GPa) = 0.01408403
#
# Stress axis : x y z
#
# Youngs Moduli (GPa) = 86.26631 63.50630 68.12938
#
# Poissons Ratio (x) = 0.28728 0.27816
# Poissons Ratio (y) = 0.39024 0.36516
# Poissons Ratio (z) = 0.35221 0.34038
#
# Static dielectric constant tensor:
#      x y z
#    x 3.372980 0.000000 0.000000 
#    y 0.000000 3.305490 0.000000 
#    z 0.000000 0.000000 3.212650 
# 
# 
# High freq. dielectric constant tensor:
#      x y z
#    x 1.691120 0.000000 0.000000 
#    y 0.000000 1.688280 0.000000 
#    z 0.000000 0.000000 1.687320 
# 
# From -- ./inp_files/6462.got.cif
#   From: 2010.03.12/outbox.cif.g09.slc.cpg/sg47_4_cif.got.tgz:6462.got - 2010.04.14 03:12:58.
