data_PCOD8198652
_publ_section_title
;
Structure prediction by ZEFSAII (Michael W. Deem and Ramdas Pophale) SiO2 
 PCOD8198652
Probable space group: P M M M
;
_chemical_formula_sum "Si O2"
_cell_formula_units_Z 40
_cell_length_a 27.525239
_cell_length_b 8.194256
_cell_length_c 9.396897
_cell_angle_alpha 90.000000
_cell_angle_beta 90.000000
_cell_angle_gamma 90.000000
_cell_volume 2119.459357
_symmetry_space_group_name_H-M "P M M M"
_symmetry_group_IT_number 47
_symmetry_cell_setting 'orthorhombic'
loop_
_space_group_symop_operation_xyz
x,y,z
-x,-y,z
x,-y,-z
-x,y,-z
-x,-y,-z
x,y,-z
-x,y,z
x,-y,z
loop_
_atom_site_type_symbol
_atom_site_label
_atom_site_fract_x
_atom_site_fract_y
_atom_site_fract_z
Si Si1 0.000000 0.688069 0.344754
Si Si2 0.812458 0.684954 0.166751
Si Si3 0.288067 0.809451 0.840627
Si Si4 0.445587 0.500000 0.668664
Si Si5 0.087061 0.187658 0.839741
Si Si6 0.616576 0.187766 0.667889
O O1 0.048338 0.727322 0.259220
O O2 0.000000 0.500000 0.374002
O O3 0.000000 0.777175 0.500000
O O4 0.823439 0.500000 0.206720
O O5 0.760767 0.737959 0.233231
O O6 0.858632 0.787219 0.223760
O O7 0.806975 0.716799 0.000000
O O8 0.333113 0.763872 0.741587
O O9 0.280624 0.000000 0.850649
O O10 0.297086 0.737794 0.000000
O O11 0.500000 0.500000 0.731712
O O12 0.446601 0.500000 0.500000
O O13 0.420766 0.670821 0.719762
O O14 0.073723 0.000000 0.843957
O O15 0.084154 0.261972 0.000000
O O16 0.624358 0.197391 0.500000
O O17 0.600134 0.000000 0.709355
#
# Coordination Sequence:
#
# PCOD8198652 Si02
#       6
#     4   8   8   4   8   8
#     4  11  24  39  54  74 102 133 166 207 256 308
#     4   9  17  29  48  75 103 131 165 205 246 291
#     4   9  17  30  49  73 101 134 169 204 246 298
#     4   9  18  32  51  75 101 131 171 216 257 298
#     4  10  20  35  56  79 101 129 168 210 251 298
#     4   9  18  32  50  73 101 132 168 211 258 305
#
# _framework density 18.872738999999999
#
# number of rings (size 3 to 8) (size 9 to 14) (size 15 to 20)
#    0.000    2.600    0.000    1.800    1.400    6.000 
#    0.000    3.000    0.000    4.800    0.000    2.800 
#    0.000    0.000    0.000    0.000    0.000    0.000 
#
# Total GULP energy -495698.434439 kJ/mol
# GULP energy per Si atom -12392.460861 kJ/mol
# Density = 1.882978 g / cm^3
# Si number density = 18.872739 Si / 1000 Ang^3
#
#
#
# Elastic Constant Matrix: (Units=GPa)
#
#
# Indices 1 2 3 4 5 6 
#
# 1 163.8948 63.5290 47.6182 0.0000 0.0000 0.0000
# 2 63.5290 83.2703 25.1472 0.0000 0.0000 0.0000
# 3 47.6182 25.1472 47.8267 0.0000 0.0000 0.0000
# 4 0.0000 0.0000 0.0000 14.1553 0.0000 0.0000
# 5 0.0000 0.0000 0.0000 0.0000 37.4297 0.0000
# 6 0.0000 0.0000 0.0000 0.0000 0.0000 37.9308
#
#
#
# Elastic Compliance Matrix: (Units=1/GPa)
#
#
# Indices 1 2 3 4 5 6 
#
# 1 0.010490 -0.005764 -0.007413 0.000000 0.000000 0.000000
# 2 -0.005764 0.017443 -0.003433 0.000000 0.000000 0.000000
# 3 -0.007413 -0.003433 0.030095 0.000000 0.000000 0.000000
# 4 0.000000 0.000000 0.000000 0.070645 0.000000 0.000000
# 5 0.000000 0.000000 0.000000 0.000000 0.026717 0.000000
# 6 0.000000 0.000000 0.000000 0.000000 0.000000 0.026364
#
#
# Mechanical properties :
#
#
# Convention : Reuss Voigt Hill
#
# Bulk Modulus (GPa) = 40.31020 63.06452 51.68736
# Shear Modulus (GPa) = 22.39725 28.48299 25.44012
#
# Velocity S-wave (km/s) = 3.44866 3.88907 3.67547
# Velocity P-wave (km/s) = 6.10435 7.32494 6.74232
#
# Compressibility (1/GPa) = 0.02480761
#
# Stress axis : x y z
#
# Youngs Moduli (GPa) = 95.33306 57.32875 33.22864
#
# Poissons Ratio (x) = 0.33044 0.24633
# Poissons Ratio (y) = 0.54950 0.11406
# Poissons Ratio (z) = 0.70671 0.19679
#
# Static dielectric constant tensor:
#      x y z
#    x 3.679720 0.000000 0.000000 
#    y 0.000000 3.571070 0.000000 
#    z 0.000000 0.000000 3.262000 
# 
# 
# High freq. dielectric constant tensor:
#      x y z
#    x 1.741510 0.000000 0.000000 
#    y 0.000000 1.740900 0.000000 
#    z 0.000000 0.000000 1.688750 
# 
# From -- ./inp_files/12976.got.cif
#   From: 2010.03.12/outbox.cif.g09.slc.cpg/sg47_7_cif.got.tgz:12976.got - 2010.04.14 03:12:58.
