data_PCOD8198732
_publ_section_title
;
Structure prediction by ZEFSAII (Michael W. Deem and Ramdas Pophale) SiO2 
 PCOD8198732
Probable space group: P M M M
;
_chemical_formula_sum "Si O2"
_cell_formula_units_Z 44
_cell_length_a 28.399888
_cell_length_b 8.841953
_cell_length_c 9.478314
_cell_angle_alpha 90.000000
_cell_angle_beta 90.000000
_cell_angle_gamma 90.000000
_cell_volume 2380.103930
_symmetry_space_group_name_H-M "P M M M"
_symmetry_group_IT_number 47
_symmetry_cell_setting 'orthorhombic'
loop_
_space_group_symop_operation_xyz
x,y,z
-x,-y,z
x,-y,-z
-x,y,-z
-x,-y,-z
x,y,-z
-x,y,z
x,-y,z
loop_
_atom_site_type_symbol
_atom_site_label
_atom_site_fract_x
_atom_site_fract_y
_atom_site_fract_z
Si Si1 0.551640 0.320245 0.342343
Si Si2 0.365043 0.679129 0.155275
Si Si3 0.740536 0.675742 0.834706
Si Si4 0.821727 0.823087 0.664010
Si Si5 0.000000 0.830282 0.832545
Si Si6 0.904754 0.321586 0.161555
O O1 0.556796 0.256439 0.500000
O O2 0.500000 0.274246 0.281343
O O3 0.556050 0.500000 0.343969
O O4 0.594103 0.248244 0.251889
O O5 0.370663 0.500000 0.147878
O O6 0.312785 0.717402 0.211158
O O7 0.371691 0.748660 0.000000
O O8 0.751629 0.500000 0.805169
O O9 0.773061 0.779634 0.738500
O O10 0.748676 0.710841 0.000000
O O11 0.819467 0.777019 0.500000
O O12 0.863314 0.733212 0.738756
O O13 0.830848 0.000000 0.682937
O O14 0.953361 0.746214 0.778020
O O15 0.000000 0.000000 0.772148
O O16 0.000000 0.828408 0.000000
O O17 0.908565 0.500000 0.169303
O O18 0.895197 0.268925 0.000000
#
# Coordination Sequence:
#
# PCOD8198732 Si02
#       6
#     8   8   8   8   4   8
#     4   8  13  20  30  48  78 116 155 191 228 276
#     4   8  14  24  38  58  84 113 148 192 239 286
#     4   9  18  33  52  73  96 124 162 206 250 299
#     4  11  24  38  51  72 102 133 167 207 250 298
#     4   9  17  31  54  83 112 141 172 206 246 291
#     4  10  20  35  57  83 108 135 170 210 249 292
#
# _framework density 18.486587
#
# number of rings (size 3 to 8) (size 9 to 14) (size 15 to 20)
#    0.000    2.818    0.000    3.545    0.000    7.273 
#    0.000    4.091    0.000    2.727    0.000    0.000 
#    0.000    0.727    0.000    8.000    0.000   13.091 
#
# Total GULP energy -545419.925569 kJ/mol
# GULP energy per Si atom -12395.907399 kJ/mol
# Density = 1.844451 g / cm^3
# Si number density = 18.486587 Si / 1000 Ang^3
#
#
#
# Elastic Constant Matrix: (Units=GPa)
#
#
# Indices 1 2 3 4 5 6 
#
# 1 158.2156 31.3882 66.1644 0.0000 0.0000 0.0000
# 2 31.3882 46.4495 26.3686 0.0000 0.0000 0.0000
# 3 66.1644 26.3686 80.0513 0.0000 0.0000 0.0000
# 4 0.0000 0.0000 0.0000 19.4479 0.0000 0.0000
# 5 0.0000 0.0000 0.0000 0.0000 4.5561 0.0000
# 6 0.0000 0.0000 0.0000 0.0000 0.0000 -0.1639
#
#
#
# Elastic Compliance Matrix: (Units=1/GPa)
#
#
# Indices 1 2 3 4 5 6 
#
# 1 0.009892 -0.002513 -0.007348 0.000000 0.000000 0.000000
# 2 -0.002513 0.027119 -0.006856 0.000000 0.000000 0.000000
# 3 -0.007348 -0.006856 0.020824 0.000000 0.000000 0.000000
# 4 0.000000 0.000000 0.000000 0.051420 0.000000 0.000000
# 5 0.000000 0.000000 0.000000 0.000000 0.219488 0.000000
# 6 0.000000 0.000000 0.000000 0.000000 0.000000 -6.102799
#
#
# Mechanical properties :
#
#
# Convention : Reuss Voigt Hill
#
# Bulk Modulus (GPa) = 40.98268 59.17319 50.07794
# Shear Modulus (GPa) = -0.87222 15.48770 7.30774
#
# Velocity S-wave (km/s) = -0.68763 2.89758 1.99037
# Velocity P-wave (km/s) = 4.64613 6.57821 5.69471
#
# Compressibility (1/GPa) = 0.02440055
#
# Stress axis : x y z
#
# Youngs Moduli (GPa) = 101.09179 36.87477 48.02220
#
# Poissons Ratio (x) = 0.09267 0.35288
# Poissons Ratio (y) = 0.25405 0.32923
# Poissons Ratio (z) = 0.74284 0.25280
#
# Static dielectric constant tensor:
#      x y z
#    x 3.724760 0.000000 0.000000 
#    y 0.000000 3.032570 0.000000 
#    z 0.000000 0.000000 3.479340 
# 
# 
# High freq. dielectric constant tensor:
#      x y z
#    x 1.736790 0.000000 0.000000 
#    y 0.000000 1.678840 0.000000 
#    z 0.000000 0.000000 1.700740 
# 
# From -- ./inp_files/13545.got.cif
#   From: 2010.03.12/outbox.cif.g09.slc.cpg/sg47_7_cif.got.tgz:13545.got - 2010.04.14 03:12:58.
