data_PCOD8198860
_publ_section_title
;
Structure prediction by ZEFSAII (Michael W. Deem and Ramdas Pophale) SiO2 
 PCOD8198860
Probable space group: P M M M
;
_chemical_formula_sum "Si O2"
_cell_formula_units_Z 48
_cell_length_a 7.995888
_cell_length_b 18.713527
_cell_length_c 15.526619
_cell_angle_alpha 90.000000
_cell_angle_beta 90.000000
_cell_angle_gamma 90.000000
_cell_volume 2323.267657
_symmetry_space_group_name_H-M "P M M M"
_symmetry_group_IT_number 47
_symmetry_cell_setting 'orthorhombic'
loop_
_space_group_symop_operation_xyz
x,y,z
-x,-y,z
x,-y,-z
-x,y,-z
-x,-y,-z
x,y,-z
-x,y,z
x,-y,z
loop_
_atom_site_type_symbol
_atom_site_label
_atom_site_fract_x
_atom_site_fract_y
_atom_site_fract_z
Si Si1 0.694374 0.192066 0.863203
Si Si2 0.308642 0.580506 0.263190
Si Si3 0.191022 0.654854 0.096007
Si Si4 0.810171 0.687023 0.403322
Si Si5 0.000000 0.920446 0.601116
Si Si6 0.310904 0.830763 0.665209
Si Si7 0.697757 0.920801 0.000000
O O1 0.500000 0.207957 0.880675
O O2 0.797282 0.260076 0.894674
O O3 0.732962 0.177960 0.764555
O O4 0.756064 0.122529 0.915495
O O5 0.500000 0.581530 0.292051
O O6 0.238054 0.500000 0.259551
O O7 0.298048 0.615273 0.168639
O O8 0.207196 0.622919 0.335648
O O9 0.000000 0.631684 0.108683
O O10 0.253230 0.632678 0.000000
O O11 0.765720 0.660150 0.500000
O O12 0.692691 0.753330 0.379495
O O13 0.000000 0.715031 0.399345
O O14 0.172265 0.882869 0.627524
O O15 0.000000 0.923734 0.500000
O O16 0.000000 0.000000 0.641092
O O17 0.500000 0.861433 0.652286
O O18 0.500000 0.929005 0.000000
O O19 0.780100 0.000000 0.000000
#
# Coordination Sequence:
#
# PCOD8198860 Si02
#       7
#     8   8   8   8   4   8   4
#     4  10  20  35  60  90 120 160 206 252 307 373
#     4  11  25  43  63  91 126 165 212 265 323 388
#     4  11  23  38  61  90 122 161 208 259 314 379
#     4  11  23  40  65  96 129 166 212 265 321 388
#     4  11  26  46  66  93 128 166 213 269 330 390
#     4  11  23  40  66  97 129 167 216 268 320 383
#     4   9  18  34  57  87 124 161 200 251 307 371
#
# _framework density 20.660557000000001
#
# number of rings (size 3 to 8) (size 9 to 14) (size 15 to 20)
#    0.000    1.333    3.333    2.000    1.167    6.333 
#    0.000    5.833    0.000    0.500    0.000    0.000 
#    0.000    0.000    0.000    0.000    0.000    0.000 
#
# Total GULP energy -595263.915485 kJ/mol
# GULP energy per Si atom -12401.331573 kJ/mol
# Density = 2.061353 g / cm^3
# Si number density = 20.660557 Si / 1000 Ang^3
#
#
#
# Elastic Constant Matrix: (Units=GPa)
#
#
# Indices 1 2 3 4 5 6 
#
# 1 69.2954 24.3123 29.6477 0.0000 0.0000 0.0000
# 2 24.3123 133.7642 56.2888 0.0000 0.0000 0.0000
# 3 29.6477 56.2888 153.0423 0.0000 0.0000 0.0000
# 4 0.0000 0.0000 0.0000 21.8589 0.0000 0.0000
# 5 0.0000 0.0000 0.0000 0.0000 27.2215 0.0000
# 6 0.0000 0.0000 0.0000 0.0000 0.0000 46.4317
#
#
#
# Elastic Compliance Matrix: (Units=1/GPa)
#
#
# Indices 1 2 3 4 5 6 
#
# 1 0.016139 -0.001914 -0.002423 0.000000 0.000000 0.000000
# 2 -0.001914 0.009072 -0.002966 0.000000 0.000000 0.000000
# 3 -0.002423 -0.002966 0.008094 0.000000 0.000000 0.000000
# 4 0.000000 0.000000 0.000000 0.045748 0.000000 0.000000
# 5 0.000000 0.000000 0.000000 0.000000 0.036736 0.000000
# 6 0.000000 0.000000 0.000000 0.000000 0.000000 0.021537
#
#
# Mechanical properties :
#
#
# Convention : Reuss Voigt Hill
#
# Bulk Modulus (GPa) = 53.47473 64.06661 58.77067
# Shear Modulus (GPa) = 31.61286 35.49264 33.55275
#
# Velocity S-wave (km/s) = 3.91590 4.14924 4.03426
# Velocity P-wave (km/s) = 6.81061 7.35061 7.08576
#
# Compressibility (1/GPa) = 0.01870042
#
# Stress axis : x y z
#
# Youngs Moduli (GPa) = 61.96192 110.23251 123.54440
#
# Poissons Ratio (x) = 0.21098 0.29929
# Poissons Ratio (y) = 0.11859 0.36641
# Poissons Ratio (z) = 0.15010 0.32693
#
# Static dielectric constant tensor:
#      x y z
#    x 3.496890 0.000000 0.000000 
#    y 0.000000 3.809230 0.000000 
#    z 0.000000 0.000000 3.919030 
# 
# 
# High freq. dielectric constant tensor:
#      x y z
#    x 1.805700 0.000000 0.000000 
#    y 0.000000 1.797660 0.000000 
#    z 0.000000 0.000000 1.823230 
# 
# From -- ./inp_files/21094.got.cif
#   From: 2010.03.12/outbox.cif.g09.slc.cpg/sg47_11_cif.got.tgz:21094.got - 2010.04.14 03:12:58.
