data_PCOD8198176
_publ_section_title
;
Structure prediction by ZEFSAII (Michael W. Deem and Ramdas Pophale) SiO2 
 PCOD8198176
Probable space group: P M M M
;
_chemical_formula_sum "Si O2"
_cell_formula_units_Z 40
_cell_length_a 9.196382
_cell_length_b 27.384512
_cell_length_c 7.964475
_cell_angle_alpha 90.000000
_cell_angle_beta 90.000000
_cell_angle_gamma 90.000000
_cell_volume 2005.760906
_symmetry_space_group_name_H-M "P M M M"
_symmetry_group_IT_number 47
_symmetry_cell_setting 'orthorhombic'
loop_
_space_group_symop_operation_xyz
x,y,z
-x,-y,z
x,-y,-z
-x,y,-z
-x,-y,-z
x,y,-z
-x,y,z
x,-y,z
loop_
_atom_site_type_symbol
_atom_site_label
_atom_site_fract_x
_atom_site_fract_y
_atom_site_fract_z
Si Si1 0.831517 0.786655 0.301768
Si Si2 0.672361 0.054466 0.500000
Si Si3 0.340014 0.693666 0.306388
Si Si4 0.827680 0.500000 0.310534
Si Si5 0.164752 0.396656 0.806603
Si Si6 0.668596 0.119578 0.810499
O O1 0.807940 0.793639 0.500000
O O2 0.758255 0.737068 0.230698
O O3 0.759477 0.831171 0.204108
O O4 0.000000 0.784014 0.254627
O O5 0.500000 0.051438 0.500000
O O6 0.726000 0.081404 0.670179
O O7 0.739491 0.000000 0.500000
O O8 0.360028 0.705078 0.500000
O O9 0.500000 0.692833 0.219936
O O10 0.263824 0.641527 0.289907
O O11 0.770547 0.500000 0.500000
O O12 0.769937 0.451036 0.220204
O O13 0.000000 0.500000 0.298705
O O14 0.000000 0.393628 0.735313
O O15 0.167954 0.382931 0.000000
O O16 0.500000 0.131867 0.776482
O O17 0.689682 0.098310 0.000000
#
# Coordination Sequence:
#
# PCOD8198176 Si02
#       6
#     8   4   8   4   8   8
#     4  10  20  35  57  82 109 145 187 231 281 335
#     4   9  18  34  57  85 119 155 191 236 283 328
#     4  10  21  36  55  79 108 143 182 225 273 325
#     4   9  17  31  54  79 102 133 174 220 268 321
#     4  10  20  34  53  78 108 140 176 220 270 324
#     4  10  20  34  56  85 116 152 192 234 283 336
#
# _framework density 19.942557999999998
#
# number of rings (size 3 to 8) (size 9 to 14) (size 15 to 20)
#    0.000    2.200    1.000    2.100    0.000    6.000 
#    0.000    2.500    0.000    4.200    0.000    1.400 
#    0.000    0.000    0.000    0.000    0.000    0.000 
#
# Total GULP energy -495944.538761 kJ/mol
# GULP energy per Si atom -12398.613469 kJ/mol
# Density = 1.989717 g / cm^3
# Si number density = 19.942558 Si / 1000 Ang^3
#
#
#
# Elastic Constant Matrix: (Units=GPa)
#
#
# Indices 1 2 3 4 5 6 
#
# 1 95.3189 59.8565 30.3405 0.0000 0.0000 0.0000
# 2 59.8565 161.3646 42.7291 0.0000 0.0000 0.0000
# 3 30.3405 42.7291 79.6158 0.0000 0.0000 0.0000
# 4 0.0000 0.0000 0.0000 16.0597 0.0000 0.0000
# 5 0.0000 0.0000 0.0000 0.0000 17.5185 0.0000
# 6 0.0000 0.0000 0.0000 0.0000 0.0000 21.8531
#
#
#
# Elastic Compliance Matrix: (Units=1/GPa)
#
#
# Indices 1 2 3 4 5 6 
#
# 1 0.014277 -0.004494 -0.003029 0.000000 0.000000 0.000000
# 2 -0.004494 0.008638 -0.002924 0.000000 0.000000 0.000000
# 3 -0.003029 -0.002924 0.015284 0.000000 0.000000 0.000000
# 4 0.000000 0.000000 0.000000 0.062268 0.000000 0.000000
# 5 0.000000 0.000000 0.000000 0.000000 0.057082 0.000000
# 6 0.000000 0.000000 0.000000 0.000000 0.000000 0.045760
#
#
# Mechanical properties :
#
#
# Convention : Reuss Voigt Hill
#
# Bulk Modulus (GPa) = 57.78251 66.90573 62.34412
# Shear Modulus (GPa) = 21.74185 24.64447 23.19316
#
# Velocity S-wave (km/s) = 3.30544 3.51917 3.41398
# Velocity P-wave (km/s) = 6.60343 7.08059 6.84617
#
# Compressibility (1/GPa) = 0.01730627
#
# Stress axis : x y z
#
# Youngs Moduli (GPa) = 70.04151 115.76409 65.42937
#
# Poissons Ratio (x) = 0.52023 0.19819
# Poissons Ratio (y) = 0.31476 0.19128
# Poissons Ratio (z) = 0.21216 0.33844
#
# Static dielectric constant tensor:
#      x y z
#    x 3.509660 0.000000 0.000000 
#    y 0.000000 3.722120 0.000000 
#    z 0.000000 0.000000 3.557680 
# 
# 
# High freq. dielectric constant tensor:
#      x y z
#    x 1.751780 0.000000 0.000000 
#    y 0.000000 1.780830 0.000000 
#    z 0.000000 0.000000 1.773740 
# 
# From -- ./inp_files/1740.got.cif
#   From: 2010.03.12/outbox.cif.g09.slc.cpg/sg47_1_cif.got.tgz:1740.got - 2010.04.14 03:12:58.
