data_PCOD8198212
_publ_section_title
;
Structure prediction by ZEFSAII (Michael W. Deem and Ramdas Pophale) SiO2 
 PCOD8198212
Probable space group: P M M M
;
_chemical_formula_sum "Si O2"
_cell_formula_units_Z 48
_cell_length_a 9.067096
_cell_length_b 9.489661
_cell_length_c 30.880266
_cell_angle_alpha 90.000000
_cell_angle_beta 90.000000
_cell_angle_gamma 90.000000
_cell_volume 2657.051334
_symmetry_space_group_name_H-M "P M M M"
_symmetry_group_IT_number 47
_symmetry_cell_setting 'orthorhombic'
loop_
_space_group_symop_operation_xyz
x,y,z
-x,-y,z
x,-y,-z
-x,y,-z
-x,-y,-z
x,y,-z
-x,y,z
x,-y,z
loop_
_atom_site_type_symbol
_atom_site_label
_atom_site_fract_x
_atom_site_fract_y
_atom_site_fract_z
Si Si1 0.824118 0.843428 0.124929
Si Si2 0.826173 0.336800 0.620826
Si Si3 0.836190 0.832637 0.219255
Si Si4 0.824672 0.342177 0.952396
Si Si5 0.330217 0.160945 0.550410
Si Si6 0.327538 0.163981 0.304068
O O1 0.779957 0.778576 0.172080
O O2 0.755408 0.751334 0.086026
O O3 0.000000 0.847996 0.122267
O O4 0.758829 0.000000 0.119422
O O5 0.778928 0.500000 0.621639
O O6 0.772431 0.268262 0.576132
O O7 0.753174 0.256744 0.660571
O O8 0.000000 0.318958 0.624274
O O9 0.725216 0.783718 0.256808
O O10 0.000000 0.773178 0.229682
O O11 0.843916 0.000000 0.216311
O O12 0.764052 0.500000 0.946640
O O13 0.000000 0.341995 0.948807
O O14 0.777975 0.283910 0.000000
O O15 0.304563 0.190109 0.500000
O O16 0.500000 0.187555 0.563151
O O17 0.287600 0.000000 0.561964
O O18 0.500000 0.190351 0.307879
O O19 0.287420 0.000000 0.311469
#
# Coordination Sequence:
#
# PCOD8198212 Si02
#       6
#     8   8   8   8   8   8
#     4   8  13  21  34  52  74 104 142 179 217 266
#     4  11  24  38  52  75 107 139 170 205 246 291
#     4   8  14  26  44  65  90 119 150 188 235 283
#     4   8  13  20  29  44  71 106 139 172 215 266
#     4   9  19  37  60  84 108 135 170 209 246 288
#     4  10  20  34  54  77  98 125 164 205 245 293
#
# _framework density 18.065137
#
# number of rings (size 3 to 8) (size 9 to 14) (size 15 to 20)
#    0.000    3.000    0.000    3.500    0.000    5.667 
#    0.000    5.000    0.000    3.000    0.000    0.000 
#    0.000    0.667    0.000    8.333    0.000    9.667 
#
# Total GULP energy -594941.594124 kJ/mol
# GULP energy per Si atom -12394.616544 kJ/mol
# Density = 1.802402 g / cm^3
# Si number density = 18.065137 Si / 1000 Ang^3
#
#
#
# Elastic Constant Matrix: (Units=GPa)
#
#
# Indices 1 2 3 4 5 6 
#
# 1 55.3746 43.9347 49.4386 0.0000 0.0000 0.0000
# 2 43.9347 91.6002 75.6534 0.0000 0.0000 0.0000
# 3 49.4386 75.6534 154.0706 0.0000 0.0000 0.0000
# 4 0.0000 0.0000 0.0000 4.8152 0.0000 0.0000
# 5 0.0000 0.0000 0.0000 0.0000 -0.2094 0.0000
# 6 0.0000 0.0000 0.0000 0.0000 0.0000 18.0981
#
#
#
# Elastic Compliance Matrix: (Units=1/GPa)
#
#
# Indices 1 2 3 4 5 6 
#
# 1 0.030852 -0.011138 -0.004430 0.000000 0.000000 0.000000
# 2 -0.011138 0.022386 -0.007418 0.000000 0.000000 0.000000
# 3 -0.004430 -0.007418 0.011555 0.000000 0.000000 0.000000
# 4 0.000000 0.000000 0.000000 0.207675 0.000000 0.000000
# 5 0.000000 0.000000 0.000000 0.000000 -4.774932 0.000000
# 6 0.000000 0.000000 0.000000 0.000000 0.000000 0.055254
#
#
# Mechanical properties :
#
#
# Convention : Reuss Voigt Hill
#
# Bulk Modulus (GPa) = 53.13925 71.01097 62.07511
# Shear Modulus (GPa) = -1.13767 13.34203 6.10218
#
# Velocity S-wave (km/s) = -0.79443 2.72058 1.83989
# Velocity P-wave (km/s) = 5.35142 7.01871 6.24100
#
# Compressibility (1/GPa) = 0.01881848
#
# Stress axis : x y z
#
# Youngs Moduli (GPa) = 32.41311 44.67058 86.54464
#
# Poissons Ratio (x) = 0.49756 0.38343
# Poissons Ratio (y) = 0.36103 0.64200
# Poissons Ratio (z) = 0.14361 0.33137
#
# Static dielectric constant tensor:
#      x y z
#    x 3.011650 0.000000 0.000000 
#    y 0.000000 3.301410 0.000000 
#    z 0.000000 0.000000 3.747130 
# 
# 
# High freq. dielectric constant tensor:
#      x y z
#    x 1.659790 0.000000 0.000000 
#    y 0.000000 1.676050 0.000000 
#    z 0.000000 0.000000 1.720990 
# 
# From -- ./inp_files/2505.got.cif
#   From: 2010.03.12/outbox.cif.g09.slc.cpg/sg47_2_cif.got.tgz:2505.got - 2010.04.14 03:12:58.
