data_PCOD8198123
_publ_section_title
;
Structure prediction by ZEFSAII (Michael W. Deem and Ramdas Pophale) SiO2 
 PCOD8198123
Probable space group: P M M M
;
_chemical_formula_sum "Si O2"
_cell_formula_units_Z 48
_cell_length_a 8.879515
_cell_length_b 9.002836
_cell_length_c 31.126871
_cell_angle_alpha 90.000000
_cell_angle_beta 90.000000
_cell_angle_gamma 90.000000
_cell_volume 2488.307508
_symmetry_space_group_name_H-M "P M M M"
_symmetry_group_IT_number 47
_symmetry_cell_setting 'orthorhombic'
loop_
_space_group_symop_operation_xyz
x,y,z
-x,-y,z
x,-y,-z
-x,y,-z
-x,-y,-z
x,y,-z
-x,y,z
x,-y,z
loop_
_atom_site_type_symbol
_atom_site_label
_atom_site_fract_x
_atom_site_fract_y
_atom_site_fract_z
Si Si1 0.179555 0.167560 0.500000
Si Si2 0.177501 0.329662 0.913474
Si Si3 0.179709 0.667637 0.584528
Si Si4 0.179065 0.167122 0.331421
Si Si5 0.669335 0.676429 0.000000
Si Si6 0.324831 0.172129 0.165715
Si Si7 0.173989 0.674834 0.754926
O O1 0.241669 0.250316 0.457807
O O2 0.000000 0.168574 0.500000
O O3 0.241363 0.000000 0.500000
O O4 0.227940 0.500000 0.905122
O O5 0.247234 0.265394 0.957463
O O6 0.232977 0.227585 0.875091
O O7 0.000000 0.318182 0.917333
O O8 0.241156 0.500000 0.584601
O O9 0.243793 0.750916 0.626512
O O10 0.000000 0.668953 0.584812
O O11 0.233607 0.253337 0.289139
O O12 0.000000 0.166292 0.333443
O O13 0.242994 0.000000 0.330172
O O14 0.672932 0.500000 0.000000
O O15 0.500000 0.738812 0.000000
O O16 0.500000 0.200041 0.157085
O O17 0.275352 0.263814 0.207055
O O18 0.288232 0.000000 0.173627
O O19 0.195542 0.500000 0.751320
O O20 0.000000 0.716604 0.763719
#
# Coordination Sequence:
#
# PCOD8198123 Si02
#       7
#     4   8   8   8   4   8   8
#     4   9  15  21  29  43  67 103 148 195 244 299
#     4  10  20  35  57  84 111 140 177 219 260 305
#     4   9  15  22  32  48  73 107 149 196 243 293
#     4   9  16  26  41  61  86 117 153 195 244 297
#     4   9  17  31  54  83 114 147 180 216 260 307
#     4  11  24  39  54  75 104 137 172 211 257 308
#     4  10  20  34  53  76  99 126 164 208 253 304
#
# _framework density 19.290222
#
# number of rings (size 3 to 8) (size 9 to 14) (size 15 to 20)
#    0.000    2.333    0.000    3.500    0.000   11.333 
#    0.000    0.417    0.000    2.500    0.000    0.000 
#    0.000    0.000    0.000    0.750    0.000   14.667 
#
# Total GULP energy -595292.656308 kJ/mol
# GULP energy per Si atom -12401.930340 kJ/mol
# Density = 1.924632 g / cm^3
# Si number density = 19.290222 Si / 1000 Ang^3
#
#
#
# Elastic Constant Matrix: (Units=GPa)
#
#
# Indices 1 2 3 4 5 6 
#
# 1 42.4805 22.9183 28.6416 0.0000 0.0000 0.0000
# 2 22.9183 120.4970 64.4466 0.0000 0.0000 0.0000
# 3 28.6416 64.4466 172.2250 0.0000 0.0000 0.0000
# 4 0.0000 0.0000 0.0000 8.9269 0.0000 0.0000
# 5 0.0000 0.0000 0.0000 0.0000 -5.1208 0.0000
# 6 0.0000 0.0000 0.0000 0.0000 0.0000 17.1761
#
#
#
# Elastic Compliance Matrix: (Units=1/GPa)
#
#
# Indices 1 2 3 4 5 6 
#
# 1 0.027645 -0.003500 -0.003288 0.000000 0.000000 0.000000
# 2 -0.003500 0.010818 -0.003466 0.000000 0.000000 0.000000
# 3 -0.003288 -0.003466 0.007650 0.000000 0.000000 0.000000
# 4 0.000000 0.000000 0.000000 0.112021 0.000000 0.000000
# 5 0.000000 0.000000 0.000000 0.000000 -0.195280 0.000000
# 6 0.000000 0.000000 0.000000 0.000000 0.000000 0.058220
#
#
# Mechanical properties :
#
#
# Convention : Reuss Voigt Hill
#
# Bulk Modulus (GPa) = 39.05294 63.02394 51.03844
# Shear Modulus (GPa) = 99.76554 18.80949 59.28752
#
# Velocity S-wave (km/s) = 7.19934 3.12601 5.54988
# Velocity P-wave (km/s) = 9.45496 6.76547 8.22094
#
# Compressibility (1/GPa) = 0.02560627
#
# Stress axis : x y z
#
# Youngs Moduli (GPa) = 36.17281 92.43441 130.71480
#
# Poissons Ratio (x) = 0.32348 0.42978
# Poissons Ratio (y) = 0.12659 0.45310
# Poissons Ratio (z) = 0.11893 0.32040
#
# Static dielectric constant tensor:
#      x y z
#    x 3.068040 0.000000 0.000000 
#    y 0.000000 3.604670 0.000000 
#    z 0.000000 0.000000 3.797460 
# 
# 
# High freq. dielectric constant tensor:
#      x y z
#    x 1.701370 0.000000 0.000000 
#    y 0.000000 1.753110 0.000000 
#    z 0.000000 0.000000 1.770990 
# 
# From -- ./inp_files/2551.got.cif
#   From: 2010.03.12/outbox.cif.g09.slc.cpg/sg47_2_cif.got.tgz:2551.got - 2010.04.14 03:12:58.
