data_PCOD8198150
_publ_section_title
;
Structure prediction by ZEFSAII (Michael W. Deem and Ramdas Pophale) SiO2 
 PCOD8198150
Probable space group: P M M M
;
_chemical_formula_sum "Si O2"
_cell_formula_units_Z 40
_cell_length_a 9.062364
_cell_length_b 27.449218
_cell_length_c 7.865144
_cell_angle_alpha 90.000000
_cell_angle_beta 90.000000
_cell_angle_gamma 90.000000
_cell_volume 1956.492362
_symmetry_space_group_name_H-M "P M M M"
_symmetry_group_IT_number 47
_symmetry_cell_setting 'orthorhombic'
loop_
_space_group_symop_operation_xyz
x,y,z
-x,-y,z
x,-y,-z
-x,y,-z
-x,-y,-z
x,y,-z
-x,y,z
x,-y,z
loop_
_atom_site_type_symbol
_atom_site_label
_atom_site_fract_x
_atom_site_fract_y
_atom_site_fract_z
Si Si1 0.175053 0.554315 0.000000
Si Si2 0.168331 0.188099 0.200729
Si Si3 0.833994 0.000000 0.703407
Si Si4 0.337070 0.906998 0.696696
Si Si5 0.829856 0.620244 0.690520
Si Si6 0.671961 0.714485 0.198146
O O1 0.230331 0.581754 0.829547
O O2 0.243433 0.500000 0.000000
O O3 0.000000 0.551019 0.000000
O O4 0.248002 0.142465 0.282774
O O5 0.248167 0.236966 0.264668
O O6 0.000000 0.189449 0.263602
O O7 0.179977 0.183452 0.000000
O O8 0.751894 0.047763 0.777802
O O9 0.836821 0.000000 0.500000
O O10 0.000000 0.000000 0.775367
O O11 0.356659 0.918184 0.500000
O O12 0.500000 0.902722 0.781480
O O13 0.812927 0.598187 0.500000
O O14 0.735566 0.669223 0.698629
O O15 0.000000 0.633057 0.730103
O O16 0.500000 0.719977 0.236781
O O17 0.704506 0.705792 0.000000
#
# Coordination Sequence:
#
# PCOD8198150 Si02
#       6
#     4   8   4   8   8   8
#     4   9  18  34  57  85 119 155 191 238 289 334
#     4  10  21  36  55  79 108 142 179 222 273 328
#     4   9  17  31  52  75 100 135 178 224 276 331
#     4  10  20  34  53  77 105 137 176 223 274 330
#     4  10  20  34  56  85 115 150 192 236 284 339
#     4  10  20  35  56  79 106 144 185 226 278 337
#
# _framework density 20.444752000000001
#
# number of rings (size 3 to 8) (size 9 to 14) (size 15 to 20)
#    0.000    2.200    1.000    2.100    0.000    6.000 
#    0.000    2.500    0.000    4.200    0.000    1.400 
#    0.000    0.000    0.000    0.000    0.000    0.000 
#
# Total GULP energy -496043.297430 kJ/mol
# GULP energy per Si atom -12401.082436 kJ/mol
# Density = 2.039822 g / cm^3
# Si number density = 20.444752 Si / 1000 Ang^3
#
#
#
# Elastic Constant Matrix: (Units=GPa)
#
#
# Indices 1 2 3 4 5 6 
#
# 1 133.4910 64.5123 30.8744 0.0000 0.0000 0.0000
# 2 64.5123 167.6902 44.5445 0.0000 0.0000 0.0000
# 3 30.8744 44.5445 68.9578 0.0000 0.0000 0.0000
# 4 0.0000 0.0000 0.0000 25.1730 0.0000 0.0000
# 5 0.0000 0.0000 0.0000 0.0000 18.4033 0.0000
# 6 0.0000 0.0000 0.0000 0.0000 0.0000 6.9729
#
#
#
# Elastic Compliance Matrix: (Units=1/GPa)
#
#
# Indices 1 2 3 4 5 6 
#
# 1 0.009490 -0.003045 -0.002282 0.000000 0.000000 0.000000
# 2 -0.003045 0.008175 -0.003918 0.000000 0.000000 0.000000
# 3 -0.002282 -0.003918 0.018054 0.000000 0.000000 0.000000
# 4 0.000000 0.000000 0.000000 0.039725 0.000000 0.000000
# 5 0.000000 0.000000 0.000000 0.000000 0.054338 0.000000
# 6 0.000000 0.000000 0.000000 0.000000 0.000000 0.143413
#
#
# Mechanical properties :
#
#
# Convention : Reuss Voigt Hill
#
# Bulk Modulus (GPa) = 58.03729 72.22238 65.12983
# Shear Modulus (GPa) = 16.81071 25.45703 21.13387
#
# Velocity S-wave (km/s) = 2.87060 3.53251 3.21862
# Velocity P-wave (km/s) = 6.27982 7.21391 6.76301
#
# Compressibility (1/GPa) = 0.01723030
#
# Stress axis : x y z
#
# Youngs Moduli (GPa) = 105.36878 122.31702 55.38854
#
# Poissons Ratio (x) = 0.37244 0.12641
# Poissons Ratio (y) = 0.32083 0.21700
# Poissons Ratio (z) = 0.24048 0.47922
#
# Static dielectric constant tensor:
#      x y z
#    x 3.781040 0.000000 0.000000 
#    y 0.000000 3.758250 0.000000 
#    z 0.000000 0.000000 3.511030 
# 
# 
# High freq. dielectric constant tensor:
#      x y z
#    x 1.796390 0.000000 0.000000 
#    y 0.000000 1.800340 0.000000 
#    z 0.000000 0.000000 1.782880 
# 
# From -- ./inp_files/1742.got.cif
#   From: 2010.03.12/outbox.cif.g09.slc.cpg/sg47_1_cif.got.tgz:1742.got - 2010.04.14 03:12:58.
