data_PCOD8198492
_publ_section_title
;
Structure prediction by ZEFSAII (Michael W. Deem and Ramdas Pophale) SiO2 
 PCOD8198492
Probable space group: P M M M
;
_chemical_formula_sum "Si O2"
_cell_formula_units_Z 56
_cell_length_a 8.617546
_cell_length_b 14.182303
_cell_length_c 22.788776
_cell_angle_alpha 90.000000
_cell_angle_beta 90.000000
_cell_angle_gamma 90.000000
_cell_volume 2785.167826
_symmetry_space_group_name_H-M "P M M M"
_symmetry_group_IT_number 47
_symmetry_cell_setting 'orthorhombic'
loop_
_space_group_symop_operation_xyz
x,y,z
-x,-y,z
x,-y,-z
-x,y,-z
-x,-y,-z
x,y,-z
-x,y,z
x,-y,z
loop_
_atom_site_type_symbol
_atom_site_label
_atom_site_fract_x
_atom_site_fract_y
_atom_site_fract_z
Si Si1 0.821566 0.205535 0.064572
Si Si2 0.683661 0.763972 0.716358
Si Si3 0.315853 0.390600 0.500000
Si Si4 0.825624 0.606496 0.784562
Si Si5 0.817084 0.243963 0.589565
Si Si6 0.316737 0.105902 0.823198
Si Si7 0.321456 0.889191 0.500000
Si Si8 0.318855 0.394580 0.908400
O O1 0.725523 0.153997 0.115052
O O2 0.775087 0.315294 0.057014
O O3 0.000000 0.198013 0.082379
O O4 0.792348 0.159229 0.000000
O O5 0.500000 0.768559 0.710951
O O6 0.742547 0.660490 0.732340
O O7 0.758641 0.782000 0.653960
O O8 0.745802 0.836360 0.766678
O O9 0.258454 0.500000 0.500000
O O10 0.500000 0.386962 0.500000
O O11 0.255962 0.337036 0.441292
O O12 0.834442 0.500000 0.763156
O O13 0.715871 0.619398 0.840222
O O14 0.000000 0.644249 0.798081
O O15 0.767304 0.150012 0.556147
O O16 0.000000 0.258496 0.589198
O O17 0.500000 0.102687 0.820006
O O18 0.247275 0.000000 0.821019
O O19 0.500000 0.854781 0.500000
O O20 0.309015 0.000000 0.500000
O O21 0.500000 0.379827 0.919875
O O22 0.267512 0.500000 0.928793
#
# Coordination Sequence:
#
# PCOD8198492 Si02
#       8
#     8   8   4   8   8   8   4   8
#     4  11  24  40  60  87 119 155 196 246 304 365
#     4  11  22  38  61  88 121 159 200 247 298 355
#     4  10  21  40  65  91 124 168 215 259 300 349
#     4  10  20  34  55  84 118 154 190 233 287 345
#     4  11  23  38  60  91 126 162 201 249 301 354
#     4  10  23  43  65  88 114 150 198 252 309 367
#     4  10  21  40  65  89 118 156 197 245 298 351
#     4  10  20  35  57  85 116 152 193 236 285 345
#
# _framework density 20.106508999999999
#
# number of rings (size 3 to 8) (size 9 to 14) (size 15 to 20)
#    0.000    1.571    1.429    4.286    0.000    6.571 
#    0.000    4.286    0.000    0.000    0.000    0.000 
#    0.000    0.000    0.000    0.000    0.000    0.000 
#
# Total GULP energy -694221.540320 kJ/mol
# GULP energy per Si atom -12396.813220 kJ/mol
# Density = 2.006075 g / cm^3
# Si number density = 20.106509 Si / 1000 Ang^3
#
#
#
# Elastic Constant Matrix: (Units=GPa)
#
#
# Indices 1 2 3 4 5 6 
#
# 1 68.5786 30.9309 31.6573 0.0000 0.0000 0.0000
# 2 30.9309 106.8617 55.5492 0.0000 0.0000 0.0000
# 3 31.6573 55.5492 148.7048 0.0000 0.0000 0.0000
# 4 0.0000 0.0000 0.0000 -1.5464 0.0000 0.0000
# 5 0.0000 0.0000 0.0000 0.0000 40.5211 0.0000
# 6 0.0000 0.0000 0.0000 0.0000 0.0000 20.7157
#
#
#
# Elastic Compliance Matrix: (Units=1/GPa)
#
#
# Indices 1 2 3 4 5 6 
#
# 1 0.017361 -0.003852 -0.002257 0.000000 0.000000 0.000000
# 2 -0.003852 0.012468 -0.003837 0.000000 0.000000 0.000000
# 3 -0.002257 -0.003837 0.008639 0.000000 0.000000 0.000000
# 4 0.000000 0.000000 0.000000 -0.646659 0.000000 0.000000
# 5 0.000000 0.000000 0.000000 0.000000 0.024679 0.000000
# 6 0.000000 0.000000 0.000000 0.000000 0.000000 0.048273
#
#
# Mechanical properties :
#
#
# Convention : Reuss Voigt Hill
#
# Bulk Modulus (GPa) = 53.83634 62.26889 58.05261
# Shear Modulus (GPa) = -9.82015 25.67191 7.92588
#
# Velocity S-wave (km/s) = -2.21239 3.57710 1.98759
# Velocity P-wave (km/s) = 4.50638 6.93525 5.84830
#
# Compressibility (1/GPa) = 0.01857481
#
# Stress axis : x y z
#
# Youngs Moduli (GPa) = 57.60037 80.20852 115.75875
#
# Poissons Ratio (x) = 0.30895 0.26127
# Poissons Ratio (y) = 0.22187 0.44420
# Poissons Ratio (z) = 0.13001 0.30778
#
# Static dielectric constant tensor:
#      x y z
#    x 3.700670 0.000000 0.000000 
#    y 0.000000 4.029410 0.000000 
#    z 0.000000 0.000000 3.668450 
# 
# 
# High freq. dielectric constant tensor:
#      x y z
#    x 1.791220 0.000000 0.000000 
#    y 0.000000 1.784250 0.000000 
#    z 0.000000 0.000000 1.787880 
# 
# From -- ./inp_files/29804.got.cif
#   From: 2010.03.12/outbox.cif.g09.slc.cpg/sg47_15_cif.got.tgz:29804.got - 2010.04.14 03:12:58.
