data_PCOD8198611
_publ_section_title
;
Structure prediction by ZEFSAII (Michael W. Deem and Ramdas Pophale) SiO2 
 PCOD8198611
Probable space group: P M M M
;
_chemical_formula_sum "Si O2"
_cell_formula_units_Z 48
_cell_length_a 29.597698
_cell_length_b 8.624386
_cell_length_c 9.564465
_cell_angle_alpha 90.000000
_cell_angle_beta 90.000000
_cell_angle_gamma 90.000000
_cell_volume 2441.444200
_symmetry_space_group_name_H-M "P M M M"
_symmetry_group_IT_number 47
_symmetry_cell_setting 'orthorhombic'
loop_
_space_group_symop_operation_xyz
x,y,z
-x,-y,z
x,-y,-z
-x,y,-z
-x,-y,-z
x,y,-z
-x,y,z
x,-y,z
loop_
_atom_site_type_symbol
_atom_site_label
_atom_site_fract_x
_atom_site_fract_y
_atom_site_fract_z
Si Si1 0.367978 0.685061 0.840946
Si Si2 0.449713 0.315623 0.343333
Si Si3 0.946395 0.316956 0.500000
Si Si4 0.048966 0.320226 0.000000
Si Si5 0.802765 0.316886 0.836923
Si Si6 0.895718 0.181162 0.241882
Si Si7 0.716128 0.683965 0.659687
O O1 0.367201 0.500000 0.844393
O O2 0.414101 0.748556 0.770138
O O3 0.327125 0.747866 0.744672
O O4 0.364152 0.749102 0.000000
O O5 0.437081 0.257606 0.500000
O O6 0.500000 0.256969 0.302617
O O7 0.448552 0.500000 0.342449
O O8 0.936336 0.500000 0.500000
O O9 0.921715 0.229067 0.378044
O O10 0.000000 0.285525 0.500000
O O11 0.078270 0.278243 0.129766
O O12 0.039884 0.500000 0.000000
O O13 0.000000 0.235402 0.000000
O O14 0.810376 0.500000 0.825665
O O15 0.843565 0.229674 0.760622
O O16 0.759344 0.262295 0.749068
O O17 0.797852 0.267689 0.000000
O O18 0.899724 0.000000 0.213256
O O19 0.717346 0.750253 0.500000
O O20 0.714095 0.500000 0.652186
#
# Coordination Sequence:
#
# PCOD8198611 Si02
#       7
#     8   8   4   4   8   8   8
#     4   9  15  22  33  51  78 109 148 205 266 321
#     4   8  13  20  29  42  65 103 150 200 257 321
#     4  11  25  45  67  89 117 155 195 233 276 331
#     4  11  23  41  65  91 119 155 197 233 272 329
#     4  10  20  35  55  77 105 140 179 222 270 329
#     4  12  25  40  61  90 122 153 187 233 286 336
#     4   9  17  28  44  66  88 118 163 214 266 320
#
# _framework density 19.660495000000001
#
# number of rings (size 3 to 8) (size 9 to 14) (size 15 to 20)
#    0.000    2.167    0.833    4.000    1.167    7.667 
#    0.000    1.667    0.000    0.000    0.000    0.000 
#    0.000    0.000    0.000    0.000    0.000    0.833 
#
# Total GULP energy -594899.011682 kJ/mol
# GULP energy per Si atom -12393.729410 kJ/mol
# Density = 1.961575 g / cm^3
# Si number density = 19.660495 Si / 1000 Ang^3
#
#
#
# Elastic Constant Matrix: (Units=GPa)
#
#
# Indices 1 2 3 4 5 6 
#
# 1 164.0078 16.1391 76.5969 0.0000 0.0000 0.0000
# 2 16.1391 29.8612 5.6721 0.0000 0.0000 0.0000
# 3 76.5969 5.6721 149.4871 0.0000 0.0000 0.0000
# 4 0.0000 0.0000 0.0000 -10.7511 0.0000 0.0000
# 5 0.0000 0.0000 0.0000 0.0000 -0.6695 0.0000
# 6 0.0000 0.0000 0.0000 0.0000 0.0000 -9.9955
#
#
#
# Elastic Compliance Matrix: (Units=1/GPa)
#
#
# Indices 1 2 3 4 5 6 
#
# 1 0.008414 -0.003756 -0.004169 0.000000 0.000000 0.000000
# 2 -0.003756 0.035408 0.000581 0.000000 0.000000 0.000000
# 3 -0.004169 0.000581 0.008804 0.000000 0.000000 0.000000
# 4 0.000000 0.000000 0.000000 -0.093014 0.000000 0.000000
# 5 0.000000 0.000000 0.000000 0.000000 -1.493598 0.000000
# 6 0.000000 0.000000 0.000000 0.000000 0.000000 -0.100045
#
#
# Mechanical properties :
#
#
# Convention : Reuss Voigt Hill
#
# Bulk Modulus (GPa) = 26.35869 60.01914 43.18892
# Shear Modulus (GPa) = -3.11197 12.04664 4.46733
#
# Velocity S-wave (km/s) = -1.25948 2.47803 1.50903
# Velocity P-wave (km/s) = 3.36467 6.22749 5.00513
#
# Compressibility (1/GPa) = 0.03793815
#
# Stress axis : x y z
#
# Youngs Moduli (GPa) = 118.85313 28.24247 113.59080
#
# Poissons Ratio (x) = 0.10607 0.47352
# Poissons Ratio (y) = 0.44636 -0.06598
# Poissons Ratio (z) = 0.49546 -0.01640
#
# Static dielectric constant tensor:
#      x y z
#    x 3.970920 0.000000 0.000000 
#    y 0.000000 3.014630 0.000000 
#    z 0.000000 0.000000 3.781210 
# 
# 
# High freq. dielectric constant tensor:
#      x y z
#    x 1.785830 0.000000 0.000000 
#    y 0.000000 1.705070 0.000000 
#    z 0.000000 0.000000 1.781640 
# 
# From -- ./inp_files/13928.got.cif
#   From: 2010.03.12/outbox.cif.g09.slc.cpg/sg47_7_cif.got.tgz:13928.got - 2010.04.14 03:12:58.
