data_PCOD8198002
_publ_section_title
;
Structure prediction by ZEFSAII (Michael W. Deem and Ramdas Pophale) SiO2 
 PCOD8198002
Probable space group: P M M M
;
_chemical_formula_sum "Si O2"
_cell_formula_units_Z 44
_cell_length_a 15.511422
_cell_length_b 17.053593
_cell_length_c 9.230225
_cell_angle_alpha 90.000000
_cell_angle_beta 90.000000
_cell_angle_gamma 90.000000
_cell_volume 2441.629677
_symmetry_space_group_name_H-M "P M M M"
_symmetry_group_IT_number 47
_symmetry_cell_setting 'orthorhombic'
loop_
_space_group_symop_operation_xyz
x,y,z
-x,-y,z
x,-y,-z
-x,y,-z
-x,-y,-z
x,y,-z
-x,y,z
x,-y,z
loop_
_atom_site_type_symbol
_atom_site_label
_atom_site_fract_x
_atom_site_fract_y
_atom_site_fract_z
Si Si1 0.851417 0.000000 0.672295
Si Si2 0.096190 0.846743 0.833118
Si Si3 0.666967 0.587663 0.833090
Si Si4 0.403179 0.833514 0.670223
Si Si5 0.345186 0.000000 0.671276
Si Si6 0.745022 0.744247 0.167011
Si Si7 0.500000 0.407194 0.338757
O O1 0.897006 0.923313 0.734670
O O2 0.753040 0.000000 0.725541
O O3 0.860951 0.000000 0.500000
O O4 0.164101 0.780437 0.780302
O O5 0.000000 0.811692 0.814300
O O6 0.113228 0.870188 0.000000
O O7 0.695928 0.500000 0.783005
O O8 0.745063 0.649583 0.808745
O O9 0.585582 0.620292 0.743623
O O10 0.638393 0.585568 0.000000
O O11 0.384619 0.831195 0.500000
O O12 0.500000 0.804264 0.705924
O O13 0.334476 0.778558 0.745422
O O14 0.392604 0.922381 0.729879
O O15 0.348580 0.000000 0.500000
O O16 0.729563 0.764788 0.000000
O O17 0.500000 0.500000 0.346806
O O18 0.500000 0.369889 0.500000
#
# Coordination Sequence:
#
# PCOD8198002 Si02
#       7
#     4   8   8   8   4   8   4
#     4  11  20  33  55  79 103 132 169 210 249 298
#     4  10  21  37  55  75 102 134 166 206 260 310
#     4   9  18  33  51  70  97 134 170 204 248 299
#     4  10  20  34  52  73 100 137 174 207 248 295
#     4   9  17  32  51  70  98 133 168 204 241 289
#     4  10  21  35  52  74 100 131 169 212 252 300
#     4   9  17  29  47  73 101 128 163 204 243 289
#
# _framework density 18.020751000000001
#
# number of rings (size 3 to 8) (size 9 to 14) (size 15 to 20)
#    0.000    2.273    1.818    1.091    1.273    4.727 
#    0.000    0.455    0.000    1.636    0.000    3.818 
#    0.000    0.000    0.000    7.818    0.000    8.364 
#
# Total GULP energy -545449.212626 kJ/mol
# GULP energy per Si atom -12396.573014 kJ/mol
# Density = 1.797973 g / cm^3
# Si number density = 18.020751 Si / 1000 Ang^3
#
#
#
# Elastic Constant Matrix: (Units=GPa)
#
#
# Indices 1 2 3 4 5 6 
#
# 1 127.0823 66.6877 39.7092 0.0000 0.0000 0.0000
# 2 66.6877 114.8490 34.5942 0.0000 0.0000 0.0000
# 3 39.7092 34.5942 52.9590 0.0000 0.0000 0.0000
# 4 0.0000 0.0000 0.0000 17.1189 0.0000 0.0000
# 5 0.0000 0.0000 0.0000 0.0000 21.0881 0.0000
# 6 0.0000 0.0000 0.0000 0.0000 0.0000 6.3853
#
#
#
# Elastic Compliance Matrix: (Units=1/GPa)
#
#
# Indices 1 2 3 4 5 6 
#
# 1 0.012609 -0.005570 -0.005816 0.000000 0.000000 0.000000
# 2 -0.005570 0.013300 -0.004512 0.000000 0.000000 0.000000
# 3 -0.005816 -0.004512 0.026191 0.000000 0.000000 0.000000
# 4 0.000000 0.000000 0.000000 0.058415 0.000000 0.000000
# 5 0.000000 0.000000 0.000000 0.000000 0.047420 0.000000
# 6 0.000000 0.000000 0.000000 0.000000 0.000000 0.156609
#
#
# Mechanical properties :
#
#
# Convention : Reuss Voigt Hill
#
# Bulk Modulus (GPa) = 49.24962 64.09695 56.67328
# Shear Modulus (GPa) = 14.15998 19.17840 16.66919
#
# Velocity S-wave (km/s) = 2.80618 3.26581 3.04468
# Velocity P-wave (km/s) = 6.15534 7.06161 6.62399
#
# Compressibility (1/GPa) = 0.02030473
#
# Stress axis : x y z
#
# Youngs Moduli (GPa) = 79.30867 75.18736 38.18134
#
# Poissons Ratio (x) = 0.41876 0.22207
# Poissons Ratio (y) = 0.44171 0.17227
# Poissons Ratio (z) = 0.46127 0.33924
#
# Static dielectric constant tensor:
#      x y z
#    x 3.361870 0.000000 0.000000 
#    y 0.000000 3.528490 0.000000 
#    z 0.000000 0.000000 3.279830 
# 
# 
# High freq. dielectric constant tensor:
#      x y z
#    x 1.683210 0.000000 0.000000 
#    y 0.000000 1.699140 0.000000 
#    z 0.000000 0.000000 1.685640 
# 
# From -- ./inp_files/6246.got.cif
#   From: 2010.03.12/outbox.cif.g09.slc.cpg/sg47_4_cif.got.tgz:6246.got - 2010.04.14 03:12:58.
