data_PCOD8198349
_publ_section_title
;
Structure prediction by ZEFSAII (Michael W. Deem and Ramdas Pophale) SiO2 
 PCOD8198349
Probable space group: P M M M
;
_chemical_formula_sum "Si O2"
_cell_formula_units_Z 48
_cell_length_a 13.765086
_cell_length_b 8.754572
_cell_length_c 19.418770
_cell_angle_alpha 90.000000
_cell_angle_beta 90.000000
_cell_angle_gamma 90.000000
_cell_volume 2340.106192
_symmetry_space_group_name_H-M "P M M M"
_symmetry_group_IT_number 47
_symmetry_cell_setting 'orthorhombic'
loop_
_space_group_symop_operation_xyz
x,y,z
-x,-y,z
x,-y,-z
-x,y,-z
-x,-y,-z
x,y,-z
-x,y,z
x,-y,z
loop_
_atom_site_type_symbol
_atom_site_label
_atom_site_fract_x
_atom_site_fract_y
_atom_site_fract_z
Si Si1 0.500000 0.680096 0.076860
Si Si2 0.000000 0.321783 0.622475
Si Si3 0.204361 0.823954 0.420629
Si Si4 0.891879 0.320367 0.000000
Si Si5 0.364616 0.670719 0.195711
Si Si6 0.000000 0.173511 0.234410
Si Si7 0.607060 0.820165 0.339034
Si Si8 0.153170 0.328652 0.147622
O O1 0.500000 0.500000 0.065313
O O2 0.407682 0.731448 0.122998
O O3 0.500000 0.756816 0.000000
O O4 0.100324 0.255713 0.591678
O O5 0.000000 0.291333 0.703225
O O6 0.000000 0.500000 0.606828
O O7 0.232765 0.805547 0.500000
O O8 0.297216 0.751746 0.378489
O O9 0.189838 0.000000 0.399630
O O10 0.834624 0.269865 0.931146
O O11 0.900071 0.500000 0.000000
O O12 0.000000 0.247928 0.000000
O O13 0.404503 0.500000 0.210831
O O14 0.392607 0.777969 0.258762
O O15 0.251016 0.667221 0.188977
O O16 0.907938 0.203106 0.187210
O O17 0.000000 0.000000 0.261641
O O18 0.500000 0.767238 0.368773
O O19 0.614362 0.000000 0.346616
O O20 0.106308 0.500000 0.148407
#
# Coordination Sequence:
#
# PCOD8198349 Si02
#       8
#     4   4   8   4   8   4   8   8
#     4   9  18  32  51  81 114 141 182 240 293 339
#     4  12  25  41  63  90 122 157 197 241 291 349
#     4  10  22  41  65  93 125 160 197 238 289 350
#     4   9  16  30  52  75 105 144 187 242 300 353
#     4  10  20  34  56  83 112 148 191 240 292 344
#     4  12  24  38  56  80 111 148 188 235 286 339
#     4  10  21  38  61  88 120 159 200 245 295 349
#     4  10  20  34  54  80 109 145 191 240 292 351
#
# _framework density 20.511887999999999
#
# number of rings (size 3 to 8) (size 9 to 14) (size 15 to 20)
#    0.000    1.833    1.667    2.750    1.167    5.667 
#    0.000    2.500    0.000    1.000    0.000    2.333 
#    0.000    0.000    0.000    0.000    0.000    0.000 
#
# Total GULP energy -594668.181716 kJ/mol
# GULP energy per Si atom -12388.920452 kJ/mol
# Density = 2.046520 g / cm^3
# Si number density = 20.511888 Si / 1000 Ang^3
#
#
#
# Elastic Constant Matrix: (Units=GPa)
#
#
# Indices 1 2 3 4 5 6 
#
# 1 156.1000 33.2954 49.5778 0.0000 0.0000 0.0000
# 2 33.2954 43.6926 19.0946 0.0000 0.0000 0.0000
# 3 49.5778 19.0946 112.0592 0.0000 0.0000 0.0000
# 4 0.0000 0.0000 0.0000 25.5027 0.0000 0.0000
# 5 0.0000 0.0000 0.0000 0.0000 60.5868 0.0000
# 6 0.0000 0.0000 0.0000 0.0000 0.0000 19.5331
#
#
#
# Elastic Compliance Matrix: (Units=1/GPa)
#
#
# Indices 1 2 3 4 5 6 
#
# 1 0.008411 -0.005168 -0.002840 0.000000 0.000000 0.000000
# 2 -0.005168 0.027904 -0.002468 0.000000 0.000000 0.000000
# 3 -0.002840 -0.002468 0.010601 0.000000 0.000000 0.000000
# 4 0.000000 0.000000 0.000000 0.039212 0.000000 0.000000
# 5 0.000000 0.000000 0.000000 0.000000 0.016505 0.000000
# 6 0.000000 0.000000 0.000000 0.000000 0.000000 0.051195
#
#
# Mechanical properties :
#
#
# Convention : Reuss Voigt Hill
#
# Bulk Modulus (GPa) = 38.51733 57.30970 47.91351
# Shear Modulus (GPa) = 27.25759 35.11678 31.18718
#
# Velocity S-wave (km/s) = 3.64932 4.14215 3.90352
# Velocity P-wave (km/s) = 6.04777 7.13280 6.61258
#
# Compressibility (1/GPa) = 0.02596234
#
# Stress axis : x y z
#
# Youngs Moduli (GPa) = 118.89811 35.83721 94.32939
#
# Poissons Ratio (x) = 0.18520 0.26794
# Poissons Ratio (y) = 0.61444 0.23284
# Poissons Ratio (z) = 0.33773 0.08846
#
# Static dielectric constant tensor:
#      x y z
#    x 4.057250 0.000000 0.000000 
#    y 0.000000 3.425500 0.000000 
#    z 0.000000 0.000000 3.886960 
# 
# 
# High freq. dielectric constant tensor:
#      x y z
#    x 1.819550 0.000000 0.000000 
#    y 0.000000 1.758800 0.000000 
#    z 0.000000 0.000000 1.808230 
# 
# From -- ./inp_files/28110.got.cif
#   From: 2010.03.12/outbox.cif.g09.slc.cpg/sg47_15_cif.got.tgz:28110.got - 2010.04.14 03:12:58.
