data_PCOD8198211
_publ_section_title
;
Structure prediction by ZEFSAII (Michael W. Deem and Ramdas Pophale) SiO2 
 PCOD8198211
Probable space group: P M M M
;
_chemical_formula_sum "Si O2"
_cell_formula_units_Z 64
_cell_length_a 14.185966
_cell_length_b 8.796614
_cell_length_c 31.231907
_cell_angle_alpha 90.000000
_cell_angle_beta 90.000000
_cell_angle_gamma 90.000000
_cell_volume 3897.381800
_symmetry_space_group_name_H-M "P M M M"
_symmetry_group_IT_number 47
_symmetry_cell_setting 'orthorhombic'
loop_
_space_group_symop_operation_xyz
x,y,z
-x,-y,z
x,-y,-z
-x,y,-z
-x,-y,-z
x,y,-z
-x,y,z
x,-y,z
loop_
_atom_site_type_symbol
_atom_site_label
_atom_site_fract_x
_atom_site_fract_y
_atom_site_fract_z
Si Si1 0.705930 0.323914 0.715800
Si Si2 0.609634 0.823066 0.796740
Si Si3 0.609356 0.825791 0.950918
Si Si4 0.606483 0.818816 0.362778
Si Si5 0.286096 0.676909 0.123957
Si Si6 0.894979 0.673705 0.241117
Si Si7 0.388130 0.830036 0.454708
Si Si8 0.893327 0.823117 0.848055
O O1 0.684345 0.500000 0.709389
O O2 0.646112 0.268022 0.756010
O O3 0.677692 0.237419 0.673013
O O4 0.817302 0.291999 0.722727
O O5 0.500000 0.788213 0.803062
O O6 0.662181 0.771891 0.839421
O O7 0.628944 0.000000 0.788869
O O8 0.500000 0.791493 0.942948
O O9 0.669809 0.712891 0.922024
O O10 0.631971 0.000000 0.938795
O O11 0.636321 0.793841 0.000000
O O12 0.500000 0.761997 0.352526
O O13 0.642650 0.753576 0.409379
O O14 0.607549 0.000000 0.364245
O O15 0.296114 0.500000 0.134176
O O16 0.176491 0.725458 0.122339
O O17 0.884624 0.500000 0.224753
O O18 0.875005 0.784081 0.201504
O O19 0.000000 0.702234 0.260044
O O20 0.356963 0.747328 0.500000
O O21 0.500000 0.838328 0.452943
O O22 0.346682 0.000000 0.456375
O O23 0.000000 0.780472 0.861152
O O24 0.872953 0.000000 0.854893
#
# Coordination Sequence:
#
# PCOD8198211 Si02
#       8
#     8   8   8   8   8   8   8   8
#     4  11  21  31  45  66  92 124 156 191 236 284
#     4  11  23  36  49  66  93 130 167 201 233 270
#     4   9  19  37  59  80 103 133 167 202 240 281
#     4   9  17  28  42  61  88 124 159 190 229 277
#     4  12  23  34  52  78 105 132 160 196 242 287
#     4   9  18  33  50  67  89 118 154 197 244 287
#     4   7  10  19  37  59  80 106 148 197 234 267
#     4  10  20  34  54  77  98 124 161 202 241 283
#
# _framework density 16.421282000000001
#
# number of rings (size 3 to 8) (size 9 to 14) (size 15 to 20)
#    0.000    2.250    1.250    4.500    0.000    6.000 
#    0.000    0.625    0.000    0.750    0.000    4.375 
#    0.000    0.500    0.000    6.250    0.000    0.250 
#
# Total GULP energy -793245.799719 kJ/mol
# GULP energy per Si atom -12394.465621 kJ/mol
# Density = 1.638391 g / cm^3
# Si number density = 16.421282 Si / 1000 Ang^3
#
#
#
# Elastic Constant Matrix: (Units=GPa)
#
#
# Indices 1 2 3 4 5 6 
#
# 1 82.8052 25.0086 42.9327 0.0000 0.0000 0.0000
# 2 25.0086 28.7820 15.4021 0.0000 0.0000 0.0000
# 3 42.9327 15.4021 101.7672 0.0000 0.0000 0.0000
# 4 0.0000 0.0000 0.0000 -3.3641 0.0000 0.0000
# 5 0.0000 0.0000 0.0000 0.0000 8.1461 0.0000
# 6 0.0000 0.0000 0.0000 0.0000 0.0000 21.9711
#
#
#
# Elastic Compliance Matrix: (Units=1/GPa)
#
#
# Indices 1 2 3 4 5 6 
#
# 1 0.019328 -0.013526 -0.006107 0.000000 0.000000 0.000000
# 2 -0.013526 0.047272 -0.001448 0.000000 0.000000 0.000000
# 3 -0.006107 -0.001448 0.012622 0.000000 0.000000 0.000000
# 4 0.000000 0.000000 0.000000 -0.297252 0.000000 0.000000
# 5 0.000000 0.000000 0.000000 0.000000 0.122757 0.000000
# 6 0.000000 0.000000 0.000000 0.000000 0.000000 0.045514
#
#
# Mechanical properties :
#
#
# Convention : Reuss Voigt Hill
#
# Bulk Modulus (GPa) = 26.98374 42.22683 34.60528
# Shear Modulus (GPa) = 1051.42411 14.01802 532.72106
#
# Velocity S-wave (km/s) = 25.33123 2.92490 18.03090
# Velocity P-wave (km/s) = 29.53015 6.09731 21.32143
#
# Compressibility (1/GPa) = 0.03705936
#
# Stress axis : x y z
#
# Youngs Moduli (GPa) = 51.73888 21.15439 79.22806
#
# Poissons Ratio (x) = 0.28613 0.48383
# Poissons Ratio (y) = 0.69982 0.11473
# Poissons Ratio (z) = 0.31596 0.03063
#
# Static dielectric constant tensor:
#      x y z
#    x 3.145090 0.000000 0.000000 
#    y 0.000000 3.024000 0.000000 
#    z 0.000000 0.000000 3.280730 
# 
# 
# High freq. dielectric constant tensor:
#      x y z
#    x 1.614630 0.000000 0.000000 
#    y 0.000000 1.624810 0.000000 
#    z 0.000000 0.000000 1.624240 
# 
# From -- ./inp_files/34656.got.cif
#   From: 2010.03.12/outbox.cif.g09.slc.cpg/sg47_18_cif.got.tgz:34656.got - 2010.04.14 03:12:58.
