data_PCOD8198731
_publ_section_title
;
Structure prediction by ZEFSAII (Michael W. Deem and Ramdas Pophale) SiO2 
 PCOD8198731
Probable space group: P M M M
;
_chemical_formula_sum "Si O2"
_cell_formula_units_Z 44
_cell_length_a 9.287034
_cell_length_b 28.504843
_cell_length_c 8.629117
_cell_angle_alpha 90.000000
_cell_angle_beta 90.000000
_cell_angle_gamma 90.000000
_cell_volume 2284.346847
_symmetry_space_group_name_H-M "P M M M"
_symmetry_group_IT_number 47
_symmetry_cell_setting 'orthorhombic'
loop_
_space_group_symop_operation_xyz
x,y,z
-x,-y,z
x,-y,-z
-x,y,-z
-x,-y,-z
x,y,-z
-x,y,z
x,-y,z
loop_
_atom_site_type_symbol
_atom_site_label
_atom_site_fract_x
_atom_site_fract_y
_atom_site_fract_z
Si Si1 0.658528 0.136489 0.683749
Si Si2 0.337294 0.410419 0.683293
Si Si3 0.165582 0.675080 0.180753
Si Si4 0.163558 0.500000 0.684841
Si Si5 0.839047 0.948835 0.684160
Si Si6 0.668678 0.758885 0.680270
O O1 0.651427 0.131309 0.500000
O O2 0.500000 0.131086 0.754885
O O3 0.752139 0.094588 0.758292
O O4 0.718436 0.188232 0.723938
O O5 0.345125 0.413682 0.500000
O O6 0.500000 0.410971 0.751570
O O7 0.257079 0.363100 0.727837
O O8 0.247294 0.454478 0.749465
O O9 0.233396 0.725574 0.215649
O O10 0.000000 0.673864 0.237152
O O11 0.176353 0.664377 0.000000
O O12 0.161349 0.500000 0.500000
O O13 0.000000 0.500000 0.749351
O O14 0.840175 0.944292 0.500000
O O15 0.000000 0.945313 0.749495
O O16 0.773355 0.000000 0.730782
O O17 0.697201 0.748211 0.500000
O O18 0.500000 0.751590 0.717992
#
# Coordination Sequence:
#
# PCOD8198731 Si02
#       6
#     8   8   8   4   8   8
#     4   8  14  24  38  58  84 113 148 191 235 280
#     4  10  20  35  57  83 108 135 169 206 243 287
#     4  11  24  38  51  72 102 133 167 207 249 294
#     4   9  17  31  54  83 112 139 166 200 242 285
#     4   8  13  20  30  48  78 115 151 185 224 274
#     4   9  18  33  52  73  96 124 162 206 249 295
#
# _framework density 19.261523
#
# number of rings (size 3 to 8) (size 9 to 14) (size 15 to 20)
#    0.000    2.818    0.000    3.545    0.000    7.273 
#    0.000    4.091    0.000    2.727    0.000    0.000 
#    0.000    0.727    0.000    8.000    0.000   13.091 
#
# Total GULP energy -545383.181229 kJ/mol
# GULP energy per Si atom -12395.072301 kJ/mol
# Density = 1.921768 g / cm^3
# Si number density = 19.261523 Si / 1000 Ang^3
#
#
#
# Elastic Constant Matrix: (Units=GPa)
#
#
# Indices 1 2 3 4 5 6 
#
# 1 130.6567 80.5906 11.9590 0.0000 0.0000 0.0000
# 2 80.5906 161.7562 5.5437 0.0000 0.0000 0.0000
# 3 11.9590 5.5437 10.5736 0.0000 0.0000 0.0000
# 4 0.0000 0.0000 0.0000 -1.0439 0.0000 0.0000
# 5 0.0000 0.0000 0.0000 0.0000 15.6047 0.0000
# 6 0.0000 0.0000 0.0000 0.0000 0.0000 39.6125
#
#
#
# Elastic Compliance Matrix: (Units=1/GPa)
#
#
# Indices 1 2 3 4 5 6 
#
# 1 0.012142 -0.005681 -0.010754 0.000000 0.000000 0.000000
# 2 -0.005681 0.008953 0.001731 0.000000 0.000000 0.000000
# 3 -0.010754 0.001731 0.105831 0.000000 0.000000 0.000000
# 4 0.000000 0.000000 0.000000 -0.957965 0.000000 0.000000
# 5 0.000000 0.000000 0.000000 0.000000 0.064083 0.000000
# 6 0.000000 0.000000 0.000000 0.000000 0.000000 0.025245
#
#
# Mechanical properties :
#
#
# Convention : Reuss Voigt Hill
#
# Bulk Modulus (GPa) = 10.25455 55.46371 32.85913
# Shear Modulus (GPa) = -7.35514 24.49422 8.56954
#
# Velocity S-wave (km/s) = -1.95623 3.56991 2.11156
# Velocity P-wave (km/s) = 0.48264 6.77126 4.80015
#
# Compressibility (1/GPa) = 0.09751765
#
# Stress axis : x y z
#
# Youngs Moduli (GPa) = 82.35868 111.69263 9.44903
#
# Poissons Ratio (x) = 0.63451 0.10162
# Poissons Ratio (y) = 0.46787 -0.01636
# Poissons Ratio (z) = 0.88572 -0.19335
#
# Static dielectric constant tensor:
#      x y z
#    x 3.796430 0.000000 0.000000 
#    y 0.000000 3.823330 0.000000 
#    z 0.000000 0.000000 2.888580 
# 
# 
# High freq. dielectric constant tensor:
#      x y z
#    x 1.751890 0.000000 0.000000 
#    y 0.000000 1.769580 0.000000 
#    z 0.000000 0.000000 1.687910 
# 
# From -- ./inp_files/2207.got.cif
#   From: 2010.03.12/outbox.cif.g09.slc.cpg/sg47_2_cif.got.tgz:2207.got - 2010.04.14 03:12:58.
