data_PCOD8198553
_publ_section_title
;
Structure prediction by ZEFSAII (Michael W. Deem and Ramdas Pophale) SiO2 
 PCOD8198553
Probable space group: P M M M
;
_chemical_formula_sum "Si O2"
_cell_formula_units_Z 64
_cell_length_a 8.920233
_cell_length_b 24.863463
_cell_length_c 14.852487
_cell_angle_alpha 90.000000
_cell_angle_beta 90.000000
_cell_angle_gamma 90.000000
_cell_volume 3294.101651
_symmetry_space_group_name_H-M "P M M M"
_symmetry_group_IT_number 47
_symmetry_cell_setting 'orthorhombic'
loop_
_space_group_symop_operation_xyz
x,y,z
-x,-y,z
x,-y,-z
-x,y,-z
-x,-y,-z
x,y,-z
-x,y,z
x,-y,z
loop_
_atom_site_type_symbol
_atom_site_label
_atom_site_fract_x
_atom_site_fract_y
_atom_site_fract_z
Si Si1 0.325333 0.560610 0.895285
Si Si2 0.831073 0.917445 0.903684
Si Si3 0.175630 0.939922 0.709227
Si Si4 0.177734 0.365673 0.753240
Si Si5 0.325560 0.747729 0.264976
Si Si6 0.677018 0.156977 0.396241
Si Si7 0.166809 0.790562 0.099776
Si Si8 0.821941 0.440424 0.401630
O O1 0.500000 0.567738 0.875029
O O2 0.274105 0.500000 0.865882
O O3 0.236908 0.608229 0.845355
O O4 0.290814 0.568405 0.000000
O O5 0.754399 0.938456 0.811310
O O6 0.829893 0.853954 0.900795
O O7 0.000000 0.939589 0.904634
O O8 0.755112 0.936069 0.000000
O O9 0.253108 0.897246 0.644099
O O10 0.000000 0.925337 0.713195
O O11 0.202037 0.000000 0.670275
O O12 0.233178 0.306667 0.728857
O O13 0.245354 0.401648 0.673153
O O14 0.000000 0.365070 0.757513
O O15 0.500000 0.735438 0.276800
O O16 0.269412 0.790444 0.340453
O O17 0.295753 0.770873 0.166017
O O18 0.728338 0.163654 0.500000
O O19 0.500000 0.150860 0.388444
O O20 0.000000 0.770899 0.130136
O O21 0.201842 0.767938 0.000000
O O22 0.771334 0.419613 0.500000
O O23 0.757650 0.500000 0.384723
O O24 0.000000 0.441682 0.395538
#
# Coordination Sequence:
#
# PCOD8198553 Si02
#       8
#     8   8   8   8   8   8   8   8
#     4   9  19  37  59  82 113 155 197 235 278 326
#     4   8  14  27  50  80 113 145 173 206 255 314
#     4  10  20  34  57  89 119 144 177 225 276 329
#     4  11  22  34  54  84 114 144 182 228 277 330
#     4  11  23  38  56  78 106 143 185 230 279 329
#     4  10  23  43  62  78 102 143 191 234 281 338
#     4   9  17  32  56  81 105 137 176 217 261 314
#     4   8  15  30  52  78 108 138 168 208 261 320
#
# _framework density 19.428664999999999
#
# number of rings (size 3 to 8) (size 9 to 14) (size 15 to 20)
#    0.000    2.500    1.250    2.625    0.000    3.750 
#    0.000    3.125    0.000    1.500    0.000    5.250 
#    0.000    0.000    0.000    0.000    0.000    0.000 
#
# Total GULP energy -793071.349508 kJ/mol
# GULP energy per Si atom -12391.739836 kJ/mol
# Density = 1.938444 g / cm^3
# Si number density = 19.428665 Si / 1000 Ang^3
#
#
#
# Elastic Constant Matrix: (Units=GPa)
#
#
# Indices 1 2 3 4 5 6 
#
# 1 43.8072 37.1259 37.6325 0.0000 0.0000 0.0000
# 2 37.1259 126.0916 74.6374 0.0000 0.0000 0.0000
# 3 37.6325 74.6374 140.7485 0.0000 0.0000 0.0000
# 4 0.0000 0.0000 0.0000 10.4303 0.0000 0.0000
# 5 0.0000 0.0000 0.0000 0.0000 22.9222 0.0000
# 6 0.0000 0.0000 0.0000 0.0000 0.0000 15.1202
#
#
#
# Elastic Compliance Matrix: (Units=1/GPa)
#
#
# Indices 1 2 3 4 5 6 
#
# 1 0.032962 -0.006542 -0.005344 0.000000 0.000000 0.000000
# 2 -0.006542 0.012857 -0.005069 0.000000 0.000000 0.000000
# 3 -0.005344 -0.005069 0.011222 0.000000 0.000000 0.000000
# 4 0.000000 0.000000 0.000000 0.095874 0.000000 0.000000
# 5 0.000000 0.000000 0.000000 0.000000 0.043626 0.000000
# 6 0.000000 0.000000 0.000000 0.000000 0.000000 0.066137
#
#
# Mechanical properties :
#
#
# Convention : Reuss Voigt Hill
#
# Bulk Modulus (GPa) = 43.23127 67.71541 55.47334
# Shear Modulus (GPa) = 16.43121 20.44465 18.43793
#
# Velocity S-wave (km/s) = 2.91128 3.24743 3.08394
# Velocity P-wave (km/s) = 5.79658 6.99929 6.42613
#
# Compressibility (1/GPa) = 0.02313141
#
# Stress axis : x y z
#
# Youngs Moduli (GPa) = 30.33757 77.77610 89.11225
#
# Poissons Ratio (x) = 0.50881 0.47623
# Poissons Ratio (y) = 0.19847 0.45171
# Poissons Ratio (z) = 0.16213 0.39425
#
# Static dielectric constant tensor:
#      x y z
#    x 3.227130 0.000000 0.000000 
#    y 0.000000 3.665840 0.000000 
#    z 0.000000 0.000000 2.719200 
# 
# 
# High freq. dielectric constant tensor:
#      x y z
#    x 1.718080 0.000000 0.000000 
#    y 0.000000 1.759370 0.000000 
#    z 0.000000 0.000000 1.767270 
# 
# From -- ./inp_files/7889.got.cif
#   From: 2010.03.12/outbox.cif.g09.slc.cpg/sg47_4_cif.got.tgz:7889.got - 2010.04.14 03:12:58.
