data_PCOD8198735
_publ_section_title
;
Structure prediction by ZEFSAII (Michael W. Deem and Ramdas Pophale) SiO2 
 PCOD8198735
Probable space group: P M M M
;
_chemical_formula_sum "Si O2"
_cell_formula_units_Z 40
_cell_length_a 9.330243
_cell_length_b 8.892767
_cell_length_c 25.728350
_cell_angle_alpha 90.000000
_cell_angle_beta 90.000000
_cell_angle_gamma 90.000000
_cell_volume 2134.724347
_symmetry_space_group_name_H-M "P M M M"
_symmetry_group_IT_number 47
_symmetry_cell_setting 'orthorhombic'
loop_
_space_group_symop_operation_xyz
x,y,z
-x,-y,z
x,-y,-z
-x,y,-z
-x,-y,-z
x,y,-z
-x,y,z
x,-y,z
loop_
_atom_site_type_symbol
_atom_site_label
_atom_site_fract_x
_atom_site_fract_y
_atom_site_fract_z
Si Si1 0.168195 0.325987 0.712117
Si Si2 0.667060 0.824931 0.802835
Si Si3 0.660006 0.320215 0.500000
Si Si4 0.158263 0.321787 0.404447
Si Si5 0.829747 0.169157 0.000000
Si Si6 0.835605 0.677115 0.895527
O O1 0.205660 0.500000 0.723122
O O2 0.261139 0.219967 0.748653
O O3 0.211138 0.279471 0.653365
O O4 0.000000 0.298447 0.721885
O O5 0.500000 0.784981 0.800422
O O6 0.738814 0.730820 0.848454
O O7 0.693320 0.000000 0.813292
O O8 0.661763 0.500000 0.500000
O O9 0.500000 0.256517 0.500000
O O10 0.736347 0.256051 0.551741
O O11 0.150005 0.500000 0.408951
O O12 0.000000 0.254519 0.414351
O O13 0.773120 0.251869 0.051515
O O14 0.000000 0.173655 0.000000
O O15 0.769951 0.000000 0.000000
O O16 0.824540 0.500000 0.900914
O O17 0.000000 0.727336 0.885536
#
# Coordination Sequence:
#
# PCOD8198735 Si02
#       6
#     8   8   4   8   4   8
#     4   9  18  33  53  76  99 127 168 214 258 306
#     4  11  24  38  51  72 103 137 172 210 255 308
#     4   9  15  21  33  59  94 129 164 199 238 290
#     4   8  14  25  41  62  91 125 159 199 248 298
#     4   9  17  31  54  83 112 141 172 208 252 299
#     4  10  20  35  57  83 108 135 171 214 256 300
#
# _framework density 18.737783
#
# number of rings (size 3 to 8) (size 9 to 14) (size 15 to 20)
#    0.000    2.600    0.000    3.600    0.000    8.800 
#    0.000    2.500    0.000    3.000    0.000    0.700 
#    0.000    5.600    0.000    0.000    0.000    0.000 
#
# Total GULP energy -495968.263591 kJ/mol
# GULP energy per Si atom -12399.206590 kJ/mol
# Density = 1.869513 g / cm^3
# Si number density = 18.737783 Si / 1000 Ang^3
#
#
#
# Elastic Constant Matrix: (Units=GPa)
#
#
# Indices 1 2 3 4 5 6 
#
# 1 88.4009 29.6355 66.8556 0.0000 0.0000 0.0000
# 2 29.6355 52.9583 34.7785 0.0000 0.0000 0.0000
# 3 66.8556 34.7785 155.7225 0.0000 0.0000 0.0000
# 4 0.0000 0.0000 0.0000 3.3329 0.0000 0.0000
# 5 0.0000 0.0000 0.0000 0.0000 0.2601 0.0000
# 6 0.0000 0.0000 0.0000 0.0000 0.0000 21.4644
#
#
#
# Elastic Compliance Matrix: (Units=1/GPa)
#
#
# Indices 1 2 3 4 5 6 
#
# 1 0.018210 -0.005925 -0.006495 0.000000 0.000000 0.000000
# 2 -0.005925 0.024056 -0.002829 0.000000 0.000000 0.000000
# 3 -0.006495 -0.002829 0.009842 0.000000 0.000000 0.000000
# 4 0.000000 0.000000 0.000000 0.300042 0.000000 0.000000
# 5 0.000000 0.000000 0.000000 0.000000 3.844511 0.000000
# 6 0.000000 0.000000 0.000000 0.000000 0.000000 0.046589
#
#
# Mechanical properties :
#
#
# Convention : Reuss Voigt Hill
#
# Bulk Modulus (GPa) = 46.27335 62.18009 54.22672
# Shear Modulus (GPa) = 1.16796 16.06561 8.61679
#
# Velocity S-wave (km/s) = 0.79036 2.93130 2.14676
# Velocity P-wave (km/s) = 5.05784 6.68678 5.92852
#
# Compressibility (1/GPa) = 0.02161071
#
# Stress axis : x y z
#
# Youngs Moduli (GPa) = 54.91367 41.56915 101.60696
#
# Poissons Ratio (x) = 0.24631 0.65992
# Poissons Ratio (y) = 0.32538 0.28742
# Poissons Ratio (z) = 0.35666 0.11759
#
# Static dielectric constant tensor:
#      x y z
#    x 3.420900 0.000000 0.000000 
#    y 0.000000 3.135590 0.000000 
#    z 0.000000 0.000000 3.707630 
# 
# 
# High freq. dielectric constant tensor:
#      x y z
#    x 1.711670 0.000000 0.000000 
#    y 0.000000 1.696660 0.000000 
#    z 0.000000 0.000000 1.746640 
# 
# From -- ./inp_files/33049.got.cif
#   From: 2010.03.12/outbox.cif.g09.slc.cpg/sg47_17_cif.got.tgz:33049.got - 2010.04.14 03:12:58.
