data_PCOD8198631
_publ_section_title
;
Structure prediction by ZEFSAII (Michael W. Deem and Ramdas Pophale) SiO2 
 PCOD8198631
Probable space group: P M M M
;
_chemical_formula_sum "Si O2"
_cell_formula_units_Z 40
_cell_length_a 8.847109
_cell_length_b 14.119547
_cell_length_c 17.996881
_cell_angle_alpha 90.000000
_cell_angle_beta 90.000000
_cell_angle_gamma 90.000000
_cell_volume 2248.119467
_symmetry_space_group_name_H-M "P M M M"
_symmetry_group_IT_number 47
_symmetry_cell_setting 'orthorhombic'
loop_
_space_group_symop_operation_xyz
x,y,z
-x,-y,z
x,-y,-z
-x,y,-z
-x,-y,-z
x,y,-z
-x,y,z
x,-y,z
loop_
_atom_site_type_symbol
_atom_site_label
_atom_site_fract_x
_atom_site_fract_y
_atom_site_fract_z
Si Si1 0.826787 0.110945 0.915430
Si Si2 0.669870 0.387699 0.000000
Si Si3 0.670368 0.887487 0.500000
Si Si4 0.178542 0.392045 0.848682
Si Si5 0.677359 0.779877 0.214687
Si Si6 0.824808 0.888423 0.650275
O O1 0.715822 0.166208 0.861281
O O2 0.000000 0.136997 0.895940
O O3 0.800444 0.000000 0.904173
O O4 0.788875 0.140223 0.000000
O O5 0.758811 0.353250 0.927231
O O6 0.665288 0.500000 0.000000
O O7 0.500000 0.345817 0.000000
O O8 0.500000 0.847218 0.500000
O O9 0.757663 0.850555 0.572656
O O10 0.669316 0.000000 0.500000
O O11 0.229592 0.500000 0.832983
O O12 0.247866 0.324783 0.785177
O O13 0.000000 0.383150 0.850051
O O14 0.500000 0.768299 0.222402
O O15 0.738420 0.837756 0.283871
O O16 0.000000 0.861744 0.653325
O O17 0.799010 0.000000 0.659237
#
# Coordination Sequence:
#
# PCOD8198631 Si02
#       6
#     8   4   4   8   8   8
#     4   9  19  36  54  70  94 133 178 219 258 305
#     4   9  17  31  51  73  96 121 156 209 267 315
#     4   9  17  31  53  81 112 141 170 209 259 309
#     4  10  21  37  55  73  96 131 174 218 266 319
#     4  12  24  34  50  76 106 137 172 218 269 312
#     4  10  20  35  55  79 109 144 180 214 252 305
#
# _framework density 17.792648
#
# number of rings (size 3 to 8) (size 9 to 14) (size 15 to 20)
#    0.000    2.000    0.000    4.800    1.400    8.000 
#    0.000    1.000    0.000    0.000    0.000    0.700 
#    0.000    5.600    0.000    0.000    0.000    0.000 
#
# Total GULP energy -496088.471844 kJ/mol
# GULP energy per Si atom -12402.211796 kJ/mol
# Density = 1.775215 g / cm^3
# Si number density = 17.792648 Si / 1000 Ang^3
#
#
#
# Elastic Constant Matrix: (Units=GPa)
#
#
# Indices 1 2 3 4 5 6 
#
# 1 122.0804 33.8871 49.6774 0.0000 0.0000 0.0000
# 2 33.8871 50.4679 37.7671 0.0000 0.0000 0.0000
# 3 49.6774 37.7671 96.3204 0.0000 0.0000 0.0000
# 4 0.0000 0.0000 0.0000 9.9242 0.0000 0.0000
# 5 0.0000 0.0000 0.0000 0.0000 23.3625 0.0000
# 6 0.0000 0.0000 0.0000 0.0000 0.0000 25.0146
#
#
#
# Elastic Compliance Matrix: (Units=1/GPa)
#
#
# Indices 1 2 3 4 5 6 
#
# 1 0.011033 -0.004458 -0.003942 0.000000 0.000000 0.000000
# 2 -0.004458 0.029844 -0.009403 0.000000 0.000000 0.000000
# 3 -0.003942 -0.009403 0.016102 0.000000 0.000000 0.000000
# 4 0.000000 0.000000 0.000000 0.100764 0.000000 0.000000
# 5 0.000000 0.000000 0.000000 0.000000 0.042804 0.000000
# 6 0.000000 0.000000 0.000000 0.000000 0.000000 0.039977
#
#
# Mechanical properties :
#
#
# Convention : Reuss Voigt Hill
#
# Bulk Modulus (GPa) = 46.78722 56.83686 51.81204
# Shear Modulus (GPa) = 17.65201 21.49607 19.57404
#
# Velocity S-wave (km/s) = 3.15317 3.47961 3.32040
# Velocity P-wave (km/s) = 6.29361 6.93952 6.62444
#
# Compressibility (1/GPa) = 0.02137336
#
# Stress axis : x y z
#
# Youngs Moduli (GPa) = 90.63718 33.50722 62.10390
#
# Poissons Ratio (x) = 0.14938 0.24483
# Poissons Ratio (y) = 0.40406 0.58394
# Poissons Ratio (z) = 0.35732 0.31506
#
# Static dielectric constant tensor:
#      x y z
#    x 3.398920 0.000000 0.000000 
#    y 0.000000 3.257250 0.000000 
#    z 0.000000 0.000000 3.334600 
# 
# 
# High freq. dielectric constant tensor:
#      x y z
#    x 1.701580 0.000000 0.000000 
#    y 0.000000 1.672280 0.000000 
#    z 0.000000 0.000000 1.673960 
# 
# From -- ./inp_files/20693.got.cif
#   From: 2010.03.12/outbox.cif.g09.slc.cpg/sg47_11_cif.got.tgz:20693.got - 2010.04.14 03:12:58.
