data_PCOD8198649
_publ_section_title
;
Structure prediction by ZEFSAII (Michael W. Deem and Ramdas Pophale) SiO2 
 PCOD8198649
Probable space group: P M M M
;
_chemical_formula_sum "Si O2"
_cell_formula_units_Z 52
_cell_length_a 28.702494
_cell_length_b 10.521979
_cell_length_c 9.105672
_cell_angle_alpha 90.000000
_cell_angle_beta 90.000000
_cell_angle_gamma 90.000000
_cell_volume 2749.977040
_symmetry_space_group_name_H-M "P M M M"
_symmetry_group_IT_number 47
_symmetry_cell_setting 'orthorhombic'
loop_
_space_group_symop_operation_xyz
x,y,z
-x,-y,z
x,-y,-z
-x,y,-z
-x,-y,-z
x,y,-z
-x,y,z
x,-y,z
loop_
_atom_site_type_symbol
_atom_site_label
_atom_site_fract_x
_atom_site_fract_y
_atom_site_fract_z
Si Si1 0.719494 0.859040 0.174187
Si Si2 0.054862 0.500000 0.164856
Si Si3 0.114061 0.700698 0.672867
Si Si4 0.210019 0.644596 0.170976
Si Si5 0.614414 0.856194 0.173179
Si Si6 0.446177 0.356887 0.671767
Si Si7 0.050950 0.853190 0.161438
O O1 0.752455 0.745983 0.233697
O O2 0.667093 0.834889 0.230874
O O3 0.736584 0.000000 0.227253
O O4 0.719187 0.856492 0.000000
O O5 0.073021 0.379975 0.253790
O O6 0.000000 0.500000 0.163700
O O7 0.075408 0.500000 0.000000
O O8 0.116456 0.682631 0.500000
O O9 0.163713 0.664135 0.736710
O O10 0.094374 0.836854 0.723730
O O11 0.228372 0.500000 0.194092
O O12 0.199649 0.670269 0.000000
O O13 0.582312 0.750606 0.245310
O O14 0.598192 0.000000 0.214815
O O15 0.611743 0.837310 0.000000
O O16 0.438075 0.338419 0.500000
O O17 0.500000 0.338128 0.712745
O O18 0.430411 0.500000 0.718312
O O19 0.000000 0.802472 0.217368
O O20 0.046787 0.000000 0.136825
O O21 0.061534 0.790353 0.000000
#
# Coordination Sequence:
#
# PCOD8198649 Si02
#       7
#     8   4   8   8   8   8   8
#     4   8  16  33  56  81 107 137 178 229 280 327
#     4  11  23  39  59  79 101 135 179 219 254 305
#     4  12  24  36  53  79 111 140 167 209 267 320
#     4  10  20  35  56  78 103 139 184 225 262 317
#     4   9  18  33  54  82 114 143 178 231 288 339
#     4   9  19  35  52  73 107 151 196 238 280 332
#     4   9  19  37  59  80 103 135 175 213 249 301
#
# _framework density 18.90925
#
# number of rings (size 3 to 8) (size 9 to 14) (size 15 to 20)
#    0.000    2.385    0.769    3.923    0.000    5.538 
#    0.000    6.923    0.000    0.923    0.000    0.000 
#    0.000    0.000    0.000    0.000    0.000    0.000 
#
# Total GULP energy -644285.165775 kJ/mol
# GULP energy per Si atom -12390.099342 kJ/mol
# Density = 1.886621 g / cm^3
# Si number density = 18.909250 Si / 1000 Ang^3
#
#
#
# Elastic Constant Matrix: (Units=GPa)
#
#
# Indices 1 2 3 4 5 6 
#
# 1 100.8218 79.8241 48.4170 0.0000 0.0000 0.0000
# 2 79.8241 138.3243 51.1649 0.0000 0.0000 0.0000
# 3 48.4170 51.1649 79.3551 0.0000 0.0000 0.0000
# 4 0.0000 0.0000 0.0000 31.9269 0.0000 0.0000
# 5 0.0000 0.0000 0.0000 0.0000 -3.6400 0.0000
# 6 0.0000 0.0000 0.0000 0.0000 0.0000 32.4302
#
#
#
# Elastic Compliance Matrix: (Units=1/GPa)
#
#
# Indices 1 2 3 4 5 6 
#
# 1 0.020470 -0.009446 -0.006399 0.000000 0.000000 0.000000
# 2 -0.009446 0.013852 -0.003168 0.000000 0.000000 0.000000
# 3 -0.006399 -0.003168 0.018549 0.000000 0.000000 0.000000
# 4 0.000000 0.000000 0.000000 0.031322 0.000000 0.000000
# 5 0.000000 0.000000 0.000000 0.000000 -0.274729 0.000000
# 6 0.000000 0.000000 0.000000 0.000000 0.000000 0.030835
#
#
# Mechanical properties :
#
#
# Convention : Reuss Voigt Hill
#
# Bulk Modulus (GPa) = 67.36434 75.25700 71.31067
# Shear Modulus (GPa) = -42.83526 21.41644 -10.70941
#
# Velocity S-wave (km/s) = -4.76469 3.36905 -2.38241
# Velocity P-wave (km/s) = 2.33083 7.41751 5.49783
#
# Compressibility (1/GPa) = 0.01484465
#
# Stress axis : x y z
#
# Youngs Moduli (GPa) = 48.85160 72.19018 53.91246
#
# Poissons Ratio (x) = 0.68190 0.34499
# Poissons Ratio (y) = 0.46145 0.17080
# Poissons Ratio (z) = 0.31261 0.22871
#
# Static dielectric constant tensor:
#      x y z
#    x 3.509300 0.000000 0.000000 
#    y 0.000000 5.327820 0.000000 
#    z 0.000000 0.000000 3.232340 
# 
# 
# High freq. dielectric constant tensor:
#      x y z
#    x 1.728480 0.000000 0.000000 
#    y 0.000000 1.752190 0.000000 
#    z 0.000000 0.000000 1.707020 
# 
# From -- ./inp_files/13232.got.cif
#   From: 2010.03.12/outbox.cif.g09.slc.cpg/sg47_7_cif.got.tgz:13232.got - 2010.04.14 03:12:58.
