data_PCOD8198458
_publ_section_title
;
Structure prediction by ZEFSAII (Michael W. Deem and Ramdas Pophale) SiO2 
 PCOD8198458
Probable space group: P M M M
;
_chemical_formula_sum "Si O2"
_cell_formula_units_Z 52
_cell_length_a 19.622265
_cell_length_b 15.416392
_cell_length_c 9.169256
_cell_angle_alpha 90.000000
_cell_angle_beta 90.000000
_cell_angle_gamma 90.000000
_cell_volume 2773.741469
_symmetry_space_group_name_H-M "P M M M"
_symmetry_group_IT_number 47
_symmetry_cell_setting 'orthorhombic'
loop_
_space_group_symop_operation_xyz
x,y,z
-x,-y,z
x,-y,-z
-x,y,-z
-x,-y,-z
x,y,-z
-x,y,z
x,-y,z
loop_
_atom_site_type_symbol
_atom_site_label
_atom_site_fract_x
_atom_site_fract_y
_atom_site_fract_z
Si Si1 0.266603 0.405299 0.167941
Si Si2 0.073766 0.100283 0.158643
Si Si3 0.863900 0.362877 0.662525
Si Si4 0.420107 0.902084 0.668491
Si Si5 0.190352 0.828315 0.660852
Si Si6 0.319621 0.779084 0.172172
Si Si7 0.000000 0.602358 0.165173
O O1 0.303806 0.500000 0.187334
O O2 0.196476 0.413604 0.256644
O O3 0.314271 0.323803 0.218099
O O4 0.246673 0.389581 0.000000
O O5 0.131635 0.111015 0.278186
O O6 0.000000 0.140270 0.207980
O O7 0.063214 0.000000 0.136999
O O8 0.094361 0.140990 0.000000
O O9 0.874768 0.402262 0.500000
O O10 0.841631 0.265120 0.650035
O O11 0.933188 0.365024 0.752615
O O12 0.401225 0.888170 0.500000
O O13 0.500000 0.891811 0.694208
O O14 0.385585 0.825227 0.760673
O O15 0.397550 0.000000 0.716642
O O16 0.212655 0.860976 0.500000
O O17 0.254700 0.831022 0.767747
O O18 0.323228 0.789402 0.000000
O O19 0.000000 0.500000 0.164687
O O20 0.000000 0.638775 0.000000
#
# Coordination Sequence:
#
# PCOD8198458 Si02
#       7
#     8   8   8   8   8   8   4
#     4   9  18  34  54  75 103 139 178 219 265 318
#     4   9  19  35  52  70  93 124 166 216 267 317
#     4  10  21  34  48  70  97 125 164 215 266 315
#     4   9  19  37  60  85 115 150 181 211 256 312
#     4  10  21  35  51  72 100 132 169 212 260 314
#     4  10  20  34  55  83 111 140 178 221 264 310
#     4  11  23  35  47  65  90 123 162 203 255 318
#
# _framework density 18.747242
#
# number of rings (size 3 to 8) (size 9 to 14) (size 15 to 20)
#    0.000    2.385    0.000    3.000    1.077    7.077 
#    0.000    1.538    0.000    0.462    0.000    3.231 
#    0.000    0.000    0.000    0.000    0.000    0.000 
#
# Total GULP energy -644367.436744 kJ/mol
# GULP energy per Si atom -12391.681476 kJ/mol
# Density = 1.870457 g / cm^3
# Si number density = 18.747242 Si / 1000 Ang^3
#
#
#
# Elastic Constant Matrix: (Units=GPa)
#
#
# Indices 1 2 3 4 5 6 
#
# 1 82.1284 45.0984 49.0524 0.0000 0.0000 0.0000
# 2 45.0984 69.6471 39.9222 0.0000 0.0000 0.0000
# 3 49.0524 39.9222 108.4935 0.0000 0.0000 0.0000
# 4 0.0000 0.0000 0.0000 27.0066 0.0000 0.0000
# 5 0.0000 0.0000 0.0000 0.0000 35.2937 0.0000
# 6 0.0000 0.0000 0.0000 0.0000 0.0000 82.4651
#
#
#
# Elastic Compliance Matrix: (Units=1/GPa)
#
#
# Indices 1 2 3 4 5 6 
#
# 1 0.021442 -0.010553 -0.005811 0.000000 0.000000 0.000000
# 2 -0.010553 0.023390 -0.003835 0.000000 0.000000 0.000000
# 3 -0.005811 -0.003835 0.013256 0.000000 0.000000 0.000000
# 4 0.000000 0.000000 0.000000 0.037028 0.000000 0.000000
# 5 0.000000 0.000000 0.000000 0.000000 0.028334 0.000000
# 6 0.000000 0.000000 0.000000 0.000000 0.000000 0.012126
#
#
# Mechanical properties :
#
#
# Convention : Reuss Voigt Hill
#
# Bulk Modulus (GPa) = 56.53493 58.71279 57.62386
# Shear Modulus (GPa) = 27.49198 37.36615 32.42907
#
# Velocity S-wave (km/s) = 3.83359 4.46932 4.16360
# Velocity P-wave (km/s) = 7.05812 7.61703 7.34290
#
# Compressibility (1/GPa) = 0.01768818
#
# Stress axis : x y z
#
# Youngs Moduli (GPa) = 46.63793 42.75316 75.43867
#
# Poissons Ratio (x) = 0.45118 0.43838
# Poissons Ratio (y) = 0.49218 0.28934
# Poissons Ratio (z) = 0.27102 0.16398
#
# Static dielectric constant tensor:
#      x y z
#    x 3.206870 0.000000 0.000000 
#    y 0.000000 3.508870 0.000000 
#    z 0.000000 0.000000 3.883020 
# 
# 
# High freq. dielectric constant tensor:
#      x y z
#    x 1.702590 0.000000 0.000000 
#    y 0.000000 1.729660 0.000000 
#    z 0.000000 0.000000 1.735460 
# 
# From -- ./inp_files/9545.got.cif
#   From: 2010.03.12/outbox.cif.g09.slc.cpg/sg47_5_cif.got.tgz:9545.got - 2010.04.14 03:12:58.
