data_PCOD8198677
_publ_section_title
;
Structure prediction by ZEFSAII (Michael W. Deem and Ramdas Pophale) SiO2 
 PCOD8198677
Probable space group: P M M M
;
_chemical_formula_sum "Si O2"
_cell_formula_units_Z 56
_cell_length_a 9.061294
_cell_length_b 20.233362
_cell_length_c 15.100304
_cell_angle_alpha 90.000000
_cell_angle_beta 90.000000
_cell_angle_gamma 90.000000
_cell_volume 2768.496405
_symmetry_space_group_name_H-M "P M M M"
_symmetry_group_IT_number 47
_symmetry_cell_setting 'orthorhombic'
loop_
_space_group_symop_operation_xyz
x,y,z
-x,-y,z
x,-y,-z
-x,y,-z
-x,-y,-z
x,y,-z
-x,y,z
x,-y,z
loop_
_atom_site_type_symbol
_atom_site_label
_atom_site_fract_x
_atom_site_fract_y
_atom_site_fract_z
Si Si1 0.669595 0.573538 0.736262
Si Si2 0.339240 0.751512 0.099684
Si Si3 0.174818 0.925392 0.500000
Si Si4 0.168050 0.178756 0.642057
Si Si5 0.674586 0.000000 0.897013
Si Si6 0.168838 0.871058 0.839708
Si Si7 0.674582 0.315032 0.600284
Si Si8 0.174003 0.624233 0.102556
O O1 0.500000 0.589985 0.758897
O O2 0.684414 0.500000 0.694798
O O3 0.732505 0.626594 0.665153
O O4 0.759697 0.571491 0.829046
O O5 0.500000 0.757683 0.148288
O O6 0.249780 0.819356 0.097340
O O7 0.240222 0.693248 0.140226
O O8 0.370129 0.731000 0.000000
O O9 0.228503 0.883171 0.415123
O O10 0.000000 0.933247 0.500000
O O11 0.244114 0.000000 0.500000
O O12 0.180778 0.157015 0.742174
O O13 0.262007 0.244387 0.628481
O O14 0.000000 0.194625 0.614593
O O15 0.743719 0.938573 0.846668
O O16 0.500000 0.000000 0.885054
O O17 0.719528 0.000000 0.000000
O O18 0.000000 0.881021 0.869903
O O19 0.724605 0.331954 0.500000
O O20 0.500000 0.309828 0.606245
O O21 0.000000 0.627833 0.112446
O O22 0.216027 0.607779 0.000000
#
# Coordination Sequence:
#
# PCOD8198677 Si02
#       8
#     8   8   4   8   4   8   8   8
#     4  10  22  39  59  85 117 156 201 246 296 358
#     4  10  20  35  56  81 110 147 190 234 284 344
#     4   9  18  34  59  83 110 147 184 226 275 335
#     4  10  21  37  60  88 115 149 191 234 285 350
#     4  11  25  43  59  78 111 158 204 242 292 357
#     4  11  23  36  56  85 114 146 191 244 295 345
#     4  10  21  38  61  88 120 156 196 246 300 354
#     4  10  21  37  58  85 117 152 192 241 298 357
#
# _framework density 20.227587
#
# number of rings (size 3 to 8) (size 9 to 14) (size 15 to 20)
#    0.000    1.857    0.714    2.786    1.000    8.857 
#    0.000    2.857    0.000    0.429    0.000    2.000 
#    0.000    0.000    0.000    0.000    0.000    0.000 
#
# Total GULP energy -694226.071388 kJ/mol
# GULP energy per Si atom -12396.894132 kJ/mol
# Density = 2.018155 g / cm^3
# Si number density = 20.227587 Si / 1000 Ang^3
#
#
#
# Elastic Constant Matrix: (Units=GPa)
#
#
# Indices 1 2 3 4 5 6 
#
# 1 80.0709 36.2753 38.9282 0.0000 0.0000 0.0000
# 2 36.2753 140.7351 45.3241 0.0000 0.0000 0.0000
# 3 38.9282 45.3241 89.4570 0.0000 0.0000 0.0000
# 4 0.0000 0.0000 0.0000 30.9930 0.0000 0.0000
# 5 0.0000 0.0000 0.0000 0.0000 2.7669 0.0000
# 6 0.0000 0.0000 0.0000 0.0000 0.0000 13.5453
#
#
#
# Elastic Compliance Matrix: (Units=1/GPa)
#
#
# Indices 1 2 3 4 5 6 
#
# 1 0.016446 -0.002311 -0.005986 0.000000 0.000000 0.000000
# 2 -0.002311 0.008816 -0.003461 0.000000 0.000000 0.000000
# 3 -0.005986 -0.003461 0.015537 0.000000 0.000000 0.000000
# 4 0.000000 0.000000 0.000000 0.032265 0.000000 0.000000
# 5 0.000000 0.000000 0.000000 0.000000 0.361411 0.000000
# 6 0.000000 0.000000 0.000000 0.000000 0.000000 0.073826
#
#
# Mechanical properties :
#
#
# Convention : Reuss Voigt Hill
#
# Bulk Modulus (GPa) = 57.86012 61.25759 59.55885
# Shear Modulus (GPa) = 9.30098 22.11007 15.70553
#
# Velocity S-wave (km/s) = 2.14666 3.30974 2.78949
# Velocity P-wave (km/s) = 5.90007 6.70491 6.31532
#
# Compressibility (1/GPa) = 0.01728306
#
# Stress axis : x y z
#
# Youngs Moduli (GPa) = 60.80452 113.43161 64.36360
#
# Poissons Ratio (x) = 0.26219 0.38526
# Poissons Ratio (y) = 0.14054 0.22275
# Poissons Ratio (z) = 0.36395 0.39257
#
# Static dielectric constant tensor:
#      x y z
#    x 3.705890 0.000000 0.000000 
#    y 0.000000 3.939090 0.000000 
#    z 0.000000 0.000000 3.724140 
# 
# 
# High freq. dielectric constant tensor:
#      x y z
#    x 1.781760 0.000000 0.000000 
#    y 0.000000 1.795870 0.000000 
#    z 0.000000 0.000000 1.790440 
# 
# From -- ./inp_files/7406.got.cif
#   From: 2010.03.12/outbox.cif.g09.slc.cpg/sg47_4_cif.got.tgz:7406.got - 2010.04.14 03:12:58.
