data_PCOD8198529
_publ_section_title
;
Structure prediction by ZEFSAII (Michael W. Deem and Ramdas Pophale) SiO2 
 PCOD8198529
Probable space group: P M M M
;
_chemical_formula_sum "Si O2"
_cell_formula_units_Z 64
_cell_length_a 14.341779
_cell_length_b 25.409310
_cell_length_c 9.061532
_cell_angle_alpha 90.000000
_cell_angle_beta 90.000000
_cell_angle_gamma 90.000000
_cell_volume 3302.155543
_symmetry_space_group_name_H-M "P M M M"
_symmetry_group_IT_number 47
_symmetry_cell_setting 'orthorhombic'
loop_
_space_group_symop_operation_xyz
x,y,z
-x,-y,z
x,-y,-z
-x,y,-z
-x,-y,-z
x,y,-z
-x,y,z
x,-y,z
loop_
_atom_site_type_symbol
_atom_site_label
_atom_site_fract_x
_atom_site_fract_y
_atom_site_fract_z
Si Si1 0.204087 0.748445 0.328972
Si Si2 0.780182 0.440561 0.669536
Si Si3 0.781153 0.058577 0.828079
Si Si4 0.605635 0.403821 0.827909
Si Si5 0.603020 0.296347 0.667491
Si Si6 0.601272 0.062551 0.334431
Si Si7 0.890896 0.349974 0.173213
Si Si8 0.893641 0.842083 0.172348
O O1 0.176717 0.744782 0.500000
O O2 0.316203 0.746548 0.305814
O O3 0.155227 0.700772 0.245307
O O4 0.170879 0.803563 0.264955
O O5 0.776779 0.421777 0.500000
O O6 0.818500 0.500000 0.681816
O O7 0.676025 0.439947 0.736234
O O8 0.848756 0.403022 0.759527
O O9 0.686137 0.083704 0.763527
O O10 0.865769 0.097756 0.790235
O O11 0.803723 0.000000 0.763847
O O12 0.764763 0.054229 0.000000
O O13 0.500000 0.422481 0.794940
O O14 0.620241 0.343667 0.780114
O O15 0.629242 0.408471 0.000000
O O16 0.609972 0.318331 0.500000
O O17 0.500000 0.271206 0.694492
O O18 0.615792 0.083622 0.500000
O O19 0.500000 0.082236 0.274640
O O20 0.602560 0.000000 0.332095
O O21 0.000000 0.348873 0.207594
O O22 0.870049 0.349080 0.000000
O O23 0.000000 0.833965 0.220540
O O24 0.879803 0.829871 0.000000
#
# Coordination Sequence:
#
# PCOD8198529 Si02
#       8
#     8   8   8   8   8   8   8   8
#     4  11  22  37  61  89 115 146 185 230 278 333
#     4  11  24  40  58  83 116 154 195 239 286 337
#     4   9  18  33  54  80 109 144 188 235 281 331
#     4  10  20  34  56  86 117 151 191 234 281 335
#     4   9  18  34  57  84 114 147 182 222 274 336
#     4   8  14  26  46  73 105 141 179 218 264 321
#     4  11  24  41  62  86 112 146 188 236 292 348
#     4  10  22  39  57  79 110 147 186 233 288 339
#
# _framework density 19.38128
#
# number of rings (size 3 to 8) (size 9 to 14) (size 15 to 20)
#    0.000    2.125    1.250    2.250    0.000    6.500 
#    0.000    5.625    0.000    2.250    0.000    2.625 
#    0.000    0.000    0.000    0.000    0.000    0.000 
#
# Total GULP energy -793475.078763 kJ/mol
# GULP energy per Si atom -12398.048106 kJ/mol
# Density = 1.933717 g / cm^3
# Si number density = 19.381280 Si / 1000 Ang^3
#
#
#
# Elastic Constant Matrix: (Units=GPa)
#
#
# Indices 1 2 3 4 5 6 
#
# 1 121.8883 55.7407 56.2013 0.0000 0.0000 0.0000
# 2 55.7407 89.5184 46.3478 0.0000 0.0000 0.0000
# 3 56.2013 46.3478 86.1872 0.0000 0.0000 0.0000
# 4 0.0000 0.0000 0.0000 26.6283 0.0000 0.0000
# 5 0.0000 0.0000 0.0000 0.0000 28.9060 0.0000
# 6 0.0000 0.0000 0.0000 0.0000 0.0000 24.3691
#
#
#
# Elastic Compliance Matrix: (Units=1/GPa)
#
#
# Indices 1 2 3 4 5 6 
#
# 1 0.013305 -0.005256 -0.005849 0.000000 0.000000 0.000000
# 2 -0.005256 0.017558 -0.006014 0.000000 0.000000 0.000000
# 3 -0.005849 -0.006014 0.018651 0.000000 0.000000 0.000000
# 4 0.000000 0.000000 0.000000 0.037554 0.000000 0.000000
# 5 0.000000 0.000000 0.000000 0.000000 0.034595 0.000000
# 6 0.000000 0.000000 0.000000 0.000000 0.000000 0.041036
#
#
# Mechanical properties :
#
#
# Convention : Reuss Voigt Hill
#
# Bulk Modulus (GPa) = 65.47042 68.24149 66.85596
# Shear Modulus (GPa) = 24.74884 25.26761 25.00823
#
# Velocity S-wave (km/s) = 3.57731 3.61461 3.59601
# Velocity P-wave (km/s) = 7.13558 7.25996 7.19804
#
# Compressibility (1/GPa) = 0.01527407
#
# Stress axis : x y z
#
# Youngs Moduli (GPa) = 75.15934 56.95531 53.61573
#
# Poissons Ratio (x) = 0.29937 0.31362
# Poissons Ratio (y) = 0.39505 0.32246
# Poissons Ratio (z) = 0.43964 0.34254
#
# Static dielectric constant tensor:
#      x y z
#    x 3.910580 0.000000 0.000000 
#    y 0.000000 3.357710 0.000000 
#    z 0.000000 0.000000 3.637600 
# 
# 
# High freq. dielectric constant tensor:
#      x y z
#    x 1.766120 0.000000 0.000000 
#    y 0.000000 1.731740 0.000000 
#    z 0.000000 0.000000 1.756470 
# 
# From -- ./inp_files/7845.got.cif
#   From: 2010.03.12/outbox.cif.g09.slc.cpg/sg47_4_cif.got.tgz:7845.got - 2010.04.14 03:12:58.
