data_PCOD8198625
_publ_section_title
;
Structure prediction by ZEFSAII (Michael W. Deem and Ramdas Pophale) SiO2 
 PCOD8198625
Probable space group: P M M M
;
_chemical_formula_sum "Si O2"
_cell_formula_units_Z 64
_cell_length_a 18.494805
_cell_length_b 20.252251
_cell_length_c 8.917840
_cell_angle_alpha 90.000000
_cell_angle_beta 90.000000
_cell_angle_gamma 90.000000
_cell_volume 3340.278930
_symmetry_space_group_name_H-M "P M M M"
_symmetry_group_IT_number 47
_symmetry_cell_setting 'orthorhombic'
loop_
_space_group_symop_operation_xyz
x,y,z
-x,-y,z
x,-y,-z
-x,y,-z
-x,-y,-z
x,y,-z
-x,y,z
x,-y,z
loop_
_atom_site_type_symbol
_atom_site_label
_atom_site_fract_x
_atom_site_fract_y
_atom_site_fract_z
Si Si1 0.331142 0.076067 0.327854
Si Si2 0.677033 0.692253 0.178588
Si Si3 0.580860 0.813562 0.177099
Si Si4 0.084970 0.808279 0.172670
Si Si5 0.832444 0.690250 0.676734
Si Si6 0.580698 0.426658 0.821832
Si Si7 0.083374 0.423958 0.173033
Si Si8 0.834695 0.924046 0.674088
O O1 0.345131 0.094497 0.500000
O O2 0.384249 0.117693 0.225133
O O3 0.248325 0.091390 0.285526
O O4 0.348991 0.000000 0.297609
O O5 0.628922 0.753114 0.236866
O O6 0.754794 0.698978 0.250417
O O7 0.638623 0.625722 0.239506
O O8 0.684987 0.691881 0.000000
O O9 0.500000 0.807575 0.244044
O O10 0.577399 0.811322 0.000000
O O11 0.116939 0.749616 0.271112
O O12 0.115185 0.878797 0.223757
O O13 0.000000 0.808858 0.197573
O O14 0.105632 0.796243 0.000000
O O15 0.824345 0.692841 0.500000
O O16 0.866387 0.620371 0.723080
O O17 0.500000 0.409690 0.762163
O O18 0.603641 0.500000 0.767766
O O19 0.579247 0.423529 0.000000
O O20 0.103271 0.500000 0.203486
O O21 0.000000 0.410524 0.213292
O O22 0.097790 0.405822 0.000000
O O23 0.849411 0.908852 0.500000
O O24 0.853219 0.000000 0.710278
#
# Coordination Sequence:
#
# PCOD8198625 Si02
#       8
#     8   8   8   8   8   8   8   8
#     4   9  19  36  56  78 105 138 176 216 260 316
#     4  10  20  35  55  78 107 143 181 223 271 321
#     4  10  21  35  52  77 107 138 176 225 276 321
#     4  11  24  40  58  81 110 144 184 230 276 325
#     4  12  25  38  55  81 113 147 184 228 275 325
#     4   8  14  27  51  82 110 137 175 221 264 309
#     4   9  19  38  63  87 111 142 181 224 270 323
#     4   9  19  37  60  85 114 147 182 222 269 323
#
# _framework density 19.160076
#
# number of rings (size 3 to 8) (size 9 to 14) (size 15 to 20)
#    0.000    2.250    0.000    4.500    0.000    9.250 
#    0.000    5.625    0.000    1.125    0.000    0.875 
#    0.000    0.000    0.000    0.000    0.000    0.000 
#
# Total GULP energy -793703.598605 kJ/mol
# GULP energy per Si atom -12401.618728 kJ/mol
# Density = 1.911647 g / cm^3
# Si number density = 19.160076 Si / 1000 Ang^3
#
#
#
# Elastic Constant Matrix: (Units=GPa)
#
#
# Indices 1 2 3 4 5 6 
#
# 1 116.0473 63.7103 38.1389 0.0000 0.0000 0.0000
# 2 63.7103 112.5598 32.2663 0.0000 0.0000 0.0000
# 3 38.1389 32.2663 41.2244 0.0000 0.0000 0.0000
# 4 0.0000 0.0000 0.0000 22.7231 0.0000 0.0000
# 5 0.0000 0.0000 0.0000 0.0000 9.6839 0.0000
# 6 0.0000 0.0000 0.0000 0.0000 0.0000 39.8253
#
#
#
# Elastic Compliance Matrix: (Units=1/GPa)
#
#
# Indices 1 2 3 4 5 6 
#
# 1 0.014786 -0.005734 -0.009191 0.000000 0.000000 0.000000
# 2 -0.005734 0.013678 -0.005401 0.000000 0.000000 0.000000
# 3 -0.009191 -0.005401 0.036988 0.000000 0.000000 0.000000
# 4 0.000000 0.000000 0.000000 0.044008 0.000000 0.000000
# 5 0.000000 0.000000 0.000000 0.000000 0.103264 0.000000
# 6 0.000000 0.000000 0.000000 0.000000 0.000000 0.025110
#
#
# Mechanical properties :
#
#
# Convention : Reuss Voigt Hill
#
# Bulk Modulus (GPa) = 40.32311 59.78470 50.05391
# Shear Modulus (GPa) = 17.43665 23.49419 20.46542
#
# Velocity S-wave (km/s) = 3.01998 3.50552 3.27177
# Velocity P-wave (km/s) = 5.76641 6.90329 6.36030
#
# Compressibility (1/GPa) = 0.02479967
#
# Stress axis : x y z
#
# Youngs Moduli (GPa) = 67.63164 73.10998 27.03603
#
# Poissons Ratio (x) = 0.41924 0.24849
# Poissons Ratio (y) = 0.38782 0.14601
# Poissons Ratio (z) = 0.62160 0.39484
#
# Static dielectric constant tensor:
#      x y z
#    x 3.583450 0.000000 0.000000 
#    y 0.000000 3.670000 0.000000 
#    z 0.000000 0.000000 3.272400 
# 
# 
# High freq. dielectric constant tensor:
#      x y z
#    x 1.751400 0.000000 0.000000 
#    y 0.000000 1.760370 0.000000 
#    z 0.000000 0.000000 1.720540 
# 
# From -- ./inp_files/11556.got.cif
#   From: 2010.03.12/outbox.cif.g09.slc.cpg/sg47_6_cif.got.tgz:11556.got - 2010.04.14 03:12:58.
