data_PCOD8198296
_publ_section_title
;
Structure prediction by ZEFSAII (Michael W. Deem and Ramdas Pophale) SiO2 
 PCOD8198296
Probable space group: P M M M
;
_chemical_formula_sum "Si O2"
_cell_formula_units_Z 40
_cell_length_a 9.280131
_cell_length_b 9.022117
_cell_length_c 26.127815
_cell_angle_alpha 90.000000
_cell_angle_beta 90.000000
_cell_angle_gamma 90.000000
_cell_volume 2187.588612
_symmetry_space_group_name_H-M "P M M M"
_symmetry_group_IT_number 47
_symmetry_cell_setting 'orthorhombic'
loop_
_space_group_symop_operation_xyz
x,y,z
-x,-y,z
x,-y,-z
-x,y,-z
-x,-y,-z
x,y,-z
-x,y,z
x,-y,z
loop_
_atom_site_type_symbol
_atom_site_label
_atom_site_fract_x
_atom_site_fract_y
_atom_site_fract_z
Si Si1 0.328324 0.836913 0.500000
Si Si2 0.831773 0.830545 0.293467
Si Si3 0.165220 0.674866 0.190035
Si Si4 0.836787 0.176090 0.000000
Si Si5 0.661780 0.177308 0.609440
Si Si6 0.332288 0.174124 0.900451
O O1 0.500000 0.851733 0.500000
O O2 0.283136 0.757938 0.553905
O O3 0.258042 0.000000 0.500000
O O4 0.782931 0.735166 0.244816
O O5 0.758799 0.762597 0.344231
O O6 0.000000 0.818468 0.302722
O O7 0.783230 0.000000 0.283974
O O8 0.181288 0.500000 0.189813
O O9 0.270323 0.742574 0.148253
O O10 0.000000 0.723596 0.178994
O O11 0.752643 0.233920 0.950119
O O12 0.000000 0.239122 0.000000
O O13 0.838295 0.000000 0.000000
O O14 0.500000 0.231624 0.620426
O O15 0.668428 0.000000 0.606427
O O16 0.500000 0.212260 0.907338
O O17 0.307752 0.000000 0.892807
#
# Coordination Sequence:
#
# PCOD8198296 Si02
#       6
#     4   8   8   4   8   8
#     4   7  10  18  33  55  84 115 144 178 224 277
#     4   9  17  29  45  66  92 120 152 194 241 285
#     4  10  21  36  52  70  95 130 169 205 243 289
#     4   9  17  31  54  81 106 133 164 196 232 279
#     4   8  13  22  38  60  86 116 149 184 226 280
#     4  10  20  34  54  80 107 132 160 198 242 285
#
# _framework density 18.284973999999998
#
# number of rings (size 3 to 8) (size 9 to 14) (size 15 to 20)
#    0.000    3.000    0.000    2.700    0.000    4.400 
#    0.000    3.000    0.000    6.000    0.000    0.700 
#    0.000    5.600    0.000    0.000    0.000    0.000 
#
# Total GULP energy -495739.759979 kJ/mol
# GULP energy per Si atom -12393.493999 kJ/mol
# Density = 1.824336 g / cm^3
# Si number density = 18.284974 Si / 1000 Ang^3
#
#
#
# Elastic Constant Matrix: (Units=GPa)
#
#
# Indices 1 2 3 4 5 6 
#
# 1 88.9383 31.0300 84.8724 0.0000 0.0000 0.0000
# 2 31.0300 31.9043 39.2434 0.0000 0.0000 0.0000
# 3 84.8724 39.2434 194.4570 0.0000 0.0000 0.0000
# 4 0.0000 0.0000 0.0000 -3.4390 0.0000 0.0000
# 5 0.0000 0.0000 0.0000 0.0000 38.4362 0.0000
# 6 0.0000 0.0000 0.0000 0.0000 0.0000 15.0047
#
#
#
# Elastic Compliance Matrix: (Units=1/GPa)
#
#
# Indices 1 2 3 4 5 6 
#
# 1 0.022812 -0.013222 -0.007288 0.000000 0.000000 0.000000
# 2 -0.013222 0.049357 -0.004190 0.000000 0.000000 0.000000
# 3 -0.007288 -0.004190 0.009169 0.000000 0.000000 0.000000
# 4 0.000000 0.000000 0.000000 -0.290781 0.000000 0.000000
# 5 0.000000 0.000000 0.000000 0.000000 0.026017 0.000000
# 6 0.000000 0.000000 0.000000 0.000000 0.000000 0.066646
#
#
# Mechanical properties :
#
#
# Convention : Reuss Voigt Hill
#
# Bulk Modulus (GPa) = 31.31070 69.51016 50.41043
# Shear Modulus (GPa) = -88.13046 20.67729 -33.72658
#
# Velocity S-wave (km/s) = -6.95003 3.36644 -4.29942
# Velocity P-wave (km/s) = 6.87335 7.29438 1.72699
#
# Compressibility (1/GPa) = 0.03193796
#
# Stress axis : x y z
#
# Youngs Moduli (GPa) = 43.83726 20.26045 109.06312
#
# Poissons Ratio (x) = 0.26788 0.79485
# Poissons Ratio (y) = 0.57962 0.45697
# Poissons Ratio (z) = 0.31949 0.08489
#
# Static dielectric constant tensor:
#      x y z
#    x 3.330740 0.000000 0.000000 
#    y 0.000000 2.889330 0.000000 
#    z 0.000000 0.000000 3.811670 
# 
# 
# High freq. dielectric constant tensor:
#      x y z
#    x 1.696490 0.000000 0.000000 
#    y 0.000000 1.653570 0.000000 
#    z 0.000000 0.000000 1.733340 
# 
# From -- ./inp_files/33001.got.cif
#   From: 2010.03.12/outbox.cif.g09.slc.cpg/sg47_17_cif.got.tgz:33001.got - 2010.04.14 03:12:58.
