data_PCOD8198613
_publ_section_title
;
Structure prediction by ZEFSAII (Michael W. Deem and Ramdas Pophale) SiO2 
 PCOD8198613
Probable space group: P M M M
;
_chemical_formula_sum "Si O2"
_cell_formula_units_Z 64
_cell_length_a 14.411768
_cell_length_b 25.299162
_cell_length_c 8.904684
_cell_angle_alpha 90.000000
_cell_angle_beta 90.000000
_cell_angle_gamma 90.000000
_cell_volume 3246.698128
_symmetry_space_group_name_H-M "P M M M"
_symmetry_group_IT_number 47
_symmetry_cell_setting 'orthorhombic'
loop_
_space_group_symop_operation_xyz
x,y,z
-x,-y,z
x,-y,-z
-x,y,-z
-x,-y,-z
x,y,-z
-x,y,z
x,-y,z
loop_
_atom_site_type_symbol
_atom_site_label
_atom_site_fract_x
_atom_site_fract_y
_atom_site_fract_z
Si Si1 0.714982 0.744071 0.822939
Si Si2 0.715413 0.561810 0.173731
Si Si3 0.101641 0.562744 0.668478
Si Si4 0.899450 0.892686 0.321624
Si Si5 0.287048 0.941832 0.321369
Si Si6 0.104398 0.772024 0.675387
Si Si7 0.608666 0.350394 0.673175
Si Si8 0.394131 0.839778 0.322089
O O1 0.821267 0.737886 0.768158
O O2 0.659643 0.692707 0.773072
O O3 0.669519 0.796109 0.753071
O O4 0.711480 0.748677 0.000000
O O5 0.704011 0.500000 0.208629
O O6 0.817742 0.582857 0.220819
O O7 0.637861 0.591571 0.270577
O O8 0.700883 0.574702 0.000000
O O9 0.122190 0.583543 0.500000
O O10 0.100099 0.500000 0.668257
O O11 0.000000 0.583577 0.722013
O O12 0.899178 0.894473 0.500000
O O13 0.815510 0.927931 0.256948
O O14 0.885265 0.832420 0.270560
O O15 0.000000 0.913543 0.262710
O O16 0.283266 0.942472 0.500000
O O17 0.360955 0.897946 0.268254
O O18 0.315991 0.000000 0.260717
O O19 0.127094 0.766540 0.500000
O O20 0.000000 0.751512 0.709279
O O21 0.636388 0.343134 0.500000
O O22 0.500000 0.343356 0.696806
O O23 0.383652 0.833690 0.500000
O O24 0.500000 0.832132 0.270498
#
# Coordination Sequence:
#
# PCOD8198613 Si02
#       8
#     8   8   8   8   8   8   8   8
#     4  12  24  38  60  87 116 146 181 233 289 345
#     4  10  21  37  59  89 125 161 193 231 283 340
#     4   8  14  27  50  80 114 154 199 241 277 319
#     4   8  13  23  43  72 105 140 177 221 274 330
#     4   9  16  26  44  74 110 143 181 235 290 337
#     4   9  17  33  59  86 114 150 188 226 273 334
#     4  11  25  44  65  87 112 147 193 243 290 337
#     4  10  20  35  55  77 105 144 191 240 289 345
#
# _framework density 19.712333999999998
#
# number of rings (size 3 to 8) (size 9 to 14) (size 15 to 20)
#    0.000    2.375    1.250    3.375    0.000    4.750 
#    0.000    5.625    0.000    4.125    0.000    0.875 
#    0.000    2.000    0.000    0.000    0.000    0.000 
#
# Total GULP energy -793387.905438 kJ/mol
# GULP energy per Si atom -12396.686022 kJ/mol
# Density = 1.966747 g / cm^3
# Si number density = 19.712334 Si / 1000 Ang^3
#
#
#
# Elastic Constant Matrix: (Units=GPa)
#
#
# Indices 1 2 3 4 5 6 
#
# 1 119.4453 43.2632 42.8745 0.0000 0.0000 0.0000
# 2 43.2632 74.0424 25.4102 0.0000 0.0000 0.0000
# 3 42.8745 25.4102 48.5758 0.0000 0.0000 0.0000
# 4 0.0000 0.0000 0.0000 9.2559 0.0000 0.0000
# 5 0.0000 0.0000 0.0000 0.0000 12.7929 0.0000
# 6 0.0000 0.0000 0.0000 0.0000 0.0000 28.5381
#
#
#
# Elastic Compliance Matrix: (Units=1/GPa)
#
#
# Indices 1 2 3 4 5 6 
#
# 1 0.013431 -0.004606 -0.009445 0.000000 0.000000 0.000000
# 2 -0.004606 0.018041 -0.005372 0.000000 0.000000 0.000000
# 3 -0.009445 -0.005372 0.031732 0.000000 0.000000 0.000000
# 4 0.000000 0.000000 0.000000 0.108040 0.000000 0.000000
# 5 0.000000 0.000000 0.000000 0.000000 0.078169 0.000000
# 6 0.000000 0.000000 0.000000 0.000000 0.000000 0.035041
#
#
# Mechanical properties :
#
#
# Convention : Reuss Voigt Hill
#
# Bulk Modulus (GPa) = 41.05306 51.68437 46.36872
# Shear Modulus (GPa) = 15.08672 18.81840 16.95256
#
# Velocity S-wave (km/s) = 2.76949 3.09309 2.93575
# Velocity P-wave (km/s) = 5.57656 6.24760 5.92159
#
# Compressibility (1/GPa) = 0.02435872
#
# Stress axis : x y z
#
# Youngs Moduli (GPa) = 74.45700 55.43038 31.51350
#
# Poissons Ratio (x) = 0.25533 0.29764
# Poissons Ratio (y) = 0.34297 0.16928
# Poissons Ratio (z) = 0.70322 0.29775
#
# Static dielectric constant tensor:
#      x y z
#    x 3.967680 0.000000 0.000000 
#    y 0.000000 3.555260 0.000000 
#    z 0.000000 0.000000 3.263170 
# 
# 
# High freq. dielectric constant tensor:
#      x y z
#    x 1.783670 0.000000 0.000000 
#    y 0.000000 1.754640 0.000000 
#    z 0.000000 0.000000 1.729350 
# 
# From -- ./inp_files/7954.got.cif
#   From: 2010.03.12/outbox.cif.g09.slc.cpg/sg47_4_cif.got.tgz:7954.got - 2010.04.14 03:12:58.
