data_PCOD8198568
_publ_section_title
;
Structure prediction by ZEFSAII (Michael W. Deem and Ramdas Pophale) SiO2 
 PCOD8198568
Probable space group: P M M M
;
_chemical_formula_sum "Si O2"
_cell_formula_units_Z 52
_cell_length_a 9.135168
_cell_length_b 20.689195
_cell_length_c 15.062949
_cell_angle_alpha 90.000000
_cell_angle_beta 90.000000
_cell_angle_gamma 90.000000
_cell_volume 2846.886397
_symmetry_space_group_name_H-M "P M M M"
_symmetry_group_IT_number 47
_symmetry_cell_setting 'orthorhombic'
loop_
_space_group_symop_operation_xyz
x,y,z
-x,-y,z
x,-y,-z
-x,y,-z
-x,-y,-z
x,y,-z
-x,y,z
x,-y,z
loop_
_atom_site_type_symbol
_atom_site_label
_atom_site_fract_x
_atom_site_fract_y
_atom_site_fract_z
Si Si1 0.668264 0.849684 0.846813
Si Si2 0.326740 0.399474 0.751918
Si Si3 0.825856 0.263441 0.761421
Si Si4 0.165029 0.817585 0.596876
Si Si5 0.827237 0.924650 0.000000
Si Si6 0.672746 0.500000 0.602463
Si Si7 0.334263 0.928103 0.333247
Si Si8 0.671805 0.500000 0.100164
O O1 0.500000 0.838514 0.876146
O O2 0.747000 0.779976 0.836546
O O3 0.678854 0.891866 0.759266
O O4 0.756925 0.891382 0.915886
O O5 0.500000 0.385346 0.749580
O O6 0.234025 0.335209 0.761140
O O7 0.279851 0.437289 0.661063
O O8 0.282590 0.438157 0.841171
O O9 0.775673 0.234254 0.666818
O O10 0.000000 0.263495 0.776683
O O11 0.179130 0.785394 0.500000
O O12 0.249513 0.885523 0.595000
O O13 0.000000 0.835163 0.622075
O O14 0.000000 0.913578 0.000000
O O15 0.786491 0.000000 0.000000
O O16 0.500000 0.500000 0.594414
O O17 0.738004 0.500000 0.500000
O O18 0.500000 0.933086 0.365342
O O19 0.265843 0.000000 0.326145
O O20 0.500000 0.500000 0.087878
O O21 0.743281 0.500000 0.000000
#
# Coordination Sequence:
#
# PCOD8198568 Si02
#       8
#     8   8   8   8   4   4   8   4
#     4  10  20  36  56  76 100 134 178 219 257 309
#     4   9  17  31  53  78 103 134 174 215 256 311
#     4  10  20  35  53  73 104 141 172 213 267 314
#     4   9  19  34  49  67  94 131 173 210 248 304
#     4  11  23  37  55  81 111 138 167 212 271 327
#     4   8  15  29  50  78 110 140 174 222 273 317
#     4   9  18  32  50  72  97 125 161 210 263 308
#     4   8  15  31  54  78 102 130 166 208 246 292
#
# _framework density 18.265568999999999
#
# number of rings (size 3 to 8) (size 9 to 14) (size 15 to 20)
#    0.000    2.692    0.000    2.538    0.000    4.000 
#    1.385    3.077    0.000    0.923    0.000    0.000 
#    0.000    0.000    0.000    0.000    0.000    0.000 
#
# Total GULP energy -644421.756437 kJ/mol
# GULP energy per Si atom -12392.726085 kJ/mol
# Density = 1.822400 g / cm^3
# Si number density = 18.265569 Si / 1000 Ang^3
#
#
#
# Elastic Constant Matrix: (Units=GPa)
#
#
# Indices 1 2 3 4 5 6 
#
# 1 76.1806 61.5873 39.5724 0.0000 0.0000 0.0000
# 2 61.5873 155.4790 54.3389 0.0000 0.0000 0.0000
# 3 39.5724 54.3389 104.8684 0.0000 0.0000 0.0000
# 4 0.0000 0.0000 0.0000 25.4834 0.0000 0.0000
# 5 0.0000 0.0000 0.0000 0.0000 18.4445 0.0000
# 6 0.0000 0.0000 0.0000 0.0000 0.0000 30.7172
#
#
#
# Elastic Compliance Matrix: (Units=1/GPa)
#
#
# Indices 1 2 3 4 5 6 
#
# 1 0.020837 -0.006723 -0.004379 0.000000 0.000000 0.000000
# 2 -0.006723 0.010023 -0.002657 0.000000 0.000000 0.000000
# 3 -0.004379 -0.002657 0.012565 0.000000 0.000000 0.000000
# 4 0.000000 0.000000 0.000000 0.039241 0.000000 0.000000
# 5 0.000000 0.000000 0.000000 0.000000 0.054217 0.000000
# 6 0.000000 0.000000 0.000000 0.000000 0.000000 0.032555
#
#
# Mechanical properties :
#
#
# Convention : Reuss Voigt Hill
#
# Bulk Modulus (GPa) = 62.86578 71.94724 67.40651
# Shear Modulus (GPa) = 24.72086 26.99765 25.85926
#
# Velocity S-wave (km/s) = 3.68287 3.84873 3.76671
# Velocity P-wave (km/s) = 7.25100 7.69580 7.47671
#
# Compressibility (1/GPa) = 0.01590691
#
# Stress axis : x y z
#
# Youngs Moduli (GPa) = 47.99209 99.76643 79.58716
#
# Poissons Ratio (x) = 0.67075 0.34852
# Poissons Ratio (y) = 0.32266 0.21144
# Poissons Ratio (z) = 0.21016 0.26505
#
# Static dielectric constant tensor:
#      x y z
#    x 3.303670 0.000000 0.000000 
#    y 0.000000 3.386970 0.000000 
#    z 0.000000 0.000000 3.560900 
# 
# 
# High freq. dielectric constant tensor:
#      x y z
#    x 1.694070 0.000000 0.000000 
#    y 0.000000 1.708320 0.000000 
#    z 0.000000 0.000000 1.709020 
# 
# From -- ./inp_files/21513.got.cif
#   From: 2010.03.12/outbox.cif.g09.slc.cpg/sg47_11_cif.got.tgz:21513.got - 2010.04.14 03:12:58.
