data_PCOD8198379
_publ_section_title
;
Structure prediction by ZEFSAII (Michael W. Deem and Ramdas Pophale) SiO2 
 PCOD8198379
Probable space group: P M M M
;
_chemical_formula_sum "Si O2"
_cell_formula_units_Z 52
_cell_length_a 27.737742
_cell_length_b 11.583179
_cell_length_c 8.901981
_cell_angle_alpha 90.000000
_cell_angle_beta 90.000000
_cell_angle_gamma 90.000000
_cell_volume 2860.128431
_symmetry_space_group_name_H-M "P M M M"
_symmetry_group_IT_number 47
_symmetry_cell_setting 'orthorhombic'
loop_
_space_group_symop_operation_xyz
x,y,z
-x,-y,z
x,-y,-z
-x,y,-z
-x,-y,-z
x,y,-z
-x,y,z
x,-y,z
loop_
_atom_site_type_symbol
_atom_site_label
_atom_site_fract_x
_atom_site_fract_y
_atom_site_fract_z
Si Si1 0.181614 0.236645 0.822028
Si Si2 0.095998 0.363074 0.330116
Si Si3 0.554796 0.868495 0.175835
Si Si4 0.277286 0.631958 0.175415
Si Si5 0.804719 0.000000 0.321444
Si Si6 0.643522 0.772507 0.322343
Si Si7 0.304177 0.000000 0.322015
Si Si8 0.000000 0.362443 0.169975
O O1 0.140720 0.324193 0.769926
O O2 0.233140 0.287957 0.768379
O O3 0.170526 0.114058 0.744830
O O4 0.179950 0.223669 0.000000
O O5 0.100278 0.315291 0.500000
O O6 0.095273 0.500000 0.330314
O O7 0.046933 0.314750 0.256311
O O8 0.500000 0.833541 0.213431
O O9 0.588863 0.777447 0.261886
O O10 0.564439 0.000000 0.230799
O O11 0.564804 0.859142 0.000000
O O12 0.264377 0.500000 0.214255
O O13 0.326817 0.663906 0.259825
O O14 0.286121 0.648992 0.000000
O O15 0.750028 0.000000 0.262320
O O16 0.809310 0.000000 0.500000
O O17 0.642592 0.764934 0.500000
O O18 0.669521 0.887135 0.259175
O O19 0.305263 0.000000 0.500000
O O20 0.000000 0.500000 0.169160
O O21 0.000000 0.314468 0.000000
#
# Coordination Sequence:
#
# PCOD8198379 Si02
#       8
#     8   8   8   8   4   8   4   4
#     4  11  22  36  55  80 109 142 182 224 267 316
#     4  10  20  34  54  81 112 146 183 224 273 324
#     4   9  18  32  50  75 106 138 172 210 256 311
#     4  10  22  38  54  75 105 141 180 219 261 312
#     4  11  21  37  55  75 109 145 180 219 263 318
#     4  11  20  33  53  78 107 138 173 215 263 314
#     4   9  18  31  48  74 106 137 170 209 258 311
#     4   9  17  31  53  80 109 142 181 227 274 317
#
# _framework density 18.181001999999999
#
# number of rings (size 3 to 8) (size 9 to 14) (size 15 to 20)
#    0.000    1.923    2.308    2.769    0.000    3.692 
#    0.000    0.769    0.000    0.923    0.000    6.462 
#    0.000    0.000    0.000    0.000    0.000    0.000 
#
# Total GULP energy -644909.399533 kJ/mol
# GULP energy per Si atom -12402.103837 kJ/mol
# Density = 1.813962 g / cm^3
# Si number density = 18.181002 Si / 1000 Ang^3
#
#
#
# Elastic Constant Matrix: (Units=GPa)
#
#
# Indices 1 2 3 4 5 6 
#
# 1 114.8942 26.6633 47.8008 0.0000 0.0000 0.0000
# 2 26.6633 59.2058 35.6245 0.0000 0.0000 0.0000
# 3 47.8008 35.6245 84.5132 0.0000 0.0000 0.0000
# 4 0.0000 0.0000 0.0000 26.2160 0.0000 0.0000
# 5 0.0000 0.0000 0.0000 0.0000 32.4809 0.0000
# 6 0.0000 0.0000 0.0000 0.0000 0.0000 21.0496
#
#
#
# Elastic Compliance Matrix: (Units=1/GPa)
#
#
# Indices 1 2 3 4 5 6 
#
# 1 0.011508 -0.001696 -0.005794 0.000000 0.000000 0.000000
# 2 -0.001696 0.022880 -0.008685 0.000000 0.000000 0.000000
# 3 -0.005794 -0.008685 0.018770 0.000000 0.000000 0.000000
# 4 0.000000 0.000000 0.000000 0.038145 0.000000 0.000000
# 5 0.000000 0.000000 0.000000 0.000000 0.030787 0.000000
# 6 0.000000 0.000000 0.000000 0.000000 0.000000 0.047507
#
#
# Mechanical properties :
#
#
# Convention : Reuss Voigt Hill
#
# Bulk Modulus (GPa) = 48.05878 53.19894 50.62886
# Shear Modulus (GPa) = 23.93679 25.85092 24.89385
#
# Velocity S-wave (km/s) = 3.63241 3.77485 3.70432
# Velocity P-wave (km/s) = 6.63954 6.95152 6.79732
#
# Compressibility (1/GPa) = 0.02080785
#
# Stress axis : x y z
#
# Youngs Moduli (GPa) = 86.89771 43.70615 53.27531
#
# Poissons Ratio (x) = 0.07414 0.30866
# Poissons Ratio (y) = 0.14741 0.46270
# Poissons Ratio (z) = 0.50346 0.37959
#
# Static dielectric constant tensor:
#      x y z
#    x 3.408400 0.000000 0.000000 
#    y 0.000000 3.137580 0.000000 
#    z 0.000000 0.000000 3.293240 
# 
# 
# High freq. dielectric constant tensor:
#      x y z
#    x 1.707230 0.000000 0.000000 
#    y 0.000000 1.674420 0.000000 
#    z 0.000000 0.000000 1.707560 
# 
# From -- ./inp_files/13332.got.cif
#   From: 2010.03.12/outbox.cif.g09.slc.cpg/sg47_7_cif.got.tgz:13332.got - 2010.04.14 03:12:58.
