data_PCOD8198813
_publ_section_title
;
Structure prediction by ZEFSAII (Michael W. Deem and Ramdas Pophale) SiO2 
 PCOD8198813
Probable space group: P M M M
;
_chemical_formula_sum "Si O2"
_cell_formula_units_Z 48
_cell_length_a 33.946224
_cell_length_b 7.829357
_cell_length_c 9.380452
_cell_angle_alpha 90.000000
_cell_angle_beta 90.000000
_cell_angle_gamma 90.000000
_cell_volume 2493.109390
_symmetry_space_group_name_H-M "P M M M"
_symmetry_group_IT_number 47
_symmetry_cell_setting 'orthorhombic'
loop_
_space_group_symop_operation_xyz
x,y,z
-x,-y,z
x,-y,-z
-x,y,-z
-x,-y,-z
x,y,-z
-x,y,z
x,-y,z
loop_
_atom_site_type_symbol
_atom_site_label
_atom_site_fract_x
_atom_site_fract_y
_atom_site_fract_z
Si Si1 0.739540 0.305228 0.838559
Si Si2 0.824387 0.199697 0.161038
Si Si3 0.043983 0.500000 0.330815
Si Si4 0.543932 0.000000 0.830737
Si Si5 0.597327 0.690446 0.836042
Si Si6 0.331186 0.806084 0.338893
Si Si7 0.900845 0.804905 0.332019
O O1 0.725774 0.500000 0.833372
O O2 0.784593 0.290813 0.785299
O O3 0.711467 0.199735 0.734547
O O4 0.736347 0.232454 0.000000
O O5 0.860259 0.255802 0.260967
O O6 0.816749 0.000000 0.171348
O O7 0.834669 0.256251 0.000000
O O8 0.042075 0.500000 0.500000
O O9 0.065622 0.326594 0.278834
O O10 0.000000 0.500000 0.265677
O O11 0.566178 0.170850 0.777159
O O12 0.500000 0.000000 0.764831
O O13 0.541340 0.000000 0.000000
O O14 0.579041 0.500000 0.821328
O O15 0.637494 0.694200 0.747162
O O16 0.607994 0.731449 0.000000
O O17 0.327858 0.735843 0.500000
O O18 0.346141 0.000000 0.338083
O O19 0.894799 0.792426 0.500000
O O20 0.912135 0.000000 0.287190
#
# Coordination Sequence:
#
# PCOD8198813 Si02
#       7
#     8   8   4   4   8   8   8
#     4  10  21  35  52  77 106 138 179 224 269 322
#     4   9  18  33  52  74 101 135 172 211 260 314
#     4   9  18  32  51  77 105 133 171 217 265 315
#     4   9  18  34  57  87 119 147 181 229 279 325
#     4  10  20  35  58  85 112 147 186 224 273 330
#     4  11  23  37  54  77 107 145 187 229 275 324
#     4   9  18  32  51  75 102 134 172 214 259 310
#
# _framework density 19.253067000000001
#
# number of rings (size 3 to 8) (size 9 to 14) (size 15 to 20)
#    0.000    2.333    0.833    1.500    1.167    5.667 
#    0.000    5.000    0.000    2.000    0.000    3.500 
#    0.000    0.000    0.000    0.000    0.000    0.000 
#
# Total GULP energy -595204.770443 kJ/mol
# GULP energy per Si atom -12400.099384 kJ/mol
# Density = 1.920925 g / cm^3
# Si number density = 19.253067 Si / 1000 Ang^3
#
#
#
# Elastic Constant Matrix: (Units=GPa)
#
#
# Indices 1 2 3 4 5 6 
#
# 1 144.4355 59.3782 51.6166 0.0000 0.0000 0.0000
# 2 59.3782 102.0681 30.2362 0.0000 0.0000 0.0000
# 3 51.6166 30.2362 62.8040 0.0000 0.0000 0.0000
# 4 0.0000 0.0000 0.0000 15.8160 0.0000 0.0000
# 5 0.0000 0.0000 0.0000 0.0000 16.3223 0.0000
# 6 0.0000 0.0000 0.0000 0.0000 0.0000 28.6313
#
#
#
# Elastic Compliance Matrix: (Units=1/GPa)
#
#
# Indices 1 2 3 4 5 6 
#
# 1 0.011313 -0.004464 -0.007149 0.000000 0.000000 0.000000
# 2 -0.004464 0.013188 -0.002681 0.000000 0.000000 0.000000
# 3 -0.007149 -0.002681 0.023089 0.000000 0.000000 0.000000
# 4 0.000000 0.000000 0.000000 0.063227 0.000000 0.000000
# 5 0.000000 0.000000 0.000000 0.000000 0.061266 0.000000
# 6 0.000000 0.000000 0.000000 0.000000 0.000000 0.034927
#
#
# Mechanical properties :
#
#
# Convention : Reuss Voigt Hill
#
# Bulk Modulus (GPa) = 52.62244 65.75218 59.18731
# Shear Modulus (GPa) = 20.66697 23.35902 22.01300
#
# Velocity S-wave (km/s) = 3.27989 3.48697 3.38501
# Velocity P-wave (km/s) = 6.46025 7.10195 6.78869
#
# Compressibility (1/GPa) = 0.01900330
#
# Stress axis : x y z
#
# Youngs Moduli (GPa) = 88.39022 75.82470 43.31105
#
# Poissons Ratio (x) = 0.33847 0.30964
# Poissons Ratio (y) = 0.39455 0.11610
# Poissons Ratio (z) = 0.63191 0.20326
#
# Static dielectric constant tensor:
#      x y z
#    x 3.530010 0.000000 0.000000 
#    y 0.000000 3.611440 0.000000 
#    z 0.000000 0.000000 3.328870 
# 
# 
# High freq. dielectric constant tensor:
#      x y z
#    x 1.741740 0.000000 0.000000 
#    y 0.000000 1.758940 0.000000 
#    z 0.000000 0.000000 1.719430 
# 
# From -- ./inp_files/13839.got.cif
#   From: 2010.03.12/outbox.cif.g09.slc.cpg/sg47_7_cif.got.tgz:13839.got - 2010.04.14 03:12:58.
