data_PCOD8198877
_publ_section_title
;
Structure prediction by ZEFSAII (Michael W. Deem and Ramdas Pophale) SiO2 
 PCOD8198877
Probable space group: P M M M
;
_chemical_formula_sum "Si O2"
_cell_formula_units_Z 40
_cell_length_a 20.982792
_cell_length_b 7.841583
_cell_length_c 12.753380
_cell_angle_alpha 90.000000
_cell_angle_beta 90.000000
_cell_angle_gamma 90.000000
_cell_volume 2098.419529
_symmetry_space_group_name_H-M "P M M M"
_symmetry_group_IT_number 47
_symmetry_cell_setting 'orthorhombic'
loop_
_space_group_symop_operation_xyz
x,y,z
-x,-y,z
x,-y,-z
-x,y,-z
-x,-y,-z
x,y,-z
-x,y,z
x,-y,z
loop_
_atom_site_type_symbol
_atom_site_label
_atom_site_fract_x
_atom_site_fract_y
_atom_site_fract_z
Si Si1 0.891927 0.196619 0.225147
Si Si2 0.075090 0.808419 0.000000
Si Si3 0.685854 0.500000 0.882048
Si Si4 0.427803 0.500000 0.275556
Si Si5 0.252691 0.806585 0.225173
Si Si6 0.000000 0.695196 0.383236
Si Si7 0.634736 0.190968 0.621093
O O1 0.901629 0.282001 0.108773
O O2 0.819539 0.227652 0.261519
O O3 0.937073 0.266978 0.315786
O O4 0.910009 0.000000 0.213073
O O5 0.000000 0.805766 0.000000
O O6 0.103110 0.000000 0.000000
O O7 0.619563 0.500000 0.821314
O O8 0.727286 0.669874 0.862133
O O9 0.663798 0.500000 0.000000
O O10 0.500000 0.500000 0.234413
O O11 0.417209 0.328949 0.343295
O O12 0.297129 0.776677 0.325485
O O13 0.259846 0.000000 0.180498
O O14 0.000000 0.500000 0.408606
O O15 0.000000 0.786643 0.500000
O O16 0.648128 0.215157 0.500000
O O17 0.609050 0.000000 0.646793
#
# Coordination Sequence:
#
# PCOD8198877 Si02
#       7
#     8   4   4   4   8   4   8
#     4  10  20  36  58  80 103 139 184 229 282 340
#     4   9  16  30  52  78 104 128 164 223 285 329
#     4  10  22  38  57  83 113 148 186 223 270 328
#     4  10  21  37  56  81 114 148 185 228 267 313
#     4   9  20  36  56  83 112 143 182 231 280 330
#     4  11  25  40  51  72 110 149 186 233 282 330
#     4   9  18  34  55  81 113 145 180 225 276 329
#
# _framework density 19.061965000000001
#
# number of rings (size 3 to 8) (size 9 to 14) (size 15 to 20)
#    0.000    2.400    1.000    0.600    2.800    3.400 
#    0.000    4.000    0.000    0.000    0.000    5.600 
#    0.000    0.000    0.000    0.000    0.000    0.000 
#
# Total GULP energy -495758.819726 kJ/mol
# GULP energy per Si atom -12393.970493 kJ/mol
# Density = 1.901858 g / cm^3
# Si number density = 19.061965 Si / 1000 Ang^3
#
#
#
# Elastic Constant Matrix: (Units=GPa)
#
#
# Indices 1 2 3 4 5 6 
#
# 1 120.6173 47.3473 44.2976 0.0000 0.0000 0.0000
# 2 47.3473 101.3806 46.8420 0.0000 0.0000 0.0000
# 3 44.2976 46.8420 130.4213 0.0000 0.0000 0.0000
# 4 0.0000 0.0000 0.0000 16.1419 0.0000 0.0000
# 5 0.0000 0.0000 0.0000 0.0000 10.5639 0.0000
# 6 0.0000 0.0000 0.0000 0.0000 0.0000 48.8128
#
#
#
# Elastic Compliance Matrix: (Units=1/GPa)
#
#
# Indices 1 2 3 4 5 6 
#
# 1 0.010652 -0.003960 -0.002195 0.000000 0.000000 0.000000
# 2 -0.003960 0.013299 -0.003431 0.000000 0.000000 0.000000
# 3 -0.002195 -0.003431 0.009646 0.000000 0.000000 0.000000
# 4 0.000000 0.000000 0.000000 0.061951 0.000000 0.000000
# 5 0.000000 0.000000 0.000000 0.000000 0.094662 0.000000
# 6 0.000000 0.000000 0.000000 0.000000 0.000000 0.020486
#
#
# Mechanical properties :
#
#
# Convention : Reuss Voigt Hill
#
# Bulk Modulus (GPa) = 69.33871 69.93256 69.63563
# Shear Modulus (GPa) = 21.30603 29.36589 25.33596
#
# Velocity S-wave (km/s) = 3.34687 3.92924 3.64969
# Velocity P-wave (km/s) = 7.16866 7.57310 7.37366
#
# Compressibility (1/GPa) = 0.01442196
#
# Stress axis : x y z
#
# Youngs Moduli (GPa) = 93.88349 75.19541 103.67498
#
# Poissons Ratio (x) = 0.29778 0.22762
# Poissons Ratio (y) = 0.37179 0.35574
# Poissons Ratio (z) = 0.20612 0.25802
#
# Static dielectric constant tensor:
#      x y z
#    x 3.322970 0.000000 0.000000 
#    y 0.000000 3.691600 0.000000 
#    z 0.000000 0.000000 3.582870 
# 
# 
# High freq. dielectric constant tensor:
#      x y z
#    x 1.734590 0.000000 0.000000 
#    y 0.000000 1.741360 0.000000 
#    z 0.000000 0.000000 1.737180 
# 
# From -- ./inp_files/18993.got.cif
#   From: 2010.03.12/outbox.cif.g09.slc.cpg/sg47_10_cif.got.tgz:18993.got - 2010.04.14 03:12:58.
