data_PCOD8198160
_publ_section_title
;
Structure prediction by ZEFSAII (Michael W. Deem and Ramdas Pophale) SiO2 
 PCOD8198160
Probable space group: P M M M
;
_chemical_formula_sum "Si O2"
_cell_formula_units_Z 64
_cell_length_a 20.526701
_cell_length_b 8.882470
_cell_length_c 19.704456
_cell_angle_alpha 90.000000
_cell_angle_beta 90.000000
_cell_angle_gamma 90.000000
_cell_volume 3592.670228
_symmetry_space_group_name_H-M "P M M M"
_symmetry_group_IT_number 47
_symmetry_cell_setting 'orthorhombic'
loop_
_space_group_symop_operation_xyz
x,y,z
-x,-y,z
x,-y,-z
-x,y,-z
-x,-y,-z
x,y,-z
-x,y,z
x,-y,z
loop_
_atom_site_type_symbol
_atom_site_label
_atom_site_fract_x
_atom_site_fract_y
_atom_site_fract_z
Si Si1 0.617737 0.827236 0.576502
Si Si2 0.770109 0.826932 0.423267
Si Si3 0.269000 0.821481 0.926520
Si Si4 0.122288 0.821508 0.073371
Si Si5 0.073609 0.175893 0.784899
Si Si6 0.809975 0.322940 0.292407
Si Si7 0.426126 0.672044 0.294491
Si Si8 0.688153 0.821784 0.783667
O O1 0.600630 0.777332 0.500000
O O2 0.693855 0.806334 0.591116
O O3 0.577559 0.723040 0.627347
O O4 0.597528 0.000000 0.588040
O O5 0.786996 0.776772 0.500000
O O6 0.809917 0.722647 0.371619
O O7 0.790159 0.000000 0.412000
O O8 0.195690 0.760913 0.916095
O O9 0.311849 0.766717 0.862479
O O10 0.267696 0.000000 0.927512
O O11 0.296354 0.763195 0.000000
O O12 0.079236 0.766735 0.136897
O O13 0.122562 0.000000 0.071479
O O14 0.095311 0.762287 0.000000
O O15 0.121563 0.270111 0.737913
O O16 0.000000 0.204961 0.760242
O O17 0.092226 0.000000 0.779801
O O18 0.803316 0.500000 0.284941
O O19 0.749502 0.246673 0.254946
O O20 0.500000 0.691878 0.268803
O O21 0.403241 0.500000 0.289438
O O22 0.380117 0.772317 0.247581
O O23 0.694576 0.000000 0.777317
#
# Coordination Sequence:
#
# PCOD8198160 Si02
#       8
#     8   8   8   8   8   8   8   8
#     4   9  18  33  54  79 106 139 178 217 257 307
#     4   9  18  34  57  83 108 134 170 218 266 311
#     4   8  14  26  49  80 107 130 164 219 276 314
#     4   8  13  24  45  75 108 137 171 218 267 310
#     4  10  20  34  53  77 106 143 186 226 264 309
#     4  12  23  34  53  80 111 144 177 216 265 317
#     4  11  24  38  51  74 110 146 179 217 264 317
#     4  11  20  34  58  81 104 136 180 226 264 311
#
# _framework density 17.814049000000001
#
# number of rings (size 3 to 8) (size 9 to 14) (size 15 to 20)
#    0.000    2.250    2.500    3.375    0.000    2.250 
#    0.000    3.750    0.000    3.375    0.000    6.125 
#    0.000    0.000    0.000    0.000    0.000    0.000 
#
# Total GULP energy -793308.301357 kJ/mol
# GULP energy per Si atom -12395.442209 kJ/mol
# Density = 1.777350 g / cm^3
# Si number density = 17.814049 Si / 1000 Ang^3
#
#
#
# Elastic Constant Matrix: (Units=GPa)
#
#
# Indices 1 2 3 4 5 6 
#
# 1 78.1900 37.7687 51.3242 0.0000 0.0000 0.0000
# 2 37.7687 75.4091 46.3538 0.0000 0.0000 0.0000
# 3 51.3242 46.3538 125.7948 0.0000 0.0000 0.0000
# 4 0.0000 0.0000 0.0000 1.1221 0.0000 0.0000
# 5 0.0000 0.0000 0.0000 0.0000 24.3348 0.0000
# 6 0.0000 0.0000 0.0000 0.0000 0.0000 19.8053
#
#
#
# Elastic Compliance Matrix: (Units=1/GPa)
#
#
# Indices 1 2 3 4 5 6 
#
# 1 0.019549 -0.006320 -0.005647 0.000000 0.000000 0.000000
# 2 -0.006320 0.019187 -0.004492 0.000000 0.000000 0.000000
# 3 -0.005647 -0.004492 0.011909 0.000000 0.000000 0.000000
# 4 0.000000 0.000000 0.000000 0.891202 0.000000 0.000000
# 5 0.000000 0.000000 0.000000 0.000000 0.041093 0.000000
# 6 0.000000 0.000000 0.000000 0.000000 0.000000 0.050491
#
#
# Mechanical properties :
#
#
# Convention : Reuss Voigt Hill
#
# Bulk Modulus (GPa) = 56.40995 61.14302 58.77649
# Shear Modulus (GPa) = 4.66305 18.64891 11.65598
#
# Velocity S-wave (km/s) = 1.61966 3.23904 2.56073
# Velocity P-wave (km/s) = 5.93570 6.95600 6.46600
#
# Compressibility (1/GPa) = 0.01772737
#
# Stress axis : x y z
#
# Youngs Moduli (GPa) = 51.15381 52.11754 83.97233
#
# Poissons Ratio (x) = 0.32937 0.47421
# Poissons Ratio (y) = 0.32328 0.37719
# Poissons Ratio (z) = 0.28887 0.23410
#
# Static dielectric constant tensor:
#      x y z
#    x 3.075670 0.000000 0.000000 
#    y 0.000000 3.031600 0.000000 
#    z 0.000000 0.000000 3.765480 
# 
# 
# High freq. dielectric constant tensor:
#      x y z
#    x 1.661930 0.000000 0.000000 
#    y 0.000000 1.661840 0.000000 
#    z 0.000000 0.000000 1.701830 
# 
# From -- ./inp_files/31322.got.cif
#   From: 2010.03.12/outbox.cif.g09.slc.cpg/sg47_16_cif.got.tgz:31322.got - 2010.04.14 03:12:58.
