data_PCOD8198824
_publ_section_title
;
Structure prediction by ZEFSAII (Michael W. Deem and Ramdas Pophale) SiO2 
 PCOD8198824
Probable space group: P M M M
;
_chemical_formula_sum "Si O2"
_cell_formula_units_Z 48
_cell_length_a 8.025196
_cell_length_b 33.588418
_cell_length_c 8.311665
_cell_angle_alpha 90.000000
_cell_angle_beta 90.000000
_cell_angle_gamma 90.000000
_cell_volume 2240.439537
_symmetry_space_group_name_H-M "P M M M"
_symmetry_group_IT_number 47
_symmetry_cell_setting 'orthorhombic'
loop_
_space_group_symop_operation_xyz
x,y,z
-x,-y,z
x,-y,-z
-x,y,-z
-x,-y,-z
x,y,-z
-x,y,z
x,-y,z
loop_
_atom_site_type_symbol
_atom_site_label
_atom_site_fract_x
_atom_site_fract_y
_atom_site_fract_z
Si Si1 0.500000 0.544149 0.311948
Si Si2 0.310750 0.756535 0.819573
Si Si3 0.811621 0.407204 0.813939
Si Si4 0.190851 0.835638 0.320363
Si Si5 0.691705 0.087540 0.177867
Si Si6 0.301873 0.045634 0.500000
Si Si7 0.809829 0.322924 0.683286
O O1 0.500000 0.500000 0.233729
O O2 0.500000 0.540492 0.500000
O O3 0.670855 0.565869 0.265280
O O4 0.500000 0.771347 0.817405
O O5 0.202252 0.789904 0.732388
O O6 0.302212 0.714477 0.729781
O O7 0.243264 0.750969 0.000000
O O8 0.762297 0.361117 0.789529
O O9 0.000000 0.415074 0.743213
O O10 0.811979 0.417351 0.000000
O O11 0.264529 0.840035 0.500000
O O12 0.290440 0.864966 0.201976
O O13 0.000000 0.848750 0.316137
O O14 0.500000 0.075558 0.170772
O O15 0.772500 0.065326 0.334542
O O16 0.769329 0.076255 0.000000
O O17 0.500000 0.050869 0.500000
O O18 0.246013 0.000000 0.500000
O O19 0.775001 0.334950 0.500000
O O20 0.000000 0.310152 0.712057
#
# Coordination Sequence:
#
# PCOD8198824 Si02
#       7
#     4   8   8   8   8   4   8
#     4  11  25  43  65  95 129 167 211 261 317 381
#     4  11  24  38  54  81 116 154 197 246 297 351
#     4  10  22  41  66  94 126 166 209 259 318 378
#     4  11  23  38  57  81 111 150 196 244 296 353
#     4  10  20  35  58  86 115 151 193 237 290 353
#     4   9  18  34  57  87 121 153 187 237 297 351
#     4  10  21  38  60  86 117 155 200 247 299 360
#
# _framework density 21.424365999999999
#
# number of rings (size 3 to 8) (size 9 to 14) (size 15 to 20)
#    0.000    1.667    0.833    3.250    1.167   10.000 
#    0.000    3.333    0.000    1.000    0.000    1.167 
#    0.000    0.000    0.000    0.000    0.000    0.000 
#
# Total GULP energy -595095.808312 kJ/mol
# GULP energy per Si atom -12397.829340 kJ/mol
# Density = 2.137560 g / cm^3
# Si number density = 21.424366 Si / 1000 Ang^3
#
#
#
# Elastic Constant Matrix: (Units=GPa)
#
#
# Indices 1 2 3 4 5 6 
#
# 1 61.0077 35.0931 29.1532 0.0000 0.0000 0.0000
# 2 35.0931 131.1541 46.9006 0.0000 0.0000 0.0000
# 3 29.1532 46.9006 135.7348 0.0000 0.0000 0.0000
# 4 0.0000 0.0000 0.0000 -6.4103 0.0000 0.0000
# 5 0.0000 0.0000 0.0000 0.0000 21.0414 0.0000
# 6 0.0000 0.0000 0.0000 0.0000 0.0000 9.9451
#
#
#
# Elastic Compliance Matrix: (Units=1/GPa)
#
#
# Indices 1 2 3 4 5 6 
#
# 1 0.020284 -0.004415 -0.002831 0.000000 0.000000 0.000000
# 2 -0.004415 0.009661 -0.002390 0.000000 0.000000 0.000000
# 3 -0.002831 -0.002390 0.008801 0.000000 0.000000 0.000000
# 4 0.000000 0.000000 0.000000 -0.155998 0.000000 0.000000
# 5 0.000000 0.000000 0.000000 0.000000 0.047525 0.000000
# 6 0.000000 0.000000 0.000000 0.000000 0.000000 0.100552
#
#
# Mechanical properties :
#
#
# Convention : Reuss Voigt Hill
#
# Bulk Modulus (GPa) = 51.35095 61.13227 56.24161
# Shear Modulus (GPa) = 88.35954 19.36523 53.86238
#
# Velocity S-wave (km/s) = 6.42900 3.00973 5.01949
# Velocity P-wave (km/s) = 8.89550 6.37761 7.73963
#
# Compressibility (1/GPa) = 0.01947383
#
# Stress axis : x y z
#
# Youngs Moduli (GPa) = 49.30033 103.51404 113.62216
#
# Poissons Ratio (x) = 0.45701 0.32167
# Poissons Ratio (y) = 0.21766 0.27153
# Poissons Ratio (z) = 0.13957 0.24737
#
# Static dielectric constant tensor:
#      x y z
#    x 3.727000 0.000000 0.000000 
#    y 0.000000 3.748110 0.000000 
#    z 0.000000 0.000000 4.172910 
# 
# 
# High freq. dielectric constant tensor:
#      x y z
#    x 1.824020 0.000000 0.000000 
#    y 0.000000 1.834220 0.000000 
#    z 0.000000 0.000000 1.854900 
# 
# From -- ./inp_files/2681.got.cif
#   From: 2010.03.12/outbox.cif.g09.slc.cpg/sg47_2_cif.got.tgz:2681.got - 2010.04.14 03:12:58.
