data_PCOD8198370
_publ_section_title
;
Structure prediction by ZEFSAII (Michael W. Deem and Ramdas Pophale) SiO2 
 PCOD8198370
Probable space group: P M M M
;
_chemical_formula_sum "Si O2"
_cell_formula_units_Z 48
_cell_length_a 16.034729
_cell_length_b 18.296011
_cell_length_c 9.011127
_cell_angle_alpha 90.000000
_cell_angle_beta 90.000000
_cell_angle_gamma 90.000000
_cell_volume 2643.608549
_symmetry_space_group_name_H-M "P M M M"
_symmetry_group_IT_number 47
_symmetry_cell_setting 'orthorhombic'
loop_
_space_group_symop_operation_xyz
x,y,z
-x,-y,z
x,-y,-z
-x,y,-z
-x,-y,-z
x,y,-z
-x,y,z
x,-y,z
loop_
_atom_site_type_symbol
_atom_site_label
_atom_site_fract_x
_atom_site_fract_y
_atom_site_fract_z
Si Si1 0.500000 0.916243 0.675587
Si Si2 0.759060 0.706981 0.826438
Si Si3 0.904261 0.786060 0.670698
Si Si4 0.832434 0.083374 0.170153
Si Si5 0.334191 0.584377 0.674138
Si Si6 0.341213 0.850369 0.829278
Si Si7 0.500000 0.413365 0.165804
O O1 0.500000 0.915874 0.500000
O O2 0.418828 0.872798 0.729274
O O3 0.500000 0.000000 0.735671
O O4 0.849210 0.732761 0.771239
O O5 0.740288 0.632204 0.740116
O O6 0.688901 0.768076 0.791425
O O7 0.764128 0.690493 0.000000
O O8 0.876549 0.779430 0.500000
O O9 0.891146 0.869342 0.723446
O O10 0.000000 0.763536 0.691682
O O11 0.734993 0.095128 0.206847
O O12 0.856654 0.000000 0.197879
O O13 0.848543 0.107337 0.000000
O O14 0.341779 0.595892 0.500000
O O15 0.316995 0.500000 0.714385
O O16 0.418914 0.614161 0.747902
O O17 0.368777 0.856620 0.000000
O O18 0.500000 0.500000 0.160064
O O19 0.500000 0.379933 0.000000
#
# Coordination Sequence:
#
# PCOD8198370 Si02
#       7
#     4   8   8   8   8   8   4
#     4  11  23  34  47  72 102 134 176 221 261 301
#     4  10  21  37  57  79 103 134 174 217 260 311
#     4  10  21  36  54  77 105 136 169 207 257 317
#     4   9  18  33  53  76 101 131 170 215 261 309
#     4  10  20  34  54  81 112 144 177 214 260 312
#     4   9  19  35  52  70  95 132 175 214 255 302
#     4   9  17  30  49  74 105 140 176 211 246 288
#
# _framework density 18.156998999999999
#
# number of rings (size 3 to 8) (size 9 to 14) (size 15 to 20)
#    0.000    2.333    0.000    3.500    0.000    9.333 
#    0.000    2.500    0.000    0.500    0.000    3.500 
#    0.000    0.000    0.000    0.000    0.000    0.000 
#
# Total GULP energy -595293.044697 kJ/mol
# GULP energy per Si atom -12401.938431 kJ/mol
# Density = 1.811567 g / cm^3
# Si number density = 18.156999 Si / 1000 Ang^3
#
#
#
# Elastic Constant Matrix: (Units=GPa)
#
#
# Indices 1 2 3 4 5 6 
#
# 1 85.8581 41.5520 45.8445 0.0000 0.0000 0.0000
# 2 41.5520 80.8402 46.6928 0.0000 0.0000 0.0000
# 3 45.8445 46.6928 94.3583 0.0000 0.0000 0.0000
# 4 0.0000 0.0000 0.0000 31.0899 0.0000 0.0000
# 5 0.0000 0.0000 0.0000 0.0000 33.1868 0.0000
# 6 0.0000 0.0000 0.0000 0.0000 0.0000 16.4265
#
#
#
# Elastic Compliance Matrix: (Units=1/GPa)
#
#
# Indices 1 2 3 4 5 6 
#
# 1 0.017416 -0.005691 -0.005645 0.000000 0.000000 0.000000
# 2 -0.005691 0.019180 -0.006726 0.000000 0.000000 0.000000
# 3 -0.005645 -0.006726 0.016669 0.000000 0.000000 0.000000
# 4 0.000000 0.000000 0.000000 0.032165 0.000000 0.000000
# 5 0.000000 0.000000 0.000000 0.000000 0.030132 0.000000
# 6 0.000000 0.000000 0.000000 0.000000 0.000000 0.060877
#
#
# Mechanical properties :
#
#
# Convention : Reuss Voigt Hill
#
# Bulk Modulus (GPa) = 58.34318 58.80389 58.57353
# Shear Modulus (GPa) = 22.90653 24.60513 23.75583
#
# Velocity S-wave (km/s) = 3.55573 3.68521 3.62105
# Velocity P-wave (km/s) = 7.00428 7.11086 7.05777
#
# Compressibility (1/GPa) = 0.01713996
#
# Stress axis : x y z
#
# Youngs Moduli (GPa) = 57.41938 52.13672 59.99076
#
# Poissons Ratio (x) = 0.29671 0.33867
# Poissons Ratio (y) = 0.32677 0.40352
# Poissons Ratio (z) = 0.32415 0.35069
#
# Static dielectric constant tensor:
#      x y z
#    x 3.212520 0.000000 0.000000 
#    y 0.000000 3.311510 0.000000 
#    z 0.000000 0.000000 3.413020 
# 
# 
# High freq. dielectric constant tensor:
#      x y z
#    x 1.693250 0.000000 0.000000 
#    y 0.000000 1.692370 0.000000 
#    z 0.000000 0.000000 1.712730 
# 
# From -- ./inp_files/6385.got.cif
#   From: 2010.03.12/outbox.cif.g09.slc.cpg/sg47_4_cif.got.tgz:6385.got - 2010.04.14 03:12:58.
