data_PCOD8198966
_publ_section_title
;
Structure prediction by ZEFSAII (Michael W. Deem and Ramdas Pophale) SiO2 
 PCOD8198966
Probable space group: P M M M
;
_chemical_formula_sum "Si O2"
_cell_formula_units_Z 48
_cell_length_a 28.752677
_cell_length_b 9.935514
_cell_length_c 9.309705
_cell_angle_alpha 90.000000
_cell_angle_beta 90.000000
_cell_angle_gamma 90.000000
_cell_volume 2659.527864
_symmetry_space_group_name_H-M "P M M M"
_symmetry_group_IT_number 47
_symmetry_cell_setting 'orthorhombic'
loop_
_space_group_symop_operation_xyz
x,y,z
-x,-y,z
x,-y,-z
-x,y,-z
-x,-y,-z
x,y,-z
-x,y,z
x,-y,z
loop_
_atom_site_type_symbol
_atom_site_label
_atom_site_fract_x
_atom_site_fract_y
_atom_site_fract_z
Si Si1 0.445699 0.500000 0.170691
Si Si2 0.880266 0.346432 0.835189
Si Si3 0.396388 0.738509 0.331907
Si Si4 0.227082 0.347973 0.831758
Si Si5 0.052338 0.847808 0.330814
Si Si6 0.448954 0.000000 0.329814
Si Si7 0.704632 0.155679 0.332378
O O1 0.500000 0.500000 0.218507
O O2 0.418130 0.624927 0.234016
O O3 0.441534 0.500000 0.000000
O O4 0.894905 0.500000 0.806196
O O5 0.826665 0.324959 0.793848
O O6 0.911429 0.251737 0.739238
O O7 0.888567 0.308108 0.000000
O O8 0.405420 0.707208 0.500000
O O9 0.421878 0.870817 0.276353
O O10 0.342122 0.760553 0.301149
O O11 0.241866 0.500000 0.784795
O O12 0.254747 0.232767 0.749238
O O13 0.236177 0.330432 0.000000
O O14 0.056808 0.833195 0.500000
O O15 0.000000 0.810679 0.281658
O O16 0.064085 0.000000 0.283258
O O17 0.500000 0.000000 0.260512
O O18 0.451432 0.000000 0.500000
O O19 0.716132 0.157215 0.500000
O O20 0.700454 0.000000 0.280015
#
# Coordination Sequence:
#
# PCOD8198966 Si02
#       7
#     4   8   8   8   8   4   8
#     4  11  25  41  55  79 115 147 177 217 264 315
#     4   9  19  36  55  77 107 141 181 228 271 316
#     4  10  20  37  59  83 109 139 178 221 264 315
#     4   9  20  38  57  78 107 144 183 221 266 322
#     4   9  19  35  53  76 109 146 182 222 270 324
#     4   9  16  30  57  85 105 133 175 219 262 309
#     4  10  21  37  56  82 113 139 172 222 272 318
#
# _framework density 18.048316
#
# number of rings (size 3 to 8) (size 9 to 14) (size 15 to 20)
#    0.000    2.500    0.833    2.250    1.167    5.333 
#    0.000    7.917    0.000    1.500    0.000    0.000 
#    0.000    0.000    0.000    0.000    0.000    0.000 
#
# Total GULP energy -595083.154036 kJ/mol
# GULP energy per Si atom -12397.565709 kJ/mol
# Density = 1.800724 g / cm^3
# Si number density = 18.048316 Si / 1000 Ang^3
#
#
#
# Elastic Constant Matrix: (Units=GPa)
#
#
# Indices 1 2 3 4 5 6 
#
# 1 103.5432 69.2771 47.6878 0.0000 0.0000 0.0000
# 2 69.2771 129.5988 52.5521 0.0000 0.0000 0.0000
# 3 47.6878 52.5521 51.7672 0.0000 0.0000 0.0000
# 4 0.0000 0.0000 0.0000 -32.8875 0.0000 0.0000
# 5 0.0000 0.0000 0.0000 0.0000 29.2534 0.0000
# 6 0.0000 0.0000 0.0000 0.0000 0.0000 40.4984
#
#
#
# Elastic Compliance Matrix: (Units=1/GPa)
#
#
# Indices 1 2 3 4 5 6 
#
# 1 0.018552 -0.005077 -0.011936 0.000000 0.000000 0.000000
# 2 -0.005077 0.014504 -0.010047 0.000000 0.000000 0.000000
# 3 -0.011936 -0.010047 0.040512 0.000000 0.000000 0.000000
# 4 0.000000 0.000000 0.000000 -0.030407 0.000000 0.000000
# 5 0.000000 0.000000 0.000000 0.000000 0.034184 0.000000
# 6 0.000000 0.000000 0.000000 0.000000 0.000000 0.024692
#
#
# Mechanical properties :
#
#
# Convention : Reuss Voigt Hill
#
# Bulk Modulus (GPa) = 51.41939 69.32703 60.37321
# Shear Modulus (GPa) = 30.74259 15.06566 22.90413
#
# Velocity S-wave (km/s) = 4.13164 2.89232 3.56623
# Velocity P-wave (km/s) = 7.16326 7.04623 7.10499
#
# Compressibility (1/GPa) = 0.01944792
#
# Stress axis : x y z
#
# Youngs Moduli (GPa) = 53.90316 68.94617 24.68385
#
# Poissons Ratio (x) = 0.35003 0.29463
# Poissons Ratio (y) = 0.27366 0.24800
# Poissons Ratio (z) = 0.64339 0.69272
#
# Static dielectric constant tensor:
#      x y z
#    x 3.443020 0.000000 0.000000 
#    y 0.000000 3.390000 0.000000 
#    z 0.000000 0.000000 3.109280 
# 
# 
# High freq. dielectric constant tensor:
#      x y z
#    x 1.708100 0.000000 0.000000 
#    y 0.000000 1.710270 0.000000 
#    z 0.000000 0.000000 1.681920 
# 
# From -- ./inp_files/13876.got.cif
#   From: 2010.03.12/outbox.cif.g09.slc.cpg/sg47_7_cif.got.tgz:13876.got - 2010.04.14 03:12:58.
