data_PCOD8198542
_publ_section_title
;
Structure prediction by ZEFSAII (Michael W. Deem and Ramdas Pophale) SiO2 
 PCOD8198542
Probable space group: P M M M
;
_chemical_formula_sum "Si O2"
_cell_formula_units_Z 64
_cell_length_a 8.842125
_cell_length_b 15.381656
_cell_length_c 23.789345
_cell_angle_alpha 90.000000
_cell_angle_beta 90.000000
_cell_angle_gamma 90.000000
_cell_volume 3235.506147
_symmetry_space_group_name_H-M "P M M M"
_symmetry_group_IT_number 47
_symmetry_cell_setting 'orthorhombic'
loop_
_space_group_symop_operation_xyz
x,y,z
-x,-y,z
x,-y,-z
-x,y,-z
-x,-y,-z
x,y,-z
-x,y,z
x,-y,z
loop_
_atom_site_type_symbol
_atom_site_label
_atom_site_fract_x
_atom_site_fract_y
_atom_site_fract_z
Si Si1 0.175475 0.851897 0.436720
Si Si2 0.822610 0.753241 0.258165
Si Si3 0.674185 0.597321 0.321855
Si Si4 0.678488 0.754592 0.863171
Si Si5 0.327196 0.902884 0.671520
Si Si6 0.825530 0.099995 0.935199
Si Si7 0.679725 0.596491 0.063012
Si Si8 0.328367 0.327912 0.561759
O O1 0.213806 0.883195 0.500000
O O2 0.274176 0.907055 0.393206
O O3 0.212991 0.750625 0.429313
O O4 0.000000 0.865926 0.423025
O O5 0.777802 0.664450 0.288839
O O6 0.746469 0.758613 0.198112
O O7 0.775346 0.836740 0.294053
O O8 0.000000 0.755187 0.250022
O O9 0.500000 0.617572 0.307135
O O10 0.717749 0.500000 0.302854
O O11 0.701600 0.602746 0.389089
O O12 0.500000 0.748566 0.857795
O O13 0.719647 0.841203 0.896871
O O14 0.745126 0.669586 0.895145
O O15 0.500000 0.870722 0.674537
O O16 0.311238 0.000000 0.696807
O O17 0.000000 0.121934 0.922944
O O18 0.791423 0.000000 0.920298
O O19 0.786324 0.118441 0.000000
O O20 0.500000 0.600983 0.062395
O O21 0.732245 0.500000 0.082839
O O22 0.740812 0.614794 0.000000
O O23 0.302328 0.370974 0.500000
O O24 0.500000 0.291736 0.566090
#
# Coordination Sequence:
#
# PCOD8198542 Si02
#       8
#     8   8   8   8   8   8   8   8
#     4  10  20  34  56  87 121 154 186 227 285 351
#     4  12  26  43  61  82 114 156 200 248 299 353
#     4  10  21  38  61  87 117 154 196 243 294 350
#     4  11  22  36  59  88 117 152 197 246 292 342
#     4  11  24  42  64  87 112 146 192 245 299 355
#     4   9  19  37  60  87 122 161 196 233 284 346
#     4   8  15  30  54  86 121 152 184 226 277 331
#     4   9  17  31  55  85 117 152 189 234 287 344
#
# _framework density 19.780522000000001
#
# number of rings (size 3 to 8) (size 9 to 14) (size 15 to 20)
#    0.000    2.000    1.250    3.375    0.000    4.500 
#    0.000    4.375    0.000    1.125    0.000    7.000 
#    0.000    0.000    0.000    0.000    0.000    0.000 
#
# Total GULP energy -793564.824985 kJ/mol
# GULP energy per Si atom -12399.450390 kJ/mol
# Density = 1.973550 g / cm^3
# Si number density = 19.780522 Si / 1000 Ang^3
#
#
#
# Elastic Constant Matrix: (Units=GPa)
#
#
# Indices 1 2 3 4 5 6 
#
# 1 68.9854 35.7428 40.4309 0.0000 0.0000 0.0000
# 2 35.7428 112.0454 60.4362 0.0000 0.0000 0.0000
# 3 40.4309 60.4362 120.2414 0.0000 0.0000 0.0000
# 4 0.0000 0.0000 0.0000 -23.2014 0.0000 0.0000
# 5 0.0000 0.0000 0.0000 0.0000 38.2925 0.0000
# 6 0.0000 0.0000 0.0000 0.0000 0.0000 11.5993
#
#
#
# Elastic Compliance Matrix: (Units=1/GPa)
#
#
# Indices 1 2 3 4 5 6 
#
# 1 0.019055 -0.003598 -0.004599 0.000000 0.000000 0.000000
# 2 -0.003598 0.012924 -0.005286 0.000000 0.000000 0.000000
# 3 -0.004599 -0.005286 0.012520 0.000000 0.000000 0.000000
# 4 0.000000 0.000000 0.000000 -0.043101 0.000000 0.000000
# 5 0.000000 0.000000 0.000000 0.000000 0.026115 0.000000
# 6 0.000000 0.000000 0.000000 0.000000 0.000000 0.086212
#
#
# Mechanical properties :
#
#
# Convention : Reuss Voigt Hill
#
# Bulk Modulus (GPa) = 57.03466 63.83244 60.43355
# Shear Modulus (GPa) = 34.12139 16.31556 25.21848
#
# Velocity S-wave (km/s) = 4.15782 2.87510 3.57447
# Velocity P-wave (km/s) = 7.20738 6.58498 6.90320
#
# Compressibility (1/GPa) = 0.01753320
#
# Stress axis : x y z
#
# Youngs Moduli (GPa) = 52.47861 77.37525 79.87326
#
# Poissons Ratio (x) = 0.27841 0.36732
# Poissons Ratio (y) = 0.18883 0.42221
# Poissons Ratio (z) = 0.24134 0.40901
#
# Static dielectric constant tensor:
#      x y z
#    x 3.455840 0.000000 0.000000 
#    y 0.000000 3.609100 0.000000 
#    z 0.000000 0.000000 3.960050 
# 
# 
# High freq. dielectric constant tensor:
#      x y z
#    x 1.756670 0.000000 0.000000 
#    y 0.000000 1.770740 0.000000 
#    z 0.000000 0.000000 1.774230 
# 
# From -- ./inp_files/32130.got.cif
#   From: 2010.03.12/outbox.cif.g09.slc.cpg/sg47_17_cif.got.tgz:32130.got - 2010.04.14 03:12:58.
