data_PCOD8198658
_publ_section_title
;
Structure prediction by ZEFSAII (Michael W. Deem and Ramdas Pophale) SiO2 
 PCOD8198658
Probable space group: P M M M
;
_chemical_formula_sum "Si O2"
_cell_formula_units_Z 40
_cell_length_a 27.246452
_cell_length_b 9.196673
_cell_length_c 8.014006
_cell_angle_alpha 90.000000
_cell_angle_beta 90.000000
_cell_angle_gamma 90.000000
_cell_volume 2008.123253
_symmetry_space_group_name_H-M "P M M M"
_symmetry_group_IT_number 47
_symmetry_cell_setting 'orthorhombic'
loop_
_space_group_symop_operation_xyz
x,y,z
-x,-y,z
x,-y,-z
-x,y,-z
-x,-y,-z
x,y,-z
-x,y,z
x,-y,z
loop_
_atom_site_type_symbol
_atom_site_label
_atom_site_fract_x
_atom_site_fract_y
_atom_site_fract_z
Si Si1 0.592172 0.339379 0.192704
Si Si2 0.883502 0.672900 0.814816
Si Si3 0.500000 0.836438 0.199626
Si Si4 0.682589 0.836410 0.308952
Si Si5 0.227375 0.664715 0.806041
Si Si6 0.944365 0.326485 0.500000
O O1 0.594352 0.500000 0.276668
O O2 0.548137 0.244867 0.272166
O O3 0.644088 0.260217 0.208913
O O4 0.580311 0.358860 0.000000
O O5 0.885677 0.500000 0.818319
O O6 0.827905 0.721569 0.775620
O O7 0.918390 0.734731 0.668106
O O8 0.899607 0.730490 0.000000
O O9 0.500000 0.000000 0.270755
O O10 0.500000 0.840124 0.000000
O O11 0.666435 0.837245 0.500000
O O12 0.736763 0.769969 0.293997
O O13 0.682718 0.000000 0.236067
O O14 0.233238 0.500000 0.739001
O O15 0.240890 0.670510 0.000000
O O16 0.942107 0.500000 0.500000
O O17 0.000000 0.269598 0.500000
#
# Coordination Sequence:
#
# PCOD8198658 Si02
#       6
#     8   8   4   8   8   4
#     4  10  20  35  56  80 104 132 171 215 256 306
#     4   8  15  27  42  64  95 129 170 218 262 312
#     4   9  17  31  54  81 106 135 170 210 260 309
#     4  11  24  37  49  72 105 136 168 209 259 314
#     4   9  18  33  53  75  97 128 172 215 258 311
#     4   9  16  24  38  64  97 137 179 212 257 316
#
# _framework density 19.919097000000001
#
# number of rings (size 3 to 8) (size 9 to 14) (size 15 to 20)
#    0.000    2.600    0.000    3.300    1.400    7.200 
#    0.000    2.500    0.000    3.000    0.000    0.000 
#    0.000    1.600    0.000    4.400    0.000    4.400 
#
# Total GULP energy -495898.426146 kJ/mol
# GULP energy per Si atom -12397.460654 kJ/mol
# Density = 1.987376 g / cm^3
# Si number density = 19.919097 Si / 1000 Ang^3
#
#
#
# Elastic Constant Matrix: (Units=GPa)
#
#
# Indices 1 2 3 4 5 6 
#
# 1 147.1753 55.5879 48.0266 0.0000 0.0000 0.0000
# 2 55.5879 115.1896 24.0860 0.0000 0.0000 0.0000
# 3 48.0266 24.0860 69.3050 0.0000 0.0000 0.0000
# 4 0.0000 0.0000 0.0000 14.5609 0.0000 0.0000
# 5 0.0000 0.0000 0.0000 0.0000 7.1137 0.0000
# 6 0.0000 0.0000 0.0000 0.0000 0.0000 6.6182
#
#
#
# Elastic Compliance Matrix: (Units=1/GPa)
#
#
# Indices 1 2 3 4 5 6 
#
# 1 0.010027 -0.003651 -0.005680 0.000000 0.000000 0.000000
# 2 -0.003651 0.010691 -0.001185 0.000000 0.000000 0.000000
# 3 -0.005680 -0.001185 0.018777 0.000000 0.000000 0.000000
# 4 0.000000 0.000000 0.000000 0.068677 0.000000 0.000000
# 5 0.000000 0.000000 0.000000 0.000000 0.140573 0.000000
# 6 0.000000 0.000000 0.000000 0.000000 0.000000 0.151098
#
#
# Mechanical properties :
#
#
# Convention : Reuss Voigt Hill
#
# Bulk Modulus (GPa) = 54.16338 65.23011 59.69675
# Shear Modulus (GPa) = 11.70879 19.25653 15.48266
#
# Velocity S-wave (km/s) = 2.42712 3.11261 2.79099
# Velocity P-wave (km/s) = 5.92497 6.76287 6.35774
#
# Compressibility (1/GPa) = 0.01846266
#
# Stress axis : x y z
#
# Youngs Moduli (GPa) = 99.73016 93.53478 53.25739
#
# Poissons Ratio (x) = 0.34152 0.30248
# Poissons Ratio (y) = 0.36414 0.06313
# Poissons Ratio (z) = 0.56642 0.11087
#
# Static dielectric constant tensor:
#      x y z
#    x 3.634350 0.000000 0.000000 
#    y 0.000000 3.453320 0.000000 
#    z 0.000000 0.000000 3.550230 
# 
# 
# High freq. dielectric constant tensor:
#      x y z
#    x 1.779450 0.000000 0.000000 
#    y 0.000000 1.742710 0.000000 
#    z 0.000000 0.000000 1.763780 
# 
# From -- ./inp_files/12995.got.cif
#   From: 2010.03.12/outbox.cif.g09.slc.cpg/sg47_7_cif.got.tgz:12995.got - 2010.04.14 03:12:58.
