data_PCOD8198141
_publ_section_title
;
Structure prediction by ZEFSAII (Michael W. Deem and Ramdas Pophale) SiO2 
 PCOD8198141
Probable space group: P M M M
;
_chemical_formula_sum "Si O2"
_cell_formula_units_Z 48
_cell_length_a 8.705168
_cell_length_b 30.922436
_cell_length_c 9.130862
_cell_angle_alpha 90.000000
_cell_angle_beta 90.000000
_cell_angle_gamma 90.000000
_cell_volume 2457.891091
_symmetry_space_group_name_H-M "P M M M"
_symmetry_group_IT_number 47
_symmetry_cell_setting 'orthorhombic'
loop_
_space_group_symop_operation_xyz
x,y,z
-x,-y,z
x,-y,-z
-x,y,-z
-x,-y,-z
x,y,-z
-x,y,z
x,-y,z
loop_
_atom_site_type_symbol
_atom_site_label
_atom_site_fract_x
_atom_site_fract_y
_atom_site_fract_z
Si Si1 0.320584 0.252382 0.668699
Si Si2 0.817987 0.667836 0.164850
Si Si3 0.178465 0.826024 0.169768
Si Si4 0.323426 0.084079 0.170088
Si Si5 0.183135 0.500000 0.165683
Si Si6 0.183206 0.584192 0.334416
Si Si7 0.682762 0.000000 0.334841
O O1 0.270149 0.254630 0.500000
O O2 0.500000 0.260625 0.687792
O O3 0.229537 0.288329 0.757393
O O4 0.278520 0.205712 0.731621
O O5 0.752183 0.626779 0.253664
O O6 0.000000 0.665655 0.160436
O O7 0.751385 0.666773 0.000000
O O8 0.222779 0.874600 0.214588
O O9 0.000000 0.818236 0.201520
O O10 0.218500 0.817542 0.000000
O O11 0.500000 0.093473 0.212728
O O12 0.254786 0.043075 0.256382
O O13 0.307838 0.073176 0.000000
O O14 0.245980 0.542242 0.249186
O O15 0.000000 0.500000 0.164899
O O16 0.246534 0.500000 0.000000
O O17 0.246814 0.583559 0.500000
O O18 0.000000 0.584182 0.334849
O O19 0.500000 0.000000 0.325014
O O20 0.743514 0.000000 0.500000
#
# Coordination Sequence:
#
# PCOD8198141 Si02
#       7
#     8   8   8   8   4   8   4
#     4  11  24  39  55  77 104 135 172 213 258 310
#     4  10  20  34  53  77 104 135 172 214 261 312
#     4  10  21  37  57  81 107 136 172 214 261 312
#     4   9  17  31  52  76 103 137 175 213 255 304
#     4   9  15  23  37  61  96 135 174 215 256 301
#     4   9  16  26  42  66  98 135 172 211 258 309
#     4   9  17  29  48  75 104 134 172 217 258 297
#
# _framework density 19.528938
#
# number of rings (size 3 to 8) (size 9 to 14) (size 15 to 20)
#    0.000    2.333    0.000    3.000    0.000   10.000 
#    0.000    2.083    0.000    2.500    0.000    0.583 
#    0.000    4.667    0.000    0.000    0.000    0.000 
#
# Total GULP energy -595320.555170 kJ/mol
# GULP energy per Si atom -12402.511566 kJ/mol
# Density = 1.948449 g / cm^3
# Si number density = 19.528938 Si / 1000 Ang^3
#
#
#
# Elastic Constant Matrix: (Units=GPa)
#
#
# Indices 1 2 3 4 5 6 
#
# 1 14.1420 5.9014 15.3154 0.0000 0.0000 0.0000
# 2 5.9014 142.0750 80.0864 0.0000 0.0000 0.0000
# 3 15.3154 80.0864 150.4146 0.0000 0.0000 0.0000
# 4 0.0000 0.0000 0.0000 30.0288 0.0000 0.0000
# 5 0.0000 0.0000 0.0000 0.0000 17.4792 0.0000
# 6 0.0000 0.0000 0.0000 0.0000 0.0000 -2.6046
#
#
#
# Elastic Compliance Matrix: (Units=1/GPa)
#
#
# Indices 1 2 3 4 5 6 
#
# 1 0.079799 0.001808 -0.009088 0.000000 0.000000 0.000000
# 2 0.001808 0.010098 -0.005561 0.000000 0.000000 0.000000
# 3 -0.009088 -0.005561 0.010534 0.000000 0.000000 0.000000
# 4 0.000000 0.000000 0.000000 0.033301 0.000000 0.000000
# 5 0.000000 0.000000 0.000000 0.000000 0.057211 0.000000
# 6 0.000000 0.000000 0.000000 0.000000 0.000000 -0.383940
#
#
# Mechanical properties :
#
#
# Convention : Reuss Voigt Hill
#
# Bulk Modulus (GPa) = 13.37791 56.58201 34.97996
# Shear Modulus (GPa) = -35.11244 22.66925 -6.22159
#
# Velocity S-wave (km/s) = -4.24485 3.41075 -1.78683
# Velocity P-wave (km/s) = 4.14244 6.67438 3.70051
#
# Compressibility (1/GPa) = 0.07475010
#
# Stress axis : x y z
#
# Youngs Moduli (GPa) = 12.53154 99.03058 94.92791
#
# Poissons Ratio (x) = -0.17906 0.86270
# Poissons Ratio (y) = -0.02266 0.52786
# Poissons Ratio (z) = 0.11389 0.55067
#
# Static dielectric constant tensor:
#      x y z
#    x 3.115860 0.000000 0.000000 
#    y 0.000000 3.706700 0.000000 
#    z 0.000000 0.000000 3.755780 
# 
# 
# High freq. dielectric constant tensor:
#      x y z
#    x 1.715240 0.000000 0.000000 
#    y 0.000000 1.777710 0.000000 
#    z 0.000000 0.000000 1.769760 
# 
# From -- ./inp_files/2673.got.cif
#   From: 2010.03.12/outbox.cif.g09.slc.cpg/sg47_2_cif.got.tgz:2673.got - 2010.04.14 03:12:58.
