data_PCOD8198448
_publ_section_title
;
Structure prediction by ZEFSAII (Michael W. Deem and Ramdas Pophale) SiO2 
 PCOD8198448
Probable space group: P M M M
;
_chemical_formula_sum "Si O2"
_cell_formula_units_Z 64
_cell_length_a 8.862532
_cell_length_b 14.620533
_cell_length_c 25.162825
_cell_angle_alpha 90.000000
_cell_angle_beta 90.000000
_cell_angle_gamma 90.000000
_cell_volume 3260.471579
_symmetry_space_group_name_H-M "P M M M"
_symmetry_group_IT_number 47
_symmetry_cell_setting 'orthorhombic'
loop_
_space_group_symop_operation_xyz
x,y,z
-x,-y,z
x,-y,-z
-x,y,-z
-x,-y,-z
x,y,-z
-x,y,z
x,-y,z
loop_
_atom_site_type_symbol
_atom_site_label
_atom_site_fract_x
_atom_site_fract_y
_atom_site_fract_z
Si Si1 0.179605 0.602267 0.940357
Si Si2 0.174006 0.203980 0.441216
Si Si3 0.669596 0.107243 0.059623
Si Si4 0.176319 0.761076 0.133775
Si Si5 0.170711 0.599493 0.405997
Si Si6 0.177218 0.772165 0.747740
Si Si7 0.671853 0.397763 0.702636
Si Si8 0.678248 0.894898 0.342414
O O1 0.233583 0.500000 0.925116
O O2 0.247481 0.672631 0.896630
O O3 0.000000 0.607562 0.940142
O O4 0.237279 0.627176 0.000000
O O5 0.217436 0.166794 0.500000
O O6 0.202175 0.313706 0.443521
O O7 0.272001 0.154266 0.396677
O O8 0.000000 0.182630 0.428363
O O9 0.500000 0.136808 0.075518
O O10 0.790322 0.150252 0.098984
O O11 0.687956 0.000000 0.063985
O O12 0.705751 0.140149 0.000000
O O13 0.242805 0.779928 0.192404
O O14 0.000000 0.745701 0.139730
O O15 0.189054 0.500000 0.435376
O O16 0.291874 0.604087 0.359390
O O17 0.000000 0.606893 0.382942
O O18 0.212297 0.668547 0.731670
O O19 0.255929 0.845036 0.709277
O O20 0.000000 0.790606 0.744487
O O21 0.500000 0.364025 0.710375
O O22 0.693515 0.500000 0.725728
O O23 0.500000 0.889010 0.338985
O O24 0.733923 0.000000 0.342824
#
# Coordination Sequence:
#
# PCOD8198448 Si02
#       8
#     8   8   8   8   8   8   8   8
#     4   8  14  27  49  77 110 147 184 223 269 320
#     4  10  21  37  60  91 123 153 186 228 280 338
#     4   9  19  36  56  78 107 144 182 221 273 337
#     4  10  21  34  53  83 113 142 183 234 282 331
#     4   9  17  31  54  84 118 154 187 219 262 320
#     4  11  23  38  57  83 114 149 189 235 290 347
#     4  10  20  34  55  82 112 148 189 230 271 322
#     4  11  25  44  64  83 106 144 193 241 293 351
#
# _framework density 19.629061
#
# number of rings (size 3 to 8) (size 9 to 14) (size 15 to 20)
#    0.000    2.250    1.250    2.250    0.000    5.500 
#    0.000    6.875    0.000    0.375    0.000    4.375 
#    0.000    0.000    0.000    0.000    0.000    0.000 
#
# Total GULP energy -793237.074079 kJ/mol
# GULP energy per Si atom -12394.329282 kJ/mol
# Density = 1.958438 g / cm^3
# Si number density = 19.629061 Si / 1000 Ang^3
#
#
#
# Elastic Constant Matrix: (Units=GPa)
#
#
# Indices 1 2 3 4 5 6 
#
# 1 39.1515 32.9841 30.1048 0.0000 0.0000 0.0000
# 2 32.9841 115.8332 67.2571 0.0000 0.0000 0.0000
# 3 30.1048 67.2571 133.7199 0.0000 0.0000 0.0000
# 4 0.0000 0.0000 0.0000 9.3762 0.0000 0.0000
# 5 0.0000 0.0000 0.0000 0.0000 15.4232 0.0000
# 6 0.0000 0.0000 0.0000 0.0000 0.0000 26.8453
#
#
#
# Elastic Compliance Matrix: (Units=1/GPa)
#
#
# Indices 1 2 3 4 5 6 
#
# 1 0.035098 -0.007636 -0.004061 0.000000 0.000000 0.000000
# 2 -0.007636 0.013856 -0.005250 0.000000 0.000000 0.000000
# 3 -0.004061 -0.005250 0.011033 0.000000 0.000000 0.000000
# 4 0.000000 0.000000 0.000000 0.106653 0.000000 0.000000
# 5 0.000000 0.000000 0.000000 0.000000 0.064837 0.000000
# 6 0.000000 0.000000 0.000000 0.000000 0.000000 0.037251
#
#
# Mechanical properties :
#
#
# Convention : Reuss Voigt Hill
#
# Bulk Modulus (GPa) = 38.32511 61.04404 49.68458
# Shear Modulus (GPa) = 16.06066 20.88617 18.47342
#
# Velocity S-wave (km/s) = 2.86354 3.26551 3.07111
# Velocity P-wave (km/s) = 5.52270 6.73679 6.15973
#
# Compressibility (1/GPa) = 0.02609255
#
# Stress axis : x y z
#
# Youngs Moduli (GPa) = 28.49186 72.17144 90.63664
#
# Poissons Ratio (x) = 0.55113 0.36805
# Poissons Ratio (y) = 0.21758 0.47583
# Poissons Ratio (z) = 0.11570 0.37889
#
# Static dielectric constant tensor:
#      x y z
#    x 3.372190 0.000000 0.000000 
#    y 0.000000 3.772880 0.000000 
#    z 0.000000 0.000000 3.654290 
# 
# 
# High freq. dielectric constant tensor:
#      x y z
#    x 1.744380 0.000000 0.000000 
#    y 0.000000 1.772620 0.000000 
#    z 0.000000 0.000000 1.758410 
# 
# From -- ./inp_files/32097.got.cif
#   From: 2010.03.12/outbox.cif.g09.slc.cpg/sg47_17_cif.got.tgz:32097.got - 2010.04.14 03:12:58.
