data_PCOD8198843
_publ_section_title
;
Structure prediction by ZEFSAII (Michael W. Deem and Ramdas Pophale) SiO2 
 PCOD8198843
Probable space group: P M M M
;
_chemical_formula_sum "Si O2"
_cell_formula_units_Z 48
_cell_length_a 14.089935
_cell_length_b 11.622702
_cell_length_c 15.582521
_cell_angle_alpha 90.000000
_cell_angle_beta 90.000000
_cell_angle_gamma 90.000000
_cell_volume 2551.842189
_symmetry_space_group_name_H-M "P M M M"
_symmetry_group_IT_number 47
_symmetry_cell_setting 'orthorhombic'
loop_
_space_group_symop_operation_xyz
x,y,z
-x,-y,z
x,-y,-z
-x,y,-z
-x,-y,-z
x,y,-z
-x,y,z
x,-y,z
loop_
_atom_site_type_symbol
_atom_site_label
_atom_site_fract_x
_atom_site_fract_y
_atom_site_fract_z
Si Si1 0.802644 0.500000 0.100470
Si Si2 0.108846 0.263138 0.150625
Si Si3 0.607683 0.252150 0.246077
Si Si4 0.278787 0.131721 0.095561
Si Si5 0.297073 0.132389 0.596085
Si Si6 0.104377 0.129793 0.323081
Si Si7 0.393975 0.500000 0.815920
O O1 0.850712 0.608590 0.145633
O O2 0.688412 0.500000 0.112249
O O3 0.825340 0.500000 0.000000
O O4 0.171285 0.179167 0.091270
O O5 0.120316 0.221527 0.248081
O O6 0.000000 0.258431 0.119306
O O7 0.500000 0.209797 0.239012
O O8 0.661395 0.203078 0.163605
O O9 0.648818 0.210186 0.335945
O O10 0.616789 0.389681 0.245358
O O11 0.278216 0.000000 0.125111
O O12 0.322814 0.145386 0.000000
O O13 0.326110 0.170080 0.500000
O O14 0.183695 0.149773 0.604815
O O15 0.325101 0.000000 0.612478
O O16 0.000000 0.147305 0.364584
O O17 0.113319 0.000000 0.284986
O O18 0.500000 0.500000 0.859300
#
# Coordination Sequence:
#
# PCOD8198843 Si02
#       7
#     4   8   8   8   8   8   4
#     4  12  23  37  56  80 115 153 194 249 297 340
#     4  11  22  36  56  82 115 156 196 236 285 341
#     4  11  23  41  62  84 115 149 190 246 297 347
#     4  11  23  38  58  84 115 154 196 237 288 345
#     4  10  20  35  58  88 120 153 189 231 287 352
#     4   9  17  32  56  83 113 151 192 235 284 337
#     4  10  22  40  64  86 105 145 197 242 297 349
#
# _framework density 18.809940999999998
#
# number of rings (size 3 to 8) (size 9 to 14) (size 15 to 20)
#    0.000    1.500    3.333    1.750    0.000    5.167 
#    0.000    6.250    0.000    1.500    0.000    0.000 
#    0.000    6.667    0.000    0.000    0.000    0.000 
#
# Total GULP energy -595118.474409 kJ/mol
# GULP energy per Si atom -12398.301550 kJ/mol
# Density = 1.876713 g / cm^3
# Si number density = 18.809941 Si / 1000 Ang^3
#
#
#
# Elastic Constant Matrix: (Units=GPa)
#
#
# Indices 1 2 3 4 5 6 
#
# 1 129.8715 54.9153 52.3252 0.0000 0.0000 0.0000
# 2 54.9153 126.3154 53.8534 0.0000 0.0000 0.0000
# 3 52.3252 53.8534 102.2153 0.0000 0.0000 0.0000
# 4 0.0000 0.0000 0.0000 2.2587 0.0000 0.0000
# 5 0.0000 0.0000 0.0000 0.0000 12.0488 0.0000
# 6 0.0000 0.0000 0.0000 0.0000 0.0000 28.5745
#
#
#
# Elastic Compliance Matrix: (Units=1/GPa)
#
#
# Indices 1 2 3 4 5 6 
#
# 1 0.010477 -0.002925 -0.003822 0.000000 0.000000 0.000000
# 2 -0.002925 0.011027 -0.004312 0.000000 0.000000 0.000000
# 3 -0.003822 -0.004312 0.014012 0.000000 0.000000 0.000000
# 4 0.000000 0.000000 0.000000 0.442727 0.000000 0.000000
# 5 0.000000 0.000000 0.000000 0.000000 0.082996 0.000000
# 6 0.000000 0.000000 0.000000 0.000000 0.000000 0.034996
#
#
# Mechanical properties :
#
#
# Convention : Reuss Voigt Hill
#
# Bulk Modulus (GPa) = 74.64621 75.62112 75.13367
# Shear Modulus (GPa) = 8.02802 21.73030 14.87916
#
# Velocity S-wave (km/s) = 2.06815 3.40259 2.81557
# Velocity P-wave (km/s) = 6.74341 7.46504 7.11338
#
# Compressibility (1/GPa) = 0.01339653
#
# Stress axis : x y z
#
# Youngs Moduli (GPa) = 95.44976 90.68731 71.36895
#
# Poissons Ratio (x) = 0.26529 0.27277
# Poissons Ratio (y) = 0.27922 0.30776
# Poissons Ratio (z) = 0.36480 0.39106
#
# Static dielectric constant tensor:
#      x y z
#    x 3.769590 0.000000 0.000000 
#    y 0.000000 3.557440 0.000000 
#    z 0.000000 0.000000 3.195420 
# 
# 
# High freq. dielectric constant tensor:
#      x y z
#    x 1.744660 0.000000 0.000000 
#    y 0.000000 1.732600 0.000000 
#    z 0.000000 0.000000 1.710270 
# 
# From -- ./inp_files/23618.got.cif
#   From: 2010.03.12/outbox.cif.g09.slc.cpg/sg47_12_cif.got.tgz:23618.got - 2010.04.14 03:12:58.
