data_PCOD8198308
_publ_section_title
;
Structure prediction by ZEFSAII (Michael W. Deem and Ramdas Pophale) SiO2 
 PCOD8198308
Probable space group: P M M M
;
_chemical_formula_sum "Si O2"
_cell_formula_units_Z 40
_cell_length_a 9.147117
_cell_length_b 9.202272
_cell_length_c 25.765191
_cell_angle_alpha 90.000000
_cell_angle_beta 90.000000
_cell_angle_gamma 90.000000
_cell_volume 2168.765851
_symmetry_space_group_name_H-M "P M M M"
_symmetry_group_IT_number 47
_symmetry_cell_setting 'orthorhombic'
loop_
_space_group_symop_operation_xyz
x,y,z
-x,-y,z
x,-y,-z
-x,y,-z
-x,-y,-z
x,y,-z
-x,y,z
x,-y,z
loop_
_atom_site_type_symbol
_atom_site_label
_atom_site_fract_x
_atom_site_fract_y
_atom_site_fract_z
Si Si1 0.335045 0.827450 0.000000
Si Si2 0.329698 0.833544 0.297007
Si Si3 0.825866 0.335942 0.500000
Si Si4 0.668683 0.329000 0.806361
Si Si5 0.828613 0.831058 0.897639
Si Si6 0.828764 0.167635 0.600140
O O1 0.251140 0.771210 0.050895
O O2 0.500000 0.765284 0.000000
O O3 0.335498 0.000000 0.000000
O O4 0.500000 0.817749 0.308305
O O5 0.280988 0.736152 0.248556
O O6 0.246535 0.774496 0.347587
O O7 0.286143 0.000000 0.284958
O O8 0.767631 0.500000 0.500000
O O9 0.765524 0.256595 0.551336
O O10 0.000000 0.328405 0.500000
O O11 0.500000 0.288470 0.817929
O O12 0.693314 0.500000 0.804891
O O13 0.770965 0.260711 0.849710
O O14 0.000000 0.805394 0.904712
O O15 0.792276 0.000000 0.888003
O O16 0.000000 0.192603 0.606704
O O17 0.789959 0.000000 0.590332
#
# Coordination Sequence:
#
# PCOD8198308 Si02
#       6
#     4   8   4   8   8   8
#     4   9  17  31  54  81 106 135 172 212 254 301
#     4   9  18  33  52  73  98 129 165 206 252 300
#     4   9  17  29  46  69  96 126 160 197 240 292
#     4  10  21  36  53  74 102 137 174 210 252 305
#     4  10  20  34  54  80 108 136 169 212 258 302
#     4   9  17  30  49  71  94 122 159 202 245 291
#
# _framework density 18.443670000000001
#
# number of rings (size 3 to 8) (size 9 to 14) (size 15 to 20)
#    0.000    2.600    0.000    1.800    0.000    6.400 
#    0.000    3.000    0.000    6.000    0.000    0.000 
#    0.000    0.000    0.000    0.000    0.000    0.000 
#
# Total GULP energy -496091.218113 kJ/mol
# GULP energy per Si atom -12402.280453 kJ/mol
# Density = 1.840169 g / cm^3
# Si number density = 18.443670 Si / 1000 Ang^3
#
#
#
# Elastic Constant Matrix: (Units=GPa)
#
#
# Indices 1 2 3 4 5 6 
#
# 1 68.1870 39.7219 68.6868 0.0000 0.0000 0.0000
# 2 39.7219 77.1963 72.6011 0.0000 0.0000 0.0000
# 3 68.6868 72.6011 183.8775 0.0000 0.0000 0.0000
# 4 0.0000 0.0000 0.0000 -0.4329 0.0000 0.0000
# 5 0.0000 0.0000 0.0000 0.0000 35.5380 0.0000
# 6 0.0000 0.0000 0.0000 0.0000 0.0000 19.8431
#
#
#
# Elastic Compliance Matrix: (Units=1/GPa)
#
#
# Indices 1 2 3 4 5 6 
#
# 1 0.025473 -0.006615 -0.006904 0.000000 0.000000 0.000000
# 2 -0.006615 0.022323 -0.006343 0.000000 0.000000 0.000000
# 3 -0.006904 -0.006343 0.010522 0.000000 0.000000 0.000000
# 4 0.000000 0.000000 0.000000 -2.309765 0.000000 0.000000
# 5 0.000000 0.000000 0.000000 0.000000 0.028139 0.000000
# 6 0.000000 0.000000 0.000000 0.000000 0.000000 0.050395
#
#
# Mechanical properties :
#
#
# Convention : Reuss Voigt Hill
#
# Bulk Modulus (GPa) = 53.77740 76.80893 65.29316
# Shear Modulus (GPa) = -2.35074 20.87304 9.26115
#
# Velocity S-wave (km/s) = -1.13018 3.36775 2.24326
# Velocity P-wave (km/s) = 5.24575 7.54042 6.49522
#
# Compressibility (1/GPa) = 0.01859517
#
# Stress axis : x y z
#
# Youngs Moduli (GPa) = 39.25693 44.79675 95.04148
#
# Poissons Ratio (x) = 0.29631 0.65614
# Poissons Ratio (y) = 0.25967 0.60285
# Poissons Ratio (z) = 0.27102 0.28415
#
# Static dielectric constant tensor:
#      x y z
#    x 3.278440 0.000000 0.000000 
#    y 0.000000 3.264930 0.000000 
#    z 0.000000 0.000000 3.603220 
# 
# 
# High freq. dielectric constant tensor:
#      x y z
#    x 1.702260 0.000000 0.000000 
#    y 0.000000 1.698480 0.000000 
#    z 0.000000 0.000000 1.730420 
# 
# From -- ./inp_files/1750.got.cif
#   From: 2010.03.12/outbox.cif.g09.slc.cpg/sg47_1_cif.got.tgz:1750.got - 2010.04.14 03:12:58.
