data_PCOD8198443
_publ_section_title
;
Structure prediction by ZEFSAII (Michael W. Deem and Ramdas Pophale) SiO2 
 PCOD8198443
Probable space group: P M M M
;
_chemical_formula_sum "Si O2"
_cell_formula_units_Z 48
_cell_length_a 34.046023
_cell_length_b 8.017553
_cell_length_c 8.253800
_cell_angle_alpha 90.000000
_cell_angle_beta 90.000000
_cell_angle_gamma 90.000000
_cell_volume 2253.005069
_symmetry_space_group_name_H-M "P M M M"
_symmetry_group_IT_number 47
_symmetry_cell_setting 'orthorhombic'
loop_
_space_group_symop_operation_xyz
x,y,z
-x,-y,z
x,-y,-z
-x,y,-z
-x,-y,-z
x,y,-z
-x,y,z
x,-y,z
loop_
_atom_site_type_symbol
_atom_site_label
_atom_site_fract_x
_atom_site_fract_y
_atom_site_fract_z
Si Si1 0.407384 0.686285 0.312462
Si Si2 0.912353 0.694231 0.679021
Si Si3 0.955063 0.301453 0.000000
Si Si4 0.675352 0.310151 0.816185
Si Si5 0.166199 0.801682 0.181242
Si Si6 0.246311 0.191768 0.323350
Si Si7 0.455261 0.000000 0.306572
O O1 0.417266 0.673005 0.500000
O O2 0.414525 0.500000 0.234052
O O3 0.362121 0.741517 0.291024
O O4 0.434833 0.831367 0.235915
O O5 0.924944 0.766851 0.500000
O O6 0.921465 0.500000 0.676883
O O7 0.866062 0.726127 0.698893
O O8 0.935402 0.773332 0.834371
O O9 0.950595 0.500000 0.000000
O O10 0.000000 0.243878 0.000000
O O11 0.687176 0.500000 0.782977
O O12 0.713470 0.203391 0.775700
O O13 0.662812 0.277847 0.000000
O O14 0.209055 0.729195 0.230408
O O15 0.164916 0.000000 0.190538
O O16 0.157136 0.738733 0.000000
O O17 0.251201 0.277122 0.500000
O O18 0.236392 0.000000 0.346321
O O19 0.500000 0.000000 0.247065
O O20 0.451742 0.000000 0.500000
#
# Coordination Sequence:
#
# PCOD8198443 Si02
#       7
#     8   8   4   8   8   8   4
#     4   9  18  33  53  77 107 142 179 224 278 334
#     4  10  20  34  55  82 109 142 183 225 277 338
#     4   9  18  34  55  81 113 143 177 229 285 337
#     4  10  21  36  53  75 104 139 179 222 271 324
#     4  10  20  35  55  78 107 145 186 226 274 329
#     4  10  21  35  52  76 105 138 178 224 269 318
#     4   9  18  32  53  83 111 137 179 229 279 339
#
# _framework density 21.304879
#
# number of rings (size 3 to 8) (size 9 to 14) (size 15 to 20)
#    0.000    2.333    0.833    1.500    1.167    4.333 
#    0.000    3.333    0.000    2.000    0.000    3.500 
#    0.000    0.000    0.000    0.000    0.000    0.000 
#
# Total GULP energy -594895.497655 kJ/mol
# GULP energy per Si atom -12393.656201 kJ/mol
# Density = 2.125639 g / cm^3
# Si number density = 21.304879 Si / 1000 Ang^3
#
#
#
# Elastic Constant Matrix: (Units=GPa)
#
#
# Indices 1 2 3 4 5 6 
#
# 1 147.0765 37.5553 42.6186 0.0000 0.0000 0.0000
# 2 37.5553 49.9766 23.5991 0.0000 0.0000 0.0000
# 3 42.6186 23.5991 113.3752 0.0000 0.0000 0.0000
# 4 0.0000 0.0000 0.0000 15.3684 0.0000 0.0000
# 5 0.0000 0.0000 0.0000 0.0000 21.8552 0.0000
# 6 0.0000 0.0000 0.0000 0.0000 0.0000 -385.0509
#
#
#
# Elastic Compliance Matrix: (Units=1/GPa)
#
#
# Indices 1 2 3 4 5 6 
#
# 1 0.008865 -0.005643 -0.002158 0.000000 0.000000 0.000000
# 2 -0.005643 0.025782 -0.003245 0.000000 0.000000 0.000000
# 3 -0.002158 -0.003245 0.010307 0.000000 0.000000 0.000000
# 4 0.000000 0.000000 0.000000 0.065068 0.000000 0.000000
# 5 0.000000 0.000000 0.000000 0.000000 0.045756 0.000000
# 6 0.000000 0.000000 0.000000 0.000000 0.000000 -0.002597
#
#
# Mechanical properties :
#
#
# Convention : Reuss Voigt Hill
#
# Bulk Modulus (GPa) = 43.74060 57.55271 50.64666
# Shear Modulus (GPa) = 27.33806 -55.78844 -14.22519
#
# Velocity S-wave (km/s) = 3.58604 -5.12275 -2.58679
# Velocity P-wave (km/s) = 6.14179 2.81383 3.86031
#
# Compressibility (1/GPa) = 0.02286205
#
# Stress axis : x y z
#
# Youngs Moduli (GPa) = 112.79781 38.78630 97.02147
#
# Poissons Ratio (x) = 0.21887 0.20937
# Poissons Ratio (y) = 0.63652 0.31487
# Poissons Ratio (z) = 0.24342 0.12588
#
# Static dielectric constant tensor:
#      x y z
#    x 3.749360 0.000000 0.000000 
#    y 0.000000 3.708230 0.000000 
#    z 0.000000 0.000000 4.044030 
# 
# 
# High freq. dielectric constant tensor:
#      x y z
#    x 1.830200 0.000000 0.000000 
#    y 0.000000 1.810240 0.000000 
#    z 0.000000 0.000000 1.831970 
# 
# From -- ./inp_files/13888.got.cif
#   From: 2010.03.12/outbox.cif.g09.slc.cpg/sg47_7_cif.got.tgz:13888.got - 2010.04.14 03:12:58.
