data_PCOD8198675
_publ_section_title
;
Structure prediction by ZEFSAII (Michael W. Deem and Ramdas Pophale) SiO2 
 PCOD8198675
Probable space group: P M M M
;
_chemical_formula_sum "Si O2"
_cell_formula_units_Z 44
_cell_length_a 14.229872
_cell_length_b 19.091217
_cell_length_c 8.030350
_cell_angle_alpha 90.000000
_cell_angle_beta 90.000000
_cell_angle_gamma 90.000000
_cell_volume 2181.569644
_symmetry_space_group_name_H-M "P M M M"
_symmetry_group_IT_number 47
_symmetry_cell_setting 'orthorhombic'
loop_
_space_group_symop_operation_xyz
x,y,z
-x,-y,z
x,-y,-z
-x,y,-z
-x,-y,-z
x,y,-z
-x,y,z
x,-y,z
loop_
_atom_site_type_symbol
_atom_site_label
_atom_site_fract_x
_atom_site_fract_y
_atom_site_fract_z
Si Si1 0.784618 0.292018 0.688332
Si Si2 0.605897 0.225861 0.198874
Si Si3 0.388376 0.074349 0.186301
Si Si4 0.106193 0.420797 0.196200
Si Si5 0.111954 0.078106 0.500000
Si Si6 0.890772 0.165055 0.185223
O O1 0.805506 0.269981 0.500000
O O2 0.673410 0.285725 0.727430
O O3 0.817964 0.371263 0.716124
O O4 0.840902 0.240180 0.809139
O O5 0.500000 0.241055 0.262008
O O6 0.643815 0.148935 0.266152
O O7 0.608598 0.225855 0.000000
O O8 0.500000 0.078683 0.179332
O O9 0.358594 0.000000 0.277279
O O10 0.347719 0.070927 0.000000
O O11 0.127381 0.500000 0.254157
O O12 0.000000 0.399814 0.249147
O O13 0.117395 0.414123 0.000000
O O14 0.149467 0.114425 0.670004
O O15 0.000000 0.077417 0.500000
O O16 0.152835 0.000000 0.500000
O O17 0.000000 0.178637 0.216064
O O18 0.873306 0.132743 0.000000
#
# Coordination Sequence:
#
# PCOD8198675 Si02
#       6
#     8   8   8   8   4   8
#     4  12  23  34  53  80 115 154 189 230 279 337
#     4   9  18  33  53  76 104 142 191 243 291 343
#     4   7  10  20  42  70  95 120 159 219 285 337
#     4   9  19  37  61  89 118 145 176 220 277 342
#     4   9  18  34  54  78 110 146 190 241 290 344
#     4  10  20  35  56  81 110 146 190 238 288 343
#
# _framework density 20.168963999999999
#
# number of rings (size 3 to 8) (size 9 to 14) (size 15 to 20)
#    0.000    2.636    0.909    4.364    0.000    3.636 
#    0.000    3.636    0.000    2.727    0.000    6.364 
#    0.000    0.000    0.000    0.000    0.000    0.000 
#
# Total GULP energy -545155.441464 kJ/mol
# GULP energy per Si atom -12389.896397 kJ/mol
# Density = 2.012306 g / cm^3
# Si number density = 20.168964 Si / 1000 Ang^3
#
#
#
# Elastic Constant Matrix: (Units=GPa)
#
#
# Indices 1 2 3 4 5 6 
#
# 1 84.8619 64.3484 27.9815 0.0000 0.0000 0.0000
# 2 64.3484 127.6027 37.2191 0.0000 0.0000 0.0000
# 3 27.9815 37.2191 88.7266 0.0000 0.0000 0.0000
# 4 0.0000 0.0000 0.0000 18.6604 0.0000 0.0000
# 5 0.0000 0.0000 0.0000 0.0000 13.6888 0.0000
# 6 0.0000 0.0000 0.0000 0.0000 0.0000 26.1682
#
#
#
# Elastic Compliance Matrix: (Units=1/GPa)
#
#
# Indices 1 2 3 4 5 6 
#
# 1 0.019485 -0.009154 -0.002305 0.000000 0.000000 0.000000
# 2 -0.009154 0.013230 -0.002663 0.000000 0.000000 0.000000
# 3 -0.002305 -0.002663 0.013115 0.000000 0.000000 0.000000
# 4 0.000000 0.000000 0.000000 0.053590 0.000000 0.000000
# 5 0.000000 0.000000 0.000000 0.000000 0.073053 0.000000
# 6 0.000000 0.000000 0.000000 0.000000 0.000000 0.038214
#
#
# Mechanical properties :
#
#
# Convention : Reuss Voigt Hill
#
# Bulk Modulus (GPa) = 56.86380 62.25435 59.55907
# Shear Modulus (GPa) = 20.42564 23.14628 21.78596
#
# Velocity S-wave (km/s) = 3.18579 3.39133 3.29016
# Velocity P-wave (km/s) = 6.46431 6.80207 6.63534
#
# Compressibility (1/GPa) = 0.01758588
#
# Stress axis : x y z
#
# Youngs Moduli (GPa) = 51.32199 75.58837 76.25128
#
# Poissons Ratio (x) = 0.69190 0.17577
# Poissons Ratio (y) = 0.46978 0.20304
# Poissons Ratio (z) = 0.11830 0.20128
#
# Static dielectric constant tensor:
#      x y z
#    x 3.519360 0.000000 0.000000 
#    y 0.000000 3.834610 0.000000 
#    z 0.000000 0.000000 3.468560 
# 
# 
# High freq. dielectric constant tensor:
#      x y z
#    x 1.770510 0.000000 0.000000 
#    y 0.000000 1.771340 0.000000 
#    z 0.000000 0.000000 1.770390 
# 
# From -- ./inp_files/6088.got.cif
#   From: 2010.03.12/outbox.cif.g09.slc.cpg/sg47_4_cif.got.tgz:6088.got - 2010.04.14 03:12:58.
