data_PCOD8198894
_publ_section_title
;
Structure prediction by ZEFSAII (Michael W. Deem and Ramdas Pophale) SiO2 
 PCOD8198894
Probable space group: P M M M
;
_chemical_formula_sum "Si O2"
_cell_formula_units_Z 48
_cell_length_a 18.409921
_cell_length_b 15.392050
_cell_length_c 8.898550
_cell_angle_alpha 90.000000
_cell_angle_beta 90.000000
_cell_angle_gamma 90.000000
_cell_volume 2521.550297
_symmetry_space_group_name_H-M "P M M M"
_symmetry_group_IT_number 47
_symmetry_cell_setting 'orthorhombic'
loop_
_space_group_symop_operation_xyz
x,y,z
-x,-y,z
x,-y,-z
-x,y,-z
-x,-y,-z
x,y,-z
-x,y,z
x,-y,z
loop_
_atom_site_type_symbol
_atom_site_label
_atom_site_fract_x
_atom_site_fract_y
_atom_site_fract_z
Si Si1 0.918179 0.000000 0.678774
Si Si2 0.831245 0.655607 0.824480
Si Si3 0.585830 0.000000 0.172408
Si Si4 0.083724 0.500000 0.676966
Si Si5 0.336522 0.341118 0.176410
Si Si6 0.830157 0.165347 0.325215
Si Si7 0.337992 0.839347 0.325135
Si Si8 0.414105 0.500000 0.671440
O O1 0.877528 0.085684 0.738016
O O2 0.916225 0.000000 0.500000
O O3 0.000000 0.000000 0.741225
O O4 0.879358 0.585599 0.740786
O O5 0.747161 0.637749 0.786492
O O6 0.854185 0.750527 0.767699
O O7 0.846762 0.648740 0.000000
O O8 0.615712 0.914992 0.252343
O O9 0.500000 0.000000 0.187599
O O10 0.611181 0.000000 0.000000
O O11 0.093445 0.500000 0.500000
O O12 0.000000 0.500000 0.725550
O O13 0.360971 0.250725 0.249097
O O14 0.385657 0.415333 0.245488
O O15 0.350243 0.335595 0.000000
O O16 0.845271 0.183988 0.500000
O O17 0.746577 0.141030 0.297397
O O18 0.356658 0.833768 0.500000
O O19 0.500000 0.500000 0.680244
O O20 0.386415 0.500000 0.500000
#
# Coordination Sequence:
#
# PCOD8198894 Si02
#       8
#     4   8   4   4   8   8   8   4
#     4   9  17  30  51  79 110 143 178 218 262 309
#     4  10  21  37  58  84 111 141 180 227 277 326
#     4  11  24  39  55  79 112 147 182 226 282 339
#     4  11  24  39  56  80 110 147 188 227 272 328
#     4  10  21  38  60  85 112 144 183 226 276 333
#     4   9  18  34  56  82 110 142 183 226 267 316
#     4  10  20  36  59  83 108 142 185 231 274 322
#     4  11  24  39  56  82 114 147 184 225 270 322
#
# _framework density 19.035907000000002
#
# number of rings (size 3 to 8) (size 9 to 14) (size 15 to 20)
#    0.000    2.000    0.000    3.250    0.000    9.333 
#    0.000    2.083    0.000    0.500    0.000    0.000 
#    0.000    0.000    0.000    0.000    0.000    0.000 
#
# Total GULP energy -595426.143064 kJ/mol
# GULP energy per Si atom -12404.711314 kJ/mol
# Density = 1.899258 g / cm^3
# Si number density = 19.035907 Si / 1000 Ang^3
#
#
#
# Elastic Constant Matrix: (Units=GPa)
#
#
# Indices 1 2 3 4 5 6 
#
# 1 86.2811 80.0106 56.1270 0.0000 0.0000 0.0000
# 2 80.0106 168.8791 74.8587 0.0000 0.0000 0.0000
# 3 56.1270 74.8587 104.4248 0.0000 0.0000 0.0000
# 4 0.0000 0.0000 0.0000 163.2477 0.0000 0.0000
# 5 0.0000 0.0000 0.0000 0.0000 25.9782 0.0000
# 6 0.0000 0.0000 0.0000 0.0000 0.0000 120.9605
#
#
#
# Elastic Compliance Matrix: (Units=1/GPa)
#
#
# Indices 1 2 3 4 5 6 
#
# 1 0.023595 -0.008145 -0.006843 0.000000 0.000000 0.000000
# 2 -0.008145 0.011491 -0.003860 0.000000 0.000000 0.000000
# 3 -0.006843 -0.003860 0.016021 0.000000 0.000000 0.000000
# 4 0.000000 0.000000 0.000000 0.006126 0.000000 0.000000
# 5 0.000000 0.000000 0.000000 0.000000 0.038494 0.000000
# 6 0.000000 0.000000 0.000000 0.000000 0.000000 0.008267
#
#
# Mechanical properties :
#
#
# Convention : Reuss Voigt Hill
#
# Bulk Modulus (GPa) = 74.56304 86.84198 80.70251
# Shear Modulus (GPa) = 34.20906 71.94319 53.07612
#
# Velocity S-wave (km/s) = 4.24380 6.15430 5.28608
# Velocity P-wave (km/s) = 7.95411 9.80917 8.92994
#
# Compressibility (1/GPa) = 0.01341147
#
# Stress axis : x y z
#
# Youngs Moduli (GPa) = 42.38228 87.02166 62.41791
#
# Poissons Ratio (x) = 0.70883 0.42711
# Poissons Ratio (y) = 0.34522 0.24092
# Poissons Ratio (z) = 0.29001 0.33588
#
# Static dielectric constant tensor:
#      x y z
#    x 3.486510 0.000000 0.000000 
#    y 0.000000 3.624240 0.000000 
#    z 0.000000 0.000000 3.555530 
# 
# 
# High freq. dielectric constant tensor:
#      x y z
#    x 1.735610 0.000000 0.000000 
#    y 0.000000 1.757090 0.000000 
#    z 0.000000 0.000000 1.744060 
# 
# From -- ./inp_files/9300.got.cif
#   From: 2010.03.12/outbox.cif.g09.slc.cpg/sg47_5_cif.got.tgz:9300.got - 2010.04.14 03:12:58.
