data_PCOD8198590
_publ_section_title
;
Structure prediction by ZEFSAII (Michael W. Deem and Ramdas Pophale) SiO2 
 PCOD8198590
Probable space group: P M M M
;
_chemical_formula_sum "Si O2"
_cell_formula_units_Z 60
_cell_length_a 12.989734
_cell_length_b 13.623624
_cell_length_c 19.344975
_cell_angle_alpha 90.000000
_cell_angle_beta 90.000000
_cell_angle_gamma 90.000000
_cell_volume 3423.427063
_symmetry_space_group_name_H-M "P M M M"
_symmetry_group_IT_number 47
_symmetry_cell_setting 'orthorhombic'
loop_
_space_group_symop_operation_xyz
x,y,z
-x,-y,z
x,-y,-z
-x,y,-z
-x,-y,-z
x,y,-z
-x,y,z
x,-y,z
loop_
_atom_site_type_symbol
_atom_site_label
_atom_site_fract_x
_atom_site_fract_y
_atom_site_fract_z
Si Si1 0.000000 0.389684 0.582239
Si Si2 0.120604 0.887816 0.334381
Si Si3 0.616691 0.262115 0.078199
Si Si4 0.791708 0.886615 0.079305
Si Si5 0.288203 0.613247 0.806419
Si Si6 0.796825 0.278202 0.418232
Si Si7 0.116122 0.771197 0.198213
Si Si8 0.382080 0.386791 0.659224
O O1 0.896405 0.338034 0.610211
O O2 0.000000 0.500000 0.610888
O O3 0.000000 0.386963 0.500000
O O4 0.187104 0.833248 0.393226
O O5 0.148908 0.842561 0.260301
O O6 0.000000 0.878148 0.351415
O O7 0.156394 0.000000 0.334390
O O8 0.500000 0.231467 0.092334
O O9 0.681604 0.163884 0.092913
O O10 0.648202 0.351695 0.127186
O O11 0.633602 0.299396 0.000000
O O12 0.874713 0.832381 0.127201
O O13 0.782220 0.000000 0.100137
O O14 0.827570 0.874701 0.000000
O O15 0.258784 0.500000 0.815948
O O16 0.183139 0.673314 0.799985
O O17 0.358565 0.630793 0.739564
O O18 0.788999 0.281653 0.500000
O O19 0.692036 0.321975 0.388153
O O20 0.000000 0.734979 0.206438
O O21 0.500000 0.355511 0.645037
O O22 0.364389 0.500000 0.639101
#
# Coordination Sequence:
#
# PCOD8198590 Si02
#       8
#     4   8   8   8   8   8   8   8
#     4   9  18  32  51  77 111 143 169 210 266 322
#     4  10  20  35  56  81 109 141 177 220 271 323
#     4   9  18  32  51  77 108 141 178 222 268 311
#     4   9  18  32  51  77 108 142 180 221 265 313
#     4  10  20  35  55  78 106 140 177 217 262 315
#     4  11  21  35  54  80 110 141 179 220 270 326
#     4  10  20  35  54  78 108 139 175 217 263 316
#     4  10  21  37  57  81 109 143 181 221 269 323
#
# _framework density 17.526298000000001
#
# number of rings (size 3 to 8) (size 9 to 14) (size 15 to 20)
#    0.000    2.200    2.000    1.200    0.000    4.000 
#    0.000    4.000    0.000    0.400    0.000    4.667 
#    0.000    0.000    0.000    0.000    0.000    0.000 
#
# Total GULP energy -744115.585703 kJ/mol
# GULP energy per Si atom -12401.926428 kJ/mol
# Density = 1.748641 g / cm^3
# Si number density = 17.526298 Si / 1000 Ang^3
#
#
#
# Elastic Constant Matrix: (Units=GPa)
#
#
# Indices 1 2 3 4 5 6 
#
# 1 87.4840 37.6415 33.8995 0.0000 0.0000 0.0000
# 2 37.6415 100.3352 35.3324 0.0000 0.0000 0.0000
# 3 33.8995 35.3324 66.7636 0.0000 0.0000 0.0000
# 4 0.0000 0.0000 0.0000 24.9778 0.0000 0.0000
# 5 0.0000 0.0000 0.0000 0.0000 24.1124 0.0000
# 6 0.0000 0.0000 0.0000 0.0000 0.0000 19.5545
#
#
#
# Elastic Compliance Matrix: (Units=1/GPa)
#
#
# Indices 1 2 3 4 5 6 
#
# 1 0.015263 -0.003683 -0.005801 0.000000 0.000000 0.000000
# 2 -0.003683 0.013138 -0.005083 0.000000 0.000000 0.000000
# 3 -0.005801 -0.005083 0.020613 0.000000 0.000000 0.000000
# 4 0.000000 0.000000 0.000000 0.040036 0.000000 0.000000
# 5 0.000000 0.000000 0.000000 0.000000 0.041472 0.000000
# 6 0.000000 0.000000 0.000000 0.000000 0.000000 0.051139
#
#
# Mechanical properties :
#
#
# Convention : Reuss Voigt Hill
#
# Bulk Modulus (GPa) = 50.29851 52.03663 51.16757
# Shear Modulus (GPa) = 22.99666 23.57622 23.28644
#
# Velocity S-wave (km/s) = 3.62625 3.67166 3.64903
# Velocity P-wave (km/s) = 6.80398 6.90868 6.85653
#
# Compressibility (1/GPa) = 0.01988131
#
# Stress axis : x y z
#
# Youngs Moduli (GPa) = 65.51687 76.11319 48.51213
#
# Poissons Ratio (x) = 0.28036 0.28140
# Poissons Ratio (y) = 0.24133 0.24657
# Poissons Ratio (z) = 0.38004 0.38686
#
# Static dielectric constant tensor:
#      x y z
#    x 3.216290 0.000000 0.000000 
#    y 0.000000 3.243640 0.000000 
#    z 0.000000 0.000000 3.301590 
# 
# 
# High freq. dielectric constant tensor:
#      x y z
#    x 1.671000 0.000000 0.000000 
#    y 0.000000 1.673940 0.000000 
#    z 0.000000 0.000000 1.682400 
# 
# From -- ./inp_files/16601.got.cif
#   From: 2010.03.12/outbox.cif.g09.slc.cpg/sg47_9_cif.got.tgz:16601.got - 2010.04.14 03:12:58.
