data_PCOD8198259
_publ_section_title
;
Structure prediction by ZEFSAII (Michael W. Deem and Ramdas Pophale) SiO2 
 PCOD8198259
Probable space group: P M M M
;
_chemical_formula_sum "Si O2"
_cell_formula_units_Z 48
_cell_length_a 9.166895
_cell_length_b 8.009143
_cell_length_c 32.642212
_cell_angle_alpha 90.000000
_cell_angle_beta 90.000000
_cell_angle_gamma 90.000000
_cell_volume 2396.557679
_symmetry_space_group_name_H-M "P M M M"
_symmetry_group_IT_number 47
_symmetry_cell_setting 'orthorhombic'
loop_
_space_group_symop_operation_xyz
x,y,z
-x,-y,z
x,-y,-z
-x,y,-z
-x,-y,-z
x,y,-z
-x,y,z
x,-y,z
loop_
_atom_site_type_symbol
_atom_site_label
_atom_site_fract_x
_atom_site_fract_y
_atom_site_fract_z
Si Si1 0.834917 0.801082 0.500000
Si Si2 0.826375 0.185554 0.097508
Si Si3 0.334319 0.198017 0.579498
Si Si4 0.164065 0.805760 0.189688
Si Si5 0.825944 0.500000 0.953590
Si Si6 0.339327 0.693174 0.265212
Si Si7 0.838008 0.695989 0.341063
O O1 0.751497 0.732564 0.539967
O O2 0.000000 0.731529 0.500000
O O3 0.835215 0.000000 0.500000
O O4 0.776086 0.225801 0.143800
O O5 0.764888 0.331681 0.068102
O O6 0.000000 0.182214 0.096250
O O7 0.769194 0.000000 0.084078
O O8 0.500000 0.264635 0.578013
O O9 0.257313 0.266403 0.619519
O O10 0.331259 0.000000 0.580009
O O11 0.268219 0.711175 0.220788
O O12 0.000000 0.734417 0.194062
O O13 0.165507 0.000000 0.200188
O O14 0.000000 0.500000 0.951867
O O15 0.768462 0.500000 0.000000
O O16 0.500000 0.777670 0.265393
O O17 0.356898 0.500000 0.275232
O O18 0.240157 0.775479 0.300945
O O19 0.853501 0.500000 0.335321
O O20 0.000000 0.775625 0.345345
#
# Coordination Sequence:
#
# PCOD8198259 Si02
#       7
#     4   8   8   8   4   8   8
#     4   9  17  31  52  77 104 133 168 212 258 305
#     4   8  15  27  41  62  94 129 168 215 262 311
#     4  10  20  34  54  79 105 134 168 208 257 309
#     4   9  18  32  50  72  97 129 170 211 253 303
#     4   9  16  24  38  64  95 133 177 213 259 320
#     4  10  21  35  51  73 100 130 165 205 252 305
#     4  10  21  37  55  75 101 135 173 210 252 304
#
# _framework density 20.028728000000001
#
# number of rings (size 3 to 8) (size 9 to 14) (size 15 to 20)
#    0.000    2.667    0.000    2.750    1.167    5.333 
#    0.000    2.083    0.000    2.500    0.000    0.000 
#    0.000    1.333    0.000    3.667    0.000    3.667 
#
# Total GULP energy -595049.506172 kJ/mol
# GULP energy per Si atom -12396.864712 kJ/mol
# Density = 1.998314 g / cm^3
# Si number density = 20.028728 Si / 1000 Ang^3
#
#
#
# Elastic Constant Matrix: (Units=GPa)
#
#
# Indices 1 2 3 4 5 6 
#
# 1 127.7245 24.8024 63.1659 0.0000 0.0000 0.0000
# 2 24.8024 54.3721 47.5708 0.0000 0.0000 0.0000
# 3 63.1659 47.5708 165.3593 0.0000 0.0000 0.0000
# 4 0.0000 0.0000 0.0000 33.2631 0.0000 0.0000
# 5 0.0000 0.0000 0.0000 0.0000 -15.1093 0.0000
# 6 0.0000 0.0000 0.0000 0.0000 0.0000 15.5708
#
#
#
# Elastic Compliance Matrix: (Units=1/GPa)
#
#
# Indices 1 2 3 4 5 6 
#
# 1 0.009755 -0.001590 -0.003269 0.000000 0.000000 0.000000
# 2 -0.001590 0.024837 -0.006538 0.000000 0.000000 0.000000
# 3 -0.003269 -0.006538 0.009177 0.000000 0.000000 0.000000
# 4 0.000000 0.000000 0.000000 0.030063 0.000000 0.000000
# 5 0.000000 0.000000 0.000000 0.000000 -0.066184 0.000000
# 6 0.000000 0.000000 0.000000 0.000000 0.000000 0.064223
#
#
# Mechanical properties :
#
#
# Convention : Reuss Voigt Hill
#
# Bulk Modulus (GPa) = 47.67425 68.72601 58.20013
# Shear Modulus (GPa) = 49.18578 20.87270 35.02924
#
# Velocity S-wave (km/s) = 4.96094 3.23172 4.18658
# Velocity P-wave (km/s) = 7.52789 6.95080 7.24509
#
# Compressibility (1/GPa) = 0.02097569
#
# Stress axis : x y z
#
# Youngs Moduli (GPa) = 102.51508 40.26245 108.96865
#
# Poissons Ratio (x) = 0.06401 0.35620
# Poissons Ratio (y) = 0.16297 0.71243
# Poissons Ratio (z) = 0.33511 0.26323
#
# Static dielectric constant tensor:
#      x y z
#    x 3.707640 0.000000 0.000000 
#    y 0.000000 3.508400 0.000000 
#    z 0.000000 0.000000 3.764610 
# 
# 
# High freq. dielectric constant tensor:
#      x y z
#    x 1.758030 0.000000 0.000000 
#    y 0.000000 1.762830 0.000000 
#    z 0.000000 0.000000 1.787840 
# 
# From -- ./inp_files/34151.got.cif
#   From: 2010.03.12/outbox.cif.g09.slc.cpg/sg47_18_cif.got.tgz:34151.got - 2010.04.14 03:12:58.
