data_PCOD8198610
_publ_section_title
;
Structure prediction by ZEFSAII (Michael W. Deem and Ramdas Pophale) SiO2 
 PCOD8198610
Probable space group: P M M M
;
_chemical_formula_sum "Si O2"
_cell_formula_units_Z 44
_cell_length_a 14.149316
_cell_length_b 8.836423
_cell_length_c 18.110780
_cell_angle_alpha 90.000000
_cell_angle_beta 90.000000
_cell_angle_gamma 90.000000
_cell_volume 2264.378894
_symmetry_space_group_name_H-M "P M M M"
_symmetry_group_IT_number 47
_symmetry_cell_setting 'orthorhombic'
loop_
_space_group_symop_operation_xyz
x,y,z
-x,-y,z
x,-y,-z
-x,y,-z
-x,-y,-z
x,y,-z
-x,y,z
x,-y,z
loop_
_atom_site_type_symbol
_atom_site_label
_atom_site_fract_x
_atom_site_fract_y
_atom_site_fract_z
Si Si1 0.607445 0.180757 0.237093
Si Si2 0.110253 0.172572 0.584232
Si Si3 0.887700 0.326178 0.000000
Si Si4 0.785064 0.676859 0.286925
Si Si5 0.387777 0.831016 0.922471
Si Si6 0.109257 0.821900 0.149718
O O1 0.500000 0.230106 0.254811
O O2 0.677423 0.262178 0.294059
O O3 0.642151 0.242699 0.155628
O O4 0.616634 0.000000 0.241090
O O5 0.140626 0.202807 0.500000
O O6 0.166160 0.288195 0.635431
O O7 0.000000 0.203672 0.594616
O O8 0.133972 0.000000 0.606728
O O9 0.846684 0.247646 0.074194
O O10 0.856904 0.500000 0.000000
O O11 0.000000 0.305086 0.000000
O O12 0.786782 0.500000 0.271855
O O13 0.837931 0.760720 0.220952
O O14 0.500000 0.840844 0.920101
O O15 0.345963 0.000000 0.924888
O O16 0.355974 0.747152 0.000000
O O17 0.000000 0.774976 0.157483
O O18 0.122496 0.000000 0.145817
#
# Coordination Sequence:
#
# PCOD8198610 Si02
#       6
#     8   8   4   8   8   8
#     4   9  18  34  55  76 102 141 189 238 284 331
#     4   9  19  38  64  91 117 144 175 217 270 329
#     4   9  17  31  51  75 106 141 178 227 287 339
#     4  12  24  35  52  81 116 151 183 223 277 332
#     4   7  10  20  42  70  94 118 159 220 281 325
#     4  10  20  35  55  77 104 143 191 235 272 321
#
# _framework density 19.431377000000001
#
# number of rings (size 3 to 8) (size 9 to 14) (size 15 to 20)
#    0.000    2.636    0.000    5.182    0.000    5.455 
#    1.636    0.909    0.000    0.545    0.000    6.364 
#    0.000    0.000    0.000    0.000    0.000    0.000 
#
# Total GULP energy -545259.194489 kJ/mol
# GULP energy per Si atom -12392.254420 kJ/mol
# Density = 1.938715 g / cm^3
# Si number density = 19.431377 Si / 1000 Ang^3
#
#
#
# Elastic Constant Matrix: (Units=GPa)
#
#
# Indices 1 2 3 4 5 6 
#
# 1 61.3187 29.5304 44.1779 0.0000 0.0000 0.0000
# 2 29.5304 60.3920 28.4788 0.0000 0.0000 0.0000
# 3 44.1779 28.4788 96.5439 0.0000 0.0000 0.0000
# 4 0.0000 0.0000 0.0000 26.0987 0.0000 0.0000
# 5 0.0000 0.0000 0.0000 0.0000 24.0765 0.0000
# 6 0.0000 0.0000 0.0000 0.0000 0.0000 13.4766
#
#
#
# Elastic Compliance Matrix: (Units=1/GPa)
#
#
# Indices 1 2 3 4 5 6 
#
# 1 0.027880 -0.008847 -0.010148 0.000000 0.000000 0.000000
# 2 -0.008847 0.022042 -0.002453 0.000000 0.000000 0.000000
# 3 -0.010148 -0.002453 0.015725 0.000000 0.000000 0.000000
# 4 0.000000 0.000000 0.000000 0.038316 0.000000 0.000000
# 5 0.000000 0.000000 0.000000 0.000000 0.041534 0.000000
# 6 0.000000 0.000000 0.000000 0.000000 0.000000 0.074202
#
#
# Mechanical properties :
#
#
# Convention : Reuss Voigt Hill
#
# Bulk Modulus (GPa) = 43.95672 46.95876 45.45774
# Shear Modulus (GPa) = 18.50610 20.46819 19.48714
#
# Velocity S-wave (km/s) = 3.08942 3.24907 3.17025
# Velocity P-wave (km/s) = 5.94951 6.18823 6.07004
#
# Compressibility (1/GPa) = 0.02274965
#
# Stress axis : x y z
#
# Youngs Moduli (GPa) = 35.86753 45.36869 63.59156
#
# Poissons Ratio (x) = 0.40140 0.64533
# Poissons Ratio (y) = 0.31734 0.15601
# Poissons Ratio (z) = 0.36398 0.11131
#
# Static dielectric constant tensor:
#      x y z
#    x 3.529650 0.000000 0.000000 
#    y 0.000000 3.237320 0.000000 
#    z 0.000000 0.000000 3.787120 
# 
# 
# High freq. dielectric constant tensor:
#      x y z
#    x 1.752350 0.000000 0.000000 
#    y 0.000000 1.727390 0.000000 
#    z 0.000000 0.000000 1.749800 
# 
# From -- ./inp_files/27892.got.cif
#   From: 2010.03.12/outbox.cif.g09.slc.cpg/sg47_14_cif.got.tgz:27892.got - 2010.04.14 03:12:58.
