data_PCOD8198977
_publ_section_title
;
Structure prediction by ZEFSAII (Michael W. Deem and Ramdas Pophale) SiO2 
 PCOD8198977
Probable space group: P M M M
;
_chemical_formula_sum "Si O2"
_cell_formula_units_Z 48
_cell_length_a 29.215434
_cell_length_b 9.960824
_cell_length_c 8.963068
_cell_angle_alpha 90.000000
_cell_angle_beta 90.000000
_cell_angle_gamma 90.000000
_cell_volume 2608.340592
_symmetry_space_group_name_H-M "P M M M"
_symmetry_group_IT_number 47
_symmetry_cell_setting 'orthorhombic'
loop_
_space_group_symop_operation_xyz
x,y,z
-x,-y,z
x,-y,-z
-x,y,-z
-x,-y,-z
x,y,-z
-x,y,z
x,-y,z
loop_
_atom_site_type_symbol
_atom_site_label
_atom_site_fract_x
_atom_site_fract_y
_atom_site_fract_z
Si Si1 0.447493 0.500000 0.176347
Si Si2 0.871282 0.346351 0.673320
Si Si3 0.396737 0.742560 0.325167
Si Si4 0.223988 0.347538 0.823735
Si Si5 0.050764 0.849526 0.322794
Si Si6 0.449575 0.000000 0.677233
Si Si7 0.703187 0.155907 0.325342
O O1 0.500000 0.500000 0.238948
O O2 0.418205 0.624164 0.231812
O O3 0.448949 0.500000 0.000000
O O4 0.861761 0.315258 0.500000
O O5 0.886085 0.500000 0.697113
O O6 0.825946 0.310752 0.763914
O O7 0.912012 0.254869 0.739992
O O8 0.404574 0.715524 0.500000
O O9 0.343657 0.766139 0.289260
O O10 0.423192 0.871364 0.264877
O O11 0.237490 0.500000 0.773730
O O12 0.258097 0.236849 0.760382
O O13 0.223814 0.336258 0.000000
O O14 0.050175 0.841703 0.500000
O O15 0.000000 0.812132 0.262342
O O16 0.063970 0.000000 0.270834
O O17 0.500000 0.000000 0.746927
O O18 0.450853 0.000000 0.500000
O O19 0.713784 0.160546 0.500000
O O20 0.700978 0.000000 0.272441
#
# Coordination Sequence:
#
# PCOD8198977 Si02
#       7
#     4   8   8   8   8   4   8
#     4  11  25  41  55  79 117 153 183 217 258 309
#     4   9  17  30  49  74 102 133 173 220 267 312
#     4  10  20  37  60  86 110 138 178 222 267 315
#     4  10  22  38  55  77 107 144 183 221 267 322
#     4   8  14  25  43  70 103 135 168 211 264 318
#     4   9  16  30  57  87 111 135 169 217 266 311
#     4  10  21  38  59  84 111 136 172 222 273 323
#
# _framework density 18.402504
#
# number of rings (size 3 to 8) (size 9 to 14) (size 15 to 20)
#    0.000    2.500    0.833    1.750    1.167    4.333 
#    0.000    3.750    0.000    2.000    0.000    3.500 
#    0.000    0.000    0.000    0.000    0.000    0.000 
#
# Total GULP energy -595058.007224 kJ/mol
# GULP energy per Si atom -12397.041817 kJ/mol
# Density = 1.836062 g / cm^3
# Si number density = 18.402504 Si / 1000 Ang^3
#
#
#
# Elastic Constant Matrix: (Units=GPa)
#
#
# Indices 1 2 3 4 5 6 
#
# 1 147.5424 92.9765 47.3775 0.0000 0.0000 0.0000
# 2 92.9765 141.4033 46.7637 0.0000 0.0000 0.0000
# 3 47.3775 46.7637 40.2969 0.0000 0.0000 0.0000
# 4 0.0000 0.0000 0.0000 16.6712 0.0000 0.0000
# 5 0.0000 0.0000 0.0000 0.0000 9.6900 0.0000
# 6 0.0000 0.0000 0.0000 0.0000 0.0000 38.9303
#
#
#
# Elastic Compliance Matrix: (Units=1/GPa)
#
#
# Indices 1 2 3 4 5 6 
#
# 1 0.013285 -0.005793 -0.008897 0.000000 0.000000 0.000000
# 2 -0.005793 0.014003 -0.009439 0.000000 0.000000 0.000000
# 3 -0.008897 -0.009439 0.046229 0.000000 0.000000 0.000000
# 4 0.000000 0.000000 0.000000 0.059984 0.000000 0.000000
# 5 0.000000 0.000000 0.000000 0.000000 0.103199 0.000000
# 6 0.000000 0.000000 0.000000 0.000000 0.000000 0.025687
#
#
# Mechanical properties :
#
#
# Convention : Reuss Voigt Hill
#
# Bulk Modulus (GPa) = 39.58852 78.16421 58.87637
# Shear Modulus (GPa) = 15.67085 22.53329 19.10207
#
# Velocity S-wave (km/s) = 2.92132 3.50304 3.22532
# Velocity P-wave (km/s) = 5.73917 7.67650 6.77742
#
# Compressibility (1/GPa) = 0.02525985
#
# Stress axis : x y z
#
# Youngs Moduli (GPa) = 75.27181 71.41547 21.63141
#
# Poissons Ratio (x) = 0.41372 0.19245
# Poissons Ratio (y) = 0.43606 0.20417
# Poissons Ratio (z) = 0.66967 0.67407
#
# Static dielectric constant tensor:
#      x y z
#    x 3.628220 0.000000 0.000000 
#    y 0.000000 3.543900 0.000000 
#    z 0.000000 0.000000 3.042890 
# 
# 
# High freq. dielectric constant tensor:
#      x y z
#    x 1.725270 0.000000 0.000000 
#    y 0.000000 1.724330 0.000000 
#    z 0.000000 0.000000 1.679000 
# 
# From -- ./inp_files/2813.got.cif
#   From: 2010.03.12/outbox.cif.g09.slc.cpg/sg47_2_cif.got.tgz:2813.got - 2010.04.14 03:12:58.
