data_PCOD8198917
_publ_section_title
;
Structure prediction by ZEFSAII (Michael W. Deem and Ramdas Pophale) SiO2 
 PCOD8198917
Probable space group: P M M M
;
_chemical_formula_sum "Si O2"
_cell_formula_units_Z 64
_cell_length_a 25.215925
_cell_length_b 14.479295
_cell_length_c 9.255853
_cell_angle_alpha 90.000000
_cell_angle_beta 90.000000
_cell_angle_gamma 90.000000
_cell_volume 3379.393537
_symmetry_space_group_name_H-M "P M M M"
_symmetry_group_IT_number 47
_symmetry_cell_setting 'orthorhombic'
loop_
_space_group_symop_operation_xyz
x,y,z
-x,-y,z
x,-y,-z
-x,y,-z
-x,-y,-z
x,y,-z
-x,y,z
x,-y,z
loop_
_atom_site_type_symbol
_atom_site_label
_atom_site_fract_x
_atom_site_fract_y
_atom_site_fract_z
Si Si1 0.716711 0.900279 0.828995
Si Si2 0.752581 0.292675 0.171914
Si Si3 0.937789 0.722839 0.667420
Si Si4 0.353638 0.607721 0.830449
Si Si5 0.405091 0.895363 0.167560
Si Si6 0.439963 0.276014 0.334270
Si Si7 0.857131 0.392702 0.167832
Si Si8 0.062991 0.101510 0.838148
O O1 0.750882 0.813591 0.770661
O O2 0.655943 0.884146 0.785732
O O3 0.736663 0.000000 0.766437
O O4 0.720869 0.904090 0.000000
O O5 0.701014 0.347607 0.227578
O O6 0.805932 0.339556 0.231489
O O7 0.753071 0.297020 0.000000
O O8 0.924014 0.721466 0.500000
O O9 0.909035 0.638124 0.745280
O O10 0.915706 0.819658 0.731314
O O11 0.000000 0.711102 0.696811
O O12 0.351906 0.500000 0.794562
O O13 0.402959 0.652515 0.749315
O O14 0.360801 0.626773 0.000000
O O15 0.438635 0.825892 0.264764
O O16 0.424605 0.000000 0.195725
O O17 0.412648 0.869152 0.000000
O O18 0.421470 0.269560 0.500000
O O19 0.500000 0.313056 0.322960
O O20 0.847451 0.500000 0.194081
O O21 0.866437 0.370329 0.000000
O O22 0.000000 0.101152 0.837437
O O23 0.083537 0.000000 0.788238
O O24 0.083849 0.122654 0.000000
#
# Coordination Sequence:
#
# PCOD8198917 Si02
#       8
#     8   8   8   8   8   8   8   8
#     4   8  13  24  49  83 111 134 164 207 260 315
#     4   9  16  31  56  83 110 136 168 218 274 326
#     4  10  21  36  54  77 108 148 188 224 268 322
#     4  10  20  36  60  84 103 132 179 231 279 326
#     4   9  17  32  56  83 108 138 180 226 268 314
#     4  11  24  38  51  73 110 151 185 221 270 328
#     4  10  21  36  55  80 108 140 180 227 279 329
#     4   8  14  27  50  79 108 138 175 219 263 309
#
# _framework density 18.938310999999999
#
# number of rings (size 3 to 8) (size 9 to 14) (size 15 to 20)
#    0.000    2.625    1.250    2.250    0.000    5.000 
#    0.000    6.250    0.000    3.750    0.000    0.000 
#    0.000    0.000    0.000    0.000    0.000    0.000 
#
# Total GULP energy -793393.546124 kJ/mol
# GULP energy per Si atom -12396.774158 kJ/mol
# Density = 1.889521 g / cm^3
# Si number density = 18.938311 Si / 1000 Ang^3
#
#
#
# Elastic Constant Matrix: (Units=GPa)
#
#
# Indices 1 2 3 4 5 6 
#
# 1 77.7901 58.9776 41.3187 0.0000 0.0000 0.0000
# 2 58.9776 137.4465 50.6472 0.0000 0.0000 0.0000
# 3 41.3187 50.6472 65.5760 0.0000 0.0000 0.0000
# 4 0.0000 0.0000 0.0000 15.2448 0.0000 0.0000
# 5 0.0000 0.0000 0.0000 0.0000 11.8255 0.0000
# 6 0.0000 0.0000 0.0000 0.0000 0.0000 25.4077
#
#
#
# Elastic Compliance Matrix: (Units=1/GPa)
#
#
# Indices 1 2 3 4 5 6 
#
# 1 0.022570 -0.006213 -0.009423 0.000000 0.000000 0.000000
# 2 -0.006213 0.011880 -0.005261 0.000000 0.000000 0.000000
# 3 -0.009423 -0.005261 0.025250 0.000000 0.000000 0.000000
# 4 0.000000 0.000000 0.000000 0.065596 0.000000 0.000000
# 5 0.000000 0.000000 0.000000 0.000000 0.084563 0.000000
# 6 0.000000 0.000000 0.000000 0.000000 0.000000 0.039358
#
#
# Mechanical properties :
#
#
# Convention : Reuss Voigt Hill
#
# Bulk Modulus (GPa) = 55.84333 64.74439 60.29386
# Shear Modulus (GPa) = 16.83613 19.15353 17.99483
#
# Velocity S-wave (km/s) = 2.98484 3.18365 3.08585
# Velocity P-wave (km/s) = 6.43662 6.91197 6.67852
#
# Compressibility (1/GPa) = 0.01790724
#
# Stress axis : x y z
#
# Youngs Moduli (GPa) = 44.30579 84.17581 39.60372
#
# Poissons Ratio (x) = 0.52295 0.37319
# Poissons Ratio (y) = 0.27525 0.20835
# Poissons Ratio (z) = 0.41750 0.44284
#
# Static dielectric constant tensor:
#      x y z
#    x 3.319990 0.000000 0.000000 
#    y 0.000000 3.845110 0.000000 
#    z 0.000000 0.000000 3.154310 
# 
# 
# High freq. dielectric constant tensor:
#      x y z
#    x 1.720030 0.000000 0.000000 
#    y 0.000000 1.752230 0.000000 
#    z 0.000000 0.000000 1.697250 
# 
# From -- ./inp_files/12723.got.cif
#   From: 2010.03.12/outbox.cif.g09.slc.cpg/sg47_7_cif.got.tgz:12723.got - 2010.04.14 03:12:58.
