data_PCOD8198146
_publ_section_title
;
Structure prediction by ZEFSAII (Michael W. Deem and Ramdas Pophale) SiO2 
 PCOD8198146
Probable space group: P M M M
;
_chemical_formula_sum "Si O2"
_cell_formula_units_Z 52
_cell_length_a 10.228986
_cell_length_b 9.192349
_cell_length_c 30.681999
_cell_angle_alpha 90.000000
_cell_angle_beta 90.000000
_cell_angle_gamma 90.000000
_cell_volume 2884.979558
_symmetry_space_group_name_H-M "P M M M"
_symmetry_group_IT_number 47
_symmetry_cell_setting 'orthorhombic'
loop_
_space_group_symop_operation_xyz
x,y,z
-x,-y,z
x,-y,-z
-x,y,-z
-x,-y,-z
x,y,-z
-x,y,z
x,-y,z
loop_
_atom_site_type_symbol
_atom_site_label
_atom_site_fract_x
_atom_site_fract_y
_atom_site_fract_z
Si Si1 0.345783 0.671100 0.289694
Si Si2 0.256976 0.328278 0.550357
Si Si3 0.155249 0.662294 0.047444
Si Si4 0.846349 0.840975 0.127186
Si Si5 0.353368 0.840258 0.626663
Si Si6 0.849458 0.172696 0.775241
Si Si7 0.000000 0.837343 0.551394
O O1 0.500000 0.701512 0.280763
O O2 0.319416 0.500000 0.292893
O O3 0.292632 0.743540 0.334613
O O4 0.256184 0.739689 0.252456
O O5 0.289362 0.292850 0.500000
O O6 0.252720 0.500000 0.558022
O O7 0.360716 0.250464 0.581411
O O8 0.122775 0.256218 0.566733
O O9 0.211490 0.500000 0.049935
O O10 0.218355 0.748015 0.088172
O O11 0.000000 0.659157 0.052041
O O12 0.193168 0.730771 0.000000
O O13 0.821203 0.775571 0.175191
O O14 0.000000 0.853495 0.119450
O O15 0.782009 0.000000 0.124448
O O16 0.500000 0.870789 0.640502
O O17 0.283621 0.000000 0.621689
O O18 0.000000 0.211087 0.762291
O O19 0.827584 0.000000 0.770046
O O20 0.000000 0.850953 0.500000
O O21 0.000000 0.000000 0.571979
#
# Coordination Sequence:
#
# PCOD8198146 Si02
#       7
#     8   8   8   8   8   8   4
#     4  10  21  37  56  77 102 132 167 208 254 305
#     4  10  20  34  53  77 105 134 163 198 240 285
#     4   8  13  20  30  48  78 117 159 198 236 284
#     4   8  14  24  38  58  86 120 156 197 244 289
#     4  10  21  37  56  76  99 129 164 201 242 289
#     4   9  18  33  52  75 103 132 166 209 254 302
#     4   9  17  31  51  73  99 131 165 199 235 277
#
# _framework density 18.02439
#
# number of rings (size 3 to 8) (size 9 to 14) (size 15 to 20)
#    0.000    2.846    0.000    3.000    0.000    5.231 
#    1.385    4.615    0.000    0.000    0.000    0.000 
#    0.000    0.615    0.000    6.769    0.000   11.077 
#
# Total GULP energy -644202.753781 kJ/mol
# GULP energy per Si atom -12388.514496 kJ/mol
# Density = 1.798337 g / cm^3
# Si number density = 18.024390 Si / 1000 Ang^3
#
#
#
# Elastic Constant Matrix: (Units=GPa)
#
#
# Indices 1 2 3 4 5 6 
#
# 1 41.2538 32.5485 35.1050 0.0000 0.0000 0.0000
# 2 32.5485 121.5487 79.1988 0.0000 0.0000 0.0000
# 3 35.1050 79.1988 142.1829 0.0000 0.0000 0.0000
# 4 0.0000 0.0000 0.0000 35.7924 0.0000 0.0000
# 5 0.0000 0.0000 0.0000 0.0000 8.5210 0.0000
# 6 0.0000 0.0000 0.0000 0.0000 0.0000 22.8503
#
#
#
# Elastic Compliance Matrix: (Units=1/GPa)
#
#
# Indices 1 2 3 4 5 6 
#
# 1 0.032888 -0.005519 -0.005046 0.000000 0.000000 0.000000
# 2 -0.005519 0.013841 -0.006347 0.000000 0.000000 0.000000
# 3 -0.005046 -0.006347 0.011814 0.000000 0.000000 0.000000
# 4 0.000000 0.000000 0.000000 0.027939 0.000000 0.000000
# 5 0.000000 0.000000 0.000000 0.000000 0.117357 0.000000
# 6 0.000000 0.000000 0.000000 0.000000 0.000000 0.043763
#
#
# Mechanical properties :
#
#
# Convention : Reuss Voigt Hill
#
# Bulk Modulus (GPa) = 40.45358 66.52113 53.48735
# Shear Modulus (GPa) = 17.26129 23.97495 20.61812
#
# Velocity S-wave (km/s) = 3.09797 3.65106 3.38583
# Velocity P-wave (km/s) = 5.94046 7.40000 6.71003
#
# Compressibility (1/GPa) = 0.02471969
#
# Stress axis : x y z
#
# Youngs Moduli (GPa) = 30.40580 72.25166 84.64300
#
# Poissons Ratio (x) = 0.39876 0.42710
# Poissons Ratio (y) = 0.16781 0.53721
# Poissons Ratio (z) = 0.15343 0.45857
#
# Static dielectric constant tensor:
#      x y z
#    x 2.953570 0.000000 0.000000 
#    y 0.000000 3.624240 0.000000 
#    z 0.000000 0.000000 3.466000 
# 
# 
# High freq. dielectric constant tensor:
#      x y z
#    x 1.644940 0.000000 0.000000 
#    y 0.000000 1.706040 0.000000 
#    z 0.000000 0.000000 1.702970 
# 
# From -- ./inp_files/33601.got.cif
#   From: 2010.03.12/outbox.cif.g09.slc.cpg/sg47_17_cif.got.tgz:33601.got - 2010.04.14 03:12:58.
