data_PCOD8198540
_publ_section_title
;
Structure prediction by ZEFSAII (Michael W. Deem and Ramdas Pophale) SiO2 
 PCOD8198540
Probable space group: P M M M
;
_chemical_formula_sum "Si O2"
_cell_formula_units_Z 64
_cell_length_a 9.273779
_cell_length_b 14.401502
_cell_length_c 23.904238
_cell_angle_alpha 90.000000
_cell_angle_beta 90.000000
_cell_angle_gamma 90.000000
_cell_volume 3192.562701
_symmetry_space_group_name_H-M "P M M M"
_symmetry_group_IT_number 47
_symmetry_cell_setting 'orthorhombic'
loop_
_space_group_symop_operation_xyz
x,y,z
-x,-y,z
x,-y,-z
-x,y,-z
-x,-y,-z
x,y,-z
-x,y,z
x,-y,z
loop_
_atom_site_type_symbol
_atom_site_label
_atom_site_fract_x
_atom_site_fract_y
_atom_site_fract_z
Si Si1 0.332574 0.238088 0.565273
Si Si2 0.170000 0.108412 0.359183
Si Si3 0.832435 0.106977 0.839043
Si Si4 0.830429 0.231482 0.938105
Si Si5 0.341006 0.197320 0.741736
Si Si6 0.840160 0.395878 0.623873
Si Si7 0.739004 0.397146 0.744840
Si Si8 0.834566 0.400061 0.867786
O O1 0.307378 0.252693 0.500000
O O2 0.500000 0.222906 0.580058
O O3 0.242684 0.147584 0.584397
O O4 0.278918 0.329053 0.597619
O O5 0.238762 0.163371 0.307833
O O6 0.000000 0.127904 0.360302
O O7 0.203958 0.000000 0.353624
O O8 0.799814 0.138219 0.902691
O O9 0.732560 0.167474 0.799213
O O10 0.000000 0.124659 0.823703
O O11 0.791347 0.000000 0.832504
O O12 0.760362 0.318977 0.904606
O O13 0.000000 0.246301 0.943895
O O14 0.760581 0.222603 0.000000
O O15 0.500000 0.152055 0.736433
O O16 0.366769 0.308804 0.740214
O O17 0.804059 0.500000 0.603196
O O18 0.842837 0.392616 0.691200
O O19 0.000000 0.366087 0.603546
O O20 0.661641 0.500000 0.745951
O O21 0.828561 0.381634 0.801505
O O22 0.761684 0.500000 0.882269
O O23 0.000000 0.403474 0.884946
#
# Coordination Sequence:
#
# PCOD8198540 Si02
#       8
#     8   8   8   8   8   8   8   8
#     4  11  25  43  63  90 124 163 204 247 298 352
#     4  11  25  44  67  93 120 154 197 246 299 355
#     4  10  21  37  57  81 112 152 196 243 296 352
#     4   9  17  29  48  77 111 147 191 243 295 347
#     4  12  24  38  61  91 122 155 189 235 295 357
#     4  10  21  37  61  92 123 159 204 252 299 351
#     4  10  20  34  56  87 120 153 191 235 290 354
#     4   9  16  27  47  77 113 150 186 232 291 350
#
# _framework density 20.046590999999999
#
# number of rings (size 3 to 8) (size 9 to 14) (size 15 to 20)
#    0.000    1.750    2.500    1.875    0.000    7.750 
#    0.000    6.250    0.000    0.375    0.000    0.875 
#    0.000    2.000    0.000    0.000    0.000    0.000 
#
# Total GULP energy -793160.856659 kJ/mol
# GULP energy per Si atom -12393.138385 kJ/mol
# Density = 2.000096 g / cm^3
# Si number density = 20.046591 Si / 1000 Ang^3
#
#
#
# Elastic Constant Matrix: (Units=GPa)
#
#
# Indices 1 2 3 4 5 6 
#
# 1 86.4663 47.6036 40.5149 0.0000 0.0000 0.0000
# 2 47.6036 142.3587 49.7397 0.0000 0.0000 0.0000
# 3 40.5149 49.7397 119.1376 0.0000 0.0000 0.0000
# 4 0.0000 0.0000 0.0000 21.2716 0.0000 0.0000
# 5 0.0000 0.0000 0.0000 0.0000 0.7386 0.0000
# 6 0.0000 0.0000 0.0000 0.0000 0.0000 13.8057
#
#
#
# Elastic Compliance Matrix: (Units=1/GPa)
#
#
# Indices 1 2 3 4 5 6 
#
# 1 0.015398 -0.003886 -0.003614 0.000000 0.000000 0.000000
# 2 -0.003886 0.009205 -0.002521 0.000000 0.000000 0.000000
# 3 -0.003614 -0.002521 0.010675 0.000000 0.000000 0.000000
# 4 0.000000 0.000000 0.000000 0.047011 0.000000 0.000000
# 5 0.000000 0.000000 0.000000 0.000000 1.353938 0.000000
# 6 0.000000 0.000000 0.000000 0.000000 0.000000 0.072434
#
#
# Mechanical properties :
#
#
# Convention : Reuss Voigt Hill
#
# Bulk Modulus (GPa) = 65.63767 69.29766 67.46766
# Shear Modulus (GPa) = 3.25991 21.17013 12.21502
#
# Velocity S-wave (km/s) = 1.27660 3.25321 2.47114
# Velocity P-wave (km/s) = 5.91494 6.98244 6.47075
#
# Compressibility (1/GPa) = 0.01523515
#
# Stress axis : x y z
#
# Youngs Moduli (GPa) = 64.94296 108.63592 93.67393
#
# Poissons Ratio (x) = 0.42220 0.33853
# Poissons Ratio (y) = 0.25239 0.23620
# Poissons Ratio (z) = 0.23470 0.27392
#
# Static dielectric constant tensor:
#      x y z
#    x 3.293650 0.000000 0.000000 
#    y 0.000000 3.993930 0.000000 
#    z 0.000000 0.000000 3.773240 
# 
# 
# High freq. dielectric constant tensor:
#      x y z
#    x 1.745400 0.000000 0.000000 
#    y 0.000000 1.799210 0.000000 
#    z 0.000000 0.000000 1.780180 
# 
# From -- ./inp_files/32138.got.cif
#   From: 2010.03.12/outbox.cif.g09.slc.cpg/sg47_17_cif.got.tgz:32138.got - 2010.04.14 03:12:58.
