data_PCOD8198091
_publ_section_title
;
Structure prediction by ZEFSAII (Michael W. Deem and Ramdas Pophale) SiO2 
 PCOD8198091
Probable space group: P M M M
;
_chemical_formula_sum "Si O2"
_cell_formula_units_Z 40
_cell_length_a 9.160614
_cell_length_b 10.308525
_cell_length_c 22.751108
_cell_angle_alpha 90.000000
_cell_angle_beta 90.000000
_cell_angle_gamma 90.000000
_cell_volume 2148.442151
_symmetry_space_group_name_H-M "P M M M"
_symmetry_group_IT_number 47
_symmetry_cell_setting 'orthorhombic'
loop_
_space_group_symop_operation_xyz
x,y,z
-x,-y,z
x,-y,-z
-x,y,-z
-x,-y,-z
x,y,-z
-x,y,z
x,-y,z
loop_
_atom_site_type_symbol
_atom_site_label
_atom_site_fract_x
_atom_site_fract_y
_atom_site_fract_z
Si Si1 0.672302 0.244913 0.932361
Si Si2 0.671009 0.350540 0.616005
Si Si3 0.162969 0.653379 0.500000
Si Si4 0.840420 0.146174 0.170348
Si Si5 0.162977 0.500000 0.069403
Si Si6 0.329521 0.849194 0.717261
O O1 0.500000 0.251566 0.923721
O O2 0.745219 0.140930 0.889588
O O3 0.744446 0.377599 0.909655
O O4 0.711422 0.212360 0.000000
O O5 0.500000 0.341522 0.603392
O O6 0.713394 0.500000 0.632682
O O7 0.752604 0.300265 0.557946
O O8 0.719210 0.248994 0.666023
O O9 0.156558 0.500000 0.500000
O O10 0.000000 0.712818 0.500000
O O11 0.752050 0.206601 0.224901
O O12 0.000000 0.214209 0.161447
O O13 0.868616 0.000000 0.188320
O O14 0.000000 0.500000 0.096938
O O15 0.151321 0.500000 0.000000
O O16 0.500000 0.836487 0.730403
O O17 0.291065 0.000000 0.701735
#
# Coordination Sequence:
#
# PCOD8198091 Si02
#       6
#     8   8   4   8   4   8
#     4  10  20  34  53  76 101 131 168 210 257 310
#     4   9  17  31  52  77 103 132 169 211 253 298
#     4   9  17  29  48  75 106 138 168 203 250 300
#     4  10  21  36  53  73  99 133 171 211 259 313
#     4   9  17  31  51  73  99 129 159 196 247 304
#     4   9  18  34  54  73  98 135 174 212 258 311
#
# _framework density 18.618141999999999
#
# number of rings (size 3 to 8) (size 9 to 14) (size 15 to 20)
#    0.000    2.600    0.000    1.800    0.000    6.000 
#    1.800    2.500    0.000    3.000    0.000    0.000 
#    0.000    0.000    0.000    0.000    0.000    0.000 
#
# Total GULP energy -495718.771365 kJ/mol
# GULP energy per Si atom -12392.969284 kJ/mol
# Density = 1.857577 g / cm^3
# Si number density = 18.618142 Si / 1000 Ang^3
#
#
#
# Elastic Constant Matrix: (Units=GPa)
#
#
# Indices 1 2 3 4 5 6 
#
# 1 107.7949 30.2561 77.3924 0.0000 0.0000 0.0000
# 2 30.2561 57.9375 46.6568 0.0000 0.0000 0.0000
# 3 77.3924 46.6568 147.7040 0.0000 0.0000 0.0000
# 4 0.0000 0.0000 0.0000 29.3982 0.0000 0.0000
# 5 0.0000 0.0000 0.0000 0.0000 26.4240 0.0000
# 6 0.0000 0.0000 0.0000 0.0000 0.0000 20.0273
#
#
#
# Elastic Compliance Matrix: (Units=1/GPa)
#
#
# Indices 1 2 3 4 5 6 
#
# 1 0.015046 -0.002023 -0.007245 0.000000 0.000000 0.000000
# 2 -0.002023 0.023420 -0.006338 0.000000 0.000000 0.000000
# 3 -0.007245 -0.006338 0.012568 0.000000 0.000000 0.000000
# 4 0.000000 0.000000 0.000000 0.034016 0.000000 0.000000
# 5 0.000000 0.000000 0.000000 0.000000 0.037844 0.000000
# 6 0.000000 0.000000 0.000000 0.000000 0.000000 0.049932
#
#
# Mechanical properties :
#
#
# Convention : Reuss Voigt Hill
#
# Bulk Modulus (GPa) = 50.44588 69.11631 59.78110
# Shear Modulus (GPa) = 23.73648 25.77864 24.75756
#
# Velocity S-wave (km/s) = 3.57446 3.72506 3.65054
# Velocity P-wave (km/s) = 6.64752 7.46358 7.06734
#
# Compressibility (1/GPa) = 0.01982322
#
# Stress axis : x y z
#
# Youngs Moduli (GPa) = 66.46238 42.69764 79.56560
#
# Poissons Ratio (x) = 0.08639 0.57642
# Poissons Ratio (y) = 0.13448 0.50428
# Poissons Ratio (z) = 0.48149 0.27061
#
# Static dielectric constant tensor:
#      x y z
#    x 3.686650 0.000000 0.000000 
#    y 0.000000 3.338410 0.000000 
#    z 0.000000 0.000000 3.345950 
# 
# 
# High freq. dielectric constant tensor:
#      x y z
#    x 1.732850 0.000000 0.000000 
#    y 0.000000 1.699250 0.000000 
#    z 0.000000 0.000000 1.715300 
# 
# From -- ./inp_files/29337.got.cif
#   From: 2010.03.12/outbox.cif.g09.slc.cpg/sg47_15_cif.got.tgz:29337.got - 2010.04.14 03:12:58.
