data_PCOD8198445
_publ_section_title
;
Structure prediction by ZEFSAII (Michael W. Deem and Ramdas Pophale) SiO2 
 PCOD8198445
Probable space group: P M M M
;
_chemical_formula_sum "Si O2"
_cell_formula_units_Z 52
_cell_length_a 22.897707
_cell_length_b 8.719232
_cell_length_c 14.104384
_cell_angle_alpha 90.000000
_cell_angle_beta 90.000000
_cell_angle_gamma 90.000000
_cell_volume 2815.946184
_symmetry_space_group_name_H-M "P M M M"
_symmetry_group_IT_number 47
_symmetry_cell_setting 'orthorhombic'
loop_
_space_group_symop_operation_xyz
x,y,z
-x,-y,z
x,-y,-z
-x,y,-z
-x,-y,-z
x,y,-z
-x,y,z
x,-y,z
loop_
_atom_site_type_symbol
_atom_site_label
_atom_site_fract_x
_atom_site_fract_y
_atom_site_fract_z
Si Si1 0.778785 0.177299 0.610658
Si Si2 0.890011 0.676723 0.296783
Si Si3 0.566957 0.823539 0.609683
Si Si4 0.670425 0.322248 0.287281
Si Si5 0.165593 0.675902 0.894243
Si Si6 0.000000 0.820216 0.606006
Si Si7 0.287996 0.178379 0.107352
O O1 0.773133 0.210215 0.500000
O O2 0.830185 0.280898 0.651586
O O3 0.717814 0.220937 0.658060
O O4 0.792672 0.000000 0.631632
O O5 0.903907 0.500000 0.316270
O O6 0.884137 0.710037 0.183846
O O7 0.942854 0.774146 0.336788
O O8 0.579390 0.788489 0.500000
O O9 0.500000 0.787539 0.634809
O O10 0.606425 0.712876 0.672860
O O11 0.581800 0.000000 0.632391
O O12 0.685153 0.500000 0.300561
O O13 0.671058 0.277217 0.176400
O O14 0.187031 0.500000 0.884844
O O15 0.220296 0.784508 0.872579
O O16 0.140332 0.707621 0.000000
O O17 0.000000 0.746961 0.500000
O O18 0.000000 0.000000 0.595813
O O19 0.298166 0.000000 0.126926
O O20 0.304652 0.223322 0.000000
#
# Coordination Sequence:
#
# PCOD8198445 Si02
#       7
#     8   8   8   8   8   4   8
#     4  11  23  37  54  78 111 148 184 228 280 331
#     4  11  22  37  59  85 110 142 182 229 281 333
#     4   9  19  37  59  81 109 149 193 234 278 330
#     4  12  23  34  53  83 116 149 184 228 281 332
#     4   9  18  34  56  83 114 144 175 218 277 338
#     4  11  25  43  60  77 104 148 193 231 276 333
#     4  10  20  34  55  82 111 146 187 229 275 330
#
# _framework density 18.466260999999999
#
# number of rings (size 3 to 8) (size 9 to 14) (size 15 to 20)
#    0.000    1.615    1.538    4.385    0.000    7.692 
#    0.000    1.154    0.000    2.769    0.000    3.231 
#    0.000    0.000    0.000    0.000    0.000    0.000 
#
# Total GULP energy -644969.161333 kJ/mol
# GULP energy per Si atom -12403.253103 kJ/mol
# Density = 1.842423 g / cm^3
# Si number density = 18.466261 Si / 1000 Ang^3
#
#
#
# Elastic Constant Matrix: (Units=GPa)
#
#
# Indices 1 2 3 4 5 6 
#
# 1 88.1507 19.3979 52.6117 0.0000 0.0000 0.0000
# 2 19.3979 57.3614 40.5794 0.0000 0.0000 0.0000
# 3 52.6117 40.5794 124.4537 0.0000 0.0000 0.0000
# 4 0.0000 0.0000 0.0000 27.0546 0.0000 0.0000
# 5 0.0000 0.0000 0.0000 0.0000 20.2020 0.0000
# 6 0.0000 0.0000 0.0000 0.0000 0.0000 47.9929
#
#
#
# Elastic Compliance Matrix: (Units=1/GPa)
#
#
# Indices 1 2 3 4 5 6 
#
# 1 0.015199 -0.000773 -0.006173 0.000000 0.000000 0.000000
# 2 -0.000773 0.022700 -0.007075 0.000000 0.000000 0.000000
# 3 -0.006173 -0.007075 0.012952 0.000000 0.000000 0.000000
# 4 0.000000 0.000000 0.000000 0.036962 0.000000 0.000000
# 5 0.000000 0.000000 0.000000 0.000000 0.049500 0.000000
# 6 0.000000 0.000000 0.000000 0.000000 0.000000 0.020836
#
#
# Mechanical properties :
#
#
# Convention : Reuss Voigt Hill
#
# Bulk Modulus (GPa) = 43.84316 55.01600 49.42958
# Shear Modulus (GPa) = 25.80079 29.54169 27.67124
#
# Velocity S-wave (km/s) = 3.74195 4.00405 3.87521
# Velocity P-wave (km/s) = 6.51640 7.15779 6.84461
#
# Compressibility (1/GPa) = 0.02280858
#
# Stress axis : x y z
#
# Youngs Moduli (GPa) = 65.79559 44.05375 77.21069
#
# Poissons Ratio (x) = 0.03404 0.47663
# Poissons Ratio (y) = 0.05083 0.54625
# Poissons Ratio (z) = 0.40617 0.31167
#
# Static dielectric constant tensor:
#      x y z
#    x 3.360860 0.000000 0.000000 
#    y 0.000000 3.428300 0.000000 
#    z 0.000000 0.000000 3.722140 
# 
# 
# High freq. dielectric constant tensor:
#      x y z
#    x 1.692280 0.000000 0.000000 
#    y 0.000000 1.723070 0.000000 
#    z 0.000000 0.000000 1.729660 
# 
# From -- ./inp_files/6949.got.cif
#   From: 2010.03.12/outbox.cif.g09.slc.cpg/sg47_4_cif.got.tgz:6949.got - 2010.04.14 03:12:58.
