data_PCOD8198228
_publ_section_title
;
Structure prediction by ZEFSAII (Michael W. Deem and Ramdas Pophale) SiO2 
 PCOD8198228
Probable space group: P M M M
;
_chemical_formula_sum "Si O2"
_cell_formula_units_Z 64
_cell_length_a 18.192398
_cell_length_b 20.545908
_cell_length_c 9.174439
_cell_angle_alpha 90.000000
_cell_angle_beta 90.000000
_cell_angle_gamma 90.000000
_cell_volume 3429.215714
_symmetry_space_group_name_H-M "P M M M"
_symmetry_group_IT_number 47
_symmetry_cell_setting 'orthorhombic'
loop_
_space_group_symop_operation_xyz
x,y,z
-x,-y,z
x,-y,-z
-x,y,-z
-x,-y,-z
x,y,-z
-x,y,z
x,-y,z
loop_
_atom_site_type_symbol
_atom_site_label
_atom_site_fract_x
_atom_site_fract_y
_atom_site_fract_z
Si Si1 0.176939 0.208403 0.164377
Si Si2 0.323263 0.575694 0.833042
Si Si3 0.193744 0.069291 0.835421
Si Si4 0.341626 0.928358 0.669753
Si Si5 0.083611 0.311728 0.669396
Si Si6 0.585619 0.319570 0.332813
Si Si7 0.649472 0.802249 0.169165
Si Si8 0.154589 0.426409 0.168823
O O1 0.145217 0.134503 0.188967
O O2 0.136774 0.255565 0.274327
O O3 0.263807 0.207597 0.196579
O O4 0.161452 0.232766 0.000000
O O5 0.336259 0.500000 0.799198
O O6 0.372930 0.617108 0.725675
O O7 0.238680 0.594867 0.805388
O O8 0.344298 0.591483 0.000000
O O9 0.257085 0.067763 0.716308
O O10 0.149376 0.000000 0.823025
O O11 0.227968 0.075307 0.000000
O O12 0.346263 0.910762 0.500000
O O13 0.379685 0.870098 0.760317
O O14 0.377995 0.000000 0.699394
O O15 0.097936 0.319746 0.500000
O O16 0.100608 0.380613 0.742007
O O17 0.000000 0.292142 0.704603
O O18 0.608245 0.308246 0.500000
O O19 0.500000 0.333748 0.315946
O O20 0.606057 0.256244 0.241916
O O21 0.629776 0.803399 0.000000
O O22 0.142258 0.500000 0.223267
O O23 0.134383 0.420437 0.000000
#
# Coordination Sequence:
#
# PCOD8198228 Si02
#       8
#     8   8   8   8   8   8   8   8
#     4   9  18  32  52  77 101 130 170 213 256 303
#     4   9  19  37  60  84 108 134 168 210 253 302
#     4   8  14  26  45  71 102 131 163 209 260 305
#     4   9  16  26  44  73 106 136 167 206 255 309
#     4  11  24  37  49  71 104 139 173 210 252 300
#     4  11  24  38  52  75 108 142 175 213 256 303
#     4  10  20  34  54  78 103 134 174 218 261 307
#     4   9  19  37  60  83 104 128 163 207 253 302
#
# _framework density 18.663159
#
# number of rings (size 3 to 8) (size 9 to 14) (size 15 to 20)
#    0.000    2.500    0.000    3.750    0.000    9.750 
#    0.000    3.750    0.000    0.750    0.000    5.250 
#    0.000    0.000    0.000    0.000    0.000    0.000 
#
# Total GULP energy -793255.910598 kJ/mol
# GULP energy per Si atom -12394.623603 kJ/mol
# Density = 1.862068 g / cm^3
# Si number density = 18.663159 Si / 1000 Ang^3
#
#
#
# Elastic Constant Matrix: (Units=GPa)
#
#
# Indices 1 2 3 4 5 6 
#
# 1 26.6350 13.8868 26.1986 0.0000 0.0000 0.0000
# 2 13.8868 97.1634 44.9556 0.0000 0.0000 0.0000
# 3 26.1986 44.9556 98.3093 0.0000 0.0000 0.0000
# 4 0.0000 0.0000 0.0000 31.9320 0.0000 0.0000
# 5 0.0000 0.0000 0.0000 0.0000 23.9692 0.0000
# 6 0.0000 0.0000 0.0000 0.0000 0.0000 -1.3349
#
#
#
# Elastic Compliance Matrix: (Units=1/GPa)
#
#
# Indices 1 2 3 4 5 6 
#
# 1 0.051005 -0.001269 -0.013012 0.000000 0.000000 0.000000
# 2 -0.001269 0.013085 -0.005646 0.000000 0.000000 0.000000
# 3 -0.013012 -0.005646 0.016221 0.000000 0.000000 0.000000
# 4 0.000000 0.000000 0.000000 0.031317 0.000000 0.000000
# 5 0.000000 0.000000 0.000000 0.000000 0.041720 0.000000
# 6 0.000000 0.000000 0.000000 0.000000 0.000000 -0.749102
#
#
# Mechanical properties :
#
#
# Convention : Reuss Voigt Hill
#
# Bulk Modulus (GPa) = 24.71697 43.57662 34.14679
# Shear Modulus (GPa) = -9.21806 20.05103 5.41648
#
# Velocity S-wave (km/s) = -2.22484 3.28131 1.70544
# Velocity P-wave (km/s) = 2.58314 6.14456 4.71319
#
# Compressibility (1/GPa) = 0.04045804
#
# Stress axis : x y z
#
# Youngs Moduli (GPa) = 19.60587 76.42079 61.64773
#
# Poissons Ratio (x) = 0.09700 0.80216
# Poissons Ratio (y) = 0.02489 0.34803
# Poissons Ratio (z) = 0.25511 0.43144
#
# Static dielectric constant tensor:
#      x y z
#    x 3.028840 0.000000 0.000000 
#    y 0.000000 3.829340 0.000000 
#    z 0.000000 0.000000 3.454570 
# 
# 
# High freq. dielectric constant tensor:
#      x y z
#    x 1.676180 0.000000 0.000000 
#    y 0.000000 1.750850 0.000000 
#    z 0.000000 0.000000 1.729400 
# 
# From -- ./inp_files/9978.got.cif
#   From: 2010.03.12/outbox.cif.g09.slc.cpg/sg47_5_cif.got.tgz:9978.got - 2010.04.14 03:12:58.
