data_PCOD8198244
_publ_section_title
;
Structure prediction by ZEFSAII (Michael W. Deem and Ramdas Pophale) SiO2 
 PCOD8198244
Probable space group: P M M M
;
_chemical_formula_sum "Si O2"
_cell_formula_units_Z 44
_cell_length_a 28.821542
_cell_length_b 8.928873
_cell_length_c 9.651709
_cell_angle_alpha 90.000000
_cell_angle_beta 90.000000
_cell_angle_gamma 90.000000
_cell_volume 2483.808322
_symmetry_space_group_name_H-M "P M M M"
_symmetry_group_IT_number 47
_symmetry_cell_setting 'orthorhombic'
loop_
_space_group_symop_operation_xyz
x,y,z
-x,-y,z
x,-y,-z
-x,y,-z
-x,-y,-z
x,y,-z
-x,y,z
x,-y,z
loop_
_atom_site_type_symbol
_atom_site_label
_atom_site_fract_x
_atom_site_fract_y
_atom_site_fract_z
Si Si1 0.328144 0.174485 0.660900
Si Si2 0.767244 0.326777 0.339845
Si Si3 0.148378 0.679100 0.155976
Si Si4 0.593070 0.676022 0.160055
Si Si5 0.500000 0.168615 0.835420
Si Si6 0.950880 0.332272 0.164623
O O1 0.337865 0.208709 0.500000
O O2 0.277266 0.230618 0.703236
O O3 0.364484 0.264403 0.751581
O O4 0.332228 0.000000 0.694804
O O5 0.779562 0.305750 0.500000
O O6 0.757173 0.500000 0.303989
O O7 0.810718 0.261979 0.254191
O O8 0.145852 0.500000 0.159328
O O9 0.098136 0.743166 0.211786
O O10 0.158614 0.735381 0.000000
O O11 0.588746 0.500000 0.178757
O O12 0.545865 0.748399 0.219418
O O13 0.601148 0.720344 0.000000
O O14 0.500000 0.000000 0.777365
O O15 0.500000 0.172079 0.000000
O O16 0.952921 0.500000 0.224818
O O17 0.000000 0.250980 0.209983
O O18 0.948479 0.339373 0.000000
#
# Coordination Sequence:
#
# PCOD8198244 Si02
#       6
#     8   8   8   8   4   8
#     4  10  21  36  52  70  94 125 161 200 241 284
#     4   9  17  29  44  61  84 115 147 181 227 280
#     4   8  13  21  35  56  80 107 142 181 217 260
#     4  10  20  34  54  79 104 130 161 196 234 278
#     4   9  17  31  52  77 106 137 164 192 230 275
#     4   7   9  14  26  46  73 104 136 170 210 257
#
# _framework density 17.714732000000001
#
# number of rings (size 3 to 8) (size 9 to 14) (size 15 to 20)
#    0.000    3.182    0.000    3.000    0.000    4.000 
#    0.000    2.273    0.000    3.273    0.000    3.818 
#    0.000    0.727    0.000    9.091    0.000    8.364 
#
# Total GULP energy -545143.138582 kJ/mol
# GULP energy per Si atom -12389.616786 kJ/mol
# Density = 1.767441 g / cm^3
# Si number density = 17.714732 Si / 1000 Ang^3
#
#
#
# Elastic Constant Matrix: (Units=GPa)
#
#
# Indices 1 2 3 4 5 6 
#
# 1 171.5897 40.1900 61.9867 0.0000 0.0000 0.0000
# 2 40.1900 49.0914 22.8032 0.0000 0.0000 0.0000
# 3 61.9867 22.8032 48.5044 0.0000 0.0000 0.0000
# 4 0.0000 0.0000 0.0000 15.5615 0.0000 0.0000
# 5 0.0000 0.0000 0.0000 0.0000 -2.8585 0.0000
# 6 0.0000 0.0000 0.0000 0.0000 0.0000 -0.4151
#
#
#
# Elastic Compliance Matrix: (Units=1/GPa)
#
#
# Indices 1 2 3 4 5 6 
#
# 1 0.011212 -0.003228 -0.012811 0.000000 0.000000 0.000000
# 2 -0.003228 0.026991 -0.008563 0.000000 0.000000 0.000000
# 3 -0.012811 -0.008563 0.041014 0.000000 0.000000 0.000000
# 4 0.000000 0.000000 0.000000 0.064261 0.000000 0.000000
# 5 0.000000 0.000000 0.000000 0.000000 -0.349830 0.000000
# 6 0.000000 0.000000 0.000000 0.000000 0.000000 -2.409217
#
#
# Mechanical properties :
#
#
# Convention : Reuss Voigt Hill
#
# Bulk Modulus (GPa) = 33.32001 57.68283 45.50142
# Shear Modulus (GPa) = -1.95591 12.07128 5.05769
#
# Velocity S-wave (km/s) = -1.05191 2.61325 1.69153
# Velocity P-wave (km/s) = 4.16830 6.46051 5.43658
#
# Compressibility (1/GPa) = 0.03001200
#
# Stress axis : x y z
#
# Youngs Moduli (GPa) = 89.19188 37.04956 24.38197
#
# Poissons Ratio (x) = 0.11961 0.31235
# Poissons Ratio (y) = 0.28794 0.20879
# Poissons Ratio (z) = 1.14259 0.31727
#
# Static dielectric constant tensor:
#      x y z
#    x 3.819570 0.000000 0.000000 
#    y 0.000000 2.973710 0.000000 
#    z 0.000000 0.000000 3.026530 
# 
# 
# High freq. dielectric constant tensor:
#      x y z
#    x 1.712520 0.000000 0.000000 
#    y 0.000000 1.646290 0.000000 
#    z 0.000000 0.000000 1.647540 
# 
# From -- ./inp_files/13559.got.cif
#   From: 2010.03.12/outbox.cif.g09.slc.cpg/sg47_7_cif.got.tgz:13559.got - 2010.04.14 03:12:58.
