data_PCOD8198939
_publ_section_title
;
Structure prediction by ZEFSAII (Michael W. Deem and Ramdas Pophale) SiO2 
 PCOD8198939
Probable space group: P M M M
;
_chemical_formula_sum "Si O2"
_cell_formula_units_Z 48
_cell_length_a 18.919068
_cell_length_b 15.118088
_cell_length_c 8.475398
_cell_angle_alpha 90.000000
_cell_angle_beta 90.000000
_cell_angle_gamma 90.000000
_cell_volume 2424.134479
_symmetry_space_group_name_H-M "P M M M"
_symmetry_group_IT_number 47
_symmetry_cell_setting 'orthorhombic'
loop_
_space_group_symop_operation_xyz
x,y,z
-x,-y,z
x,-y,-z
-x,y,-z
-x,-y,-z
x,y,-z
-x,y,z
x,-y,z
loop_
_atom_site_type_symbol
_atom_site_label
_atom_site_fract_x
_atom_site_fract_y
_atom_site_fract_z
Si Si1 0.681982 0.898063 0.682570
Si Si2 0.675633 0.402395 0.185395
Si Si3 0.824612 0.349504 0.316982
Si Si4 0.827489 0.837302 0.815534
Si Si5 0.581413 0.757332 0.813536
Si Si6 0.920382 0.000000 0.187645
Si Si7 0.083225 0.500000 0.818286
O O1 0.701180 0.883455 0.500000
O O2 0.746640 0.864264 0.787766
O O3 0.612422 0.843445 0.728047
O O4 0.665978 0.000000 0.720346
O O5 0.660735 0.500000 0.258948
O O6 0.754759 0.372662 0.220725
O O7 0.620646 0.330413 0.252904
O O8 0.665950 0.407799 0.000000
O O9 0.807983 0.361365 0.500000
O O10 0.848417 0.250024 0.279827
O O11 0.887847 0.412929 0.266185
O O12 0.879167 0.913742 0.750730
O O13 0.838743 0.819746 0.000000
O O14 0.500000 0.748963 0.766488
O O15 0.592186 0.767645 0.000000
O O16 0.000000 0.000000 0.255346
O O17 0.920592 0.000000 0.000000
O O18 0.000000 0.500000 0.798809
O O19 0.106937 0.500000 0.000000
#
# Coordination Sequence:
#
# PCOD8198939 Si02
#       7
#     8   8   8   8   8   4   4
#     4  11  23  38  59  87 120 158 203 253 310 369
#     4  10  20  36  61  89 120 158 202 247 296 361
#     4  12  24  38  61  93 127 161 201 251 307 366
#     4  11  21  37  63  91 120 159 207 252 300 364
#     4  10  22  39  60  89 123 159 202 253 306 361
#     4   9  20  38  61  91 122 153 196 251 303 352
#     4  11  25  45  67  91 122 163 210 257 305 360
#
# _framework density 19.800881
#
# number of rings (size 3 to 8) (size 9 to 14) (size 15 to 20)
#    0.000    1.333    3.333    2.750    0.000    3.333 
#    0.000    5.000    0.000    3.500    0.000    2.333 
#    0.000    0.000    0.000    0.000    0.000    0.000 
#
# Total GULP energy -595425.165833 kJ/mol
# GULP energy per Si atom -12404.690955 kJ/mol
# Density = 1.975581 g / cm^3
# Si number density = 19.800881 Si / 1000 Ang^3
#
#
#
# Elastic Constant Matrix: (Units=GPa)
#
#
# Indices 1 2 3 4 5 6 
#
# 1 108.4647 61.6603 7.7410 0.0000 0.0000 0.0000
# 2 61.6603 178.2158 22.6080 0.0000 0.0000 0.0000
# 3 7.7410 22.6080 28.0701 0.0000 0.0000 0.0000
# 4 0.0000 0.0000 0.0000 19.8405 0.0000 0.0000
# 5 0.0000 0.0000 0.0000 0.0000 8.0425 0.0000
# 6 0.0000 0.0000 0.0000 0.0000 0.0000-1202.5511
#
#
#
# Elastic Compliance Matrix: (Units=1/GPa)
#
#
# Indices 1 2 3 4 5 6 
#
# 1 0.011477 -0.003976 0.000037 0.000000 0.000000 0.000000
# 2 -0.003976 0.007627 -0.005046 0.000000 0.000000 0.000000
# 3 0.000037 -0.005046 0.039679 0.000000 0.000000 0.000000
# 4 0.000000 0.000000 0.000000 0.050402 0.000000 0.000000
# 5 0.000000 0.000000 0.000000 0.000000 0.124339 0.000000
# 6 0.000000 0.000000 0.000000 0.000000 0.000000 -0.000832
#
#
# Mechanical properties :
#
#
# Convention : Reuss Voigt Hill
#
# Bulk Modulus (GPa) = 24.50194 55.41880 39.96037
# Shear Modulus (GPa) = 18.92025 -220.08419 -100.58197
#
# Velocity S-wave (km/s) = 3.09451 -10.55415 -7.13491
# Velocity P-wave (km/s) = 5.01687 10.97594 6.90298
#
# Compressibility (1/GPa) = 0.04081310
#
# Stress axis : x y z
#
# Youngs Moduli (GPa) = 87.13077 131.11586 25.20203
#
# Poissons Ratio (x) = 0.52126 -0.00093
# Poissons Ratio (y) = 0.34640 0.12718
# Poissons Ratio (z) = -0.00322 0.66166
#
# Static dielectric constant tensor:
#      x y z
#    x 3.525560 0.000000 0.000000 
#    y 0.000000 4.090460 0.000000 
#    z 0.000000 0.000000 3.463520 
# 
# 
# High freq. dielectric constant tensor:
#      x y z
#    x 1.764960 0.000000 0.000000 
#    y 0.000000 1.793310 0.000000 
#    z 0.000000 0.000000 1.760500 
# 
# From -- ./inp_files/9148.got.cif
#   From: 2010.03.12/outbox.cif.g09.slc.cpg/sg47_5_cif.got.tgz:9148.got - 2010.04.14 03:12:58.
