data_PCOD8198802
_publ_section_title
;
Structure prediction by ZEFSAII (Michael W. Deem and Ramdas Pophale) SiO2 
 PCOD8198802
Probable space group: P M M M
;
_chemical_formula_sum "Si O2"
_cell_formula_units_Z 48
_cell_length_a 17.681366
_cell_length_b 15.408268
_cell_length_c 8.950008
_cell_angle_alpha 90.000000
_cell_angle_beta 90.000000
_cell_angle_gamma 90.000000
_cell_volume 2438.333252
_symmetry_space_group_name_H-M "P M M M"
_symmetry_group_IT_number 47
_symmetry_cell_setting 'orthorhombic'
loop_
_space_group_symop_operation_xyz
x,y,z
-x,-y,z
x,-y,-z
-x,y,-z
-x,-y,-z
x,y,-z
-x,y,z
x,-y,z
loop_
_atom_site_type_symbol
_atom_site_label
_atom_site_fract_x
_atom_site_fract_y
_atom_site_fract_z
Si Si1 0.917267 0.000000 0.676745
Si Si2 0.000000 0.403595 0.177252
Si Si3 0.648294 0.098032 0.825534
Si Si4 0.844577 0.318398 0.828188
Si Si5 0.196374 0.143722 0.324056
Si Si6 0.688732 0.597462 0.171243
Si Si7 0.585449 0.738666 0.672462
O O1 0.873930 0.914147 0.729671
O O2 0.924507 0.000000 0.500000
O O3 0.000000 0.000000 0.752014
O O4 0.075725 0.355148 0.231965
O O5 0.000000 0.500000 0.246516
O O6 0.000000 0.409753 0.000000
O O7 0.730924 0.107143 0.757935
O O8 0.592825 0.168366 0.752580
O O9 0.618055 0.000000 0.796040
O O10 0.653005 0.118279 0.000000
O O11 0.820946 0.241044 0.721118
O O12 0.779006 0.390312 0.812912
O O13 0.851612 0.287073 0.000000
O O14 0.210671 0.137436 0.500000
O O15 0.669435 0.500000 0.226277
O O16 0.642902 0.667075 0.266686
O O17 0.663964 0.610001 0.000000
O O18 0.605033 0.753079 0.500000
O O19 0.500000 0.705058 0.695716
#
# Coordination Sequence:
#
# PCOD8198802 Si02
#       7
#     4   4   8   8   8   8   8
#     4   9  20  36  53  79 116 159 200 239 289 352
#     4   9  18  34  57  84 117 156 196 242 294 349
#     4  11  23  40  64  91 120 154 195 244 298 358
#     4  10  20  35  57  86 119 155 199 246 296 350
#     4  11  21  35  58  84 114 155 200 243 292 351
#     4  10  21  38  62  90 120 160 207 250 296 355
#     4  11  25  43  63  90 124 160 199 246 300 359
#
# _framework density 19.685579000000001
#
# number of rings (size 3 to 8) (size 9 to 14) (size 15 to 20)
#    0.000    1.667    2.500    2.000    1.167    5.333 
#    0.000    3.333    0.000    4.000    0.000    0.000 
#    0.000    0.000    0.000    0.000    0.000    0.000 
#
# Total GULP energy -595244.498324 kJ/mol
# GULP energy per Si atom -12400.927048 kJ/mol
# Density = 1.964077 g / cm^3
# Si number density = 19.685579 Si / 1000 Ang^3
#
#
#
# Elastic Constant Matrix: (Units=GPa)
#
#
# Indices 1 2 3 4 5 6 
#
# 1 106.0812 34.3793 38.1177 0.0000 0.0000 0.0000
# 2 34.3793 124.1018 50.9018 0.0000 0.0000 0.0000
# 3 38.1177 50.9018 88.4767 0.0000 0.0000 0.0000
# 4 0.0000 0.0000 0.0000 11.3399 0.0000 0.0000
# 5 0.0000 0.0000 0.0000 0.0000 23.9230 0.0000
# 6 0.0000 0.0000 0.0000 0.0000 0.0000 27.5713
#
#
#
# Elastic Compliance Matrix: (Units=1/GPa)
#
#
# Indices 1 2 3 4 5 6 
#
# 1 0.011360 -0.001492 -0.004036 0.000000 0.000000 0.000000
# 2 -0.001492 0.010742 -0.005538 0.000000 0.000000 0.000000
# 3 -0.004036 -0.005538 0.016227 0.000000 0.000000 0.000000
# 4 0.000000 0.000000 0.000000 0.088184 0.000000 0.000000
# 5 0.000000 0.000000 0.000000 0.000000 0.041801 0.000000
# 6 0.000000 0.000000 0.000000 0.000000 0.000000 0.036270
#
#
# Mechanical properties :
#
#
# Convention : Reuss Voigt Hill
#
# Bulk Modulus (GPa) = 61.73161 62.82859 62.28010
# Shear Modulus (GPa) = 21.54105 25.58424 23.56265
#
# Velocity S-wave (km/s) = 3.31154 3.60897 3.46345
# Velocity P-wave (km/s) = 6.78591 7.02506 6.90652
#
# Compressibility (1/GPa) = 0.01619916
#
# Stress axis : x y z
#
# Youngs Moduli (GPa) = 88.02463 93.08857 61.62513
#
# Poissons Ratio (x) = 0.13886 0.24873
# Poissons Ratio (y) = 0.13130 0.34126
# Poissons Ratio (z) = 0.35528 0.51549
#
# Static dielectric constant tensor:
#      x y z
#    x 3.800460 0.000000 0.000000 
#    y 0.000000 3.776200 0.000000 
#    z 0.000000 0.000000 3.442630 
# 
# 
# High freq. dielectric constant tensor:
#      x y z
#    x 1.773850 0.000000 0.000000 
#    y 0.000000 1.776320 0.000000 
#    z 0.000000 0.000000 1.752380 
# 
# From -- ./inp_files/9146.got.cif
#   From: 2010.03.12/outbox.cif.g09.slc.cpg/sg47_5_cif.got.tgz:9146.got - 2010.04.14 03:12:58.
