data_PCOD8198807
_publ_section_title
;
Structure prediction by ZEFSAII (Michael W. Deem and Ramdas Pophale) SiO2 
 PCOD8198807
Probable space group: P M M M
;
_chemical_formula_sum "Si O2"
_cell_formula_units_Z 48
_cell_length_a 9.379152
_cell_length_b 15.408637
_cell_length_c 17.611334
_cell_angle_alpha 90.000000
_cell_angle_beta 90.000000
_cell_angle_gamma 90.000000
_cell_volume 2545.189083
_symmetry_space_group_name_H-M "P M M M"
_symmetry_group_IT_number 47
_symmetry_cell_setting 'orthorhombic'
loop_
_space_group_symop_operation_xyz
x,y,z
-x,-y,z
x,-y,-z
-x,y,-z
-x,-y,-z
x,y,-z
-x,y,z
x,-y,z
loop_
_atom_site_type_symbol
_atom_site_label
_atom_site_fract_x
_atom_site_fract_y
_atom_site_fract_z
Si Si1 0.834365 0.756560 0.086108
Si Si2 0.335066 0.365481 0.318709
Si Si3 0.335380 0.597366 0.852749
Si Si4 0.669232 0.097224 0.500000
Si Si5 0.332971 0.833580 0.659853
Si Si6 0.834864 0.902299 0.797292
Si Si7 0.163482 0.500000 0.410446
O O1 0.755972 0.665997 0.100715
O O2 0.777264 0.833789 0.140209
O O3 0.000000 0.739646 0.100828
O O4 0.805162 0.786150 0.000000
O O5 0.500000 0.382533 0.338718
O O6 0.296129 0.400413 0.235826
O O7 0.296180 0.265021 0.321688
O O8 0.239362 0.414025 0.379856
O O9 0.500000 0.622162 0.864353
O O10 0.303765 0.500000 0.883054
O O11 0.500000 0.096336 0.500000
O O12 0.724107 0.146030 0.575285
O O13 0.730746 0.000000 0.500000
O O14 0.500000 0.853808 0.667314
O O15 0.251877 0.893724 0.719541
O O16 0.000000 0.884429 0.779657
O O17 0.812704 0.000000 0.828845
O O18 0.177457 0.500000 0.500000
O O19 0.000000 0.500000 0.383770
#
# Coordination Sequence:
#
# PCOD8198807 Si02
#       7
#     8   8   8   4   8   8   4
#     4  10  22  39  58  83 115 150 189 233 282 339
#     4  10  20  36  58  82 108 145 193 237 279 334
#     4  10  20  37  59  84 112 143 183 230 284 340
#     4   9  18  32  51  80 113 140 174 223 275 327
#     4  10  20  35  58  84 110 145 188 233 281 333
#     4  10  21  37  58  84 114 150 191 234 283 338
#     4  11  25  39  53  81 118 153 192 235 285 338
#
# _framework density 18.859109
#
# number of rings (size 3 to 8) (size 9 to 14) (size 15 to 20)
#    0.000    2.000    2.500    0.750    1.167    4.333 
#    0.000    3.750    0.000    1.500    0.000    2.333 
#    0.000    0.000    0.000    0.000    0.000    0.000 
#
# Total GULP energy -595323.522754 kJ/mol
# GULP energy per Si atom -12402.573391 kJ/mol
# Density = 1.881618 g / cm^3
# Si number density = 18.859109 Si / 1000 Ang^3
#
#
#
# Elastic Constant Matrix: (Units=GPa)
#
#
# Indices 1 2 3 4 5 6 
#
# 1 53.1177 36.3141 39.5654 0.0000 0.0000 0.0000
# 2 36.3141 113.3759 49.9319 0.0000 0.0000 0.0000
# 3 39.5654 49.9319 104.8672 0.0000 0.0000 0.0000
# 4 0.0000 0.0000 0.0000 27.1003 0.0000 0.0000
# 5 0.0000 0.0000 0.0000 0.0000 28.1072 0.0000
# 6 0.0000 0.0000 0.0000 0.0000 0.0000 26.3553
#
#
#
# Elastic Compliance Matrix: (Units=1/GPa)
#
#
# Indices 1 2 3 4 5 6 
#
# 1 0.028751 -0.005607 -0.008177 0.000000 0.000000 0.000000
# 2 -0.005607 0.012254 -0.003719 0.000000 0.000000 0.000000
# 3 -0.008177 -0.003719 0.014392 0.000000 0.000000 0.000000
# 4 0.000000 0.000000 0.000000 0.036900 0.000000 0.000000
# 5 0.000000 0.000000 0.000000 0.000000 0.035578 0.000000
# 6 0.000000 0.000000 0.000000 0.000000 0.000000 0.037943
#
#
# Mechanical properties :
#
#
# Convention : Reuss Voigt Hill
#
# Bulk Modulus (GPa) = 49.04617 58.10930 53.57774
# Shear Modulus (GPa) = 24.08220 26.01586 25.04903
#
# Velocity S-wave (km/s) = 3.57732 3.71817 3.64843
# Velocity P-wave (km/s) = 6.56705 7.02227 6.79847
#
# Compressibility (1/GPa) = 0.02038895
#
# Stress axis : x y z
#
# Youngs Moduli (GPa) = 34.78173 81.60465 69.48303
#
# Poissons Ratio (x) = 0.45759 0.56819
# Poissons Ratio (y) = 0.19503 0.25842
# Poissons Ratio (z) = 0.28443 0.30350
#
# Static dielectric constant tensor:
#      x y z
#    x 3.304920 0.000000 0.000000 
#    y 0.000000 3.891110 0.000000 
#    z 0.000000 0.000000 3.475700 
# 
# 
# High freq. dielectric constant tensor:
#      x y z
#    x 1.713910 0.000000 0.000000 
#    y 0.000000 1.745760 0.000000 
#    z 0.000000 0.000000 1.733950 
# 
# From -- ./inp_files/6456.got.cif
#   From: 2010.03.12/outbox.cif.g09.slc.cpg/sg47_4_cif.got.tgz:6456.got - 2010.04.14 03:12:58.
