data_PCOD8198554
_publ_section_title
;
Structure prediction by ZEFSAII (Michael W. Deem and Ramdas Pophale) SiO2 
 PCOD8198554
Probable space group: P M M M
;
_chemical_formula_sum "Si O2"
_cell_formula_units_Z 64
_cell_length_a 24.487165
_cell_length_b 9.004761
_cell_length_c 14.711989
_cell_angle_alpha 90.000000
_cell_angle_beta 90.000000
_cell_angle_gamma 90.000000
_cell_volume 3244.009293
_symmetry_space_group_name_H-M "P M M M"
_symmetry_group_IT_number 47
_symmetry_cell_setting 'orthorhombic'
loop_
_space_group_symop_operation_xyz
x,y,z
-x,-y,z
x,-y,-z
-x,y,-z
-x,-y,-z
x,y,-z
-x,y,z
x,-y,z
loop_
_atom_site_type_symbol
_atom_site_label
_atom_site_fract_x
_atom_site_fract_y
_atom_site_fract_z
Si Si1 0.341000 0.324909 0.895269
Si Si2 0.128977 0.826883 0.756629
Si Si3 0.410577 0.170948 0.597588
Si Si4 0.937954 0.326591 0.605038
Si Si5 0.935739 0.664823 0.100682
Si Si6 0.717713 0.167575 0.601727
Si Si7 0.759208 0.325816 0.770561
Si Si8 0.438908 0.173931 0.207851
O O1 0.347510 0.500000 0.884836
O O2 0.288579 0.268343 0.838153
O O3 0.396392 0.252951 0.858053
O O4 0.332814 0.277811 0.000000
O O5 0.107355 0.762154 0.661434
O O6 0.084760 0.793471 0.833613
O O7 0.184496 0.754292 0.793805
O O8 0.137969 0.000000 0.743751
O O9 0.429801 0.243272 0.500000
O O10 0.346395 0.190451 0.606211
O O11 0.436705 0.241139 0.688807
O O12 0.427613 0.000000 0.593696
O O13 0.928347 0.287704 0.500000
O O14 0.929425 0.500000 0.623404
O O15 0.000000 0.281713 0.633319
O O16 0.918567 0.500000 0.136081
O O17 0.000000 0.676468 0.096853
O O18 0.911381 0.690003 0.000000
O O19 0.739443 0.196674 0.500000
O O20 0.745200 0.287060 0.666810
O O21 0.733000 0.000000 0.632549
O O22 0.767402 0.500000 0.781364
O O23 0.500000 0.200834 0.169786
O O24 0.424064 0.000000 0.210285
#
# Coordination Sequence:
#
# PCOD8198554 Si02
#       8
#     8   8   8   8   8   8   8   8
#     4  10  23  43  63  81 104 141 189 238 290 345
#     4  12  25  37  55  86 122 155 189 235 291 349
#     4   8  14  27  50  80 114 149 180 213 260 319
#     4   9  19  38  63  88 117 158 206 250 290 336
#     4   9  19  38  63  87 113 149 190 231 278 334
#     4   9  17  32  56  82 109 143 180 221 273 331
#     4  11  23  39  59  81 107 145 193 241 287 339
#     4  10  20  34  57  89 120 148 183 228 275 331
#
# _framework density 19.728673000000001
#
# number of rings (size 3 to 8) (size 9 to 14) (size 15 to 20)
#    0.000    2.250    1.250    3.375    0.000    5.250 
#    0.000    5.000    0.000    0.375    0.000    0.875 
#    0.000    0.000    0.000    0.000    0.000    0.000 
#
# Total GULP energy -793340.219368 kJ/mol
# GULP energy per Si atom -12395.940928 kJ/mol
# Density = 1.968377 g / cm^3
# Si number density = 19.728673 Si / 1000 Ang^3
#
#
#
# Elastic Constant Matrix: (Units=GPa)
#
#
# Indices 1 2 3 4 5 6 
#
# 1 90.2379 40.7751 51.9867 0.0000 0.0000 0.0000
# 2 40.7751 64.9229 35.8916 0.0000 0.0000 0.0000
# 3 51.9867 35.8916 110.6723 0.0000 0.0000 0.0000
# 4 0.0000 0.0000 0.0000 19.2793 0.0000 0.0000
# 5 0.0000 0.0000 0.0000 0.0000 10.8551 0.0000
# 6 0.0000 0.0000 0.0000 0.0000 0.0000 27.6905
#
#
#
# Elastic Compliance Matrix: (Units=1/GPa)
#
#
# Indices 1 2 3 4 5 6 
#
# 1 0.018154 -0.008148 -0.005885 0.000000 0.000000 0.000000
# 2 -0.008148 0.022425 -0.003445 0.000000 0.000000 0.000000
# 3 -0.005885 -0.003445 0.012917 0.000000 0.000000 0.000000
# 4 0.000000 0.000000 0.000000 0.051869 0.000000 0.000000
# 5 0.000000 0.000000 0.000000 0.000000 0.092123 0.000000
# 6 0.000000 0.000000 0.000000 0.000000 0.000000 0.036113
#
#
# Mechanical properties :
#
#
# Convention : Reuss Voigt Hill
#
# Bulk Modulus (GPa) = 53.93837 58.12666 56.03251
# Shear Modulus (GPa) = 18.19911 20.71028 19.45470
#
# Velocity S-wave (km/s) = 3.04051 3.24351 3.14365
# Velocity P-wave (km/s) = 6.30284 6.59955 6.45290
#
# Compressibility (1/GPa) = 0.01853968
#
# Stress axis : x y z
#
# Youngs Moduli (GPa) = 55.08368 44.59309 77.41516
#
# Poissons Ratio (x) = 0.36336 0.45560
# Poissons Ratio (y) = 0.44884 0.26669
# Poissons Ratio (z) = 0.32417 0.15362
#
# Static dielectric constant tensor:
#      x y z
#    x 3.625050 0.000000 0.000000 
#    y 0.000000 3.341160 0.000000 
#    z 0.000000 0.000000 3.818270 
# 
# 
# High freq. dielectric constant tensor:
#      x y z
#    x 1.768570 0.000000 0.000000 
#    y 0.000000 1.738220 0.000000 
#    z 0.000000 0.000000 1.779170 
# 
# From -- ./inp_files/25587.got.cif
#   From: 2010.03.12/outbox.cif.g09.slc.cpg/sg47_13_cif.got.tgz:25587.got - 2010.04.14 03:12:58.
