data_PCOD8198509
_publ_section_title
;
Structure prediction by ZEFSAII (Michael W. Deem and Ramdas Pophale) SiO2 
 PCOD8198509
Probable space group: P M M M
;
_chemical_formula_sum "Si O2"
_cell_formula_units_Z 44
_cell_length_a 7.698589
_cell_length_b 9.620504
_cell_length_c 31.749646
_cell_angle_alpha 90.000000
_cell_angle_beta 90.000000
_cell_angle_gamma 90.000000
_cell_volume 2351.515505
_symmetry_space_group_name_H-M "P M M M"
_symmetry_group_IT_number 47
_symmetry_cell_setting 'orthorhombic'
loop_
_space_group_symop_operation_xyz
x,y,z
-x,-y,z
x,-y,-z
-x,y,-z
-x,-y,-z
x,y,-z
-x,y,z
x,-y,z
loop_
_atom_site_type_symbol
_atom_site_label
_atom_site_fract_x
_atom_site_fract_y
_atom_site_fract_z
Si Si1 0.206047 0.844421 0.953681
Si Si2 0.806772 0.835042 0.331091
Si Si3 0.203421 0.847217 0.576274
Si Si4 0.299244 0.347309 0.500000
Si Si5 0.199330 0.660761 0.122967
Si Si6 0.500000 0.339084 0.812527
Si Si7 0.500000 0.834034 0.271586
O O1 0.274126 0.742153 0.917515
O O2 0.000000 0.841204 0.954183
O O3 0.272373 0.000000 0.943635
O O4 0.275106 0.798022 0.000000
O O5 0.738071 0.791369 0.377683
O O6 0.670757 0.781198 0.296489
O O7 0.000000 0.773559 0.321597
O O8 0.816421 0.000000 0.330096
O O9 0.250865 0.735929 0.541525
O O10 0.000000 0.867487 0.577554
O O11 0.286844 0.000000 0.566342
O O12 0.207502 0.500000 0.500000
O O13 0.500000 0.372497 0.500000
O O14 0.209963 0.500000 0.110958
O O15 0.324895 0.695709 0.161768
O O16 0.000000 0.703240 0.134417
O O17 0.500000 0.500000 0.798433
O O18 0.500000 0.238268 0.773135
O O19 0.500000 0.000000 0.265939
#
# Coordination Sequence:
#
# PCOD8198509 Si02
#       7
#     8   8   8   4   8   4   4
#     4   8  14  26  46  73 103 132 163 203 250 294
#     4   8  16  32  54  81 107 127 159 210 256 298
#     4   9  18  34  56  78  99 129 171 213 251 296
#     4  11  24  35  44  70 110 145 174 207 246 292
#     4   9  18  33  52  71  95 132 172 206 243 290
#     4  10  22  38  51  71 103 132 162 208 255 295
#     4  10  20  34  56  80 100 128 163 201 254 309
#
# _framework density 18.711337
#
# number of rings (size 3 to 8) (size 9 to 14) (size 15 to 20)
#    0.000    3.000    0.000    2.182    1.273    4.000 
#    0.000    3.182    0.000    3.818    0.000    0.000 
#    0.000    0.000    0.000    0.000    0.000    0.000 
#
# Total GULP energy -545274.090389 kJ/mol
# GULP energy per Si atom -12392.592963 kJ/mol
# Density = 1.866875 g / cm^3
# Si number density = 18.711337 Si / 1000 Ang^3
#
#
#
# Elastic Constant Matrix: (Units=GPa)
#
#
# Indices 1 2 3 4 5 6 
#
# 1 76.3650 32.1586 61.4841 0.0000 0.0000 0.0000
# 2 32.1586 82.4486 79.7658 0.0000 0.0000 0.0000
# 3 61.4841 79.7658 168.6188 0.0000 0.0000 0.0000
# 4 0.0000 0.0000 0.0000 -8.2409 0.0000 0.0000
# 5 0.0000 0.0000 0.0000 0.0000 15.8022 0.0000
# 6 0.0000 0.0000 0.0000 0.0000 0.0000 11.9231
#
#
#
# Elastic Compliance Matrix: (Units=1/GPa)
#
#
# Indices 1 2 3 4 5 6 
#
# 1 0.018610 -0.001279 -0.006181 0.000000 0.000000 0.000000
# 2 -0.001279 0.022452 -0.010154 0.000000 0.000000 0.000000
# 3 -0.006181 -0.010154 0.012988 0.000000 0.000000 0.000000
# 4 0.000000 0.000000 0.000000 -0.121346 0.000000 0.000000
# 5 0.000000 0.000000 0.000000 0.000000 0.063282 0.000000
# 6 0.000000 0.000000 0.000000 0.000000 0.000000 0.083871
#
#
# Mechanical properties :
#
#
# Convention : Reuss Voigt Hill
#
# Bulk Modulus (GPa) = 53.13233 74.91661 64.02447
# Shear Modulus (GPa) = 41.20016 14.16516 27.68266
#
# Velocity S-wave (km/s) = 4.69751 2.75441 3.85055
# Velocity P-wave (km/s) = 7.60786 7.08807 7.35256
#
# Compressibility (1/GPa) = 0.01882093
#
# Stress axis : x y z
#
# Youngs Moduli (GPa) = 53.73463 44.54006 76.99503
#
# Poissons Ratio (x) = 0.05697 0.47589
# Poissons Ratio (y) = 0.06873 0.78184
# Poissons Ratio (z) = 0.33212 0.45228
#
# Static dielectric constant tensor:
#      x y z
#    x 3.616880 0.000000 0.000000 
#    y 0.000000 3.016190 0.000000 
#    z 0.000000 0.000000 3.495110 
# 
# 
# High freq. dielectric constant tensor:
#      x y z
#    x 1.724950 0.000000 0.000000 
#    y 0.000000 1.700270 0.000000 
#    z 0.000000 0.000000 1.725530 
# 
# From -- ./inp_files/33983.got.cif
#   From: 2010.03.12/outbox.cif.g09.slc.cpg/sg47_17_cif.got.tgz:33983.got - 2010.04.14 03:12:58.
