data_PCOD8198499
_publ_section_title
;
Structure prediction by ZEFSAII (Michael W. Deem and Ramdas Pophale) SiO2 
 PCOD8198499
Probable space group: P M M M
;
_chemical_formula_sum "Si O2"
_cell_formula_units_Z 56
_cell_length_a 22.670873
_cell_length_b 8.817933
_cell_length_c 14.217088
_cell_angle_alpha 90.000000
_cell_angle_beta 90.000000
_cell_angle_gamma 90.000000
_cell_volume 2842.141462
_symmetry_space_group_name_H-M "P M M M"
_symmetry_group_IT_number 47
_symmetry_cell_setting 'orthorhombic'
loop_
_space_group_symop_operation_xyz
x,y,z
-x,-y,z
x,-y,-z
-x,y,-z
-x,-y,-z
x,y,-z
-x,y,z
x,-y,z
loop_
_atom_site_type_symbol
_atom_site_label
_atom_site_fract_x
_atom_site_fract_y
_atom_site_fract_z
Si Si1 0.608504 0.322142 0.715289
Si Si2 0.651356 0.177614 0.892927
Si Si3 0.500000 0.820553 0.607761
Si Si4 0.835402 0.673951 0.604869
Si Si5 0.000000 0.178163 0.105853
Si Si6 0.772746 0.672441 0.108112
Si Si7 0.287137 0.825635 0.391183
Si Si8 0.891818 0.325081 0.208232
O O1 0.597659 0.500000 0.712090
O O2 0.607042 0.265831 0.823621
O O3 0.557840 0.240601 0.657617
O O4 0.671260 0.280552 0.670591
O O5 0.718572 0.218697 0.866423
O O6 0.642160 0.000000 0.879383
O O7 0.637443 0.228255 0.000000
O O8 0.500000 0.765286 0.500000
O O9 0.500000 0.000000 0.614276
O O10 0.859859 0.707884 0.500000
O O11 0.813893 0.500000 0.613715
O O12 0.780120 0.780099 0.628319
O O13 0.888076 0.704684 0.679242
O O14 0.057354 0.226590 0.162925
O O15 0.000000 0.000000 0.098526
O O16 0.000000 0.248012 0.000000
O O17 0.754365 0.500000 0.133107
O O18 0.828950 0.725714 0.167093
O O19 0.790892 0.687459 0.000000
O O20 0.303345 0.800653 0.500000
O O21 0.296456 0.000000 0.361568
O O22 0.905148 0.500000 0.184856
#
# Coordination Sequence:
#
# PCOD8198499 Si02
#       8
#     8   8   4   8   4   8   8   8
#     4  12  24  38  59  85 115 152 192 234 279 330
#     4  10  21  37  58  85 117 152 189 231 280 333
#     4  11  25  45  66  87 114 147 185 232 282 333
#     4   9  18  33  54  83 116 146 180 224 272 323
#     4  11  25  41  56  77 104 134 173 225 280 331
#     4   9  17  30  51  81 113 143 180 227 276 328
#     4  10  20  34  55  85 119 153 188 228 277 331
#     4  10  20  35  56  79 105 143 185 222 267 324
#
# _framework density 19.703451999999999
#
# number of rings (size 3 to 8) (size 9 to 14) (size 15 to 20)
#    0.000    1.857    0.000    4.286    0.000    7.429 
#    0.000    2.143    0.000    4.286    0.000    0.000 
#    0.000    0.000    0.000    0.000    0.000    0.000 
#
# Total GULP energy -694551.160885 kJ/mol
# GULP energy per Si atom -12402.699302 kJ/mol
# Density = 1.965861 g / cm^3
# Si number density = 19.703452 Si / 1000 Ang^3
#
#
#
# Elastic Constant Matrix: (Units=GPa)
#
#
# Indices 1 2 3 4 5 6 
#
# 1 71.2023 33.2218 69.9567 0.0000 0.0000 0.0000
# 2 33.2218 71.9927 45.0158 0.0000 0.0000 0.0000
# 3 69.9567 45.0158 140.7925 0.0000 0.0000 0.0000
# 4 0.0000 0.0000 0.0000 27.5773 0.0000 0.0000
# 5 0.0000 0.0000 0.0000 0.0000 28.3637 0.0000
# 6 0.0000 0.0000 0.0000 0.0000 0.0000 31.9682
#
#
#
# Elastic Compliance Matrix: (Units=1/GPa)
#
#
# Indices 1 2 3 4 5 6 
#
# 1 0.029072 -0.005479 -0.012694 0.000000 0.000000 0.000000
# 2 -0.005479 0.018394 -0.003159 0.000000 0.000000 0.000000
# 3 -0.012694 -0.003159 0.014420 0.000000 0.000000 0.000000
# 4 0.000000 0.000000 0.000000 0.036262 0.000000 0.000000
# 5 0.000000 0.000000 0.000000 0.000000 0.035256 0.000000
# 6 0.000000 0.000000 0.000000 0.000000 0.000000 0.031281
#
#
# Mechanical properties :
#
#
# Convention : Reuss Voigt Hill
#
# Bulk Modulus (GPa) = 52.01950 64.48620 58.25285
# Shear Modulus (GPa) = 23.39124 26.63472 25.01298
#
# Velocity S-wave (km/s) = 3.44926 3.68064 3.56683
# Velocity P-wave (km/s) = 6.50552 7.13178 6.82583
#
# Compressibility (1/GPa) = 0.01922356
#
# Stress axis : x y z
#
# Youngs Moduli (GPa) = 34.39688 54.36671 69.34870
#
# Poissons Ratio (x) = 0.29785 0.88030
# Poissons Ratio (y) = 0.18845 0.21906
# Poissons Ratio (z) = 0.43663 0.17174
#
# Static dielectric constant tensor:
#      x y z
#    x 3.378850 0.000000 0.000000 
#    y 0.000000 3.569560 0.000000 
#    z 0.000000 0.000000 4.016900 
# 
# 
# High freq. dielectric constant tensor:
#      x y z
#    x 1.742120 0.000000 0.000000 
#    y 0.000000 1.766580 0.000000 
#    z 0.000000 0.000000 1.790260 
# 
# From -- ./inp_files/25163.got.cif
#   From: 2010.03.12/outbox.cif.g09.slc.cpg/sg47_13_cif.got.tgz:25163.got - 2010.04.14 03:12:58.
