data_PCOD8198855
_publ_section_title
;
Structure prediction by ZEFSAII (Michael W. Deem and Ramdas Pophale) SiO2 
 PCOD8198855
Probable space group: P M M M
;
_chemical_formula_sum "Si O2"
_cell_formula_units_Z 64
_cell_length_a 8.870460
_cell_length_b 14.318899
_cell_length_c 25.379889
_cell_angle_alpha 90.000000
_cell_angle_beta 90.000000
_cell_angle_gamma 90.000000
_cell_volume 3223.632206
_symmetry_space_group_name_H-M "P M M M"
_symmetry_group_IT_number 47
_symmetry_cell_setting 'orthorhombic'
loop_
_space_group_symop_operation_xyz
x,y,z
-x,-y,z
x,-y,-z
-x,y,-z
-x,-y,-z
x,y,-z
-x,y,z
x,-y,z
loop_
_atom_site_type_symbol
_atom_site_label
_atom_site_fract_x
_atom_site_fract_y
_atom_site_fract_z
Si Si1 0.171706 0.891819 0.345563
Si Si2 0.824458 0.605109 0.778893
Si Si3 0.328373 0.396568 0.111797
Si Si4 0.325208 0.207343 0.940394
Si Si5 0.679788 0.199689 0.439596
Si Si6 0.331550 0.401472 0.562512
Si Si7 0.322541 0.785166 0.251811
Si Si8 0.177279 0.892464 0.154950
O O1 0.238218 0.876619 0.403894
O O2 0.272263 0.837518 0.303997
O O3 0.000000 0.856442 0.342841
O O4 0.181248 0.000000 0.331454
O O5 0.783199 0.500000 0.760538
O O6 0.783235 0.619669 0.839794
O O7 0.732059 0.678043 0.743446
O O8 0.000000 0.625666 0.772019
O O9 0.500000 0.387134 0.132760
O O10 0.302639 0.500000 0.086976
O O11 0.293995 0.317675 0.068555
O O12 0.500000 0.184092 0.930421
O O13 0.226361 0.143323 0.902315
O O14 0.277826 0.183582 0.000000
O O15 0.725116 0.179624 0.500000
O O16 0.500000 0.194297 0.432921
O O17 0.741617 0.302640 0.420086
O O18 0.340373 0.397486 0.500000
O O19 0.500000 0.405186 0.585566
O O20 0.248703 0.500000 0.579909
O O21 0.500000 0.788626 0.247532
O O22 0.256040 0.832144 0.199767
O O23 0.000000 0.880080 0.161389
O O24 0.225613 0.000000 0.161225
#
# Coordination Sequence:
#
# PCOD8198855 Si02
#       8
#     8   8   8   8   8   8   8   8
#     4  11  25  43  61  83 114 153 197 245 298 355
#     4  10  20  35  59  90 123 157 190 228 279 341
#     4   9  17  31  53  82 116 154 195 236 281 338
#     4  10  21  36  55  83 118 156 198 244 293 344
#     4   9  18  34  58  88 120 155 196 241 290 345
#     4   7  10  20  43  76 111 145 182 224 269 319
#     4  12  24  40  65  92 117 147 188 240 296 352
#     4  11  24  41  61  84 111 148 194 242 299 363
#
# _framework density 19.853380000000001
#
# number of rings (size 3 to 8) (size 9 to 14) (size 15 to 20)
#    0.000    2.125    1.250    3.750    0.000    5.500 
#    0.000    4.375    0.000    2.625    0.000    4.375 
#    0.000    0.000    0.000    0.000    0.000    0.000 
#
# Total GULP energy -793293.867549 kJ/mol
# GULP energy per Si atom -12395.216680 kJ/mol
# Density = 1.980819 g / cm^3
# Si number density = 19.853380 Si / 1000 Ang^3
#
#
#
# Elastic Constant Matrix: (Units=GPa)
#
#
# Indices 1 2 3 4 5 6 
#
# 1 85.1193 54.3682 38.1488 0.0000 0.0000 0.0000
# 2 54.3682 111.4576 43.7160 0.0000 0.0000 0.0000
# 3 38.1488 43.7160 85.5115 0.0000 0.0000 0.0000
# 4 0.0000 0.0000 0.0000 26.2525 0.0000 0.0000
# 5 0.0000 0.0000 0.0000 0.0000 0.7778 0.0000
# 6 0.0000 0.0000 0.0000 0.0000 0.0000 29.4581
#
#
#
# Elastic Compliance Matrix: (Units=1/GPa)
#
#
# Indices 1 2 3 4 5 6 
#
# 1 0.018363 -0.007185 -0.004519 0.000000 0.000000 0.000000
# 2 -0.007185 0.014033 -0.003969 0.000000 0.000000 0.000000
# 3 -0.004519 -0.003969 0.015739 0.000000 0.000000 0.000000
# 4 0.000000 0.000000 0.000000 0.038092 0.000000 0.000000
# 5 0.000000 0.000000 0.000000 0.000000 1.285673 0.000000
# 6 0.000000 0.000000 0.000000 0.000000 0.000000 0.033947
#
#
# Mechanical properties :
#
#
# Convention : Reuss Voigt Hill
#
# Bulk Modulus (GPa) = 59.55907 61.61714 60.58811
# Shear Modulus (GPa) = 3.46551 21.02137 12.24344
#
# Velocity S-wave (km/s) = 1.32263 3.25750 2.48602
# Velocity P-wave (km/s) = 5.69184 6.72695 6.23093
#
# Compressibility (1/GPa) = 0.01679005
#
# Stress axis : x y z
#
# Youngs Moduli (GPa) = 54.45843 71.25860 63.53460
#
# Poissons Ratio (x) = 0.51197 0.28711
# Poissons Ratio (y) = 0.39127 0.25217
# Poissons Ratio (z) = 0.24610 0.28283
#
# Static dielectric constant tensor:
#      x y z
#    x 3.469580 0.000000 0.000000 
#    y 0.000000 4.090980 0.000000 
#    z 0.000000 0.000000 3.364550 
# 
# 
# High freq. dielectric constant tensor:
#      x y z
#    x 1.757540 0.000000 0.000000 
#    y 0.000000 1.794460 0.000000 
#    z 0.000000 0.000000 1.751390 
# 
# From -- ./inp_files/21926.got.cif
#   From: 2010.03.12/outbox.cif.g09.slc.cpg/sg47_11_cif.got.tgz:21926.got - 2010.04.14 03:12:58.
