data_PCOD8198722
_publ_section_title
;
Structure prediction by ZEFSAII (Michael W. Deem and Ramdas Pophale) SiO2 
 PCOD8198722
Probable space group: P M M M
;
_chemical_formula_sum "Si O2"
_cell_formula_units_Z 48
_cell_length_a 7.709979
_cell_length_b 9.237760
_cell_length_c 33.726207
_cell_angle_alpha 90.000000
_cell_angle_beta 90.000000
_cell_angle_gamma 90.000000
_cell_volume 2402.079469
_symmetry_space_group_name_H-M "P M M M"
_symmetry_group_IT_number 47
_symmetry_cell_setting 'orthorhombic'
loop_
_space_group_symop_operation_xyz
x,y,z
-x,-y,z
x,-y,-z
-x,y,-z
-x,-y,-z
x,y,-z
-x,y,z
x,-y,z
loop_
_atom_site_type_symbol
_atom_site_label
_atom_site_fract_x
_atom_site_fract_y
_atom_site_fract_z
Si Si1 0.801133 0.341628 0.381642
Si Si2 0.000000 0.827395 0.090677
Si Si3 0.295480 0.837245 0.544390
Si Si4 0.694631 0.664240 0.231512
Si Si5 0.000000 0.330645 0.826922
Si Si6 0.794082 0.164883 0.307831
Si Si7 0.698484 0.665935 0.046467
O O1 0.710622 0.500000 0.382334
O O2 0.789622 0.270534 0.424687
O O3 0.717753 0.243065 0.347142
O O4 0.000000 0.361270 0.370713
O O5 0.000000 0.769768 0.135064
O O6 0.826606 0.772154 0.069287
O O7 0.000000 0.000000 0.090344
O O8 0.239972 0.790179 0.500000
O O9 0.500000 0.830483 0.548929
O O10 0.229222 0.000000 0.552854
O O11 0.500000 0.677491 0.214066
O O12 0.736294 0.500000 0.244804
O O13 0.828974 0.712005 0.197766
O O14 0.709000 0.764814 0.269545
O O15 0.000000 0.500000 0.838740
O O16 0.000000 0.177494 0.304702
O O17 0.732664 0.000000 0.310330
O O18 0.500000 0.703736 0.057924
O O19 0.739808 0.500000 0.058222
O O20 0.727930 0.688223 0.000000
#
# Coordination Sequence:
#
# PCOD8198722 Si02
#       7
#     8   4   8   8   4   8   8
#     4  10  21  35  53  79 109 140 175 217 264 314
#     4  12  25  37  56  89 128 166 204 249 311 374
#     4   9  19  36  55  74 100 136 176 218 265 318
#     4  10  21  38  62  88 111 143 189 238 291 345
#     4  10  22  41  61  82 116 159 203 251 292 342
#     4  10  20  35  57  82 110 143 178 220 276 338
#     4   9  19  38  64  91 120 160 212 264 309 360
#
# _framework density 19.982686000000001
#
# number of rings (size 3 to 8) (size 9 to 14) (size 15 to 20)
#    0.000    2.167    0.833    3.000    0.000    6.667 
#    0.000    5.000    0.000    0.000    0.000    0.000 
#    0.000    0.000    0.000    0.000    0.000    0.000 
#
# Total GULP energy -595203.036231 kJ/mol
# GULP energy per Si atom -12400.063255 kJ/mol
# Density = 1.993720 g / cm^3
# Si number density = 19.982686 Si / 1000 Ang^3
#
#
#
# Elastic Constant Matrix: (Units=GPa)
#
#
# Indices 1 2 3 4 5 6 
#
# 1 91.5568 56.0299 57.3690 0.0000 0.0000 0.0000
# 2 56.0299 149.3769 87.2523 0.0000 0.0000 0.0000
# 3 57.3690 87.2523 133.8354 0.0000 0.0000 0.0000
# 4 0.0000 0.0000 0.0000 23.8075 0.0000 0.0000
# 5 0.0000 0.0000 0.0000 0.0000 -3.8275 0.0000
# 6 0.0000 0.0000 0.0000 0.0000 0.0000 21.6602
#
#
#
# Elastic Compliance Matrix: (Units=1/GPa)
#
#
# Indices 1 2 3 4 5 6 
#
# 1 0.015819 -0.003186 -0.004704 0.000000 0.000000 0.000000
# 2 -0.003186 0.011453 -0.006101 0.000000 0.000000 0.000000
# 3 -0.004704 -0.006101 0.013466 0.000000 0.000000 0.000000
# 4 0.000000 0.000000 0.000000 0.042003 0.000000 0.000000
# 5 0.000000 0.000000 0.000000 0.000000 -0.261270 0.000000
# 6 0.000000 0.000000 0.000000 0.000000 0.000000 0.046168
#
#
# Mechanical properties :
#
#
# Convention : Reuss Voigt Hill
#
# Bulk Modulus (GPa) = 78.39311 86.23017 82.31164
# Shear Modulus (GPa) = -49.93680 19.93593 -15.00043
#
# Velocity S-wave (km/s) = -5.00443 3.16200 -2.74281
# Velocity P-wave (km/s) = 2.43378 7.52178 5.59019
#
# Compressibility (1/GPa) = 0.01275622
#
# Stress axis : x y z
#
# Youngs Moduli (GPa) = 63.21339 87.31167 74.26284
#
# Poissons Ratio (x) = 0.27819 0.34932
# Poissons Ratio (y) = 0.20141 0.45308
# Poissons Ratio (z) = 0.29735 0.53269
#
# Static dielectric constant tensor:
#      x y z
#    x 3.631720 0.000000 0.000000 
#    y 0.000000 3.750770 0.000000 
#    z 0.000000 0.000000 3.604880 
# 
# 
# High freq. dielectric constant tensor:
#      x y z
#    x 1.780040 0.000000 0.000000 
#    y 0.000000 1.776450 0.000000 
#    z 0.000000 0.000000 1.776880 
# 
# From -- ./inp_files/2589.got.cif
#   From: 2010.03.12/outbox.cif.g09.slc.cpg/sg47_2_cif.got.tgz:2589.got - 2010.04.14 03:12:58.
