data_PCOD8198462
_publ_section_title
;
Structure prediction by ZEFSAII (Michael W. Deem and Ramdas Pophale) SiO2 
 PCOD8198462
Probable space group: P M M M
;
_chemical_formula_sum "Si O2"
_cell_formula_units_Z 36
_cell_length_a 24.259861
_cell_length_b 9.770811
_cell_length_c 8.010720
_cell_angle_alpha 90.000000
_cell_angle_beta 90.000000
_cell_angle_gamma 90.000000
_cell_volume 1898.849187
_symmetry_space_group_name_H-M "P M M M"
_symmetry_group_IT_number 47
_symmetry_cell_setting 'orthorhombic'
loop_
_space_group_symop_operation_xyz
x,y,z
-x,-y,z
x,-y,-z
-x,y,-z
-x,-y,-z
x,y,-z
-x,y,z
x,-y,z
loop_
_atom_site_type_symbol
_atom_site_label
_atom_site_fract_x
_atom_site_fract_y
_atom_site_fract_z
Si Si1 0.656422 0.347887 0.809854
Si Si2 0.938515 0.837823 0.500000
Si Si3 0.437833 0.156245 0.695197
Si Si4 0.227130 0.342568 0.690193
Si Si5 0.133744 0.158343 0.187634
O O1 0.639128 0.500000 0.749498
O O2 0.604324 0.250310 0.793031
O O3 0.709146 0.295822 0.705353
O O4 0.675694 0.350072 0.000000
O O5 0.908528 0.787954 0.329695
O O6 0.000000 0.774661 0.500000
O O7 0.941824 0.000000 0.500000
O O8 0.428871 0.177168 0.500000
O O9 0.500000 0.197729 0.745774
O O10 0.426642 0.000000 0.746356
O O11 0.208119 0.324757 0.500000
O O12 0.220980 0.500000 0.749639
O O13 0.189474 0.246040 0.803707
O O14 0.148662 0.000000 0.221123
O O15 0.108690 0.176101 0.000000
#
# Coordination Sequence:
#
# PCOD8198462 Si02
#       5
#     8   4   8   8   8
#     4  10  21  35  51  75 105 135 171 215 263 318
#     4   9  18  34  55  81 115 149 182 225 270 313
#     4   9  19  36  55  74  98 131 172 216 263 316
#     4  10  20  35  56  79 105 141 181 221 270 323
#     4  10  20  34  55  83 112 144 183 225 271 322
#
# _framework density 18.958850999999999
#
# number of rings (size 3 to 8) (size 9 to 14) (size 15 to 20)
#    0.000    2.333    1.111    2.000    0.000    5.333 
#    0.000    5.556    0.000    1.333    0.000    1.556 
#    0.000    0.000    0.000    0.000    0.000    0.000 
#
# Total GULP energy -446364.853000 kJ/mol
# GULP energy per Si atom -12399.023694 kJ/mol
# Density = 1.891570 g / cm^3
# Si number density = 18.958851 Si / 1000 Ang^3
#
#
#
# Elastic Constant Matrix: (Units=GPa)
#
#
# Indices 1 2 3 4 5 6 
#
# 1 122.0043 56.2371 46.9130 0.0000 0.0000 0.0000
# 2 56.2371 61.5556 31.6102 0.0000 0.0000 0.0000
# 3 46.9130 31.6102 96.9319 0.0000 0.0000 0.0000
# 4 0.0000 0.0000 0.0000 23.6696 0.0000 0.0000
# 5 0.0000 0.0000 0.0000 0.0000 24.0463 0.0000
# 6 0.0000 0.0000 0.0000 0.0000 0.0000 0.1789
#
#
#
# Elastic Compliance Matrix: (Units=1/GPa)
#
#
# Indices 1 2 3 4 5 6 
#
# 1 0.015016 -0.011995 -0.003356 0.000000 0.000000 0.000000
# 2 -0.011995 0.029096 -0.003683 0.000000 0.000000 0.000000
# 3 -0.003356 -0.003683 0.013142 0.000000 0.000000 0.000000
# 4 0.000000 0.000000 0.000000 0.042248 0.000000 0.000000
# 5 0.000000 0.000000 0.000000 0.000000 0.041586 0.000000
# 6 0.000000 0.000000 0.000000 0.000000 0.000000 5.590510
#
#
# Mechanical properties :
#
#
# Convention : Reuss Voigt Hill
#
# Bulk Modulus (GPa) = 52.12255 61.11249 56.61752
# Shear Modulus (GPa) = 0.86564 19.29439 10.08001
#
# Velocity S-wave (km/s) = 0.67645 3.19360 2.30832
# Velocity P-wave (km/s) = 5.30681 6.77518 6.08544
#
# Compressibility (1/GPa) = 0.01918555
#
# Stress axis : x y z
#
# Youngs Moduli (GPa) = 66.59611 34.36949 76.09451
#
# Poissons Ratio (x) = 0.41227 0.25534
# Poissons Ratio (y) = 0.79884 0.28024
# Poissons Ratio (z) = 0.22347 0.12658
#
# Static dielectric constant tensor:
#      x y z
#    x 3.424660 0.000000 0.000000 
#    y 0.000000 3.325610 0.000000 
#    z 0.000000 0.000000 3.519100 
# 
# 
# High freq. dielectric constant tensor:
#      x y z
#    x 1.728020 0.000000 0.000000 
#    y 0.000000 1.717790 0.000000 
#    z 0.000000 0.000000 1.746100 
# 
# From -- ./inp_files/12062.got.cif
#   From: 2010.03.12/outbox.cif.g09.slc.cpg/sg47_7_cif.got.tgz:12062.got - 2010.04.14 03:12:58.
