data_PCOD8198797
_publ_section_title
;
Structure prediction by ZEFSAII (Michael W. Deem and Ramdas Pophale) SiO2 
 PCOD8198797
Probable space group: P M M M
;
_chemical_formula_sum "Si O2"
_cell_formula_units_Z 64
_cell_length_a 14.315829
_cell_length_b 8.919645
_cell_length_c 25.265675
_cell_angle_alpha 90.000000
_cell_angle_beta 90.000000
_cell_angle_gamma 90.000000
_cell_volume 3226.227416
_symmetry_space_group_name_H-M "P M M M"
_symmetry_group_IT_number 47
_symmetry_cell_setting 'orthorhombic'
loop_
_space_group_symop_operation_xyz
x,y,z
-x,-y,z
x,-y,-z
-x,y,-z
-x,-y,-z
x,y,-z
-x,y,z
x,-y,z
loop_
_atom_site_type_symbol
_atom_site_label
_atom_site_fract_x
_atom_site_fract_y
_atom_site_fract_z
Si Si1 0.901797 0.824226 0.438484
Si Si2 0.105380 0.674579 0.214404
Si Si3 0.392061 0.671529 0.345461
Si Si4 0.720779 0.327584 0.940304
Si Si5 0.279053 0.823224 0.745652
Si Si6 0.894633 0.175327 0.898026
Si Si7 0.606893 0.176607 0.151044
Si Si8 0.300830 0.822718 0.561632
O O1 0.902397 0.786808 0.500000
O O2 0.801956 0.766127 0.416748
O O3 0.000000 0.756888 0.413722
O O4 0.903334 0.000000 0.429215
O O5 0.124972 0.500000 0.205786
O O6 0.177975 0.743281 0.256284
O O7 0.122785 0.758349 0.159604
O O8 0.000000 0.702696 0.235135
O O9 0.500000 0.687040 0.331005
O O10 0.358857 0.500000 0.341011
O O11 0.334899 0.775401 0.305899
O O12 0.376848 0.731909 0.404970
O O13 0.732253 0.500000 0.924371
O O14 0.822500 0.250619 0.938112
O O15 0.646747 0.252663 0.901381
O O16 0.682757 0.309462 0.000000
O O17 0.335382 0.770240 0.797712
O O18 0.264479 0.000000 0.744557
O O19 0.000000 0.207860 0.917842
O O20 0.873789 0.000000 0.894875
O O21 0.500000 0.227228 0.158850
O O22 0.615115 0.000000 0.143457
O O23 0.314515 0.783018 0.500000
O O24 0.312942 0.000000 0.570322
#
# Coordination Sequence:
#
# PCOD8198797 Si02
#       8
#     8   8   8   8   8   8   8   8
#     4   7  10  20  43  76 110 141 176 220 269 323
#     4  10  20  35  59  91 125 158 190 228 280 343
#     4  11  25  42  59  82 114 154 198 244 298 356
#     4  11  24  39  56  82 117 156 197 242 294 353
#     4  11  22  39  65  92 117 148 191 241 291 347
#     4  10  20  35  57  85 116 153 197 240 285 341
#     4  10  22  40  62  87 112 144 189 241 299 357
#     4   9  18  34  58  87 117 152 195 242 293 348
#
# _framework density 19.837412
#
# number of rings (size 3 to 8) (size 9 to 14) (size 15 to 20)
#    0.000    2.125    1.250    3.375    0.000    5.750 
#    0.000    4.375    0.000    2.625    0.000    1.750 
#    0.000    0.000    0.000    0.000    0.000    0.000 
#
# Total GULP energy -793346.969564 kJ/mol
# GULP energy per Si atom -12396.046399 kJ/mol
# Density = 1.979226 g / cm^3
# Si number density = 19.837412 Si / 1000 Ang^3
#
#
#
# Elastic Constant Matrix: (Units=GPa)
#
#
# Indices 1 2 3 4 5 6 
#
# 1 106.3783 35.7624 36.6028 0.0000 0.0000 0.0000
# 2 35.7624 43.4469 20.9786 0.0000 0.0000 0.0000
# 3 36.6028 20.9786 74.7165 0.0000 0.0000 0.0000
# 4 0.0000 0.0000 0.0000 23.6022 0.0000 0.0000
# 5 0.0000 0.0000 0.0000 0.0000 27.2257 0.0000
# 6 0.0000 0.0000 0.0000 0.0000 0.0000 30.4105
#
#
#
# Elastic Compliance Matrix: (Units=1/GPa)
#
#
# Indices 1 2 3 4 5 6 
#
# 1 0.014054 -0.009537 -0.004207 0.000000 0.000000 0.000000
# 2 -0.009537 0.033098 -0.004621 0.000000 0.000000 0.000000
# 3 -0.004207 -0.004621 0.016743 0.000000 0.000000 0.000000
# 4 0.000000 0.000000 0.000000 0.042369 0.000000 0.000000
# 5 0.000000 0.000000 0.000000 0.000000 0.036730 0.000000
# 6 0.000000 0.000000 0.000000 0.000000 0.000000 0.032883
#
#
# Mechanical properties :
#
#
# Convention : Reuss Voigt Hill
#
# Bulk Modulus (GPa) = 36.81318 45.69216 41.25267
# Shear Modulus (GPa) = 22.55684 24.99422 23.77553
#
# Velocity S-wave (km/s) = 3.37573 3.55343 3.46572
# Velocity P-wave (km/s) = 5.81307 6.31816 6.07087
#
# Compressibility (1/GPa) = 0.02716418
#
# Stress axis : x y z
#
# Youngs Moduli (GPa) = 71.15322 30.21325 59.72812
#
# Poissons Ratio (x) = 0.28814 0.25129
# Poissons Ratio (y) = 0.67858 0.27601
# Poissons Ratio (z) = 0.29936 0.13962
#
# Static dielectric constant tensor:
#      x y z
#    x 4.010460 0.000000 0.000000 
#    y 0.000000 3.487850 0.000000 
#    z 0.000000 0.000000 3.342300 
# 
# 
# High freq. dielectric constant tensor:
#      x y z
#    x 1.790640 0.000000 0.000000 
#    y 0.000000 1.763060 0.000000 
#    z 0.000000 0.000000 1.752090 
# 
# From -- ./inp_files/32158.got.cif
#   From: 2010.03.12/outbox.cif.g09.slc.cpg/sg47_17_cif.got.tgz:32158.got - 2010.04.14 03:12:58.
