data_PCOD8198319
_publ_section_title
;
Structure prediction by ZEFSAII (Michael W. Deem and Ramdas Pophale) SiO2 
 PCOD8198319
Probable space group: P M M M
;
_chemical_formula_sum "Si O2"
_cell_formula_units_Z 48
_cell_length_a 9.055975
_cell_length_b 9.039053
_cell_length_c 31.019420
_cell_angle_alpha 90.000000
_cell_angle_beta 90.000000
_cell_angle_gamma 90.000000
_cell_volume 2539.170249
_symmetry_space_group_name_H-M "P M M M"
_symmetry_group_IT_number 47
_symmetry_cell_setting 'orthorhombic'
loop_
_space_group_symop_operation_xyz
x,y,z
-x,-y,z
x,-y,-z
-x,y,-z
-x,-y,-z
x,y,-z
-x,y,z
x,-y,z
loop_
_atom_site_type_symbol
_atom_site_label
_atom_site_fract_x
_atom_site_fract_y
_atom_site_fract_z
Si Si1 0.826065 0.330499 0.171601
Si Si2 0.673455 0.172624 0.579512
Si Si3 0.671077 0.172997 0.249031
Si Si4 0.669843 0.327373 0.915320
Si Si5 0.675382 0.666731 0.665463
Si Si6 0.174244 0.671312 0.500000
Si Si7 0.324341 0.167023 0.000000
O O1 0.778499 0.500000 0.180697
O O2 0.762904 0.225900 0.208307
O O3 0.761359 0.275740 0.126177
O O4 0.000000 0.312872 0.169978
O O5 0.500000 0.200504 0.572827
O O6 0.731180 0.241461 0.624296
O O7 0.760417 0.251909 0.541832
O O8 0.711198 0.000000 0.579420
O O9 0.500000 0.211929 0.241234
O O10 0.734096 0.255633 0.291224
O O11 0.694761 0.000000 0.256189
O O12 0.500000 0.283564 0.907232
O O13 0.687861 0.500000 0.924094
O O14 0.736705 0.245463 0.957034
O O15 0.500000 0.666458 0.666006
O O16 0.738219 0.500000 0.663129
O O17 0.220246 0.500000 0.500000
O O18 0.000000 0.692421 0.500000
O O19 0.500000 0.178863 0.000000
O O20 0.267256 0.000000 0.000000
#
# Coordination Sequence:
#
# PCOD8198319 Si02
#       7
#     8   8   8   8   8   4   4
#     4  10  21  36  53  75 104 138 176 217 260 307
#     4  10  20  35  57  84 111 139 174 217 265 316
#     4  10  20  34  54  80 108 138 173 214 260 310
#     4   9  17  31  52  75  99 130 168 209 255 307
#     4   9  17  31  54  82 109 137 171 214 262 310
#     4  11  24  39  54  76 108 145 184 223 262 308
#     4   9  17  29  48  75 102 126 160 209 258 303
#
# _framework density 18.903815000000002
#
# number of rings (size 3 to 8) (size 9 to 14) (size 15 to 20)
#    0.000    2.333    0.000    2.750    0.000    8.333 
#    0.000    2.917    0.000    7.500    0.000    0.000 
#    0.000    0.000    0.000    0.000    0.000    0.000 
#
# Total GULP energy -595329.759199 kJ/mol
# GULP energy per Si atom -12402.703317 kJ/mol
# Density = 1.886079 g / cm^3
# Si number density = 18.903815 Si / 1000 Ang^3
#
#
#
# Elastic Constant Matrix: (Units=GPa)
#
#
# Indices 1 2 3 4 5 6 
#
# 1 47.7815 42.1056 49.8069 0.0000 0.0000 0.0000
# 2 42.1056 124.3935 87.7341 0.0000 0.0000 0.0000
# 3 49.8069 87.7341 185.8588 0.0000 0.0000 0.0000
# 4 0.0000 0.0000 0.0000 11.3819 0.0000 0.0000
# 5 0.0000 0.0000 0.0000 0.0000 -14.7693 0.0000
# 6 0.0000 0.0000 0.0000 0.0000 0.0000 20.8332
#
#
#
# Elastic Compliance Matrix: (Units=1/GPa)
#
#
# Indices 1 2 3 4 5 6 
#
# 1 0.033039 -0.007404 -0.005359 0.000000 0.000000 0.000000
# 2 -0.007404 0.013710 -0.004488 0.000000 0.000000 0.000000
# 3 -0.005359 -0.004488 0.008935 0.000000 0.000000 0.000000
# 4 0.000000 0.000000 0.000000 0.087858 0.000000 0.000000
# 5 0.000000 0.000000 0.000000 0.000000 -0.067708 0.000000
# 6 0.000000 0.000000 0.000000 0.000000 0.000000 0.048000
#
#
# Mechanical properties :
#
#
# Convention : Reuss Voigt Hill
#
# Bulk Modulus (GPa) = 47.20697 79.70299 63.45498
# Shear Modulus (GPa) = 30.23029 15.38165 22.80597
#
# Velocity S-wave (km/s) = 4.00329 2.85560 3.47713
# Velocity P-wave (km/s) = 6.81138 7.28879 7.05413
#
# Compressibility (1/GPa) = 0.02118331
#
# Stress axis : x y z
#
# Youngs Moduli (GPa) = 30.26741 72.93792 111.91891
#
# Poissons Ratio (x) = 0.54000 0.59977
# Poissons Ratio (y) = 0.22409 0.50228
# Poissons Ratio (z) = 0.16220 0.32734
#
# Static dielectric constant tensor:
#      x y z
#    x 3.134170 0.000000 0.000000 
#    y 0.000000 3.577250 0.000000 
#    z 0.000000 0.000000 3.717100 
# 
# 
# High freq. dielectric constant tensor:
#      x y z
#    x 1.698160 0.000000 0.000000 
#    y 0.000000 1.742660 0.000000 
#    z 0.000000 0.000000 1.753190 
# 
# From -- ./inp_files/34079.got.cif
#   From: 2010.03.12/outbox.cif.g09.slc.cpg/sg47_18_cif.got.tgz:34079.got - 2010.04.14 03:12:58.
