data_PCOD8198017
_publ_section_title
;
Structure prediction by ZEFSAII (Michael W. Deem and Ramdas Pophale) SiO2 
 PCOD8198017
Probable space group: P M M M
;
_chemical_formula_sum "Si O2"
_cell_formula_units_Z 64
_cell_length_a 19.174972
_cell_length_b 9.847783
_cell_length_c 18.683717
_cell_angle_alpha 90.000000
_cell_angle_beta 90.000000
_cell_angle_gamma 90.000000
_cell_volume 3528.064279
_symmetry_space_group_name_H-M "P M M M"
_symmetry_group_IT_number 47
_symmetry_cell_setting 'orthorhombic'
loop_
_space_group_symop_operation_xyz
x,y,z
-x,-y,z
x,-y,-z
-x,y,-z
-x,-y,-z
x,y,-z
-x,y,z
x,-y,z
loop_
_atom_site_type_symbol
_atom_site_label
_atom_site_fract_x
_atom_site_fract_y
_atom_site_fract_z
Si Si1 0.164384 0.840974 0.832321
Si Si2 0.579767 0.657908 0.694695
Si Si3 0.578935 0.844034 0.170620
Si Si4 0.706215 0.840824 0.920539
Si Si5 0.080932 0.841665 0.693574
Si Si6 0.689718 0.339217 0.421149
Si Si7 0.076537 0.354655 0.916115
Si Si8 0.153502 0.656042 0.584210
O O1 0.242477 0.793790 0.855389
O O2 0.135733 0.792395 0.755056
O O3 0.118158 0.775897 0.893245
O O4 0.154201 0.000000 0.837518
O O5 0.500000 0.678871 0.669227
O O6 0.594315 0.500000 0.712253
O O7 0.596533 0.745952 0.763993
O O8 0.631009 0.714557 0.633182
O O9 0.500000 0.823123 0.144073
O O10 0.628144 0.803419 0.104246
O O11 0.592104 0.000000 0.194770
O O12 0.715333 0.000000 0.929643
O O13 0.720103 0.774853 0.000000
O O14 0.098787 0.752858 0.624113
O O15 0.000000 0.816208 0.715806
O O16 0.092495 0.000000 0.675687
O O17 0.674327 0.277536 0.500000
O O18 0.685875 0.500000 0.426395
O O19 0.767503 0.297740 0.395931
O O20 0.110573 0.500000 0.892142
O O21 0.000000 0.345685 0.881652
O O22 0.070772 0.350104 0.000000
O O23 0.140843 0.672538 0.500000
O O24 0.140820 0.500000 0.607409
#
# Coordination Sequence:
#
# PCOD8198017 Si02
#       8
#     8   8   8   8   8   8   8   8
#     4  10  20  34  52  74 100 130 165 207 251 300
#     4   9  17  29  48  75 105 137 172 208 247 294
#     4   9  18  32  50  73 101 134 170 208 251 296
#     4   9  18  32  51  76 102 129 166 211 253 293
#     4  10  22  37  52  75 105 134 166 206 254 308
#     4   8  15  29  49  74 104 135 169 211 252 291
#     4   9  18  32  49  70  98 131 164 200 245 296
#     4   9  19  36  56  77 101 132 172 214 254 299
#
# _framework density 18.140259
#
# number of rings (size 3 to 8) (size 9 to 14) (size 15 to 20)
#    0.000    2.875    0.000    1.875    1.750    3.250 
#    0.000    5.000    0.000    2.250    0.000    3.500 
#    0.000    0.000    0.000    0.000    0.000    0.000 
#
# Total GULP energy -793001.576448 kJ/mol
# GULP energy per Si atom -12390.649632 kJ/mol
# Density = 1.809897 g / cm^3
# Si number density = 18.140259 Si / 1000 Ang^3
#
#
#
# Elastic Constant Matrix: (Units=GPa)
#
#
# Indices 1 2 3 4 5 6 
#
# 1 102.0012 31.1712 67.3562 0.0000 0.0000 0.0000
# 2 31.1712 36.3887 33.8489 0.0000 0.0000 0.0000
# 3 67.3562 33.8489 90.7577 0.0000 0.0000 0.0000
# 4 0.0000 0.0000 0.0000 26.5833 0.0000 0.0000
# 5 0.0000 0.0000 0.0000 0.0000 32.0230 0.0000
# 6 0.0000 0.0000 0.0000 0.0000 0.0000 20.4686
#
#
#
# Elastic Compliance Matrix: (Units=1/GPa)
#
#
# Indices 1 2 3 4 5 6 
#
# 1 0.019813 -0.005044 -0.012823 0.000000 0.000000 0.000000
# 2 -0.005044 0.043364 -0.012429 0.000000 0.000000 0.000000
# 3 -0.012823 -0.012429 0.025171 0.000000 0.000000 0.000000
# 4 0.000000 0.000000 0.000000 0.037618 0.000000 0.000000
# 5 0.000000 0.000000 0.000000 0.000000 0.031228 0.000000
# 6 0.000000 0.000000 0.000000 0.000000 0.000000 0.048855
#
#
# Mechanical properties :
#
#
# Convention : Reuss Voigt Hill
#
# Bulk Modulus (GPa) = 36.03040 54.87777 45.45408
# Shear Modulus (GPa) = 18.12304 22.26641 20.19473
#
# Velocity S-wave (km/s) = 3.16421 3.50731 3.34017
# Velocity P-wave (km/s) = 5.76670 6.83515 6.32353
#
# Compressibility (1/GPa) = 0.02775434
#
# Stress axis : x y z
#
# Youngs Moduli (GPa) = 50.47231 23.06075 39.72891
#
# Poissons Ratio (x) = 0.11632 0.50944
# Poissons Ratio (y) = 0.25459 0.49381
# Poissons Ratio (z) = 0.64720 0.28663
#
# Static dielectric constant tensor:
#      x y z
#    x 3.543660 0.000000 0.000000 
#    y 0.000000 3.167410 0.000000 
#    z 0.000000 0.000000 3.397720 
# 
# 
# High freq. dielectric constant tensor:
#      x y z
#    x 1.709080 0.000000 0.000000 
#    y 0.000000 1.676390 0.000000 
#    z 0.000000 0.000000 1.695340 
# 
# From -- ./inp_files/31368.got.cif
#   From: 2010.03.12/outbox.cif.g09.slc.cpg/sg47_16_cif.got.tgz:31368.got - 2010.04.14 03:12:58.
