data_PCOD8198695
_publ_section_title
;
Structure prediction by ZEFSAII (Michael W. Deem and Ramdas Pophale) SiO2 
 PCOD8198695
Probable space group: P M M M
;
_chemical_formula_sum "Si O2"
_cell_formula_units_Z 40
_cell_length_a 7.956875
_cell_length_b 9.420942
_cell_length_c 26.861028
_cell_angle_alpha 90.000000
_cell_angle_beta 90.000000
_cell_angle_gamma 90.000000
_cell_volume 2013.536447
_symmetry_space_group_name_H-M "P M M M"
_symmetry_group_IT_number 47
_symmetry_cell_setting 'orthorhombic'
loop_
_space_group_symop_operation_xyz
x,y,z
-x,-y,z
x,-y,-z
-x,y,-z
-x,-y,-z
x,y,-z
-x,y,z
x,-y,z
loop_
_atom_site_type_symbol
_atom_site_label
_atom_site_fract_x
_atom_site_fract_y
_atom_site_fract_z
Si Si1 0.309592 0.666510 0.895187
Si Si2 0.000000 0.836348 0.941149
Si Si3 0.810604 0.657687 0.210118
Si Si4 0.689719 0.832887 0.700746
Si Si5 0.698094 0.843951 0.408562
Si Si6 0.196686 0.343268 0.500000
O O1 0.500000 0.701661 0.913932
O O2 0.268365 0.500000 0.903644
O O3 0.305028 0.703269 0.836281
O O4 0.171080 0.759935 0.923395
O O5 0.000000 0.000000 0.922257
O O6 0.000000 0.830261 0.000000
O O7 0.761554 0.500000 0.228395
O O8 0.799522 0.761145 0.256903
O O9 0.000000 0.662345 0.189647
O O10 0.500000 0.776456 0.706087
O O11 0.763760 0.794114 0.645857
O O12 0.697908 0.000000 0.708444
O O13 0.500000 0.857422 0.404643
O O14 0.746431 0.733710 0.450352
O O15 0.772212 0.000000 0.422033
O O16 0.277604 0.500000 0.500000
O O17 0.000000 0.353415 0.500000
#
# Coordination Sequence:
#
# PCOD8198695 Si02
#       6
#     8   4   8   8   8   4
#     4  10  21  40  66  92 121 162 211 257 302 359
#     4  11  25  43  63  91 129 167 203 252 311 366
#     4  10  20  35  56  83 117 154 191 235 286 340
#     4   9  19  35  54  79 110 142 180 227 278 336
#     4   9  19  37  58  77 100 135 180 226 273 331
#     4  11  24  37  50  74 106 135 170 221 278 336
#
# _framework density 19.865546999999999
#
# number of rings (size 3 to 8) (size 9 to 14) (size 15 to 20)
#    0.000    2.200    1.000    2.700    0.000    8.000 
#    0.000    8.000    0.000    0.000    0.000    0.000 
#    0.000    0.000    0.000    0.000    0.000    0.000 
#
# Total GULP energy -495844.109669 kJ/mol
# GULP energy per Si atom -12396.102742 kJ/mol
# Density = 1.982033 g / cm^3
# Si number density = 19.865547 Si / 1000 Ang^3
#
#
#
# Elastic Constant Matrix: (Units=GPa)
#
#
# Indices 1 2 3 4 5 6 
#
# 1 89.1087 45.6042 39.7828 0.0000 0.0000 0.0000
# 2 45.6042 102.7906 65.5339 0.0000 0.0000 0.0000
# 3 39.7828 65.5339 109.5863 0.0000 0.0000 0.0000
# 4 0.0000 0.0000 0.0000 49.2766 0.0000 0.0000
# 5 0.0000 0.0000 0.0000 0.0000 28.6734 0.0000
# 6 0.0000 0.0000 0.0000 0.0000 0.0000 28.3577
#
#
#
# Elastic Compliance Matrix: (Units=1/GPa)
#
#
# Indices 1 2 3 4 5 6 
#
# 1 0.014884 -0.005105 -0.002351 0.000000 0.000000 0.000000
# 2 -0.005105 0.017474 -0.008596 0.000000 0.000000 0.000000
# 3 -0.002351 -0.008596 0.015119 0.000000 0.000000 0.000000
# 4 0.000000 0.000000 0.000000 0.020294 0.000000 0.000000
# 5 0.000000 0.000000 0.000000 0.000000 0.034875 0.000000
# 6 0.000000 0.000000 0.000000 0.000000 0.000000 0.035264
#
#
# Mechanical properties :
#
#
# Convention : Reuss Voigt Hill
#
# Bulk Modulus (GPa) = 65.04624 67.03640 66.04132
# Shear Modulus (GPa) = 28.54874 31.29920 29.92397
#
# Velocity S-wave (km/s) = 3.79502 3.97363 3.88535
# Velocity P-wave (km/s) = 7.21230 7.40751 7.31056
#
# Compressibility (1/GPa) = 0.01537368
#
# Stress axis : x y z
#
# Youngs Moduli (GPa) = 67.18489 57.22770 66.14056
#
# Poissons Ratio (x) = 0.29215 0.15547
# Poissons Ratio (y) = 0.34298 0.56857
# Poissons Ratio (z) = 0.15792 0.49195
#
# Static dielectric constant tensor:
#      x y z
#    x 3.655980 0.000000 0.000000 
#    y 0.000000 5.436370 0.000000 
#    z 0.000000 0.000000 3.526060 
# 
# 
# High freq. dielectric constant tensor:
#      x y z
#    x 1.774240 0.000000 0.000000 
#    y 0.000000 1.766850 0.000000 
#    z 0.000000 0.000000 1.778030 
# 
# From -- ./inp_files/33003.got.cif
#   From: 2010.03.12/outbox.cif.g09.slc.cpg/sg47_17_cif.got.tgz:33003.got - 2010.04.14 03:12:58.
