data_PCOD8198678
_publ_section_title
;
Structure prediction by ZEFSAII (Michael W. Deem and Ramdas Pophale) SiO2 
 PCOD8198678
Probable space group: P M M M
;
_chemical_formula_sum "Si O2"
_cell_formula_units_Z 56
_cell_length_a 14.507175
_cell_length_b 20.910285
_cell_length_c 9.106375
_cell_angle_alpha 90.000000
_cell_angle_beta 90.000000
_cell_angle_gamma 90.000000
_cell_volume 2762.411241
_symmetry_space_group_name_H-M "P M M M"
_symmetry_group_IT_number 47
_symmetry_cell_setting 'orthorhombic'
loop_
_space_group_symop_operation_xyz
x,y,z
-x,-y,z
x,-y,-z
-x,y,-z
-x,-y,-z
x,y,-z
-x,y,z
x,-y,z
loop_
_atom_site_type_symbol
_atom_site_label
_atom_site_fract_x
_atom_site_fract_y
_atom_site_fract_z
Si Si1 0.165229 0.870998 0.327329
Si Si2 0.392089 0.325638 0.671910
Si Si3 0.602982 0.794842 0.156947
Si Si4 0.779986 0.622419 0.172805
Si Si5 0.000000 0.926952 0.840070
Si Si6 0.894514 0.500000 0.825534
Si Si7 0.107193 0.747602 0.827757
Si Si8 0.670342 0.071169 0.831287
O O1 0.156175 0.863090 0.500000
O O2 0.083720 0.910500 0.260921
O O3 0.168389 0.801234 0.253373
O O4 0.251106 0.914787 0.285777
O O5 0.376839 0.330807 0.500000
O O6 0.500000 0.340836 0.711178
O O7 0.359169 0.253695 0.719892
O O8 0.321098 0.374380 0.750553
O O9 0.500000 0.772767 0.132189
O O10 0.600259 0.870249 0.198332
O O11 0.656268 0.784456 0.000000
O O12 0.836660 0.561104 0.229930
O O13 0.846476 0.680941 0.215436
O O14 0.761193 0.618871 0.000000
O O15 0.000000 0.000000 0.878534
O O16 0.000000 0.890525 0.000000
O O17 0.000000 0.500000 0.762587
O O18 0.901201 0.500000 0.000000
O O19 0.000000 0.749488 0.774867
O O20 0.112310 0.759912 0.000000
O O21 0.627825 0.000000 0.800352
O O22 0.706497 0.073159 0.000000
#
# Coordination Sequence:
#
# PCOD8198678 Si02
#       8
#     8   8   8   8   4   4   8   8
#     4  12  24  36  52  76 105 137 178 227 276 325
#     4  10  21  37  57  83 116 154 193 235 287 342
#     4   9  18  34  57  83 109 139 181 234 285 335
#     4  10  20  35  60  91 118 152 194 235 280 331
#     4  11  23  39  57  73  95 132 175 220 275 335
#     4   9  18  36  62  93 128 158 193 237 280 331
#     4  10  20  35  56  81 111 146 185 228 279 341
#     4  10  21  36  53  74 103 141 182 224 279 345
#
# _framework density 20.272144999999998
#
# number of rings (size 3 to 8) (size 9 to 14) (size 15 to 20)
#    0.000    1.857    0.714    3.643    0.000   10.000 
#    0.000    2.143    0.000    3.857    0.000    3.000 
#    0.000    0.000    0.000    0.000    0.000    0.000 
#
# Total GULP energy -693751.996769 kJ/mol
# GULP energy per Si atom -12388.428514 kJ/mol
# Density = 2.022600 g / cm^3
# Si number density = 20.272145 Si / 1000 Ang^3
#
#
#
# Elastic Constant Matrix: (Units=GPa)
#
#
# Indices 1 2 3 4 5 6 
#
# 1 89.0118 44.3977 35.9098 0.0000 0.0000 0.0000
# 2 44.3977 135.3382 33.5298 0.0000 0.0000 0.0000
# 3 35.9098 33.5298 73.6390 0.0000 0.0000 0.0000
# 4 0.0000 0.0000 0.0000 -5.9950 0.0000 0.0000
# 5 0.0000 0.0000 0.0000 0.0000 53.2954 0.0000
# 6 0.0000 0.0000 0.0000 0.0000 0.0000 37.9760
#
#
#
# Elastic Compliance Matrix: (Units=1/GPa)
#
#
# Indices 1 2 3 4 5 6 
#
# 1 0.015397 -0.003596 -0.005871 0.000000 0.000000 0.000000
# 2 -0.003596 0.009168 -0.002421 0.000000 0.000000 0.000000
# 3 -0.005871 -0.002421 0.017545 0.000000 0.000000 0.000000
# 4 0.000000 0.000000 0.000000 -0.166804 0.000000 0.000000
# 5 0.000000 0.000000 0.000000 0.000000 0.018763 0.000000
# 6 0.000000 0.000000 0.000000 0.000000 0.000000 0.026332
#
#
# Mechanical properties :
#
#
# Convention : Reuss Voigt Hill
#
# Bulk Modulus (GPa) = 54.54289 58.40708 56.47499
# Shear Modulus (GPa) = -100.58021 29.33205 -35.62408
#
# Velocity S-wave (km/s) = -7.05143 3.80796 -4.19655
# Velocity P-wave (km/s) = 6.27162 6.94321 2.10653
#
# Compressibility (1/GPa) = 0.01833419
#
# Stress axis : x y z
#
# Youngs Moduli (GPa) = 64.94915 109.06937 56.99693
#
# Poissons Ratio (x) = 0.39226 0.33460
# Poissons Ratio (y) = 0.23359 0.13798
# Poissons Ratio (z) = 0.38129 0.26404
#
# Static dielectric constant tensor:
#      x y z
#    x 3.751220 0.000000 0.000000 
#    y 0.000000 3.796650 0.000000 
#    z 0.000000 0.000000 3.545550 
# 
# 
# High freq. dielectric constant tensor:
#      x y z
#    x 1.794050 0.000000 0.000000 
#    y 0.000000 1.789190 0.000000 
#    z 0.000000 0.000000 1.770520 
# 
# From -- ./inp_files/7448.got.cif
#   From: 2010.03.12/outbox.cif.g09.slc.cpg/sg47_4_cif.got.tgz:7448.got - 2010.04.14 03:12:58.
