data_PCOD8198331
_publ_section_title
;
Structure prediction by ZEFSAII (Michael W. Deem and Ramdas Pophale) SiO2 
 PCOD8198331
Probable space group: P M M M
;
_chemical_formula_sum "Si O2"
_cell_formula_units_Z 40
_cell_length_a 9.053260
_cell_length_b 9.157353
_cell_length_c 25.593384
_cell_angle_alpha 90.000000
_cell_angle_beta 90.000000
_cell_angle_gamma 90.000000
_cell_volume 2121.791287
_symmetry_space_group_name_H-M "P M M M"
_symmetry_group_IT_number 47
_symmetry_cell_setting 'orthorhombic'
loop_
_space_group_symop_operation_xyz
x,y,z
-x,-y,z
x,-y,-z
-x,y,-z
-x,-y,-z
x,y,-z
-x,y,z
x,-y,z
loop_
_atom_site_type_symbol
_atom_site_label
_atom_site_fract_x
_atom_site_fract_y
_atom_site_fract_z
Si Si1 0.672469 0.169404 0.093769
Si Si2 0.170376 0.672078 0.000000
Si Si3 0.169748 0.671664 0.696082
Si Si4 0.169931 0.831809 0.199299
Si Si5 0.326879 0.168687 0.603441
Si Si6 0.166609 0.173575 0.500000
O O1 0.500000 0.202641 0.090579
O O2 0.730268 0.215989 0.150621
O O3 0.707317 0.000000 0.082850
O O4 0.754555 0.265046 0.051325
O O5 0.191642 0.500000 0.000000
O O6 0.000000 0.718169 0.000000
O O7 0.193371 0.500000 0.697324
O O8 0.219705 0.735085 0.751745
O O9 0.273558 0.738968 0.652355
O O10 0.000000 0.714264 0.684356
O O11 0.000000 0.802822 0.184288
O O12 0.196752 0.000000 0.214257
O O13 0.500000 0.189176 0.595847
O O14 0.248618 0.231787 0.551595
O O15 0.284639 0.000000 0.612818
O O16 0.000000 0.234110 0.500000
O O17 0.170795 0.000000 0.500000
#
# Coordination Sequence:
#
# PCOD8198331 Si02
#       6
#     8   4   8   8   8   4
#     4  10  21  37  58  84 112 141 176 220 269 320
#     4  11  24  39  56  80 110 145 184 223 264 314
#     4  10  21  36  54  78 109 144 181 221 265 315
#     4   9  18  34  56  80 107 142 183 224 265 312
#     4  10  20  34  54  80 109 140 176 220 268 318
#     4   9  17  31  54  81 106 135 174 220 268 317
#
# _framework density 18.851997000000001
#
# number of rings (size 3 to 8) (size 9 to 14) (size 15 to 20)
#    0.000    2.200    0.000    2.700    0.000    8.400 
#    0.000    4.500    0.000    3.000    0.000    0.000 
#    0.000    0.000    0.000    0.000    0.000    0.000 
#
# Total GULP energy -496176.696976 kJ/mol
# GULP energy per Si atom -12404.417424 kJ/mol
# Density = 1.880909 g / cm^3
# Si number density = 18.851997 Si / 1000 Ang^3
#
#
#
# Elastic Constant Matrix: (Units=GPa)
#
#
# Indices 1 2 3 4 5 6 
#
# 1 110.3700 50.7977 82.4807 0.0000 0.0000 0.0000
# 2 50.7977 66.4347 64.6816 0.0000 0.0000 0.0000
# 3 82.4807 64.6816 155.9689 0.0000 0.0000 0.0000
# 4 0.0000 0.0000 0.0000 -16.7820 0.0000 0.0000
# 5 0.0000 0.0000 0.0000 0.0000 -114.0902 0.0000
# 6 0.0000 0.0000 0.0000 0.0000 0.0000 24.9569
#
#
#
# Elastic Compliance Matrix: (Units=1/GPa)
#
#
# Indices 1 2 3 4 5 6 
#
# 1 0.016722 -0.007005 -0.005938 0.000000 0.000000 0.000000
# 2 -0.007005 0.028180 -0.007982 0.000000 0.000000 0.000000
# 3 -0.005938 -0.007982 0.012862 0.000000 0.000000 0.000000
# 4 0.000000 0.000000 0.000000 -0.059588 0.000000 0.000000
# 5 0.000000 0.000000 0.000000 0.000000 -0.008765 0.000000
# 6 0.000000 0.000000 0.000000 0.000000 0.000000 0.040069
#
#
# Mechanical properties :
#
#
# Convention : Reuss Voigt Hill
#
# Bulk Modulus (GPa) = 62.83783 80.96596 71.90189
# Shear Modulus (GPa) = 65.24472 -12.19548 26.52462
#
# Velocity S-wave (km/s) = 5.88932 -2.54619 3.75506
# Velocity P-wave (km/s) = 8.92468 5.86492 7.55140
#
# Compressibility (1/GPa) = 0.01591398
#
# Stress axis : x y z
#
# Youngs Moduli (GPa) = 59.80171 35.48642 77.74784
#
# Poissons Ratio (x) = 0.24857 0.46168
# Poissons Ratio (y) = 0.41888 0.62060
# Poissons Ratio (z) = 0.35511 0.28326
#
# Static dielectric constant tensor:
#      x y z
#    x 3.526230 0.000000 0.000000 
#    y 0.000000 3.301430 0.000000 
#    z 0.000000 0.000000 3.589230 
# 
# 
# High freq. dielectric constant tensor:
#      x y z
#    x 1.738400 0.000000 0.000000 
#    y 0.000000 1.715250 0.000000 
#    z 0.000000 0.000000 1.746690 
# 
# From -- ./inp_files/33066.got.cif
#   From: 2010.03.12/outbox.cif.g09.slc.cpg/sg47_17_cif.got.tgz:33066.got - 2010.04.14 03:12:58.
