data_PCOD8198865
_publ_section_title
;
Structure prediction by ZEFSAII (Michael W. Deem and Ramdas Pophale) SiO2 
 PCOD8198865
Probable space group: P M M M
;
_chemical_formula_sum "Si O2"
_cell_formula_units_Z 64
_cell_length_a 8.860777
_cell_length_b 14.852580
_cell_length_c 24.974029
_cell_angle_alpha 90.000000
_cell_angle_beta 90.000000
_cell_angle_gamma 90.000000
_cell_volume 3286.717058
_symmetry_space_group_name_H-M "P M M M"
_symmetry_group_IT_number 47
_symmetry_cell_setting 'orthorhombic'
loop_
_space_group_symop_operation_xyz
x,y,z
-x,-y,z
x,-y,-z
-x,y,-z
-x,-y,-z
x,y,-z
-x,y,z
x,-y,z
loop_
_atom_site_type_symbol
_atom_site_label
_atom_site_fract_x
_atom_site_fract_y
_atom_site_fract_z
Si Si1 0.320886 0.751360 0.366278
Si Si2 0.821228 0.603560 0.845786
Si Si3 0.179424 0.724748 0.746221
Si Si4 0.823471 0.104594 0.560521
Si Si5 0.177533 0.100044 0.918806
Si Si6 0.678858 0.597348 0.559099
Si Si7 0.821278 0.096054 0.797558
Si Si8 0.326383 0.717570 0.940700
O O1 0.500000 0.756204 0.362534
O O2 0.257427 0.714550 0.310500
O O3 0.261396 0.844934 0.390879
O O4 0.253991 0.676100 0.405533
O O5 0.763699 0.500000 0.846526
O O6 0.769846 0.649253 0.789563
O O7 0.758804 0.657748 0.896697
O O8 0.000000 0.608104 0.850335
O O9 0.245122 0.821102 0.764970
O O10 0.000000 0.723831 0.739444
O O11 0.771698 0.134139 0.500000
O O12 0.000000 0.122679 0.567047
O O13 0.785854 0.000000 0.568287
O O14 0.234281 0.102740 0.858041
O O15 0.264373 0.180750 0.947457
O O16 0.000000 0.118667 0.924057
O O17 0.214650 0.000000 0.942718
O O18 0.747634 0.607551 0.500000
O O19 0.500000 0.605726 0.556595
O O20 0.724960 0.500000 0.583154
O O21 0.000000 0.101545 0.797167
O O22 0.767726 0.000000 0.772641
O O23 0.500000 0.721563 0.923451
O O24 0.308006 0.673305 0.000000
#
# Coordination Sequence:
#
# PCOD8198865 Si02
#       8
#     8   8   8   8   8   8   8   8
#     4  11  22  33  51  83 117 146 182 229 279 331
#     4  10  22  42  66  87 108 142 193 248 295 341
#     4  10  20  36  56  79 110 147 184 225 278 337
#     4   9  19  37  59  81 109 151 199 240 284 340
#     4   9  17  33  59  87 113 146 190 233 271 319
#     4   8  15  30  51  73 100 137 178 217 261 317
#     4   8  14  28  53  79 100 130 175 222 266 313
#     4  11  24  39  57  85 122 157 186 226 285 351
#
# _framework density 19.472318000000001
#
# number of rings (size 3 to 8) (size 9 to 14) (size 15 to 20)
#    0.000    2.500    1.250    2.625    0.000    4.500 
#    0.000    4.375    0.000    1.125    0.000    4.375 
#    0.000    0.000    0.000    0.000    0.000    0.000 
#
# Total GULP energy -792952.477792 kJ/mol
# GULP energy per Si atom -12389.882466 kJ/mol
# Density = 1.942800 g / cm^3
# Si number density = 19.472318 Si / 1000 Ang^3
#
#
#
# Elastic Constant Matrix: (Units=GPa)
#
#
# Indices 1 2 3 4 5 6 
#
# 1 42.1443 32.8733 33.5947 0.0000 0.0000 0.0000
# 2 32.8733 139.0305 65.7812 0.0000 0.0000 0.0000
# 3 33.5947 65.7812 122.4785 0.0000 0.0000 0.0000
# 4 0.0000 0.0000 0.0000 8.5217 0.0000 0.0000
# 5 0.0000 0.0000 0.0000 0.0000 27.7165 0.0000
# 6 0.0000 0.0000 0.0000 0.0000 0.0000 16.0050
#
#
#
# Elastic Compliance Matrix: (Units=1/GPa)
#
#
# Indices 1 2 3 4 5 6 
#
# 1 0.032458 -0.004642 -0.006410 0.000000 0.000000 0.000000
# 2 -0.004642 0.010307 -0.004262 0.000000 0.000000 0.000000
# 3 -0.006410 -0.004262 0.012212 0.000000 0.000000 0.000000
# 4 0.000000 0.000000 0.000000 0.117348 0.000000 0.000000
# 5 0.000000 0.000000 0.000000 0.000000 0.036080 0.000000
# 6 0.000000 0.000000 0.000000 0.000000 0.000000 0.062480
#
#
# Mechanical properties :
#
#
# Convention : Reuss Voigt Hill
#
# Bulk Modulus (GPa) = 41.06957 63.12796 52.09877
# Shear Modulus (GPa) = 16.14830 21.87557 19.01193
#
# Velocity S-wave (km/s) = 2.88287 3.35538 3.12806
# Velocity P-wave (km/s) = 5.67612 6.89211 6.31346
#
# Compressibility (1/GPa) = 0.02434893
#
# Stress axis : x y z
#
# Youngs Moduli (GPa) = 30.80873 97.02160 81.88535
#
# Poissons Ratio (x) = 0.45036 0.52488
# Poissons Ratio (y) = 0.14301 0.34904
# Poissons Ratio (z) = 0.19748 0.41355
#
# Static dielectric constant tensor:
#      x y z
#    x 3.163510 0.000000 0.000000 
#    y 0.000000 3.983190 0.000000 
#    z 0.000000 0.000000 3.647400 
# 
# 
# High freq. dielectric constant tensor:
#      x y z
#    x 1.723360 0.000000 0.000000 
#    y 0.000000 1.768240 0.000000 
#    z 0.000000 0.000000 1.760780 
# 
# From -- ./inp_files/32117.got.cif
#   From: 2010.03.12/outbox.cif.g09.slc.cpg/sg47_17_cif.got.tgz:32117.got - 2010.04.14 03:12:58.
