data_PCOD8198063
_publ_section_title
;
Structure prediction by ZEFSAII (Michael W. Deem and Ramdas Pophale) SiO2 
 PCOD8198063
Probable space group: P M M M
;
_chemical_formula_sum "Si O2"
_cell_formula_units_Z 52
_cell_length_a 8.020755
_cell_length_b 11.944034
_cell_length_c 29.996771
_cell_angle_alpha 90.000000
_cell_angle_beta 90.000000
_cell_angle_gamma 90.000000
_cell_volume 2873.695774
_symmetry_space_group_name_H-M "P M M M"
_symmetry_group_IT_number 47
_symmetry_cell_setting 'orthorhombic'
loop_
_space_group_symop_operation_xyz
x,y,z
-x,-y,z
x,-y,-z
-x,y,-z
-x,-y,-z
x,y,-z
-x,y,z
x,-y,z
loop_
_atom_site_type_symbol
_atom_site_label
_atom_site_fract_x
_atom_site_fract_y
_atom_site_fract_z
Si Si1 0.697473 0.729747 0.950157
Si Si2 0.314773 0.867031 0.394169
Si Si3 0.196309 0.128703 0.701133
Si Si4 0.303722 0.500000 0.190729
Si Si5 0.000000 0.133641 0.449446
Si Si6 0.301246 0.500000 0.909455
Si Si7 0.196271 0.125048 0.869856
Si Si8 0.804115 0.261082 0.213798
O O1 0.500000 0.725989 0.949303
O O2 0.768900 0.609873 0.934144
O O3 0.759725 0.827752 0.918264
O O4 0.763763 0.754022 0.000000
O O5 0.500000 0.826647 0.409796
O O6 0.285586 0.827089 0.343507
O O7 0.168076 0.818702 0.425862
O O8 0.304469 0.000000 0.395699
O O9 0.267701 0.200664 0.742308
O O10 0.000000 0.144209 0.694235
O O11 0.240637 0.000000 0.711030
O O12 0.500000 0.500000 0.189149
O O13 0.229918 0.500000 0.140742
O O14 0.240774 0.608776 0.216739
O O15 0.000000 0.177317 0.500000
O O16 0.000000 0.000000 0.447370
O O17 0.500000 0.500000 0.909527
O O18 0.273394 0.203735 0.830803
O O19 0.000000 0.119910 0.864360
O O20 0.271567 0.000000 0.865598
O O21 0.000000 0.244034 0.212996
#
# Coordination Sequence:
#
# PCOD8198063 Si02
#       8
#     8   8   8   4   4   4   8   8
#     4  10  20  35  55  75  94 121 157 194 236 287
#     4   9  16  26  41  63  93 130 173 219 264 308
#     4   9  16  29  49  70  95 129 168 209 252 299
#     4  11  21  34  53  73  98 126 154 194 246 293
#     4   9  16  26  40  60  92 135 181 225 264 304
#     4   9  17  33  54  73  93 119 151 193 242 288
#     4  10  21  36  52  72  99 127 156 193 239 290
#     4  10  20  34  53  74  96 126 163 198 239 295
#
# _framework density 18.095165000000001
#
# number of rings (size 3 to 8) (size 9 to 14) (size 15 to 20)
#    0.000    2.385    2.308    0.923    0.000    4.615 
#    0.000    3.462    0.000    3.692    0.000    0.000 
#    0.000    0.000    0.000    1.385    0.000    3.846 
#
# Total GULP energy -644696.898431 kJ/mol
# GULP energy per Si atom -12398.017278 kJ/mol
# Density = 1.805398 g / cm^3
# Si number density = 18.095165 Si / 1000 Ang^3
#
#
#
# Elastic Constant Matrix: (Units=GPa)
#
#
# Indices 1 2 3 4 5 6 
#
# 1 58.8138 16.0758 47.8060 0.0000 0.0000 0.0000
# 2 16.0758 96.3377 51.8920 0.0000 0.0000 0.0000
# 3 47.8060 51.8920 145.9024 0.0000 0.0000 0.0000
# 4 0.0000 0.0000 0.0000 3.8471 0.0000 0.0000
# 5 0.0000 0.0000 0.0000 0.0000 18.7204 0.0000
# 6 0.0000 0.0000 0.0000 0.0000 0.0000 15.8419
#
#
#
# Elastic Compliance Matrix: (Units=1/GPa)
#
#
# Indices 1 2 3 4 5 6 
#
# 1 0.023181 0.000276 -0.007694 0.000000 0.000000 0.000000
# 2 0.000276 0.012843 -0.004658 0.000000 0.000000 0.000000
# 3 -0.007694 -0.004658 0.011032 0.000000 0.000000 0.000000
# 4 0.000000 0.000000 0.000000 0.259934 0.000000 0.000000
# 5 0.000000 0.000000 0.000000 0.000000 0.053418 0.000000
# 6 0.000000 0.000000 0.000000 0.000000 0.000000 0.063124
#
#
# Mechanical properties :
#
#
# Convention : Reuss Voigt Hill
#
# Bulk Modulus (GPa) = 43.66056 59.17793 51.41925
# Shear Modulus (GPa) = 10.98135 20.03389 15.50762
#
# Velocity S-wave (km/s) = 2.46614 3.33098 2.93064
# Velocity P-wave (km/s) = 5.68241 6.89700 6.31896
#
# Compressibility (1/GPa) = 0.02290397
#
# Stress axis : x y z
#
# Youngs Moduli (GPa) = 43.13875 77.86175 90.64926
#
# Poissons Ratio (x) = -0.02148 0.69742
# Poissons Ratio (y) = -0.01190 0.42227
# Poissons Ratio (z) = 0.33189 0.36270
#
# Static dielectric constant tensor:
#      x y z
#    x 3.244480 0.000000 0.000000 
#    y 0.000000 3.130910 0.000000 
#    z 0.000000 0.000000 3.531670 
# 
# 
# High freq. dielectric constant tensor:
#      x y z
#    x 1.692190 0.000000 0.000000 
#    y 0.000000 1.662040 0.000000 
#    z 0.000000 0.000000 1.698200 
# 
# From -- ./inp_files/34350.got.cif
#   From: 2010.03.12/outbox.cif.g09.slc.cpg/sg47_18_cif.got.tgz:34350.got - 2010.04.14 03:12:58.
