data_PCOD8198190
_publ_section_title
;
Structure prediction by ZEFSAII (Michael W. Deem and Ramdas Pophale) SiO2 
 PCOD8198190
Probable space group: P M M M
;
_chemical_formula_sum "Si O2"
_cell_formula_units_Z 40
_cell_length_a 11.908140
_cell_length_b 20.293838
_cell_length_c 8.754422
_cell_angle_alpha 90.000000
_cell_angle_beta 90.000000
_cell_angle_gamma 90.000000
_cell_volume 2115.609939
_symmetry_space_group_name_H-M "P M M M"
_symmetry_group_IT_number 47
_symmetry_cell_setting 'orthorhombic'
loop_
_space_group_symop_operation_xyz
x,y,z
-x,-y,z
x,-y,-z
-x,y,-z
-x,-y,-z
x,y,-z
-x,y,z
x,-y,z
loop_
_atom_site_type_symbol
_atom_site_label
_atom_site_fract_x
_atom_site_fract_y
_atom_site_fract_z
Si Si1 0.000000 0.281904 0.681018
Si Si2 0.230932 0.072905 0.681440
Si Si3 0.000000 0.867900 0.318140
Si Si4 0.230358 0.686539 0.178615
Si Si5 0.629641 0.575869 0.324810
Si Si6 0.628449 0.804203 0.680688
O O1 0.000000 0.206893 0.741390
O O2 0.109471 0.318704 0.742812
O O3 0.000000 0.285222 0.500000
O O4 0.224904 0.071008 0.500000
O O5 0.109994 0.095421 0.746358
O O6 0.326192 0.124360 0.734122
O O7 0.260100 0.000000 0.745409
O O8 0.000000 0.868295 0.500000
O O9 0.295474 0.619250 0.213081
O O10 0.299508 0.748175 0.240703
O O11 0.213944 0.694862 0.000000
O O12 0.652387 0.596238 0.500000
O O13 0.500000 0.588355 0.284404
O O14 0.661530 0.500000 0.298006
O O15 0.641408 0.795570 0.500000
O O16 0.500000 0.798101 0.733395
#
# Coordination Sequence:
#
# PCOD8198190 Si02
#       6
#     4   8   4   8   8   8
#     4  11  21  38  62  82 108 147 190 233 282 335
#     4   9  16  27  47  78 110 137 178 241 298 336
#     4   9  15  27  50  77 103 133 176 231 288 338
#     4  12  24  37  56  85 118 149 186 231 282 334
#     4   9  19  38  64  91 118 151 191 231 272 323
#     4  10  20  34  53  78 109 149 195 236 279 336
#
# _framework density 18.907077999999998
#
# number of rings (size 3 to 8) (size 9 to 14) (size 15 to 20)
#    0.000    2.000    2.000    3.600    0.000    5.200 
#    0.000    3.500    0.000    3.600    0.000    2.800 
#    0.000    0.000    0.000    0.000    0.000    0.000 
#
# Total GULP energy -496048.550928 kJ/mol
# GULP energy per Si atom -12401.213773 kJ/mol
# Density = 1.886404 g / cm^3
# Si number density = 18.907078 Si / 1000 Ang^3
#
#
#
# Elastic Constant Matrix: (Units=GPa)
#
#
# Indices 1 2 3 4 5 6 
#
# 1 133.9147 58.7220 45.7283 0.0000 0.0000 0.0000
# 2 58.7220 113.2538 30.5090 0.0000 0.0000 0.0000
# 3 45.7283 30.5090 52.0003 0.0000 0.0000 0.0000
# 4 0.0000 0.0000 0.0000 2.8723 0.0000 0.0000
# 5 0.0000 0.0000 0.0000 0.0000 12.4567 0.0000
# 6 0.0000 0.0000 0.0000 0.0000 0.0000 25.7014
#
#
#
# Elastic Compliance Matrix: (Units=1/GPa)
#
#
# Indices 1 2 3 4 5 6 
#
# 1 0.012043 -0.004028 -0.008227 0.000000 0.000000 0.000000
# 2 -0.004028 0.011834 -0.003401 0.000000 0.000000 0.000000
# 3 -0.008227 -0.003401 0.028461 0.000000 0.000000 0.000000
# 4 0.000000 0.000000 0.000000 0.348152 0.000000 0.000000
# 5 0.000000 0.000000 0.000000 0.000000 0.080278 0.000000
# 6 0.000000 0.000000 0.000000 0.000000 0.000000 0.038908
#
#
# Mechanical properties :
#
#
# Convention : Reuss Voigt Hill
#
# Bulk Modulus (GPa) = 47.56082 63.23195 55.39638
# Shear Modulus (GPa) = 8.96060 19.15339 14.05700
#
# Velocity S-wave (km/s) = 2.17935 3.18626 2.72964
# Velocity P-wave (km/s) = 5.61626 6.85948 6.26877
#
# Compressibility (1/GPa) = 0.02102571
#
# Stress axis : x y z
#
# Youngs Moduli (GPa) = 83.03477 84.49873 35.13566
#
# Poissons Ratio (x) = 0.34036 0.28907
# Poissons Ratio (y) = 0.33447 0.11950
# Poissons Ratio (z) = 0.68315 0.28740
#
# Static dielectric constant tensor:
#      x y z
#    x 3.630010 0.000000 0.000000 
#    y 0.000000 3.634630 0.000000 
#    z 0.000000 0.000000 3.086130 
# 
# 
# High freq. dielectric constant tensor:
#      x y z
#    x 1.742090 0.000000 0.000000 
#    y 0.000000 1.741840 0.000000 
#    z 0.000000 0.000000 1.695030 
# 
# From -- ./inp_files/4134.got.cif
#   From: 2010.03.12/outbox.cif.g09.slc.cpg/sg47_3_cif.got.tgz:4134.got - 2010.04.14 03:12:58.
