data_PCOD8198515
_publ_section_title
;
Structure prediction by ZEFSAII (Michael W. Deem and Ramdas Pophale) SiO2 
 PCOD8198515
Probable space group: P M M M
;
_chemical_formula_sum "Si O2"
_cell_formula_units_Z 48
_cell_length_a 9.025767
_cell_length_b 14.702658
_cell_length_c 19.683617
_cell_angle_alpha 90.000000
_cell_angle_beta 90.000000
_cell_angle_gamma 90.000000
_cell_volume 2612.070409
_symmetry_space_group_name_H-M "P M M M"
_symmetry_group_IT_number 47
_symmetry_cell_setting 'orthorhombic'
loop_
_space_group_symop_operation_xyz
x,y,z
-x,-y,z
x,-y,-z
-x,y,-z
-x,-y,-z
x,y,-z
-x,y,z
x,-y,z
loop_
_atom_site_type_symbol
_atom_site_label
_atom_site_fract_x
_atom_site_fract_y
_atom_site_fract_z
Si Si1 0.670513 0.599043 0.257573
Si Si2 0.674031 0.602819 0.000000
Si Si3 0.325735 0.204945 0.305231
Si Si4 0.676448 0.000000 0.080097
Si Si5 0.170681 0.895654 0.421646
Si Si6 0.836430 0.653771 0.869774
Si Si7 0.165920 0.858558 0.824727
O O1 0.500000 0.610737 0.236476
O O2 0.694368 0.500000 0.294906
O O3 0.718493 0.687292 0.301597
O O4 0.764545 0.593429 0.188961
O O5 0.734077 0.653669 0.065086
O O6 0.731510 0.500000 0.000000
O O7 0.500000 0.609735 0.000000
O O8 0.500000 0.191663 0.297301
O O9 0.273722 0.170798 0.378373
O O10 0.248720 0.142011 0.247939
O O11 0.742684 0.912466 0.118198
O O12 0.500000 0.000000 0.087391
O O13 0.721949 0.000000 0.000000
O O14 0.199827 0.872220 0.500000
O O15 0.000000 0.878150 0.402706
O O16 0.213178 0.000000 0.406768
O O17 0.846877 0.756662 0.848041
O O18 0.000000 0.614969 0.885723
O O19 0.000000 0.900154 0.816181
#
# Coordination Sequence:
#
# PCOD8198515 Si02
#       7
#     8   4   8   4   8   8   8
#     4   9  18  34  54  76 105 141 178 216 265 321
#     4  11  23  35  49  70  97 132 167 205 266 331
#     4  10  20  34  56  85 114 143 180 228 270 313
#     4  11  25  41  57  79 104 135 180 231 277 319
#     4   9  19  36  57  81 112 150 185 218 266 326
#     4  10  21  35  52  75 100 128 169 219 267 316
#     4  10  22  39  57  77 104 141 179 218 269 326
#
# _framework density 18.376227
#
# number of rings (size 3 to 8) (size 9 to 14) (size 15 to 20)
#    0.000    2.167    0.000    3.000    2.333    7.000 
#    0.000    0.833    0.000    0.500    0.000    3.500 
#    0.000    0.000    0.000    0.000    0.000    0.000 
#
# Total GULP energy -595027.894634 kJ/mol
# GULP energy per Si atom -12396.414472 kJ/mol
# Density = 1.833440 g / cm^3
# Si number density = 18.376227 Si / 1000 Ang^3
#
#
#
# Elastic Constant Matrix: (Units=GPa)
#
#
# Indices 1 2 3 4 5 6 
#
# 1 89.2298 36.5396 45.5442 0.0000 0.0000 0.0000
# 2 36.5396 82.1027 47.1062 0.0000 0.0000 0.0000
# 3 45.5442 47.1062 101.8677 0.0000 0.0000 0.0000
# 4 0.0000 0.0000 0.0000 23.1450 0.0000 0.0000
# 5 0.0000 0.0000 0.0000 0.0000 35.4228 0.0000
# 6 0.0000 0.0000 0.0000 0.0000 0.0000 19.2785
#
#
#
# Elastic Compliance Matrix: (Units=1/GPa)
#
#
# Indices 1 2 3 4 5 6 
#
# 1 0.015409 -0.003954 -0.005061 0.000000 0.000000 0.000000
# 2 -0.003954 0.017593 -0.006368 0.000000 0.000000 0.000000
# 3 -0.005061 -0.006368 0.015024 0.000000 0.000000 0.000000
# 4 0.000000 0.000000 0.000000 0.043206 0.000000 0.000000
# 5 0.000000 0.000000 0.000000 0.000000 0.028230 0.000000
# 6 0.000000 0.000000 0.000000 0.000000 0.000000 0.051871
#
#
# Mechanical properties :
#
#
# Convention : Reuss Voigt Hill
#
# Bulk Modulus (GPa) = 57.93424 59.06446 58.49935
# Shear Modulus (GPa) = 24.05547 25.16994 24.61270
#
# Velocity S-wave (km/s) = 3.62201 3.70496 3.66372
# Velocity P-wave (km/s) = 7.00622 7.10731 7.05695
#
# Compressibility (1/GPa) = 0.01726095
#
# Stress axis : x y z
#
# Youngs Moduli (GPa) = 64.89527 56.84055 66.56082
#
# Poissons Ratio (x) = 0.22476 0.33686
# Poissons Ratio (y) = 0.25661 0.42383
# Poissons Ratio (z) = 0.32843 0.36194
#
# Static dielectric constant tensor:
#      x y z
#    x 3.636200 0.000000 0.000000 
#    y 0.000000 3.567490 0.000000 
#    z 0.000000 0.000000 3.239490 
# 
# 
# High freq. dielectric constant tensor:
#      x y z
#    x 1.724970 0.000000 0.000000 
#    y 0.000000 1.718580 0.000000 
#    z 0.000000 0.000000 1.691720 
# 
# From -- ./inp_files/26526.got.cif
#   From: 2010.03.12/outbox.cif.g09.slc.cpg/sg47_14_cif.got.tgz:26526.got - 2010.04.14 03:12:58.
