data_PCOD8198018
_publ_section_title
;
Structure prediction by ZEFSAII (Michael W. Deem and Ramdas Pophale) SiO2 
 PCOD8198018
Probable space group: P M M M
;
_chemical_formula_sum "Si O2"
_cell_formula_units_Z 48
_cell_length_a 18.679808
_cell_length_b 8.646412
_cell_length_c 16.464492
_cell_angle_alpha 90.000000
_cell_angle_beta 90.000000
_cell_angle_gamma 90.000000
_cell_volume 2659.234700
_symmetry_space_group_name_H-M "P M M M"
_symmetry_group_IT_number 47
_symmetry_cell_setting 'orthorhombic'
loop_
_space_group_symop_operation_xyz
x,y,z
-x,-y,z
x,-y,-z
-x,y,-z
-x,-y,-z
x,y,-z
-x,y,z
x,-y,z
loop_
_atom_site_type_symbol
_atom_site_label
_atom_site_fract_x
_atom_site_fract_y
_atom_site_fract_z
Si Si1 0.711605 0.681372 0.588607
Si Si2 0.081873 0.818637 0.000000
Si Si3 0.580415 0.678425 0.691461
Si Si4 0.917402 0.816337 0.174930
Si Si5 0.345530 0.818775 0.159419
Si Si6 0.784976 0.682725 0.250948
Si Si7 0.582523 0.683247 0.000000
O O1 0.726721 0.758606 0.500000
O O2 0.722957 0.500000 0.580265
O O3 0.630275 0.719799 0.614942
O O4 0.763954 0.744991 0.659110
O O5 0.112312 0.757231 0.086038
O O6 0.000000 0.771840 0.000000
O O7 0.091150 0.000000 0.000000
O O8 0.500000 0.712104 0.663507
O O9 0.591934 0.500000 0.717734
O O10 0.599022 0.783040 0.768633
O O11 0.867220 0.732600 0.239842
O O12 0.000000 0.766984 0.189141
O O13 0.910336 0.000000 0.182795
O O14 0.266639 0.756234 0.182817
O O15 0.374639 0.741149 0.078166
O O16 0.339846 0.000000 0.144436
O O17 0.776068 0.500000 0.245759
O O18 0.582422 0.500000 0.000000
O O19 0.500000 0.744574 0.000000
#
# Coordination Sequence:
#
# PCOD8198018 Si02
#       7
#     8   4   8   8   8   8   4
#     4   8  15  29  49  72  96 125 164 207 250 297
#     4   7  12  25  45  68  93 122 154 185 218 262
#     4   9  17  30  49  73 100 127 157 201 256 304
#     4   9  17  31  52  76 102 132 166 204 247 297
#     4  11  22  35  51  71  98 134 174 209 246 298
#     4  10  20  34  52  74 101 131 165 208 255 300
#     4  11  23  38  55  74 100 134 174 221 263 292
#
# _framework density 18.050305999999999
#
# number of rings (size 3 to 8) (size 9 to 14) (size 15 to 20)
#    0.000    2.667    0.000    4.750    0.000    4.333 
#    0.000    4.583    0.000   14.500    0.000    8.167 
#    0.000    0.000    0.000    0.000    0.000    0.000 
#
# Total GULP energy -594770.168025 kJ/mol
# GULP energy per Si atom -12391.045167 kJ/mol
# Density = 1.800922 g / cm^3
# Si number density = 18.050306 Si / 1000 Ang^3
#
#
#
# Elastic Constant Matrix: (Units=GPa)
#
#
# Indices 1 2 3 4 5 6 
#
# 1 123.3856 26.7425 70.0331 0.0000 0.0000 0.0000
# 2 26.7425 54.9318 26.4531 0.0000 0.0000 0.0000
# 3 70.0331 26.4531 136.6449 0.0000 0.0000 0.0000
# 4 0.0000 0.0000 0.0000 7.4238 0.0000 0.0000
# 5 0.0000 0.0000 0.0000 0.0000 17.6012 0.0000
# 6 0.0000 0.0000 0.0000 0.0000 0.0000 26.2880
#
#
#
# Elastic Compliance Matrix: (Units=1/GPa)
#
#
# Indices 1 2 3 4 5 6 
#
# 1 0.011904 -0.003151 -0.005491 0.000000 0.000000 0.000000
# 2 -0.003151 0.020910 -0.002433 0.000000 0.000000 0.000000
# 3 -0.005491 -0.002433 0.010604 0.000000 0.000000 0.000000
# 4 0.000000 0.000000 0.000000 0.134703 0.000000 0.000000
# 5 0.000000 0.000000 0.000000 0.000000 0.056814 0.000000
# 6 0.000000 0.000000 0.000000 0.000000 0.000000 0.038040
#
#
# Mechanical properties :
#
#
# Convention : Reuss Voigt Hill
#
# Bulk Modulus (GPa) = 47.02011 62.37997 54.70004
# Shear Modulus (GPa) = 16.54451 23.04483 19.79467
#
# Velocity S-wave (km/s) = 3.03079 3.57697 3.31515
# Velocity P-wave (km/s) = 6.19303 7.18983 6.70996
#
# Compressibility (1/GPa) = 0.02126750
#
# Stress axis : x y z
#
# Youngs Moduli (GPa) = 84.00240 47.82388 94.30769
#
# Poissons Ratio (x) = 0.15070 0.51786
# Poissons Ratio (y) = 0.26470 0.22945
# Poissons Ratio (z) = 0.46128 0.11635
#
# Static dielectric constant tensor:
#      x y z
#    x 3.339980 0.000000 0.000000 
#    y 0.000000 3.079540 0.000000 
#    z 0.000000 0.000000 3.666310 
# 
# 
# High freq. dielectric constant tensor:
#      x y z
#    x 1.691600 0.000000 0.000000 
#    y 0.000000 1.675460 0.000000 
#    z 0.000000 0.000000 1.696660 
# 
# From -- ./inp_files/24505.got.cif
#   From: 2010.03.12/outbox.cif.g09.slc.cpg/sg47_13_cif.got.tgz:24505.got - 2010.04.14 03:12:58.
