data_PCOD8198155
_publ_section_title
;
Structure prediction by ZEFSAII (Michael W. Deem and Ramdas Pophale) SiO2 
 PCOD8198155
Probable space group: P M M M
;
_chemical_formula_sum "Si O2"
_cell_formula_units_Z 40
_cell_length_a 12.392787
_cell_length_b 20.300778
_cell_length_c 8.697976
_cell_angle_alpha 90.000000
_cell_angle_beta 90.000000
_cell_angle_gamma 90.000000
_cell_volume 2188.264789
_symmetry_space_group_name_H-M "P M M M"
_symmetry_group_IT_number 47
_symmetry_cell_setting 'orthorhombic'
loop_
_space_group_symop_operation_xyz
x,y,z
-x,-y,z
x,-y,-z
-x,y,-z
-x,-y,-z
x,y,-z
-x,y,z
x,-y,z
loop_
_atom_site_type_symbol
_atom_site_label
_atom_site_fract_x
_atom_site_fract_y
_atom_site_fract_z
Si Si1 0.722379 0.241234 0.680481
Si Si2 0.500000 0.390063 0.167333
Si Si3 0.500000 0.234343 0.830383
Si Si4 0.871951 0.000000 0.326901
Si Si5 0.120639 0.500000 0.817051
Si Si6 0.730301 0.382871 0.184437
Si Si7 0.872665 0.865064 0.177560
O O1 0.713378 0.250003 0.500000
O O2 0.608263 0.212941 0.741394
O O3 0.757234 0.311072 0.752113
O O4 0.816318 0.190859 0.722541
O O5 0.500000 0.311975 0.151570
O O6 0.613142 0.408904 0.249761
O O7 0.500000 0.423952 0.000000
O O8 0.500000 0.201472 0.000000
O O9 0.830713 0.935769 0.236614
O O10 0.824895 0.000000 0.500000
O O11 0.000000 0.000000 0.331270
O O12 0.180258 0.434324 0.757406
O O13 0.000000 0.500000 0.749285
O O14 0.119215 0.500000 0.000000
O O15 0.724913 0.378404 0.000000
O O16 0.000000 0.857717 0.202363
O O17 0.840603 0.857219 0.000000
#
# Coordination Sequence:
#
# PCOD8198155 Si02
#       7
#     8   4   4   4   4   8   8
#     4  11  21  33  52  79 108 136 170 215 265 310
#     4   7  12  24  45  69  89 113 151 200 247 291
#     4   9  17  33  54  75 102 136 172 208 253 310
#     4   9  17  31  51  76 107 138 169 213 266 311
#     4   9  18  31  48  70  95 127 169 212 253 303
#     4   9  17  31  49  69  95 128 167 210 255 304
#     4  10  20  34  53  77 105 140 180 217 255 304
#
# _framework density 18.279323000000002
#
# number of rings (size 3 to 8) (size 9 to 14) (size 15 to 20)
#    0.000    2.600    0.000    4.200    0.000    3.600 
#    0.000    4.500    0.000    1.200    0.000    8.400 
#    0.000    0.000    0.000    0.000    0.000    0.000 
#
# Total GULP energy -495770.718226 kJ/mol
# GULP energy per Si atom -12394.267956 kJ/mol
# Density = 1.823772 g / cm^3
# Si number density = 18.279323 Si / 1000 Ang^3
#
#
#
# Elastic Constant Matrix: (Units=GPa)
#
#
# Indices 1 2 3 4 5 6 
#
# 1 107.6176 59.2097 26.8466 0.0000 0.0000 0.0000
# 2 59.2097 109.6239 26.8483 0.0000 0.0000 0.0000
# 3 26.8466 26.8483 74.5637 0.0000 0.0000 0.0000
# 4 0.0000 0.0000 0.0000 12.4413 0.0000 0.0000
# 5 0.0000 0.0000 0.0000 0.0000 21.3067 0.0000
# 6 0.0000 0.0000 0.0000 0.0000 0.0000 4.7336
#
#
#
# Elastic Compliance Matrix: (Units=1/GPa)
#
#
# Indices 1 2 3 4 5 6 
#
# 1 0.013625 -0.006753 -0.002474 0.000000 0.000000 0.000000
# 2 -0.006753 0.013351 -0.002376 0.000000 0.000000 0.000000
# 3 -0.002474 -0.002376 0.015158 0.000000 0.000000 0.000000
# 4 0.000000 0.000000 0.000000 0.080378 0.000000 0.000000
# 5 0.000000 0.000000 0.000000 0.000000 0.046934 0.000000
# 6 0.000000 0.000000 0.000000 0.000000 0.000000 0.211256
#
#
# Mechanical properties :
#
#
# Convention : Reuss Voigt Hill
#
# Bulk Modulus (GPa) = 52.83269 57.51271 55.17270
# Shear Modulus (GPa) = 12.18868 19.62302 15.90585
#
# Velocity S-wave (km/s) = 2.58505 3.28000 2.95304
# Velocity P-wave (km/s) = 6.15432 6.77319 6.47116
#
# Compressibility (1/GPa) = 0.01892768
#
# Stress axis : x y z
#
# Youngs Moduli (GPa) = 73.39583 74.89823 65.97325
#
# Poissons Ratio (x) = 0.50579 0.16322
# Poissons Ratio (y) = 0.49564 0.15676
# Poissons Ratio (z) = 0.18158 0.17796
#
# Static dielectric constant tensor:
#      x y z
#    x 3.585430 0.000000 0.000000 
#    y 0.000000 3.258880 0.000000 
#    z 0.000000 0.000000 3.236540 
# 
# 
# High freq. dielectric constant tensor:
#      x y z
#    x 1.703660 0.000000 0.000000 
#    y 0.000000 1.695620 0.000000 
#    z 0.000000 0.000000 1.692000 
# 
# From -- ./inp_files/4182.got.cif
#   From: 2010.03.12/outbox.cif.g09.slc.cpg/sg47_3_cif.got.tgz:4182.got - 2010.04.14 03:12:58.
