data_PCOD8198687
_publ_section_title
;
Structure prediction by ZEFSAII (Michael W. Deem and Ramdas Pophale) SiO2 
 PCOD8198687
Probable space group: P M M M
;
_chemical_formula_sum "Si O2"
_cell_formula_units_Z 44
_cell_length_a 13.767089
_cell_length_b 18.065768
_cell_length_c 8.963218
_cell_angle_alpha 90.000000
_cell_angle_beta 90.000000
_cell_angle_gamma 90.000000
_cell_volume 2229.269160
_symmetry_space_group_name_H-M "P M M M"
_symmetry_group_IT_number 47
_symmetry_cell_setting 'orthorhombic'
loop_
_space_group_symop_operation_xyz
x,y,z
-x,-y,z
x,-y,-z
-x,y,-z
-x,-y,-z
x,y,-z
-x,y,z
x,-y,z
loop_
_atom_site_type_symbol
_atom_site_label
_atom_site_fract_x
_atom_site_fract_y
_atom_site_fract_z
Si Si1 0.383824 0.000000 0.332653
Si Si2 0.890010 0.721855 0.827184
Si Si3 0.387631 0.414719 0.825760
Si Si4 0.112671 0.420430 0.662404
Si Si5 0.387526 0.142654 0.835657
Si Si6 0.299817 0.725671 0.324516
O O1 0.341183 0.927123 0.251120
O O2 0.500000 0.000000 0.334611
O O3 0.342645 0.000000 0.500000
O O4 0.869502 0.634910 0.798717
O O5 0.805619 0.759247 0.728135
O O6 0.000000 0.744095 0.775924
O O7 0.875557 0.740184 0.000000
O O8 0.500000 0.399293 0.785682
O O9 0.361703 0.500000 0.785884
O O10 0.319701 0.358677 0.731034
O O11 0.369635 0.399412 0.000000
O O12 0.153439 0.390689 0.500000
O O13 0.160948 0.500000 0.701108
O O14 0.000000 0.432356 0.641115
O O15 0.500000 0.126231 0.854535
O O16 0.377752 0.219114 0.746110
O O17 0.339185 0.149435 0.000000
O O18 0.309051 0.729141 0.500000
#
# Coordination Sequence:
#
# PCOD8198687 Si02
#       6
#     4   8   8   8   8   8
#     4   9  17  31  53  83 118 149 176 209 253 307
#     4  10  21  36  52  69  92 126 170 219 268 318
#     4   9  19  37  58  77 101 137 180 225 271 319
#     4   8  14  26  44  64  86 113 147 193 252 312
#     4  10  20  35  56  82 114 149 181 213 253 306
#     4  12  24  35  52  78 107 140 178 222 271 320
#
# _framework density 19.737411000000002
#
# number of rings (size 3 to 8) (size 9 to 14) (size 15 to 20)
#    0.000    2.273    0.000    4.636    0.000    7.273 
#    0.000    2.727    0.000    0.000    0.000    0.636 
#    0.000    5.091    0.000    0.000    0.000    0.000 
#
# Total GULP energy -545133.252567 kJ/mol
# GULP energy per Si atom -12389.392104 kJ/mol
# Density = 1.969249 g / cm^3
# Si number density = 19.737411 Si / 1000 Ang^3
#
#
#
# Elastic Constant Matrix: (Units=GPa)
#
#
# Indices 1 2 3 4 5 6 
#
# 1 62.0026 6.3873 32.8791 0.0000 0.0000 0.0000
# 2 6.3873 91.9662 44.8958 0.0000 0.0000 0.0000
# 3 32.8791 44.8958 138.6729 0.0000 0.0000 0.0000
# 4 0.0000 0.0000 0.0000 27.2650 0.0000 0.0000
# 5 0.0000 0.0000 0.0000 0.0000 22.0853 0.0000
# 6 0.0000 0.0000 0.0000 0.0000 0.0000 7.0155
#
#
#
# Elastic Compliance Matrix: (Units=1/GPa)
#
#
# Indices 1 2 3 4 5 6 
#
# 1 0.018528 0.001019 -0.004723 0.000000 0.000000 0.000000
# 2 0.001019 0.012971 -0.004441 0.000000 0.000000 0.000000
# 3 -0.004723 -0.004441 0.009769 0.000000 0.000000 0.000000
# 4 0.000000 0.000000 0.000000 0.036677 0.000000 0.000000
# 5 0.000000 0.000000 0.000000 0.000000 0.045279 0.000000
# 6 0.000000 0.000000 0.000000 0.000000 0.000000 0.142541
#
#
# Mechanical properties :
#
#
# Convention : Reuss Voigt Hill
#
# Bulk Modulus (GPa) = 40.03598 51.21846 45.62722
# Shear Modulus (GPa) = 17.21882 25.17178 21.19530
#
# Velocity S-wave (km/s) = 2.95684 3.57506 3.28054
# Velocity P-wave (km/s) = 5.65558 6.56107 6.12508
#
# Compressibility (1/GPa) = 0.02497753
#
# Stress axis : x y z
#
# Youngs Moduli (GPa) = 53.97291 77.09669 102.36774
#
# Poissons Ratio (x) = -0.07854 0.48345
# Poissons Ratio (y) = -0.05498 0.45460
# Poissons Ratio (z) = 0.25490 0.34237
#
# Static dielectric constant tensor:
#      x y z
#    x 3.617450 0.000000 0.000000 
#    y 0.000000 3.473380 0.000000 
#    z 0.000000 0.000000 3.652110 
# 
# 
# High freq. dielectric constant tensor:
#      x y z
#    x 1.751940 0.000000 0.000000 
#    y 0.000000 1.739650 0.000000 
#    z 0.000000 0.000000 1.774830 
# 
# From -- ./inp_files/6187.got.cif
#   From: 2010.03.12/outbox.cif.g09.slc.cpg/sg47_4_cif.got.tgz:6187.got - 2010.04.14 03:12:58.
