data_PCOD8198637
_publ_section_title
;
Structure prediction by ZEFSAII (Michael W. Deem and Ramdas Pophale) SiO2 
 PCOD8198637
Probable space group: P M M M
;
_chemical_formula_sum "Si O2"
_cell_formula_units_Z 56
_cell_length_a 16.113929
_cell_length_b 19.531620
_cell_length_c 9.105113
_cell_angle_alpha 90.000000
_cell_angle_beta 90.000000
_cell_angle_gamma 90.000000
_cell_volume 2865.662576
_symmetry_space_group_name_H-M "P M M M"
_symmetry_group_IT_number 47
_symmetry_cell_setting 'orthorhombic'
loop_
_space_group_symop_operation_xyz
x,y,z
-x,-y,z
x,-y,-z
-x,y,-z
-x,-y,-z
x,y,-z
-x,y,z
x,-y,z
loop_
_atom_site_type_symbol
_atom_site_label
_atom_site_fract_x
_atom_site_fract_y
_atom_site_fract_z
Si Si1 0.749937 0.077311 0.825065
Si Si2 0.090355 0.843059 0.829216
Si Si3 0.831190 0.703893 0.169329
Si Si4 0.097783 0.577245 0.333479
Si Si5 0.592739 0.574151 0.325797
Si Si6 0.666137 0.286096 0.674356
Si Si7 0.407074 0.836014 0.170642
O O1 0.831582 0.115882 0.759110
O O2 0.663851 0.111968 0.770907
O O3 0.751080 0.000000 0.765028
O O4 0.752172 0.079069 0.000000
O O5 0.098277 0.761114 0.807279
O O6 0.000000 0.864311 0.761189
O O7 0.089521 0.861203 0.000000
O O8 0.859141 0.629849 0.224656
O O9 0.754582 0.733867 0.260404
O O10 0.805801 0.697179 0.000000
O O11 0.126447 0.593199 0.500000
O O12 0.124557 0.500000 0.290719
O O13 0.000000 0.585067 0.319391
O O14 0.588891 0.577548 0.500000
O O15 0.500000 0.581834 0.262232
O O16 0.629982 0.500000 0.276353
O O17 0.647811 0.636816 0.267931
O O18 0.666362 0.280823 0.500000
O O19 0.598008 0.234280 0.738082
O O20 0.500000 0.866816 0.194650
O O21 0.391946 0.819354 0.000000
#
# Coordination Sequence:
#
# PCOD8198637 Si02
#       7
#     8   8   8   8   8   8   8
#     4   9  17  31  52  80 113 144 177 219 269 331
#     4   9  17  30  50  77 109 142 176 221 276 326
#     4  11  21  34  52  76 110 145 184 232 283 338
#     4   9  19  36  55  76 106 144 188 238 287 337
#     4   8  15  29  48  70  96 126 165 216 267 313
#     4  11  21  33  53  79 106 140 185 230 276 330
#     4  10  20  35  55  80 112 147 180 222 278 332
#
# _framework density 19.541729
#
# number of rings (size 3 to 8) (size 9 to 14) (size 15 to 20)
#    0.000    2.429    1.429    2.571    0.000    3.143 
#    0.000    5.000    0.000    1.714    0.000    6.000 
#    0.000    1.143    0.000    0.000    0.000    0.000 
#
# Total GULP energy -694057.770713 kJ/mol
# GULP energy per Si atom -12393.888763 kJ/mol
# Density = 1.949725 g / cm^3
# Si number density = 19.541729 Si / 1000 Ang^3
#
#
#
# Elastic Constant Matrix: (Units=GPa)
#
#
# Indices 1 2 3 4 5 6 
#
# 1 136.5953 63.3903 26.8695 0.0000 0.0000 0.0000
# 2 63.3903 131.2127 32.8673 0.0000 0.0000 0.0000
# 3 26.8695 32.8673 45.4091 0.0000 0.0000 0.0000
# 4 0.0000 0.0000 0.0000 15.7892 0.0000 0.0000
# 5 0.0000 0.0000 0.0000 0.0000 19.8699 0.0000
# 6 0.0000 0.0000 0.0000 0.0000 0.0000 28.5529
#
#
#
# Elastic Compliance Matrix: (Units=1/GPa)
#
#
# Indices 1 2 3 4 5 6 
#
# 1 0.009735 -0.003982 -0.002878 0.000000 0.000000 0.000000
# 2 -0.003982 0.010938 -0.005561 0.000000 0.000000 0.000000
# 3 -0.002878 -0.005561 0.027750 0.000000 0.000000 0.000000
# 4 0.000000 0.000000 0.000000 0.063334 0.000000 0.000000
# 5 0.000000 0.000000 0.000000 0.000000 0.050327 0.000000
# 6 0.000000 0.000000 0.000000 0.000000 0.000000 0.035023
#
#
# Mechanical properties :
#
#
# Convention : Reuss Voigt Hill
#
# Bulk Modulus (GPa) = 42.40688 62.16347 52.28517
# Shear Modulus (GPa) = 21.75715 25.51506 23.63610
#
# Velocity S-wave (km/s) = 3.34034 3.61733 3.48159
# Velocity P-wave (km/s) = 6.05185 7.02328 6.55558
#
# Compressibility (1/GPa) = 0.02358108
#
# Stress axis : x y z
#
# Youngs Moduli (GPa) = 102.72137 91.42507 36.03621
#
# Poissons Ratio (x) = 0.36407 0.10372
# Poissons Ratio (y) = 0.40906 0.20038
# Poissons Ratio (z) = 0.29564 0.50838
#
# Static dielectric constant tensor:
#      x y z
#    x 3.748020 0.000000 0.000000 
#    y 0.000000 3.819490 0.000000 
#    z 0.000000 0.000000 3.104240 
# 
# 
# High freq. dielectric constant tensor:
#      x y z
#    x 1.769560 0.000000 0.000000 
#    y 0.000000 1.764720 0.000000 
#    z 0.000000 0.000000 1.707340 
# 
# From -- ./inp_files/7204.got.cif
#   From: 2010.03.12/outbox.cif.g09.slc.cpg/sg47_4_cif.got.tgz:7204.got - 2010.04.14 03:12:58.
