data_PCOD8198385
_publ_section_title
;
Structure prediction by ZEFSAII (Michael W. Deem and Ramdas Pophale) SiO2 
 PCOD8198385
Probable space group: P M M M
;
_chemical_formula_sum "Si O2"
_cell_formula_units_Z 64
_cell_length_a 25.259872
_cell_length_b 14.514095
_cell_length_c 8.934822
_cell_angle_alpha 90.000000
_cell_angle_beta 90.000000
_cell_angle_gamma 90.000000
_cell_volume 3275.721806
_symmetry_space_group_name_H-M "P M M M"
_symmetry_group_IT_number 47
_symmetry_cell_setting 'orthorhombic'
loop_
_space_group_symop_operation_xyz
x,y,z
-x,-y,z
x,-y,-z
-x,y,-z
-x,-y,-z
x,y,-z
-x,y,z
x,-y,z
loop_
_atom_site_type_symbol
_atom_site_label
_atom_site_fract_x
_atom_site_fract_y
_atom_site_fract_z
Si Si1 0.561990 0.718168 0.827055
Si Si2 0.746151 0.293822 0.177611
Si Si3 0.562852 0.899108 0.668120
Si Si4 0.100439 0.900191 0.822468
Si Si5 0.059951 0.292177 0.175147
Si Si6 0.219592 0.099663 0.822593
Si Si7 0.845135 0.607903 0.325738
Si Si8 0.351666 0.393160 0.325388
O O1 0.500000 0.707202 0.793480
O O2 0.583368 0.819154 0.778117
O O3 0.591321 0.639792 0.732878
O O4 0.575428 0.705190 0.000000
O O5 0.745401 0.186486 0.230820
O O6 0.798482 0.342378 0.237619
O O7 0.693851 0.339170 0.240785
O O8 0.746226 0.302923 0.000000
O O9 0.583018 0.878370 0.500000
O O10 0.500000 0.900598 0.670052
O O11 0.583805 0.000000 0.721357
O O12 0.065774 0.813663 0.767006
O O13 0.160049 0.886605 0.761572
O O14 0.078309 0.000000 0.764814
O O15 0.100444 0.901728 0.000000
O O16 0.098073 0.358989 0.266871
O O17 0.000000 0.324232 0.205273
O O18 0.074467 0.299127 0.000000
O O19 0.242123 0.000000 0.765289
O O20 0.217559 0.098722 0.000000
O O21 0.839823 0.631389 0.500000
O O22 0.840040 0.500000 0.295562
O O23 0.346938 0.373185 0.500000
O O24 0.345469 0.500000 0.288358
#
# Coordination Sequence:
#
# PCOD8198385 Si02
#       8
#     8   8   8   8   8   8   8   8
#     4  10  21  37  59  88 120 154 194 241 291 341
#     4  11  21  37  64  91 114 142 181 232 284 332
#     4   8  14  27  50  80 114 153 194 233 276 330
#     4   8  13  25  48  79 113 144 176 218 270 329
#     4  10  20  34  54  82 112 142 184 236 283 329
#     4   8  14  27  52  85 116 144 175 215 268 330
#     4  11  24  40  57  77 105 145 189 231 283 346
#     4  11  25  43  61  83 114 152 193 237 288 347
#
# _framework density 19.537678
#
# number of rings (size 3 to 8) (size 9 to 14) (size 15 to 20)
#    0.000    2.375    1.250    3.000    0.000    5.500 
#    0.000    5.625    0.000    4.875    0.000    0.875 
#    0.000    0.000    0.000    0.000    0.000    0.000 
#
# Total GULP energy -793280.461936 kJ/mol
# GULP energy per Si atom -12395.007218 kJ/mol
# Density = 1.949321 g / cm^3
# Si number density = 19.537678 Si / 1000 Ang^3
#
#
#
# Elastic Constant Matrix: (Units=GPa)
#
#
# Indices 1 2 3 4 5 6 
#
# 1 80.8486 61.3767 39.7093 0.0000 0.0000 0.0000
# 2 61.3767 139.1562 64.8885 0.0000 0.0000 0.0000
# 3 39.7093 64.8885 68.4423 0.0000 0.0000 0.0000
# 4 0.0000 0.0000 0.0000 23.8615 0.0000 0.0000
# 5 0.0000 0.0000 0.0000 0.0000 21.8699 0.0000
# 6 0.0000 0.0000 0.0000 0.0000 0.0000 23.8874
#
#
#
# Elastic Compliance Matrix: (Units=1/GPa)
#
#
# Indices 1 2 3 4 5 6 
#
# 1 0.019780 -0.006046 -0.005744 0.000000 0.000000 0.000000
# 2 -0.006046 0.014728 -0.010456 0.000000 0.000000 0.000000
# 3 -0.005744 -0.010456 0.027857 0.000000 0.000000 0.000000
# 4 0.000000 0.000000 0.000000 0.041909 0.000000 0.000000
# 5 0.000000 0.000000 0.000000 0.000000 0.045725 0.000000
# 6 0.000000 0.000000 0.000000 0.000000 0.000000 0.041863
#
#
# Mechanical properties :
#
#
# Convention : Reuss Voigt Hill
#
# Bulk Modulus (GPa) = 55.95029 68.93288 62.44158
# Shear Modulus (GPa) = 20.63471 22.08859 21.36165
#
# Velocity S-wave (km/s) = 3.25337 3.36603 3.31018
# Velocity P-wave (km/s) = 6.54308 7.10391 6.82925
#
# Compressibility (1/GPa) = 0.01787301
#
# Stress axis : x y z
#
# Youngs Moduli (GPa) = 50.55712 67.89690 35.89818
#
# Poissons Ratio (x) = 0.41047 0.20621
# Poissons Ratio (y) = 0.30564 0.37535
# Poissons Ratio (z) = 0.29041 0.70992
#
# Static dielectric constant tensor:
#      x y z
#    x 3.403460 0.000000 0.000000 
#    y 0.000000 4.104890 0.000000 
#    z 0.000000 0.000000 3.347970 
# 
# 
# High freq. dielectric constant tensor:
#      x y z
#    x 1.742890 0.000000 0.000000 
#    y 0.000000 1.779940 0.000000 
#    z 0.000000 0.000000 1.734730 
# 
# From -- ./inp_files/12673.got.cif
#   From: 2010.03.12/outbox.cif.g09.slc.cpg/sg47_7_cif.got.tgz:12673.got - 2010.04.14 03:12:58.
