data_PCOD8198441
_publ_section_title
;
Structure prediction by ZEFSAII (Michael W. Deem and Ramdas Pophale) SiO2 
 PCOD8198441
Probable space group: P M M M
;
_chemical_formula_sum "Si O2"
_cell_formula_units_Z 52
_cell_length_a 9.072319
_cell_length_b 14.873650
_cell_length_c 20.325230
_cell_angle_alpha 90.000000
_cell_angle_beta 90.000000
_cell_angle_gamma 90.000000
_cell_volume 2742.655997
_symmetry_space_group_name_H-M "P M M M"
_symmetry_group_IT_number 47
_symmetry_cell_setting 'orthorhombic'
loop_
_space_group_symop_operation_xyz
x,y,z
-x,-y,z
x,-y,-z
-x,y,-z
-x,-y,-z
x,y,-z
-x,y,z
x,-y,z
loop_
_atom_site_type_symbol
_atom_site_label
_atom_site_fract_x
_atom_site_fract_y
_atom_site_fract_z
Si Si1 0.672683 0.208853 0.926363
Si Si2 0.173551 0.104255 0.190608
Si Si3 0.337220 0.400761 0.253634
Si Si4 0.673636 0.822740 0.425245
Si Si5 0.162487 0.000000 0.422632
Si Si6 0.665030 0.404027 0.901294
Si Si7 0.171189 0.239876 0.695137
O O1 0.500000 0.212076 0.907771
O O2 0.750738 0.143636 0.874552
O O3 0.741511 0.310815 0.924718
O O4 0.697097 0.170037 0.000000
O O5 0.223075 0.160081 0.255501
O O6 0.000000 0.114196 0.180320
O O7 0.219825 0.000000 0.200124
O O8 0.500000 0.367640 0.277956
O O9 0.305063 0.500000 0.282855
O O10 0.338672 0.404798 0.176232
O O11 0.204702 0.335431 0.272768
O O12 0.720851 0.797568 0.500000
O O13 0.500000 0.832115 0.420596
O O14 0.746602 0.914496 0.399899
O O15 0.736768 0.752860 0.372924
O O16 0.144058 0.000000 0.500000
O O17 0.000000 0.000000 0.388960
O O18 0.500000 0.403128 0.929992
O O19 0.739855 0.500000 0.924833
O O20 0.000000 0.230514 0.678336
#
# Coordination Sequence:
#
# PCOD8198441 Si02
#       7
#     8   8   8   8   4   8   8
#     4  10  20  34  55  82 109 138 178 229 277 322
#     4  10  23  41  56  74 104 144 188 228 270 323
#     4   9  17  32  56  82 109 143 180 220 270 331
#     4  10  21  36  54  79 112 149 188 227 272 332
#     4   9  17  31  51  75 107 145 182 221 266 319
#     4   8  14  27  49  77 108 139 170 210 265 327
#     4  11  22  35  57  84 110 143 183 232 281 326
#
# _framework density 18.959724000000001
#
# number of rings (size 3 to 8) (size 9 to 14) (size 15 to 20)
#    0.000    2.385    1.538    2.077    1.077    4.000 
#    0.000    3.077    0.000    0.923    0.000    4.308 
#    0.000    0.000    0.000    0.000    0.000    0.000 
#
# Total GULP energy -644258.464805 kJ/mol
# GULP energy per Si atom -12389.585862 kJ/mol
# Density = 1.891657 g / cm^3
# Si number density = 18.959724 Si / 1000 Ang^3
#
#
#
# Elastic Constant Matrix: (Units=GPa)
#
#
# Indices 1 2 3 4 5 6 
#
# 1 58.3219 31.6276 40.8557 0.0000 0.0000 0.0000
# 2 31.6276 111.2279 43.8974 0.0000 0.0000 0.0000
# 3 40.8557 43.8974 99.1194 0.0000 0.0000 0.0000
# 4 0.0000 0.0000 0.0000 13.4896 0.0000 0.0000
# 5 0.0000 0.0000 0.0000 0.0000 23.7156 0.0000
# 6 0.0000 0.0000 0.0000 0.0000 0.0000 21.1908
#
#
#
# Elastic Compliance Matrix: (Units=1/GPa)
#
#
# Indices 1 2 3 4 5 6 
#
# 1 0.025325 -0.003734 -0.008785 0.000000 0.000000 0.000000
# 2 -0.003734 0.011445 -0.003530 0.000000 0.000000 0.000000
# 3 -0.008785 -0.003530 0.015273 0.000000 0.000000 0.000000
# 4 0.000000 0.000000 0.000000 0.074131 0.000000 0.000000
# 5 0.000000 0.000000 0.000000 0.000000 0.042166 0.000000
# 6 0.000000 0.000000 0.000000 0.000000 0.000000 0.047190
#
#
# Mechanical properties :
#
#
# Convention : Reuss Voigt Hill
#
# Bulk Modulus (GPa) = 50.13502 55.71449 52.92476
# Shear Modulus (GPa) = 19.66350 21.83175 20.74763
#
# Velocity S-wave (km/s) = 3.22393 3.39703 3.31161
# Velocity P-wave (km/s) = 6.35284 6.69596 6.52666
#
# Compressibility (1/GPa) = 0.01994614
#
# Stress axis : x y z
#
# Youngs Moduli (GPa) = 39.48623 87.37147 65.47448
#
# Poissons Ratio (x) = 0.32626 0.57519
# Poissons Ratio (y) = 0.14745 0.23111
# Poissons Ratio (z) = 0.34689 0.30840
#
# Static dielectric constant tensor:
#      x y z
#    x 3.296580 0.000000 0.000000 
#    y 0.000000 4.189120 0.000000 
#    z 0.000000 0.000000 3.385470 
# 
# 
# High freq. dielectric constant tensor:
#      x y z
#    x 1.711250 0.000000 0.000000 
#    y 0.000000 1.735330 0.000000 
#    z 0.000000 0.000000 1.732250 
# 
# From -- ./inp_files/21444.got.cif
#   From: 2010.03.12/outbox.cif.g09.slc.cpg/sg47_11_cif.got.tgz:21444.got - 2010.04.14 03:12:58.
