data_PCOD8198497
_publ_section_title
;
Structure prediction by ZEFSAII (Michael W. Deem and Ramdas Pophale) SiO2 
 PCOD8198497
Probable space group: P M M M
;
_chemical_formula_sum "Si O2"
_cell_formula_units_Z 48
_cell_length_a 9.440072
_cell_length_b 14.046322
_cell_length_c 17.800022
_cell_angle_alpha 90.000000
_cell_angle_beta 90.000000
_cell_angle_gamma 90.000000
_cell_volume 2360.252497
_symmetry_space_group_name_H-M "P M M M"
_symmetry_group_IT_number 47
_symmetry_cell_setting 'orthorhombic'
loop_
_space_group_symop_operation_xyz
x,y,z
-x,-y,z
x,-y,-z
-x,y,-z
-x,-y,-z
x,y,-z
-x,y,z
x,-y,z
loop_
_atom_site_type_symbol
_atom_site_label
_atom_site_fract_x
_atom_site_fract_y
_atom_site_fract_z
Si Si1 0.656432 0.193814 0.138423
Si Si2 0.166901 0.787574 0.417993
Si Si3 0.831874 0.112958 0.000000
Si Si4 0.836793 0.604661 0.667234
Si Si5 0.000000 0.611054 0.918029
Si Si6 0.163980 0.889584 0.270348
Si Si7 0.276210 0.392542 0.830477
O O1 0.500000 0.145781 0.131247
O O2 0.758071 0.159201 0.072114
O O3 0.733335 0.167747 0.215932
O O4 0.622650 0.307899 0.140949
O O5 0.235372 0.810651 0.500000
O O6 0.217978 0.682825 0.391684
O O7 0.210656 0.865707 0.355907
O O8 0.000000 0.787194 0.427344
O O9 0.000000 0.135119 0.000000
O O10 0.806088 0.000000 0.000000
O O11 0.820941 0.500000 0.630324
O O12 0.741322 0.609911 0.741252
O O13 0.000000 0.623737 0.690361
O O14 0.133196 0.640972 0.870021
O O15 0.000000 0.500000 0.931403
O O16 0.000000 0.662423 0.000000
O O17 0.000000 0.859719 0.256805
O O18 0.185678 0.000000 0.254996
O O19 0.326119 0.500000 0.854767
#
# Coordination Sequence:
#
# PCOD8198497 Si02
#       7
#     8   8   4   8   4   8   8
#     4  12  26  41  63  93 125 162 198 243 301 354
#     4   9  17  29  49  82 120 153 190 244 306 363
#     4  11  27  49  72  95 120 156 202 252 300 349
#     4   9  15  26  47  77 113 153 195 243 298 352
#     4   9  18  30  50  84 115 149 198 247 292 336
#     4  10  21  38  61  86 114 153 202 254 305 362
#     4  10  20  34  55  84 120 160 201 243 291 351
#
# _framework density 20.336807
#
# number of rings (size 3 to 8) (size 9 to 14) (size 15 to 20)
#    0.000    2.000    2.500    1.250    3.500    4.000 
#    0.000    3.333    0.000    1.500    0.000    1.167 
#    0.000    2.667    0.000    0.000    0.000    0.000 
#
# Total GULP energy -594734.987463 kJ/mol
# GULP energy per Si atom -12390.312239 kJ/mol
# Density = 2.029052 g / cm^3
# Si number density = 20.336807 Si / 1000 Ang^3
#
#
#
# Elastic Constant Matrix: (Units=GPa)
#
#
# Indices 1 2 3 4 5 6 
#
# 1 86.5329 30.0926 41.8109 0.0000 0.0000 0.0000
# 2 30.0926 112.7342 32.4689 0.0000 0.0000 0.0000
# 3 41.8109 32.4689 128.9218 0.0000 0.0000 0.0000
# 4 0.0000 0.0000 0.0000 24.6116 0.0000 0.0000
# 5 0.0000 0.0000 0.0000 0.0000 -20.9298 0.0000
# 6 0.0000 0.0000 0.0000 0.0000 0.0000 10.1839
#
#
#
# Elastic Compliance Matrix: (Units=1/GPa)
#
#
# Indices 1 2 3 4 5 6 
#
# 1 0.014427 -0.002699 -0.003999 0.000000 0.000000 0.000000
# 2 -0.002699 0.010069 -0.001660 0.000000 0.000000 0.000000
# 3 -0.003999 -0.001660 0.009472 0.000000 0.000000 0.000000
# 4 0.000000 0.000000 0.000000 0.040631 0.000000 0.000000
# 5 0.000000 0.000000 0.000000 0.000000 -0.047779 0.000000
# 6 0.000000 0.000000 0.000000 0.000000 0.000000 0.098194
#
#
# Mechanical properties :
#
#
# Convention : Reuss Voigt Hill
#
# Bulk Modulus (GPa) = 57.96967 59.65929 58.81448
# Shear Modulus (GPa) = 33.90217 17.69425 25.79821
#
# Velocity S-wave (km/s) = 4.08736 2.95288 3.56553
# Velocity P-wave (km/s) = 7.13036 6.40510 6.77744
#
# Compressibility (1/GPa) = 0.01725040
#
# Stress axis : x y z
#
# Youngs Moduli (GPa) = 69.31298 99.31258 105.57660
#
# Poissons Ratio (x) = 0.26808 0.42221
# Poissons Ratio (y) = 0.18710 0.17531
# Poissons Ratio (z) = 0.27719 0.16491
#
# Static dielectric constant tensor:
#      x y z
#    x 3.350990 0.000000 0.000000 
#    y 0.000000 3.916210 0.000000 
#    z 0.000000 0.000000 3.995370 
# 
# 
# High freq. dielectric constant tensor:
#      x y z
#    x 1.750140 0.000000 0.000000 
#    y 0.000000 1.808080 0.000000 
#    z 0.000000 0.000000 1.791970 
# 
# From -- ./inp_files/26535.got.cif
#   From: 2010.03.12/outbox.cif.g09.slc.cpg/sg47_14_cif.got.tgz:26535.got - 2010.04.14 03:12:58.
