data_PCOD8198660
_publ_section_title
;
Structure prediction by ZEFSAII (Michael W. Deem and Ramdas Pophale) SiO2 
 PCOD8198660
Probable space group: P M M M
;
_chemical_formula_sum "Si O2"
_cell_formula_units_Z 52
_cell_length_a 18.571218
_cell_length_b 8.119604
_cell_length_c 17.018108
_cell_angle_alpha 90.000000
_cell_angle_beta 90.000000
_cell_angle_gamma 90.000000
_cell_volume 2566.176434
_symmetry_space_group_name_H-M "P M M M"
_symmetry_group_IT_number 47
_symmetry_cell_setting 'orthorhombic'
loop_
_space_group_symop_operation_xyz
x,y,z
-x,-y,z
x,-y,-z
-x,y,-z
-x,-y,-z
x,y,-z
-x,y,z
x,-y,z
loop_
_atom_site_type_symbol
_atom_site_label
_atom_site_fract_x
_atom_site_fract_y
_atom_site_fract_z
Si Si1 0.422722 0.689102 0.407149
Si Si2 0.000000 0.803793 0.410609
Si Si3 0.419174 0.500000 0.906816
Si Si4 0.725978 0.808829 0.587267
Si Si5 0.674281 0.812350 0.092417
Si Si6 0.139623 0.803296 0.318246
Si Si7 0.833173 0.190644 0.854750
Si Si8 0.078115 0.311756 0.000000
O O1 0.423349 0.713823 0.500000
O O2 0.500000 0.757581 0.374323
O O3 0.415614 0.500000 0.383539
O O4 0.352586 0.781131 0.372435
O O5 0.070018 0.736774 0.364783
O O6 0.000000 0.736293 0.500000
O O7 0.000000 0.000000 0.411611
O O8 0.500000 0.500000 0.871822
O O9 0.380814 0.670014 0.878518
O O10 0.421766 0.500000 0.000000
O O11 0.728388 0.728101 0.500000
O O12 0.789032 0.730125 0.639775
O O13 0.740989 0.000000 0.579825
O O14 0.748163 0.777330 0.137882
O O15 0.646130 0.000000 0.110843
O O16 0.689354 0.795412 0.000000
O O17 0.139424 0.738515 0.228791
O O18 0.141460 0.000000 0.318236
O O19 0.876490 0.276846 0.922909
O O20 0.850672 0.000000 0.862029
O O21 0.060233 0.500000 0.000000
O O22 0.000000 0.218536 0.000000
#
# Coordination Sequence:
#
# PCOD8198660 Si02
#       8
#     8   4   4   8   8   8   8   4
#     4   8  14  25  42  65  93 126 166 211 256 307
#     4   9  16  28  48  75 109 146 180 217 267 317
#     4   9  18  30  50  80 108 142 182 229 283 329
#     4   9  16  27  45  71 103 134 167 212 262 310
#     4   9  17  30  50  77 106 141 183 227 279 339
#     4   9  18  30  47  75 107 138 176 220 263 313
#     4  10  20  35  56  80 106 141 184 223 268 327
#     4  11  25  39  55  81 111 142 173 218 280 332
#
# _framework density 20.26361
#
# number of rings (size 3 to 8) (size 9 to 14) (size 15 to 20)
#    0.000    2.846    0.769    1.154    2.154    3.077 
#    0.000    3.846    0.000    0.923    0.000    4.308 
#    0.000    3.692    0.000    0.000    0.000    0.000 
#
# Total GULP energy -644347.648549 kJ/mol
# GULP energy per Si atom -12391.300934 kJ/mol
# Density = 2.021749 g / cm^3
# Si number density = 20.263610 Si / 1000 Ang^3
#
#
#
# Elastic Constant Matrix: (Units=GPa)
#
#
# Indices 1 2 3 4 5 6 
#
# 1 178.2295 43.7184 75.2091 0.0000 0.0000 0.0000
# 2 43.7184 60.4331 22.6679 0.0000 0.0000 0.0000
# 3 75.2091 22.6679 112.3951 0.0000 0.0000 0.0000
# 4 0.0000 0.0000 0.0000 0.8900 0.0000 0.0000
# 5 0.0000 0.0000 0.0000 0.0000 20.5273 0.0000
# 6 0.0000 0.0000 0.0000 0.0000 0.0000 15.1936
#
#
#
# Elastic Compliance Matrix: (Units=1/GPa)
#
#
# Indices 1 2 3 4 5 6 
#
# 1 0.008825 -0.004510 -0.004996 0.000000 0.000000 0.000000
# 2 -0.004510 0.020207 -0.001057 0.000000 0.000000 0.000000
# 3 -0.004996 -0.001057 0.012453 0.000000 0.000000 0.000000
# 4 0.000000 0.000000 0.000000 1.123543 0.000000 0.000000
# 5 0.000000 0.000000 0.000000 0.000000 0.048716 0.000000
# 6 0.000000 0.000000 0.000000 0.000000 0.000000 0.065817
#
#
# Mechanical properties :
#
#
# Convention : Reuss Voigt Hill
#
# Bulk Modulus (GPa) = 49.11938 70.47204 59.79571
# Shear Modulus (GPa) = 3.82417 21.28635 12.55526
#
# Velocity S-wave (km/s) = 1.37525 3.24461 2.49187
# Velocity P-wave (km/s) = 5.17828 6.99213 6.15241
#
# Compressibility (1/GPa) = 0.02035856
#
# Stress axis : x y z
#
# Youngs Moduli (GPa) = 113.31171 49.48857 80.30029
#
# Poissons Ratio (x) = 0.22322 0.40116
# Poissons Ratio (y) = 0.51109 0.08489
# Poissons Ratio (z) = 0.56607 0.05232
#
# Static dielectric constant tensor:
#      x y z
#    x 3.938900 0.000000 0.000000 
#    y 0.000000 3.399840 0.000000 
#    z 0.000000 0.000000 3.631240 
# 
# 
# High freq. dielectric constant tensor:
#      x y z
#    x 1.805610 0.000000 0.000000 
#    y 0.000000 1.759810 0.000000 
#    z 0.000000 0.000000 1.762500 
# 
# From -- ./inp_files/28536.got.cif
#   From: 2010.03.12/outbox.cif.g09.slc.cpg/sg47_15_cif.got.tgz:28536.got - 2010.04.14 03:12:58.
