data_PCOD8198793
_publ_section_title
;
Structure prediction by ZEFSAII (Michael W. Deem and Ramdas Pophale) SiO2 
 PCOD8198793
Probable space group: P M M M
;
_chemical_formula_sum "Si O2"
_cell_formula_units_Z 48
_cell_length_a 9.846654
_cell_length_b 8.923370
_cell_length_c 29.018625
_cell_angle_alpha 90.000000
_cell_angle_beta 90.000000
_cell_angle_gamma 90.000000
_cell_volume 2549.731262
_symmetry_space_group_name_H-M "P M M M"
_symmetry_group_IT_number 47
_symmetry_cell_setting 'orthorhombic'
loop_
_space_group_symop_operation_xyz
x,y,z
-x,-y,z
x,-y,-z
-x,y,-z
-x,-y,-z
x,y,-z
-x,y,z
x,-y,z
loop_
_atom_site_type_symbol
_atom_site_label
_atom_site_fract_x
_atom_site_fract_y
_atom_site_fract_z
Si Si1 0.343113 0.675436 0.195520
Si Si2 0.844522 0.822733 0.625322
Si Si3 0.347209 0.674133 0.446390
Si Si4 0.500000 0.177149 0.051063
Si Si5 0.757924 0.177709 0.892858
Si Si6 0.000000 0.677240 0.946905
Si Si7 0.655837 0.175077 0.290859
O O1 0.500000 0.714724 0.185591
O O2 0.314183 0.500000 0.192148
O O3 0.248921 0.761957 0.159169
O O4 0.302192 0.732342 0.245906
O O5 0.769344 0.762946 0.580177
O O6 0.758033 0.769135 0.669505
O O7 0.000000 0.762023 0.628092
O O8 0.845216 0.000000 0.622451
O O9 0.322723 0.704849 0.500000
O O10 0.500000 0.727933 0.432661
O O11 0.332090 0.500000 0.434749
O O12 0.372765 0.233335 0.079661
O O13 0.500000 0.000000 0.046582
O O14 0.500000 0.249668 0.000000
O O15 0.874386 0.254643 0.920989
O O16 0.776956 0.000000 0.891705
O O17 0.000000 0.500000 0.942674
O O18 0.000000 0.729312 0.000000
O O19 0.500000 0.209779 0.305550
O O20 0.674220 0.000000 0.280142
#
# Coordination Sequence:
#
# PCOD8198793 Si02
#       7
#     8   8   8   4   8   4   8
#     4  10  20  35  57  85 116 146 182 231 287 341
#     4  10  21  36  54  81 116 150 186 233 285 337
#     4   9  19  36  57  81 110 147 192 238 282 334
#     4   9  18  32  55  87 115 139 179 233 276 319
#     4  11  21  37  61  86 114 149 190 233 278 332
#     4  11  25  43  59  81 117 155 189 229 280 337
#     4   9  18  34  56  78 104 143 190 234 278 331
#
# _framework density 18.825513999999998
#
# number of rings (size 3 to 8) (size 9 to 14) (size 15 to 20)
#    0.000    2.167    0.833    2.750    0.000    4.667 
#    1.500    4.167    0.000    2.000    0.000    0.000 
#    0.000    0.000    0.000    0.000    0.000    0.000 
#
# Total GULP energy -595209.354749 kJ/mol
# GULP energy per Si atom -12400.194891 kJ/mol
# Density = 1.878267 g / cm^3
# Si number density = 18.825514 Si / 1000 Ang^3
#
#
#
# Elastic Constant Matrix: (Units=GPa)
#
#
# Indices 1 2 3 4 5 6 
#
# 1 145.9718 37.5581 78.8543 0.0000 0.0000 0.0000
# 2 37.5581 49.3432 42.4076 0.0000 0.0000 0.0000
# 3 78.8543 42.4076 128.7135 0.0000 0.0000 0.0000
# 4 0.0000 0.0000 0.0000 32.7842 0.0000 0.0000
# 5 0.0000 0.0000 0.0000 0.0000 35.5703 0.0000
# 6 0.0000 0.0000 0.0000 0.0000 0.0000 27.8599
#
#
#
# Elastic Compliance Matrix: (Units=1/GPa)
#
#
# Indices 1 2 3 4 5 6 
#
# 1 0.010653 -0.003487 -0.005377 0.000000 0.000000 0.000000
# 2 -0.003487 0.029413 -0.007555 0.000000 0.000000 0.000000
# 3 -0.005377 -0.007555 0.013553 0.000000 0.000000 0.000000
# 4 0.000000 0.000000 0.000000 0.030503 0.000000 0.000000
# 5 0.000000 0.000000 0.000000 0.000000 0.028113 0.000000
# 6 0.000000 0.000000 0.000000 0.000000 0.000000 0.035894
#
#
# Mechanical properties :
#
#
# Convention : Reuss Voigt Hill
#
# Bulk Modulus (GPa) = 48.12181 71.29651 59.70916
# Shear Modulus (GPa) = 26.61094 30.25677 28.43385
#
# Velocity S-wave (km/s) = 3.76381 4.01337 3.89059
# Velocity P-wave (km/s) = 6.67127 7.70913 7.20890
#
# Compressibility (1/GPa) = 0.02078060
#
# Stress axis : x y z
#
# Youngs Moduli (GPa) = 93.87330 33.99851 73.78664
#
# Poissons Ratio (x) = 0.11855 0.39678
# Poissons Ratio (y) = 0.32732 0.55743
# Poissons Ratio (z) = 0.50479 0.25685
#
# Static dielectric constant tensor:
#      x y z
#    x 3.481480 0.000000 0.000000 
#    y 0.000000 3.306690 0.000000 
#    z 0.000000 0.000000 3.537820 
# 
# 
# High freq. dielectric constant tensor:
#      x y z
#    x 1.728340 0.000000 0.000000 
#    y 0.000000 1.722780 0.000000 
#    z 0.000000 0.000000 1.743080 
# 
# From -- ./inp_files/2540.got.cif
#   From: 2010.03.12/outbox.cif.g09.slc.cpg/sg47_2_cif.got.tgz:2540.got - 2010.04.14 03:12:58.
