data_PCOD8198653
_publ_section_title
;
Structure prediction by ZEFSAII (Michael W. Deem and Ramdas Pophale) SiO2 
 PCOD8198653
Probable space group: P M M M
;
_chemical_formula_sum "Si O2"
_cell_formula_units_Z 56
_cell_length_a 13.729895
_cell_length_b 9.161986
_cell_length_c 23.434214
_cell_angle_alpha 90.000000
_cell_angle_beta 90.000000
_cell_angle_gamma 90.000000
_cell_volume 2947.862560
_symmetry_space_group_name_H-M "P M M M"
_symmetry_group_IT_number 47
_symmetry_cell_setting 'orthorhombic'
loop_
_space_group_symop_operation_xyz
x,y,z
-x,-y,z
x,-y,-z
-x,y,-z
-x,-y,-z
x,y,-z
-x,y,z
x,-y,z
loop_
_atom_site_type_symbol
_atom_site_label
_atom_site_fract_x
_atom_site_fract_y
_atom_site_fract_z
Si Si1 0.293700 0.170400 0.563974
Si Si2 0.609364 0.330885 0.335889
Si Si3 0.890728 0.833081 0.365223
Si Si4 0.794593 0.671868 0.734346
Si Si5 0.393172 0.836841 0.932346
Si Si6 0.794313 0.669805 0.066623
Si Si7 0.888782 0.169521 0.836636
O O1 0.306304 0.232071 0.500000
O O2 0.370545 0.246722 0.605432
O O3 0.183031 0.203494 0.583551
O O4 0.316234 0.000000 0.565706
O O5 0.500000 0.294454 0.314722
O O6 0.622251 0.500000 0.350269
O O7 0.685435 0.285484 0.286394
O O8 0.871983 0.727214 0.312072
O O9 0.000000 0.806933 0.388034
O O10 0.876659 0.000000 0.344169
O O11 0.807432 0.500000 0.743054
O O12 0.814782 0.751814 0.793666
O O13 0.500000 0.789350 0.908914
O O14 0.311823 0.723183 0.911412
O O15 0.367406 0.000000 0.910436
O O16 0.396470 0.837148 0.000000
O O17 0.803732 0.500000 0.080253
O O18 0.876105 0.758321 0.101063
O O19 0.810158 0.703310 0.000000
O O20 0.000000 0.192414 0.816696
O O21 0.862036 0.000000 0.840086
#
# Coordination Sequence:
#
# PCOD8198653 Si02
#       7
#     8   8   8   8   8   8   8
#     4   9  18  31  47  72 106 141 179 221 260 302
#     4   9  19  36  56  77 103 137 174 212 259 314
#     4   9  17  30  49  72 100 136 175 215 262 314
#     4  10  20  35  56  79 102 129 166 215 267 316
#     4   8  14  27  49  75 103 137 174 209 246 291
#     4  10  21  36  55  81 112 144 178 218 263 310
#     4  11  24  40  58  79 104 137 175 214 260 318
#
# _framework density 18.996814000000001
#
# number of rings (size 3 to 8) (size 9 to 14) (size 15 to 20)
#    0.000    2.571    0.000    2.143    0.000    6.286 
#    0.000    6.429    0.000    2.571    0.000    4.000 
#    0.000    0.000    0.000    0.000    0.000    0.000 
#
# Total GULP energy -694347.949310 kJ/mol
# GULP energy per Si atom -12399.070523 kJ/mol
# Density = 1.895358 g / cm^3
# Si number density = 18.996814 Si / 1000 Ang^3
#
#
#
# Elastic Constant Matrix: (Units=GPa)
#
#
# Indices 1 2 3 4 5 6 
#
# 1 105.7607 44.4673 43.2250 0.0000 0.0000 0.0000
# 2 44.4673 92.7923 54.1692 0.0000 0.0000 0.0000
# 3 43.2250 54.1692 95.0490 0.0000 0.0000 0.0000
# 4 0.0000 0.0000 0.0000 29.5306 0.0000 0.0000
# 5 0.0000 0.0000 0.0000 0.0000 19.9600 0.0000
# 6 0.0000 0.0000 0.0000 0.0000 0.0000 29.2775
#
#
#
# Elastic Compliance Matrix: (Units=1/GPa)
#
#
# Indices 1 2 3 4 5 6 
#
# 1 0.012539 -0.004016 -0.003413 0.000000 0.000000 0.000000
# 2 -0.004016 0.017436 -0.008110 0.000000 0.000000 0.000000
# 3 -0.003413 -0.008110 0.016695 0.000000 0.000000 0.000000
# 4 0.000000 0.000000 0.000000 0.033863 0.000000 0.000000
# 5 0.000000 0.000000 0.000000 0.000000 0.050100 0.000000
# 6 0.000000 0.000000 0.000000 0.000000 0.000000 0.034156
#
#
# Mechanical properties :
#
#
# Convention : Reuss Voigt Hill
#
# Bulk Modulus (GPa) = 64.14288 64.14721 64.14505
# Shear Modulus (GPa) = 24.86734 25.86964 25.36849
#
# Velocity S-wave (km/s) = 3.62197 3.69425 3.65829
# Velocity P-wave (km/s) = 7.16449 7.21369 7.18913
#
# Compressibility (1/GPa) = 0.01559019
#
# Stress axis : x y z
#
# Youngs Moduli (GPa) = 79.75096 57.35255 59.89654
#
# Poissons Ratio (x) = 0.23034 0.20445
# Poissons Ratio (y) = 0.32030 0.48579
# Poissons Ratio (z) = 0.27223 0.46516
#
# Static dielectric constant tensor:
#      x y z
#    x 3.650490 0.000000 0.000000 
#    y 0.000000 3.487230 0.000000 
#    z 0.000000 0.000000 3.309290 
# 
# 
# High freq. dielectric constant tensor:
#      x y z
#    x 1.741790 0.000000 0.000000 
#    y 0.000000 1.738590 0.000000 
#    z 0.000000 0.000000 1.716990 
# 
# From -- ./inp_files/7290.got.cif
#   From: 2010.03.12/outbox.cif.g09.slc.cpg/sg47_4_cif.got.tgz:7290.got - 2010.04.14 03:12:58.
