data_PCOD8198555
_publ_section_title
;
Structure prediction by ZEFSAII (Michael W. Deem and Ramdas Pophale) SiO2 
 PCOD8198555
Probable space group: P M M M
;
_chemical_formula_sum "Si O2"
_cell_formula_units_Z 64
_cell_length_a 14.694297
_cell_length_b 8.783848
_cell_length_c 25.001274
_cell_angle_alpha 90.000000
_cell_angle_beta 90.000000
_cell_angle_gamma 90.000000
_cell_volume 3226.976221
_symmetry_space_group_name_H-M "P M M M"
_symmetry_group_IT_number 47
_symmetry_cell_setting 'orthorhombic'
loop_
_space_group_symop_operation_xyz
x,y,z
-x,-y,z
x,-y,-z
-x,y,-z
-x,-y,-z
x,y,-z
-x,y,z
x,-y,z
loop_
_atom_site_type_symbol
_atom_site_label
_atom_site_fract_x
_atom_site_fract_y
_atom_site_fract_z
Si Si1 0.898070 0.823507 0.081662
Si Si2 0.605743 0.179861 0.843151
Si Si3 0.721544 0.676323 0.748576
Si Si4 0.713961 0.324950 0.059357
Si Si5 0.105879 0.677467 0.439917
Si Si6 0.752119 0.180269 0.635350
Si Si7 0.099463 0.329665 0.190418
Si Si8 0.599076 0.819449 0.440987
O O1 0.818770 0.728334 0.053547
O O2 0.890040 0.795729 0.144744
O O3 0.000000 0.774896 0.061800
O O4 0.881789 0.000000 0.069317
O O5 0.500000 0.230088 0.846162
O O6 0.650956 0.251727 0.790543
O O7 0.656937 0.231352 0.897162
O O8 0.615073 0.000000 0.838781
O O9 0.696287 0.500000 0.742916
O O10 0.720494 0.756973 0.692041
O O11 0.825170 0.702420 0.765944
O O12 0.712232 0.500000 0.077614
O O13 0.670280 0.305106 0.000000
O O14 0.137179 0.731027 0.500000
O O15 0.126015 0.500000 0.433455
O O16 0.153718 0.764191 0.390673
O O17 0.000000 0.713004 0.433454
O O18 0.675210 0.249058 0.596827
O O19 0.754524 0.000000 0.639377
O O20 0.111804 0.500000 0.165849
O O21 0.000000 0.314593 0.217744
O O22 0.613292 0.751036 0.500000
O O23 0.500000 0.772095 0.418753
O O24 0.607537 0.000000 0.443252
#
# Coordination Sequence:
#
# PCOD8198555 Si02
#       8
#     8   8   8   8   8   8   8   8
#     4  10  20  34  57  89 123 158 195 238 287 338
#     4  11  25  45  68  91 117 152 196 249 308 364
#     4  11  23  39  60  86 118 159 200 239 290 353
#     4  11  24  41  63  92 125 161 200 243 292 352
#     4   9  19  37  59  82 114 160 209 254 304 362
#     4  11  22  34  54  86 120 152 192 244 298 353
#     4   9  18  34  57  82 109 146 191 235 282 341
#     4   8  15  30  52  77 106 141 181 227 282 342
#
# _framework density 19.832808
#
# number of rings (size 3 to 8) (size 9 to 14) (size 15 to 20)
#    0.000    2.000    1.250    3.000    0.000    5.750 
#    0.000    5.625    0.000    1.125    0.000    4.375 
#    0.000    0.000    0.000    0.000    0.000    0.000 
#
# Total GULP energy -793226.444524 kJ/mol
# GULP energy per Si atom -12394.163196 kJ/mol
# Density = 1.978767 g / cm^3
# Si number density = 19.832808 Si / 1000 Ang^3
#
#
#
# Elastic Constant Matrix: (Units=GPa)
#
#
# Indices 1 2 3 4 5 6 
#
# 1 123.1818 44.9449 62.5574 0.0000 0.0000 0.0000
# 2 44.9449 78.8684 43.8346 0.0000 0.0000 0.0000
# 3 62.5574 43.8346 126.5012 0.0000 0.0000 0.0000
# 4 0.0000 0.0000 0.0000 27.7985 0.0000 0.0000
# 5 0.0000 0.0000 0.0000 0.0000 6.4306 0.0000
# 6 0.0000 0.0000 0.0000 0.0000 0.0000 24.5827
#
#
#
# Elastic Compliance Matrix: (Units=1/GPa)
#
#
# Indices 1 2 3 4 5 6 
#
# 1 0.011941 -0.004363 -0.004393 0.000000 0.000000 0.000000
# 2 -0.004363 0.017298 -0.003836 0.000000 0.000000 0.000000
# 3 -0.004393 -0.003836 0.011407 0.000000 0.000000 0.000000
# 4 0.000000 0.000000 0.000000 0.035973 0.000000 0.000000
# 5 0.000000 0.000000 0.000000 0.000000 0.155506 0.000000
# 6 0.000000 0.000000 0.000000 0.000000 0.000000 0.040679
#
#
# Mechanical properties :
#
#
# Convention : Reuss Voigt Hill
#
# Bulk Modulus (GPa) = 64.68053 70.13613 67.40833
# Shear Modulus (GPa) = 16.49383 23.57667 20.03525
#
# Velocity S-wave (km/s) = 2.88695 3.45160 3.18182
# Velocity P-wave (km/s) = 6.61788 7.16416 6.89643
#
# Compressibility (1/GPa) = 0.01546060
#
# Stress axis : x y z
#
# Youngs Moduli (GPa) = 83.74400 57.81005 87.66575
#
# Poissons Ratio (x) = 0.25224 0.38514
# Poissons Ratio (y) = 0.36539 0.33632
# Poissons Ratio (z) = 0.36791 0.22178
#
# Static dielectric constant tensor:
#      x y z
#    x 3.879500 0.000000 0.000000 
#    y 0.000000 3.518530 0.000000 
#    z 0.000000 0.000000 3.590630 
# 
# 
# High freq. dielectric constant tensor:
#      x y z
#    x 1.781390 0.000000 0.000000 
#    y 0.000000 1.765440 0.000000 
#    z 0.000000 0.000000 1.771400 
# 
# From -- ./inp_files/32765.got.cif
#   From: 2010.03.12/outbox.cif.g09.slc.cpg/sg47_17_cif.got.tgz:32765.got - 2010.04.14 03:12:58.
