data_PCOD8198384
_publ_section_title
;
Structure prediction by ZEFSAII (Michael W. Deem and Ramdas Pophale) SiO2 
 PCOD8198384
Probable space group: P M M M
;
_chemical_formula_sum "Si O2"
_cell_formula_units_Z 52
_cell_length_a 13.087494
_cell_length_b 12.732322
_cell_length_c 17.790827
_cell_angle_alpha 90.000000
_cell_angle_beta 90.000000
_cell_angle_gamma 90.000000
_cell_volume 2964.560007
_symmetry_space_group_name_H-M "P M M M"
_symmetry_group_IT_number 47
_symmetry_cell_setting 'orthorhombic'
loop_
_space_group_symop_operation_xyz
x,y,z
-x,-y,z
x,-y,-z
-x,y,-z
-x,-y,-z
x,y,-z
-x,y,z
x,-y,z
loop_
_atom_site_type_symbol
_atom_site_label
_atom_site_fract_x
_atom_site_fract_y
_atom_site_fract_z
Si Si1 0.000000 0.623994 0.917097
Si Si2 0.805143 0.623763 0.178459
Si Si3 0.379735 0.883625 0.000000
Si Si4 0.121516 0.500000 0.417844
Si Si5 0.216124 0.121558 0.412512
Si Si6 0.882314 0.300503 0.671480
Si Si7 0.615206 0.119444 0.706223
Si Si8 0.618775 0.249611 0.855854
O O1 0.103555 0.660243 0.876149
O O2 0.000000 0.500000 0.922979
O O3 0.000000 0.674967 0.000000
O O4 0.812324 0.500000 0.197125
O O5 0.817467 0.695747 0.252326
O O6 0.693833 0.649303 0.143084
O O7 0.346036 0.822458 0.074770
O O8 0.500000 0.896288 0.000000
O O9 0.329424 0.000000 0.000000
O O10 0.170628 0.500000 0.500000
O O11 0.161564 0.395791 0.377724
O O12 0.000000 0.500000 0.421702
O O13 0.232156 0.149959 0.500000
O O14 0.127837 0.192331 0.375145
O O15 0.318323 0.149820 0.366510
O O16 0.184462 0.000000 0.403501
O O17 0.000000 0.318271 0.692352
O O18 0.500000 0.136482 0.678999
O O19 0.638918 0.188281 0.778901
O O20 0.635883 0.000000 0.730841
O O21 0.500000 0.285263 0.863390
#
# Coordination Sequence:
#
# PCOD8198384 Si02
#       8
#     4   8   4   4   8   8   8   8
#     4   9  20  36  56  80 104 135 178 222 262 308
#     4  11  21  35  56  80 109 143 180 224 269 315
#     4   9  18  34  57  84 111 138 175 224 269 312
#     4   9  18  30  50  76  99 127 166 221 278 317
#     4  10  21  35  51  75 107 141 178 220 274 337
#     4  11  20  34  54  76 104 136 178 227 270 320
#     4   9  17  31  52  75 100 132 173 221 265 309
#     4  10  20  34  54  82 112 141 174 213 269 331
#
# _framework density 17.540545000000002
#
# number of rings (size 3 to 8) (size 9 to 14) (size 15 to 20)
#    0.000    2.077    3.077    0.923    1.077    3.692 
#    0.000    2.308    0.000    1.385    0.000    0.538 
#    0.000    4.923    0.000    0.000    0.000    0.000 
#
# Total GULP energy -644618.381120 kJ/mol
# GULP energy per Si atom -12396.507329 kJ/mol
# Density = 1.750062 g / cm^3
# Si number density = 17.540545 Si / 1000 Ang^3
#
#
#
# Elastic Constant Matrix: (Units=GPa)
#
#
# Indices 1 2 3 4 5 6 
#
# 1 84.7905 34.4065 39.8248 0.0000 0.0000 0.0000
# 2 34.4065 69.5635 42.8757 0.0000 0.0000 0.0000
# 3 39.8248 42.8757 126.5568 0.0000 0.0000 0.0000
# 4 0.0000 0.0000 0.0000 22.9083 0.0000 0.0000
# 5 0.0000 0.0000 0.0000 0.0000 21.9655 0.0000
# 6 0.0000 0.0000 0.0000 0.0000 0.0000 28.1530
#
#
#
# Elastic Compliance Matrix: (Units=1/GPa)
#
#
# Indices 1 2 3 4 5 6 
#
# 1 0.015549 -0.005909 -0.002891 0.000000 0.000000 0.000000
# 2 -0.005909 0.020415 -0.005057 0.000000 0.000000 0.000000
# 3 -0.002891 -0.005057 0.010525 0.000000 0.000000 0.000000
# 4 0.000000 0.000000 0.000000 0.043652 0.000000 0.000000
# 5 0.000000 0.000000 0.000000 0.000000 0.045526 0.000000
# 6 0.000000 0.000000 0.000000 0.000000 0.000000 0.035520
#
#
# Mechanical properties :
#
#
# Convention : Reuss Voigt Hill
#
# Bulk Modulus (GPa) = 53.26254 57.23608 55.24931
# Shear Modulus (GPa) = 24.37131 25.52561 24.94846
#
# Velocity S-wave (km/s) = 3.73155 3.81889 3.77547
# Velocity P-wave (km/s) = 6.99980 7.22128 7.11140
#
# Compressibility (1/GPa) = 0.01877492
#
# Stress axis : x y z
#
# Youngs Moduli (GPa) = 64.31101 48.98437 95.01544
#
# Poissons Ratio (x) = 0.28944 0.27472
# Poissons Ratio (y) = 0.38000 0.48048
# Poissons Ratio (z) = 0.18594 0.24771
#
# Static dielectric constant tensor:
#      x y z
#    x 3.102330 0.000000 0.000000 
#    y 0.000000 3.141370 0.000000 
#    z 0.000000 0.000000 3.446780 
# 
# 
# High freq. dielectric constant tensor:
#      x y z
#    x 1.660700 0.000000 0.000000 
#    y 0.000000 1.664420 0.000000 
#    z 0.000000 0.000000 1.691360 
# 
# From -- ./inp_files/28217.got.cif
#   From: 2010.03.12/outbox.cif.g09.slc.cpg/sg47_15_cif.got.tgz:28217.got - 2010.04.14 03:12:58.
