data_PCOD8198469
_publ_section_title
;
Structure prediction by ZEFSAII (Michael W. Deem and Ramdas Pophale) SiO2 
 PCOD8198469
Probable space group: P M M M
;
_chemical_formula_sum "Si O2"
_cell_formula_units_Z 52
_cell_length_a 9.102604
_cell_length_b 15.558791
_cell_length_c 19.242530
_cell_angle_alpha 90.000000
_cell_angle_beta 90.000000
_cell_angle_gamma 90.000000
_cell_volume 2725.233186
_symmetry_space_group_name_H-M "P M M M"
_symmetry_group_IT_number 47
_symmetry_cell_setting 'orthorhombic'
loop_
_space_group_symop_operation_xyz
x,y,z
-x,-y,z
x,-y,-z
-x,y,-z
-x,-y,-z
x,y,-z
-x,y,z
x,-y,z
loop_
_atom_site_type_symbol
_atom_site_label
_atom_site_fract_x
_atom_site_fract_y
_atom_site_fract_z
Si Si1 0.668349 0.596196 0.219799
Si Si2 0.335795 0.500000 0.582578
Si Si3 0.171953 0.842640 0.078595
Si Si4 0.668870 0.096365 0.792005
Si Si5 0.831401 0.333233 0.577779
Si Si6 0.169705 0.754654 0.713687
Si Si7 0.666103 0.331605 0.076570
O O1 0.500000 0.617548 0.239726
O O2 0.710251 0.500000 0.245736
O O3 0.774039 0.666686 0.252567
O O4 0.687943 0.597091 0.135917
O O5 0.500000 0.500000 0.612532
O O6 0.330994 0.500000 0.500000
O O7 0.257835 0.586214 0.609289
O O8 0.256269 0.903418 0.132309
O O9 0.222057 0.745417 0.092001
O O10 0.000000 0.849028 0.093532
O O11 0.209354 0.872036 0.000000
O O12 0.500000 0.123569 0.800096
O O13 0.743755 0.162012 0.738794
O O14 0.684100 0.000000 0.761687
O O15 0.777722 0.307053 0.500000
O O16 0.809157 0.253151 0.630037
O O17 0.000000 0.362332 0.575537
O O18 0.000000 0.766202 0.733947
O O19 0.500000 0.294503 0.079392
O O20 0.697514 0.371730 0.000000
#
# Coordination Sequence:
#
# PCOD8198469 Si02
#       7
#     8   4   8   8   8   8   8
#     4  10  21  35  52  78 113 153 192 232 278 327
#     4   9  17  29  49  81 115 147 186 227 266 313
#     4  10  20  34  55  83 113 144 180 227 281 332
#     4  11  24  41  61  84 111 145 184 227 280 342
#     4   9  19  36  56  79 111 150 188 226 273 329
#     4  11  23  38  59  84 111 146 186 231 281 332
#     4   9  17  31  52  75 104 146 192 234 275 322
#
# _framework density 19.080936000000001
#
# number of rings (size 3 to 8) (size 9 to 14) (size 15 to 20)
#    0.000    2.077    1.538    1.615    1.077    5.231 
#    0.000    3.077    0.000    0.462    0.000    6.462 
#    0.000    0.000    0.000    0.000    0.000    0.000 
#
# Total GULP energy -644676.563870 kJ/mol
# GULP energy per Si atom -12397.626228 kJ/mol
# Density = 1.903751 g / cm^3
# Si number density = 19.080936 Si / 1000 Ang^3
#
#
#
# Elastic Constant Matrix: (Units=GPa)
#
#
# Indices 1 2 3 4 5 6 
#
# 1 115.0917 55.7808 44.6122 0.0000 0.0000 0.0000
# 2 55.7808 99.2733 45.8764 0.0000 0.0000 0.0000
# 3 44.6122 45.8764 86.8379 0.0000 0.0000 0.0000
# 4 0.0000 0.0000 0.0000 20.2180 0.0000 0.0000
# 5 0.0000 0.0000 0.0000 0.0000 21.4084 0.0000
# 6 0.0000 0.0000 0.0000 0.0000 0.0000 16.1142
#
#
#
# Elastic Compliance Matrix: (Units=1/GPa)
#
#
# Indices 1 2 3 4 5 6 
#
# 1 0.012764 -0.005479 -0.003663 0.000000 0.000000 0.000000
# 2 -0.005479 0.015679 -0.005468 0.000000 0.000000 0.000000
# 3 -0.003663 -0.005468 0.016286 0.000000 0.000000 0.000000
# 4 0.000000 0.000000 0.000000 0.049461 0.000000 0.000000
# 5 0.000000 0.000000 0.000000 0.000000 0.046711 0.000000
# 6 0.000000 0.000000 0.000000 0.000000 0.000000 0.062057
#
#
# Mechanical properties :
#
#
# Convention : Reuss Voigt Hill
#
# Bulk Modulus (GPa) = 64.47979 65.97132 65.22555
# Shear Modulus (GPa) = 21.06611 21.87703 21.47157
#
# Velocity S-wave (km/s) = 3.32631 3.38973 3.35817
# Velocity P-wave (km/s) = 6.97271 7.06894 7.02099
#
# Compressibility (1/GPa) = 0.01550874
#
# Stress axis : x y z
#
# Youngs Moduli (GPa) = 78.34426 63.77939 61.40161
#
# Poissons Ratio (x) = 0.34948 0.22489
# Poissons Ratio (y) = 0.42929 0.33576
# Poissons Ratio (z) = 0.28695 0.34876
#
# Static dielectric constant tensor:
#      x y z
#    x 3.573850 0.000000 0.000000 
#    y 0.000000 3.202540 0.000000 
#    z 0.000000 0.000000 3.752890 
# 
# 
# High freq. dielectric constant tensor:
#      x y z
#    x 1.746680 0.000000 0.000000 
#    y 0.000000 1.711450 0.000000 
#    z 0.000000 0.000000 1.749540 
# 
# From -- ./inp_files/25050.got.cif
#   From: 2010.03.12/outbox.cif.g09.slc.cpg/sg47_13_cif.got.tgz:25050.got - 2010.04.14 03:12:58.
