data_PCOD8198434
_publ_section_title
;
Structure prediction by ZEFSAII (Michael W. Deem and Ramdas Pophale) SiO2 
 PCOD8198434
Probable space group: P M M M
;
_chemical_formula_sum "Si O2"
_cell_formula_units_Z 40
_cell_length_a 15.773958
_cell_length_b 13.976112
_cell_length_c 9.208219
_cell_angle_alpha 90.000000
_cell_angle_beta 90.000000
_cell_angle_gamma 90.000000
_cell_volume 2030.031103
_symmetry_space_group_name_H-M "P M M M"
_symmetry_group_IT_number 47
_symmetry_cell_setting 'orthorhombic'
loop_
_space_group_symop_operation_xyz
x,y,z
-x,-y,z
x,-y,-z
-x,y,-z
-x,-y,-z
x,y,-z
-x,y,z
x,-y,z
loop_
_atom_site_type_symbol
_atom_site_label
_atom_site_fract_x
_atom_site_fract_y
_atom_site_fract_z
Si Si1 0.335305 0.888420 0.831401
Si Si2 0.835311 0.218708 0.828673
Si Si3 0.500000 0.886673 0.332892
Si Si4 0.000000 0.106810 0.172642
Si Si5 0.227709 0.609039 0.673134
Si Si6 0.589308 0.613619 0.662283
O O1 0.248943 0.837880 0.781557
O O2 0.414697 0.844517 0.741384
O O3 0.323520 0.000000 0.797167
O O4 0.354526 0.870961 0.000000
O O5 0.916232 0.160411 0.771360
O O6 0.839376 0.321693 0.749993
O O7 0.839406 0.234732 0.000000
O O8 0.500000 0.857096 0.500000
O O9 0.500000 0.000000 0.309042
O O10 0.000000 0.000000 0.237779
O O11 0.000000 0.102134 0.000000
O O12 0.224888 0.620133 0.500000
O O13 0.206624 0.500000 0.717459
O O14 0.321126 0.642000 0.736066
O O15 0.588205 0.655695 0.500000
O O16 0.500000 0.648258 0.739554
O O17 0.589749 0.500000 0.653680
#
# Coordination Sequence:
#
# PCOD8198434 Si02
#       6
#     8   8   4   4   8   8
#     4   9  17  31  51  74 103 139 174 210 262 325
#     4  10  20  34  55  82 106 133 173 224 274 318
#     4   9  17  29  47  73 104 139 178 217 255 302
#     4   9  18  36  62  87 108 132 171 221 270 327
#     4   9  18  33  52  74 105 145 183 219 262 314
#     4   7  10  20  41  66  90 122 169 216 249 285
#
# _framework density 19.704132999999999
#
# number of rings (size 3 to 8) (size 9 to 14) (size 15 to 20)
#    0.000    3.200    0.000    2.700    0.000    4.800 
#    1.800    1.000    0.000    5.400    0.000    2.800 
#    0.000    0.000    0.000    0.000    0.000    0.000 
#
# Total GULP energy -495607.960411 kJ/mol
# GULP energy per Si atom -12390.199010 kJ/mol
# Density = 1.965929 g / cm^3
# Si number density = 19.704133 Si / 1000 Ang^3
#
#
#
# Elastic Constant Matrix: (Units=GPa)
#
#
# Indices 1 2 3 4 5 6 
#
# 1 160.4099 79.0296 45.6675 0.0000 0.0000 0.0000
# 2 79.0296 97.0615 32.4342 0.0000 0.0000 0.0000
# 3 45.6675 32.4342 41.1288 0.0000 0.0000 0.0000
# 4 0.0000 0.0000 0.0000 21.0384 0.0000 0.0000
# 5 0.0000 0.0000 0.0000 0.0000 16.0419 0.0000
# 6 0.0000 0.0000 0.0000 0.0000 0.0000 33.2724
#
#
#
# Elastic Compliance Matrix: (Units=1/GPa)
#
#
# Indices 1 2 3 4 5 6 
#
# 1 0.011931 -0.007179 -0.007586 0.000000 0.000000 0.000000
# 2 -0.007179 0.018309 -0.006467 0.000000 0.000000 0.000000
# 3 -0.007586 -0.006467 0.037837 0.000000 0.000000 0.000000
# 4 0.000000 0.000000 0.000000 0.047532 0.000000 0.000000
# 5 0.000000 0.000000 0.000000 0.000000 0.062337 0.000000
# 6 0.000000 0.000000 0.000000 0.000000 0.000000 0.030055
#
#
# Mechanical properties :
#
#
# Convention : Reuss Voigt Hill
#
# Bulk Modulus (GPa) = 39.04367 68.09586 53.56977
# Shear Modulus (GPa) = 19.30487 23.50182 21.40334
#
# Velocity S-wave (km/s) = 3.13347 3.45735 3.29939
# Velocity P-wave (km/s) = 5.74017 7.11139 6.46225
#
# Compressibility (1/GPa) = 0.02561235
#
# Stress axis : x y z
#
# Youngs Moduli (GPa) = 83.81747 54.61659 26.42949
#
# Poissons Ratio (x) = 0.39212 0.20048
# Poissons Ratio (y) = 0.60176 0.17092
# Poissons Ratio (z) = 0.63580 0.35321
#
# Static dielectric constant tensor:
#      x y z
#    x 3.925440 0.000000 0.000000 
#    y 0.000000 3.502710 0.000000 
#    z 0.000000 0.000000 3.089930 
# 
# 
# High freq. dielectric constant tensor:
#      x y z
#    x 1.769850 0.000000 0.000000 
#    y 0.000000 1.771410 0.000000 
#    z 0.000000 0.000000 1.717570 
# 
# From -- ./inp_files/5751.got.cif
#   From: 2010.03.12/outbox.cif.g09.slc.cpg/sg47_3_cif.got.tgz:5751.got - 2010.04.14 03:12:58.
