data_PCOD8198506
_publ_section_title
;
Structure prediction by ZEFSAII (Michael W. Deem and Ramdas Pophale) SiO2 
 PCOD8198506
Probable space group: P M M M
;
_chemical_formula_sum "Si O2"
_cell_formula_units_Z 64
_cell_length_a 14.603444
_cell_length_b 8.759583
_cell_length_c 24.676731
_cell_angle_alpha 90.000000
_cell_angle_beta 90.000000
_cell_angle_gamma 90.000000
_cell_volume 3156.649399
_symmetry_space_group_name_H-M "P M M M"
_symmetry_group_IT_number 47
_symmetry_cell_setting 'orthorhombic'
loop_
_space_group_symop_operation_xyz
x,y,z
-x,-y,z
x,-y,-z
-x,y,-z
-x,-y,-z
x,y,-z
-x,y,z
x,-y,z
loop_
_atom_site_type_symbol
_atom_site_label
_atom_site_fract_x
_atom_site_fract_y
_atom_site_fract_z
Si Si1 0.397193 0.324619 0.788484
Si Si2 0.398397 0.824341 0.902819
Si Si3 0.605682 0.178448 0.438670
Si Si4 0.895768 0.681132 0.838962
Si Si5 0.756896 0.675584 0.631886
Si Si6 0.775666 0.178074 0.744200
Si Si7 0.101543 0.170186 0.563426
Si Si8 0.223620 0.323853 0.059685
O O1 0.500000 0.297242 0.766818
O O2 0.367280 0.500000 0.781401
O O3 0.389615 0.283035 0.851024
O O4 0.330207 0.217799 0.754682
O O5 0.500000 0.804028 0.929162
O O6 0.318354 0.771312 0.942841
O O7 0.383369 0.000000 0.885850
O O8 0.636397 0.224179 0.500000
O O9 0.500000 0.220825 0.430482
O O10 0.660809 0.268223 0.392640
O O11 0.622626 0.000000 0.430132
O O12 0.896313 0.500000 0.837267
O O13 0.843129 0.739939 0.786217
O O14 0.844862 0.738741 0.893828
O O15 0.000000 0.744011 0.839329
O O16 0.746651 0.500000 0.648082
O O17 0.794177 0.768901 0.683322
O O18 0.833995 0.699069 0.586794
O O19 0.792958 0.000000 0.749885
O O20 0.097873 0.194515 0.500000
O O21 0.000000 0.188659 0.587991
O O22 0.139610 0.000000 0.577030
O O23 0.247195 0.500000 0.071053
O O24 0.177853 0.304384 0.000000
#
# Coordination Sequence:
#
# PCOD8198506 Si02
#       8
#     8   8   8   8   8   8   8   8
#     4  10  20  36  60  87 116 150 188 234 287 344
#     4  10  20  34  55  85 120 159 198 235 282 339
#     4   9  19  38  63  89 121 164 210 253 298 351
#     4  10  22  42  66  89 117 153 195 246 303 363
#     4  12  25  38  57  87 123 159 197 246 300 353
#     4  12  25  41  62  86 116 156 200 245 295 355
#     4   9  19  38  63  88 116 152 193 239 293 352
#     4  10  21  37  60  90 123 159 198 243 296 354
#
# _framework density 20.274663
#
# number of rings (size 3 to 8) (size 9 to 14) (size 15 to 20)
#    0.000    1.750    1.250    4.125    0.000    6.000 
#    0.000    3.750    0.000    0.000    0.000    1.750 
#    0.000    0.000    0.000    0.000    0.000    0.000 
#
# Total GULP energy -793552.997610 kJ/mol
# GULP energy per Si atom -12399.265588 kJ/mol
# Density = 2.022852 g / cm^3
# Si number density = 20.274663 Si / 1000 Ang^3
#
#
#
# Elastic Constant Matrix: (Units=GPa)
#
#
# Indices 1 2 3 4 5 6 
#
# 1 120.0272 31.8059 48.8029 0.0000 0.0000 0.0000
# 2 31.8059 50.5014 23.3642 0.0000 0.0000 0.0000
# 3 48.8029 23.3642 91.9899 0.0000 0.0000 0.0000
# 4 0.0000 0.0000 0.0000 25.3440 0.0000 0.0000
# 5 0.0000 0.0000 0.0000 0.0000 11.2843 0.0000
# 6 0.0000 0.0000 0.0000 0.0000 0.0000 27.6072
#
#
#
# Elastic Compliance Matrix: (Units=1/GPa)
#
#
# Indices 1 2 3 4 5 6 
#
# 1 0.011671 -0.005083 -0.004901 0.000000 0.000000 0.000000
# 2 -0.005083 0.024652 -0.003565 0.000000 0.000000 0.000000
# 3 -0.004901 -0.003565 0.014376 0.000000 0.000000 0.000000
# 4 0.000000 0.000000 0.000000 0.039457 0.000000 0.000000
# 5 0.000000 0.000000 0.000000 0.000000 0.088619 0.000000
# 6 0.000000 0.000000 0.000000 0.000000 0.000000 0.036222
#
#
# Mechanical properties :
#
#
# Convention : Reuss Voigt Hill
#
# Bulk Modulus (GPa) = 42.36887 52.27384 47.32136
# Shear Modulus (GPa) = 20.00306 23.41679 21.70993
#
# Velocity S-wave (km/s) = 3.14443 3.40218 3.27584
# Velocity P-wave (km/s) = 5.84175 6.42433 6.13995
#
# Compressibility (1/GPa) = 0.02360223
#
# Stress axis : x y z
#
# Youngs Moduli (GPa) = 85.68203 40.56473 69.56009
#
# Poissons Ratio (x) = 0.20620 0.34090
# Poissons Ratio (y) = 0.43554 0.24795
# Poissons Ratio (z) = 0.41990 0.14459
#
# Static dielectric constant tensor:
#      x y z
#    x 3.886520 0.000000 0.000000 
#    y 0.000000 3.558240 0.000000 
#    z 0.000000 0.000000 3.594540 
# 
# 
# High freq. dielectric constant tensor:
#      x y z
#    x 1.796690 0.000000 0.000000 
#    y 0.000000 1.783630 0.000000 
#    z 0.000000 0.000000 1.787390 
# 
# From -- ./inp_files/12764.got.cif
#   From: 2010.03.12/outbox.cif.g09.slc.cpg/sg47_7_cif.got.tgz:12764.got - 2010.04.14 03:12:58.
