data_PCOD8198680
_publ_section_title
;
Structure prediction by ZEFSAII (Michael W. Deem and Ramdas Pophale) SiO2 
 PCOD8198680
Probable space group: P M M M
;
_chemical_formula_sum "Si O2"
_cell_formula_units_Z 44
_cell_length_a 9.599041
_cell_length_b 13.236850
_cell_length_c 19.283497
_cell_angle_alpha 90.000000
_cell_angle_beta 90.000000
_cell_angle_gamma 90.000000
_cell_volume 2450.181682
_symmetry_space_group_name_H-M "P M M M"
_symmetry_group_IT_number 47
_symmetry_cell_setting 'orthorhombic'
loop_
_space_group_symop_operation_xyz
x,y,z
-x,-y,z
x,-y,-z
-x,y,-z
-x,-y,-z
x,y,-z
-x,y,z
x,-y,z
loop_
_atom_site_type_symbol
_atom_site_label
_atom_site_fract_x
_atom_site_fract_y
_atom_site_fract_z
Si Si1 0.836512 0.880059 0.500000
Si Si2 0.241424 0.306245 0.837656
Si Si3 0.500000 0.618703 0.921691
Si Si4 0.160559 0.383707 0.309375
Si Si5 0.659886 0.887025 0.229587
Si Si6 0.000000 0.386861 0.919008
Si Si7 0.336776 0.214147 0.624518
O O1 0.754401 0.837559 0.565625
O O2 0.000000 0.846453 0.500000
O O3 0.825857 0.000000 0.500000
O O4 0.375918 0.346595 0.874351
O O5 0.206741 0.372016 0.770099
O O6 0.250911 0.188287 0.817798
O O7 0.127882 0.319737 0.896047
O O8 0.500000 0.500000 0.930433
O O9 0.500000 0.666065 0.000000
O O10 0.174665 0.500000 0.331283
O O11 0.265441 0.321654 0.358550
O O12 0.000000 0.346867 0.318153
O O13 0.500000 0.879212 0.206266
O O14 0.674128 0.859021 0.309888
O O15 0.717905 0.000000 0.218650
O O16 0.000000 0.500000 0.885720
O O17 0.000000 0.398938 0.000000
O O18 0.500000 0.229727 0.603324
#
# Coordination Sequence:
#
# PCOD8198680 Si02
#       7
#     4   8   4   8   8   4   8
#     4  11  23  39  60  85 118 155 187 226 280 337
#     4  11  20  35  55  82 109 147 189 233 284 337
#     4  11  22  34  51  79 113 144 184 237 288 341
#     4  10  20  35  56  81 114 152 188 229 281 341
#     4   9  18  35  58  82 109 142 185 233 281 325
#     4  11  22  36  55  79 111 148 182 223 284 351
#     4  10  21  36  58  88 115 146 188 237 281 328
#
# _framework density 17.957851999999999
#
# number of rings (size 3 to 8) (size 9 to 14) (size 15 to 20)
#    0.000    1.727    1.818    3.545    1.273    3.273 
#    0.000    0.909    0.000    6.000    0.000    0.000 
#    0.000    0.000    0.000    0.000    0.000    0.000 
#
# Total GULP energy -545428.272452 kJ/mol
# GULP energy per Si atom -12396.097101 kJ/mol
# Density = 1.791698 g / cm^3
# Si number density = 17.957852 Si / 1000 Ang^3
#
#
#
# Elastic Constant Matrix: (Units=GPa)
#
#
# Indices 1 2 3 4 5 6 
#
# 1 156.9239 61.3326 56.5515 0.0000 0.0000 0.0000
# 2 61.3326 123.5704 47.7301 0.0000 0.0000 0.0000
# 3 56.5515 47.7301 77.2714 0.0000 0.0000 0.0000
# 4 0.0000 0.0000 0.0000 19.0391 0.0000 0.0000
# 5 0.0000 0.0000 0.0000 0.0000 40.8007 0.0000
# 6 0.0000 0.0000 0.0000 0.0000 0.0000 25.8986
#
#
#
# Elastic Compliance Matrix: (Units=1/GPa)
#
#
# Indices 1 2 3 4 5 6 
#
# 1 0.009248 -0.002595 -0.005165 0.000000 0.000000 0.000000
# 2 -0.002595 0.011357 -0.005116 0.000000 0.000000 0.000000
# 3 -0.005165 -0.005116 0.019882 0.000000 0.000000 0.000000
# 4 0.000000 0.000000 0.000000 0.052523 0.000000 0.000000
# 5 0.000000 0.000000 0.000000 0.000000 0.024509 0.000000
# 6 0.000000 0.000000 0.000000 0.000000 0.000000 0.038612
#
#
# Mechanical properties :
#
#
# Convention : Reuss Voigt Hill
#
# Bulk Modulus (GPa) = 67.86955 76.55492 72.21223
# Shear Modulus (GPa) = 26.76728 29.95778 28.36253
#
# Velocity S-wave (km/s) = 3.86497 4.08882 3.97847
# Velocity P-wave (km/s) = 7.60218 8.06314 7.83605
#
# Compressibility (1/GPa) = 0.01473415
#
# Stress axis : x y z
#
# Youngs Moduli (GPa) = 108.12820 88.05485 50.29757
#
# Poissons Ratio (x) = 0.22851 0.25981
# Poissons Ratio (y) = 0.28060 0.25731
# Poissons Ratio (z) = 0.55853 0.45046
#
# Static dielectric constant tensor:
#      x y z
#    x 3.550780 0.000000 0.000000 
#    y 0.000000 3.392970 0.000000 
#    z 0.000000 0.000000 3.328570 
# 
# 
# High freq. dielectric constant tensor:
#      x y z
#    x 1.708430 0.000000 0.000000 
#    y 0.000000 1.692590 0.000000 
#    z 0.000000 0.000000 1.689170 
# 
# From -- ./inp_files/26444.got.cif
#   From: 2010.03.12/outbox.cif.g09.slc.cpg/sg47_14_cif.got.tgz:26444.got - 2010.04.14 03:12:58.
