data_PCOD8198081
_publ_section_title
;
Structure prediction by ZEFSAII (Michael W. Deem and Ramdas Pophale) SiO2 
 PCOD8198081
Probable space group: P M M M
;
_chemical_formula_sum "Si O2"
_cell_formula_units_Z 44
_cell_length_a 29.012560
_cell_length_b 8.710691
_cell_length_c 9.059079
_cell_angle_alpha 90.000000
_cell_angle_beta 90.000000
_cell_angle_gamma 90.000000
_cell_volume 2289.405420
_symmetry_space_group_name_H-M "P M M M"
_symmetry_group_IT_number 47
_symmetry_cell_setting 'orthorhombic'
loop_
_space_group_symop_operation_xyz
x,y,z
-x,-y,z
x,-y,-z
-x,y,-z
-x,-y,-z
x,y,-z
-x,y,z
x,-y,z
loop_
_atom_site_type_symbol
_atom_site_label
_atom_site_fract_x
_atom_site_fract_y
_atom_site_fract_z
Si Si1 0.000000 0.181215 0.666494
Si Si2 0.352612 0.815977 0.333440
Si Si3 0.913657 0.320185 0.169598
Si Si4 0.827579 0.179270 0.327297
Si Si5 0.264165 0.182396 0.834799
Si Si6 0.451207 0.827710 0.324494
O O1 0.954867 0.234652 0.750516
O O2 0.000000 0.248077 0.500000
O O3 0.000000 0.000000 0.661483
O O4 0.343448 0.758712 0.500000
O O5 0.311594 0.750273 0.232202
O O6 0.402502 0.752007 0.272186
O O7 0.353913 0.000000 0.330439
O O8 0.922440 0.500000 0.182617
O O9 0.866124 0.277729 0.246899
O O10 0.911839 0.266741 0.000000
O O11 0.829023 0.214276 0.500000
O O12 0.778576 0.235963 0.264899
O O13 0.835900 0.000000 0.294281
O O14 0.266818 0.000000 0.835725
O O15 0.257860 0.247145 0.000000
O O16 0.448598 0.832900 0.500000
O O17 0.500000 0.744564 0.275922
O O18 0.453421 0.000000 0.261864
#
# Coordination Sequence:
#
# PCOD8198081 Si02
#       6
#     4   8   8   8   8   8
#     4  11  24  41  62  88 114 141 176 213 246 282
#     4   8  12  18  29  45  66  94 132 180 230 279
#     4  11  24  40  58  82 111 141 172 205 245 294
#     4  10  20  34  53  76 100 128 166 209 250 294
#     4   9  16  25  38  57  82 112 146 188 239 290
#     4   7   9  13  22  37  57  84 123 172 223 273
#
# _framework density 19.218962999999999
#
# number of rings (size 3 to 8) (size 9 to 14) (size 15 to 20)
#    0.000    2.818    0.000    4.364    0.000    8.727 
#    0.000    0.000    0.000    0.545    0.000    3.818 
#    0.000    0.000    0.000    0.000    0.000    0.909 
#
# Total GULP energy -545157.026910 kJ/mol
# GULP energy per Si atom -12389.932430 kJ/mol
# Density = 1.917522 g / cm^3
# Si number density = 19.218963 Si / 1000 Ang^3
#
#
#
# Elastic Constant Matrix: (Units=GPa)
#
#
# Indices 1 2 3 4 5 6 
#
# 1 183.2293 18.8092 67.6805 0.0000 0.0000 0.0000
# 2 18.8092 20.9905 20.7192 0.0000 0.0000 0.0000
# 3 67.6805 20.7192 118.1693 0.0000 0.0000 0.0000
# 4 0.0000 0.0000 0.0000 14.4416 0.0000 0.0000
# 5 0.0000 0.0000 0.0000 0.0000 76.1949 0.0000
# 6 0.0000 0.0000 0.0000 0.0000 0.0000 1.3348
#
#
#
# Elastic Compliance Matrix: (Units=1/GPa)
#
#
# Indices 1 2 3 4 5 6 
#
# 1 0.007058 -0.002823 -0.003547 0.000000 0.000000 0.000000
# 2 -0.002823 0.058740 -0.008682 0.000000 0.000000 0.000000
# 3 -0.003547 -0.008682 0.012016 0.000000 0.000000 0.000000
# 4 0.000000 0.000000 0.000000 0.069245 0.000000 0.000000
# 5 0.000000 0.000000 0.000000 0.000000 0.013124 0.000000
# 6 0.000000 0.000000 0.000000 0.000000 0.000000 0.749154
#
#
# Mechanical properties :
#
#
# Convention : Reuss Voigt Hill
#
# Bulk Modulus (GPa) = 20.96023 59.64522 40.30273
# Shear Modulus (GPa) = 5.23371 32.73959 18.98665
#
# Velocity S-wave (km/s) = 1.65200 4.13183 3.14652
# Velocity P-wave (km/s) = 3.81687 7.33925 5.84949
#
# Compressibility (1/GPa) = 0.04770939
#
# Stress axis : x y z
#
# Youngs Moduli (GPa) = 141.68902 17.02403 83.21916
#
# Poissons Ratio (x) = 0.04806 0.29520
# Poissons Ratio (y) = 0.39997 0.72255
# Poissons Ratio (z) = 0.50261 0.14781
#
# Static dielectric constant tensor:
#      x y z
#    x 3.490970 0.000000 0.000000 
#    y 0.000000 2.892670 0.000000 
#    z 0.000000 0.000000 3.539180 
# 
# 
# High freq. dielectric constant tensor:
#      x y z
#    x 1.781430 0.000000 0.000000 
#    y 0.000000 1.676870 0.000000 
#    z 0.000000 0.000000 1.733830 
# 
# From -- ./inp_files/13658.got.cif
#   From: 2010.03.12/outbox.cif.g09.slc.cpg/sg47_7_cif.got.tgz:13658.got - 2010.04.14 03:12:58.
