data_PCOD8198614
_publ_section_title
;
Structure prediction by ZEFSAII (Michael W. Deem and Ramdas Pophale) SiO2 
 PCOD8198614
Probable space group: P M M M
;
_chemical_formula_sum "Si O2"
_cell_formula_units_Z 48
_cell_length_a 8.924361
_cell_length_b 17.278616
_cell_length_c 16.153291
_cell_angle_alpha 90.000000
_cell_angle_beta 90.000000
_cell_angle_gamma 90.000000
_cell_volume 2490.847273
_symmetry_space_group_name_H-M "P M M M"
_symmetry_group_IT_number 47
_symmetry_cell_setting 'orthorhombic'
loop_
_space_group_symop_operation_xyz
x,y,z
-x,-y,z
x,-y,-z
-x,y,-z
-x,-y,-z
x,y,-z
-x,y,z
x,-y,z
loop_
_atom_site_type_symbol
_atom_site_label
_atom_site_fract_x
_atom_site_fract_y
_atom_site_fract_z
Si Si1 0.322549 0.500000 0.589277
Si Si2 0.177124 0.091077 0.500000
Si Si3 0.676648 0.173560 0.341796
Si Si4 0.827751 0.909833 0.000000
Si Si5 0.169292 0.842109 0.169754
Si Si6 0.675597 0.414430 0.000000
Si Si7 0.833301 0.661366 0.851182
Si Si8 0.324754 0.350188 0.686189
O O1 0.500000 0.500000 0.586268
O O2 0.248048 0.500000 0.500000
O O3 0.269381 0.419136 0.627814
O O4 0.245389 0.129439 0.582474
O O5 0.000000 0.105384 0.500000
O O6 0.215828 0.000000 0.500000
O O7 0.500000 0.157984 0.346015
O O8 0.736068 0.140975 0.253299
O O9 0.713191 0.265283 0.350875
O O10 0.755894 0.879956 0.086936
O O11 0.000000 0.882011 0.000000
O O12 0.807780 0.000000 0.000000
O O13 0.166485 0.752770 0.149849
O O14 0.000000 0.873906 0.184397
O O15 0.723803 0.367112 0.078985
O O16 0.748132 0.500000 0.000000
O O17 0.500000 0.421329 0.000000
O O18 0.770108 0.629746 0.766220
O O19 0.000000 0.628838 0.866168
O O20 0.500000 0.354613 0.707512
#
# Coordination Sequence:
#
# PCOD8198614 Si02
#       8
#     4   4   8   4   8   4   8   8
#     4   9  18  32  55  82 109 144 185 223 264 323
#     4  11  25  43  63  86 113 150 194 239 291 353
#     4  10  21  37  60  88 117 149 190 239 288 339
#     4   9  17  30  53  83 110 141 184 228 268 323
#     4   9  18  35  57  82 114 151 188 226 275 335
#     4  11  24  37  51  73 104 141 186 236 288 341
#     4  10  20  35  55  77 106 144 186 230 278 329
#     4   9  19  35  57  84 114 149 188 227 273 329
#
# _framework density 19.270551000000001
#
# number of rings (size 3 to 8) (size 9 to 14) (size 15 to 20)
#    0.000    2.333    0.000    2.000    2.333    4.667 
#    0.000    2.083    0.000    1.000    0.000    0.000 
#    0.000    0.000    0.000    0.000    0.000    0.000 
#
# Total GULP energy -594929.206136 kJ/mol
# GULP energy per Si atom -12394.358461 kJ/mol
# Density = 1.922669 g / cm^3
# Si number density = 19.270551 Si / 1000 Ang^3
#
#
#
# Elastic Constant Matrix: (Units=GPa)
#
#
# Indices 1 2 3 4 5 6 
#
# 1 75.1344 32.5640 57.5056 0.0000 0.0000 0.0000
# 2 32.5640 74.3398 84.3955 0.0000 0.0000 0.0000
# 3 57.5056 84.3955 184.2226 0.0000 0.0000 0.0000
# 4 0.0000 0.0000 0.0000 28.4138 0.0000 0.0000
# 5 0.0000 0.0000 0.0000 0.0000 27.4214 0.0000
# 6 0.0000 0.0000 0.0000 0.0000 0.0000 17.3811
#
#
#
# Elastic Compliance Matrix: (Units=1/GPa)
#
#
# Indices 1 2 3 4 5 6 
#
# 1 0.017825 -0.003108 -0.004141 0.000000 0.000000 0.000000
# 2 -0.003108 0.028571 -0.012119 0.000000 0.000000 0.000000
# 3 -0.004141 -0.012119 0.012273 0.000000 0.000000 0.000000
# 4 0.000000 0.000000 0.000000 0.035194 0.000000 0.000000
# 5 0.000000 0.000000 0.000000 0.000000 0.036468 0.000000
# 6 0.000000 0.000000 0.000000 0.000000 0.000000 0.057534
#
#
# Mechanical properties :
#
#
# Convention : Reuss Voigt Hill
#
# Bulk Modulus (GPa) = 50.16300 75.84745 63.00522
# Shear Modulus (GPa) = 21.43675 25.25871 23.34773
#
# Velocity S-wave (km/s) = 3.33890 3.62434 3.48455
# Velocity P-wave (km/s) = 6.39936 7.54713 6.99682
#
# Compressibility (1/GPa) = 0.01993501
#
# Stress axis : x y z
#
# Youngs Moduli (GPa) = 56.09954 35.00025 81.48228
#
# Poissons Ratio (x) = 0.10877 0.33739
# Poissons Ratio (y) = 0.17433 0.98748
# Poissons Ratio (z) = 0.23229 0.42417
#
# Static dielectric constant tensor:
#      x y z
#    x 3.534390 0.000000 0.000000 
#    y 0.000000 3.539370 0.000000 
#    z 0.000000 0.000000 4.030600 
# 
# 
# High freq. dielectric constant tensor:
#      x y z
#    x 1.733180 0.000000 0.000000 
#    y 0.000000 1.751540 0.000000 
#    z 0.000000 0.000000 1.763680 
# 
# From -- ./inp_files/21168.got.cif
#   From: 2010.03.12/outbox.cif.g09.slc.cpg/sg47_11_cif.got.tgz:21168.got - 2010.04.14 03:12:58.
