data_PCOD8198920
_publ_section_title
;
Structure prediction by ZEFSAII (Michael W. Deem and Ramdas Pophale) SiO2 
 PCOD8198920
Probable space group: P M M M
;
_chemical_formula_sum "Si O2"
_cell_formula_units_Z 48
_cell_length_a 13.703276
_cell_length_b 20.242238
_cell_length_c 8.295986
_cell_angle_alpha 90.000000
_cell_angle_beta 90.000000
_cell_angle_gamma 90.000000
_cell_volume 2301.181862
_symmetry_space_group_name_H-M "P M M M"
_symmetry_group_IT_number 47
_symmetry_cell_setting 'orthorhombic'
loop_
_space_group_symop_operation_xyz
x,y,z
-x,-y,z
x,-y,-z
-x,y,-z
-x,-y,-z
x,y,-z
-x,y,z
x,-y,z
loop_
_atom_site_type_symbol
_atom_site_label
_atom_site_fract_x
_atom_site_fract_y
_atom_site_fract_z
Si Si1 0.186307 0.360927 0.308223
Si Si2 0.000000 0.278222 0.189752
Si Si3 0.109301 0.500000 0.308389
Si Si4 0.340251 0.830874 0.185264
Si Si5 0.000000 0.875214 0.192115
Si Si6 0.194957 0.925729 0.687188
Si Si7 0.500000 0.071045 0.191138
Si Si8 0.609333 0.307319 0.686123
O O1 0.188680 0.356698 0.500000
O O2 0.164245 0.434783 0.245584
O O3 0.295469 0.344467 0.237675
O O4 0.100073 0.312123 0.251884
O O5 0.000000 0.202046 0.245304
O O6 0.000000 0.284839 0.000000
O O7 0.105286 0.500000 0.500000
O O8 0.000000 0.500000 0.237550
O O9 0.235343 0.863136 0.210167
O O10 0.406230 0.890236 0.249960
O O11 0.365576 0.769295 0.295967
O O12 0.358241 0.810261 0.000000
O O13 0.083233 0.917593 0.274926
O O14 0.000000 0.881353 0.000000
O O15 0.218786 0.915645 0.500000
O O16 0.229000 0.000000 0.741950
O O17 0.500000 0.000000 0.275885
O O18 0.500000 0.064453 0.000000
O O19 0.602679 0.325859 0.500000
O O20 0.500000 0.323417 0.761983
#
# Coordination Sequence:
#
# PCOD8198920 Si02
#       8
#     8   4   4   8   4   8   4   8
#     4  10  20  36  60  86 116 157 194 231 283 344
#     4  11  23  37  55  87 121 146 185 242 293 341
#     4   9  16  32  59  89 117 148 195 238 275 335
#     4  11  21  36  58  82 109 146 191 237 285 338
#     4  11  24  40  58  81 110 148 193 238 285 344
#     4  11  24  40  57  80 111 147 187 237 298 356
#     4   9  18  32  51  77 105 134 177 232 284 331
#     4  10  21  37  57  84 119 155 194 239 291 348
#
# _framework density 20.858847000000001
#
# number of rings (size 3 to 8) (size 9 to 14) (size 15 to 20)
#    0.000    1.667    1.667    3.250    0.000    7.667 
#    0.000    1.250    0.000    4.500    0.000    0.000 
#    0.000    2.667    0.000    0.000    0.000    0.000 
#
# Total GULP energy -594658.703190 kJ/mol
# GULP energy per Si atom -12388.722983 kJ/mol
# Density = 2.081137 g / cm^3
# Si number density = 20.858847 Si / 1000 Ang^3
#
#
#
# Elastic Constant Matrix: (Units=GPa)
#
#
# Indices 1 2 3 4 5 6 
#
# 1 158.2612 49.4823 7.6971 0.0000 0.0000 0.0000
# 2 49.4823 120.9978 12.5506 0.0000 0.0000 0.0000
# 3 7.6971 12.5506 28.9841 0.0000 0.0000 0.0000
# 4 0.0000 0.0000 0.0000 15.6573 0.0000 0.0000
# 5 0.0000 0.0000 0.0000 0.0000 14.6493 0.0000
# 6 0.0000 0.0000 0.0000 0.0000 0.0000 50.6003
#
#
#
# Elastic Compliance Matrix: (Units=1/GPa)
#
#
# Indices 1 2 3 4 5 6 
#
# 1 0.007258 -0.002898 -0.000672 0.000000 0.000000 0.000000
# 2 -0.002898 0.009811 -0.003479 0.000000 0.000000 0.000000
# 3 -0.000672 -0.003479 0.036186 0.000000 0.000000 0.000000
# 4 0.000000 0.000000 0.000000 0.063868 0.000000 0.000000
# 5 0.000000 0.000000 0.000000 0.000000 0.068263 0.000000
# 6 0.000000 0.000000 0.000000 0.000000 0.000000 0.019763
#
#
# Mechanical properties :
#
#
# Convention : Reuss Voigt Hill
#
# Bulk Modulus (GPa) = 25.53855 49.74478 37.64166
# Shear Modulus (GPa) = 21.52405 32.08225 26.80315
#
# Velocity S-wave (km/s) = 3.21579 3.92607 3.58855
# Velocity P-wave (km/s) = 5.10475 6.66724 5.93762
#
# Compressibility (1/GPa) = 0.03915650
#
# Stress axis : x y z
#
# Youngs Moduli (GPa) = 137.78768 101.92982 27.63462
#
# Poissons Ratio (x) = 0.29542 0.01858
# Poissons Ratio (y) = 0.39934 0.09613
# Poissons Ratio (z) = 0.09264 0.35456
#
# Static dielectric constant tensor:
#      x y z
#    x 4.277540 0.000000 0.000000 
#    y 0.000000 3.924650 0.000000 
#    z 0.000000 0.000000 3.409060 
# 
# 
# High freq. dielectric constant tensor:
#      x y z
#    x 1.836330 0.000000 0.000000 
#    y 0.000000 1.813660 0.000000 
#    z 0.000000 0.000000 1.787190 
# 
# From -- ./inp_files/6583.got.cif
#   From: 2010.03.12/outbox.cif.g09.slc.cpg/sg47_4_cif.got.tgz:6583.got - 2010.04.14 03:12:58.
