data_PCOD8198679
_publ_section_title
;
Structure prediction by ZEFSAII (Michael W. Deem and Ramdas Pophale) SiO2 
 PCOD8198679
Probable space group: P M M M
;
_chemical_formula_sum "Si O2"
_cell_formula_units_Z 36
_cell_length_a 24.666361
_cell_length_b 7.692046
_cell_length_c 9.272485
_cell_angle_alpha 90.000000
_cell_angle_beta 90.000000
_cell_angle_gamma 90.000000
_cell_volume 1759.312934
_symmetry_space_group_name_H-M "P M M M"
_symmetry_group_IT_number 47
_symmetry_cell_setting 'orthorhombic'
loop_
_space_group_symop_operation_xyz
x,y,z
-x,-y,z
x,-y,-z
-x,y,-z
-x,-y,-z
x,y,-z
-x,y,z
x,-y,z
loop_
_atom_site_type_symbol
_atom_site_label
_atom_site_fract_x
_atom_site_fract_y
_atom_site_fract_z
Si Si1 0.440779 0.793319 0.837993
Si Si2 0.877679 0.804000 0.833122
Si Si3 0.659854 0.206185 0.662378
Si Si4 0.064102 0.500000 0.666072
Si Si5 0.777260 0.300545 0.664732
O O1 0.500000 0.734627 0.777122
O O2 0.391427 0.713094 0.746668
O O3 0.437446 0.000000 0.834460
O O4 0.434361 0.724218 0.000000
O O5 0.915466 0.673816 0.744150
O O6 0.817251 0.805808 0.767459
O O7 0.901050 0.000000 0.819893
O O8 0.875494 0.745364 0.000000
O O9 0.653439 0.272330 0.500000
O O10 0.716315 0.278801 0.725849
O O11 0.660702 0.000000 0.673121
O O12 0.084461 0.500000 0.500000
O O13 0.000000 0.500000 0.674211
O O14 0.780190 0.229349 0.500000
O O15 0.795652 0.500000 0.670467
#
# Coordination Sequence:
#
# PCOD8198679 Si02
#       5
#     8   8   8   4   8
#     4   8  14  25  41  62  90 125 167 219 280 345
#     4  11  24  41  64  95 129 165 205 251 304 359
#     4   9  17  28  44  70 101 132 173 227 284 345
#     4  11  25  45  69  97 129 167 210 253 296 347
#     4  10  20  35  56  81 112 152 195 240 294 355
#
# _framework density 20.462533000000001
#
# number of rings (size 3 to 8) (size 9 to 14) (size 15 to 20)
#    0.000    2.333    1.111    2.333    0.000    5.333 
#    0.000    6.667    0.000    0.667    0.000    4.667 
#    0.000    0.000    0.000    0.000    0.000    0.000 
#
# Total GULP energy -446307.369385 kJ/mol
# GULP energy per Si atom -12397.426927 kJ/mol
# Density = 2.041596 g / cm^3
# Si number density = 20.462533 Si / 1000 Ang^3
#
#
#
# Elastic Constant Matrix: (Units=GPa)
#
#
# Indices 1 2 3 4 5 6 
#
# 1 127.5351 32.2484 71.1973 0.0000 0.0000 0.0000
# 2 32.2484 68.5998 39.1209 0.0000 0.0000 0.0000
# 3 71.1973 39.1209 120.2698 0.0000 0.0000 0.0000
# 4 0.0000 0.0000 0.0000 19.9314 0.0000 0.0000
# 5 0.0000 0.0000 0.0000 0.0000 24.7031 0.0000
# 6 0.0000 0.0000 0.0000 0.0000 0.0000 23.7203
#
#
#
# Elastic Compliance Matrix: (Units=1/GPa)
#
#
# Indices 1 2 3 4 5 6 
#
# 1 0.011918 -0.001939 -0.006424 0.000000 0.000000 0.000000
# 2 -0.001939 0.018213 -0.004776 0.000000 0.000000 0.000000
# 3 -0.006424 -0.004776 0.013671 0.000000 0.000000 0.000000
# 4 0.000000 0.000000 0.000000 0.050172 0.000000 0.000000
# 5 0.000000 0.000000 0.000000 0.000000 0.040481 0.000000
# 6 0.000000 0.000000 0.000000 0.000000 0.000000 0.042158
#
#
# Mechanical properties :
#
#
# Convention : Reuss Voigt Hill
#
# Bulk Modulus (GPa) = 57.06937 66.83755 61.95346
# Shear Modulus (GPa) = 23.95412 25.26017 24.60715
#
# Velocity S-wave (km/s) = 3.42516 3.51730 3.47154
# Velocity P-wave (km/s) = 6.60247 7.01637 6.81256
#
# Compressibility (1/GPa) = 0.01752253
#
# Stress axis : x y z
#
# Youngs Moduli (GPa) = 83.90910 54.90710 73.14539
#
# Poissons Ratio (x) = 0.10645 0.46991
# Poissons Ratio (y) = 0.16268 0.34937
# Poissons Ratio (z) = 0.53906 0.26226
#
# Static dielectric constant tensor:
#      x y z
#    x 3.903830 0.000000 0.000000 
#    y 0.000000 3.434770 0.000000 
#    z 0.000000 0.000000 3.804640 
# 
# 
# High freq. dielectric constant tensor:
#      x y z
#    x 1.808630 0.000000 0.000000 
#    y 0.000000 1.785520 0.000000 
#    z 0.000000 0.000000 1.788700 
# 
# From -- ./inp_files/12067.got.cif
#   From: 2010.03.12/outbox.cif.g09.slc.cpg/sg47_7_cif.got.tgz:12067.got - 2010.04.14 03:12:58.
