data_PCOD8198751
_publ_section_title
;
Structure prediction by ZEFSAII (Michael W. Deem and Ramdas Pophale) SiO2 
 PCOD8198751
Probable space group: P M M M
;
_chemical_formula_sum "Si O2"
_cell_formula_units_Z 40
_cell_length_a 8.011414
_cell_length_b 28.760317
_cell_length_c 8.132677
_cell_angle_alpha 90.000000
_cell_angle_beta 90.000000
_cell_angle_gamma 90.000000
_cell_volume 1873.856665
_symmetry_space_group_name_H-M "P M M M"
_symmetry_group_IT_number 47
_symmetry_cell_setting 'orthorhombic'
loop_
_space_group_symop_operation_xyz
x,y,z
-x,-y,z
x,-y,-z
-x,y,-z
-x,-y,-z
x,y,-z
-x,y,z
x,-y,z
loop_
_atom_site_type_symbol
_atom_site_label
_atom_site_fract_x
_atom_site_fract_y
_atom_site_fract_z
Si Si1 0.692045 0.394966 0.819987
Si Si2 0.809779 0.303245 0.315954
Si Si3 0.314333 0.890751 0.309967
Si Si4 0.300887 0.553077 0.500000
Si Si5 0.000000 0.947023 0.303662
Si Si6 0.309484 0.208784 0.811737
O O1 0.500000 0.408897 0.827559
O O2 0.707191 0.339597 0.793726
O O3 0.774061 0.422549 0.665281
O O4 0.771835 0.407766 0.000000
O O5 0.735624 0.303457 0.500000
O O6 0.803116 0.251608 0.243487
O O7 0.000000 0.319802 0.315353
O O8 0.327661 0.903059 0.500000
O O9 0.500000 0.899483 0.229475
O O10 0.168296 0.922751 0.231425
O O11 0.261659 0.837033 0.290393
O O12 0.241355 0.500000 0.500000
O O13 0.500000 0.557761 0.500000
O O14 0.000000 0.942783 0.500000
O O15 0.000000 0.000000 0.243501
O O16 0.500000 0.223287 0.779735
O O17 0.274483 0.196741 0.000000
#
# Coordination Sequence:
#
# PCOD8198751 Si02
#       6
#     8   8   8   4   4   8
#     4  10  20  35  57  83 112 148 188 233 287 345
#     4  11  23  36  53  79 111 148 187 228 278 338
#     4   9  18  33  53  77 107 143 182 230 287 344
#     4   9  18  34  57  85 115 147 187 239 293 340
#     4   9  18  32  53  81 109 139 183 239 289 342
#     4  10  21  36  54  78 108 143 183 227 279 338
#
# _framework density 21.346350000000001
#
# number of rings (size 3 to 8) (size 9 to 14) (size 15 to 20)
#    0.000    2.200    1.000    1.800    1.400    6.000 
#    0.000    4.000    0.000    2.400    0.000    4.200 
#    0.000    0.000    0.000    0.000    0.000    0.000 
#
# Total GULP energy -495840.295234 kJ/mol
# GULP energy per Si atom -12396.007381 kJ/mol
# Density = 2.129776 g / cm^3
# Si number density = 21.346350 Si / 1000 Ang^3
#
#
#
# Elastic Constant Matrix: (Units=GPa)
#
#
# Indices 1 2 3 4 5 6 
#
# 1 67.7898 44.8644 26.2172 0.0000 0.0000 0.0000
# 2 44.8644 142.6953 41.0729 0.0000 0.0000 0.0000
# 3 26.2172 41.0729 107.3047 0.0000 0.0000 0.0000
# 4 0.0000 0.0000 0.0000 8.5817 0.0000 0.0000
# 5 0.0000 0.0000 0.0000 0.0000 11.8478 0.0000
# 6 0.0000 0.0000 0.0000 0.0000 0.0000 11.4950
#
#
#
# Elastic Compliance Matrix: (Units=1/GPa)
#
#
# Indices 1 2 3 4 5 6 
#
# 1 0.019294 -0.005292 -0.002688 0.000000 0.000000 0.000000
# 2 -0.005292 0.009327 -0.002277 0.000000 0.000000 0.000000
# 3 -0.002688 -0.002277 0.010848 0.000000 0.000000 0.000000
# 4 0.000000 0.000000 0.000000 0.116527 0.000000 0.000000
# 5 0.000000 0.000000 0.000000 0.000000 0.084404 0.000000
# 6 0.000000 0.000000 0.000000 0.000000 0.000000 0.086995
#
#
# Mechanical properties :
#
#
# Convention : Reuss Voigt Hill
#
# Bulk Modulus (GPa) = 52.76119 60.23321 56.49720
# Shear Modulus (GPa) = 14.11525 20.09392 17.10459
#
# Velocity S-wave (km/s) = 2.57427 3.07144 2.83377
# Velocity P-wave (km/s) = 5.79708 6.39192 6.10175
#
# Compressibility (1/GPa) = 0.01895332
#
# Stress axis : x y z
#
# Youngs Moduli (GPa) = 51.83057 107.21189 92.18562
#
# Poissons Ratio (x) = 0.56740 0.24781
# Poissons Ratio (y) = 0.27430 0.20992
# Poissons Ratio (z) = 0.13933 0.24414
#
# Static dielectric constant tensor:
#      x y z
#    x 3.840380 0.000000 0.000000 
#    y 0.000000 3.687580 0.000000 
#    z 0.000000 0.000000 3.946180 
# 
# 
# High freq. dielectric constant tensor:
#      x y z
#    x 1.819520 0.000000 0.000000 
#    y 0.000000 1.826660 0.000000 
#    z 0.000000 0.000000 1.830070 
# 
# From -- ./inp_files/1829.got.cif
#   From: 2010.03.12/outbox.cif.g09.slc.cpg/sg47_1_cif.got.tgz:1829.got - 2010.04.14 03:12:58.
