data_PCOD8198881
_publ_section_title
;
Structure prediction by ZEFSAII (Michael W. Deem and Ramdas Pophale) SiO2 
 PCOD8198881
Probable space group: P M M M
;
_chemical_formula_sum "Si O2"
_cell_formula_units_Z 48
_cell_length_a 9.753202
_cell_length_b 7.773348
_cell_length_c 33.905673
_cell_angle_alpha 90.000000
_cell_angle_beta 90.000000
_cell_angle_gamma 90.000000
_cell_volume 2570.559726
_symmetry_space_group_name_H-M "P M M M"
_symmetry_group_IT_number 47
_symmetry_cell_setting 'orthorhombic'
loop_
_space_group_symop_operation_xyz
x,y,z
-x,-y,z
x,-y,-z
-x,y,-z
-x,-y,-z
x,y,-z
-x,y,z
x,-y,z
loop_
_atom_site_type_symbol
_atom_site_label
_atom_site_fract_x
_atom_site_fract_y
_atom_site_fract_z
Si Si1 0.163909 0.000000 0.752083
Si Si2 0.154930 0.204479 0.612482
Si Si3 0.653608 0.795441 0.543698
Si Si4 0.837976 0.691281 0.697237
Si Si5 0.661220 0.000000 0.830538
Si Si6 0.344477 0.691413 0.112978
Si Si7 0.157043 0.200656 0.044610
O O1 0.215218 0.831534 0.728378
O O2 0.243741 0.000000 0.792700
O O3 0.000000 0.000000 0.759284
O O4 0.244179 0.280914 0.576507
O O5 0.219884 0.273052 0.653412
O O6 0.000000 0.271630 0.606625
O O7 0.158453 0.000000 0.613551
O O8 0.699517 0.733090 0.500000
O O9 0.500000 0.729346 0.552648
O O10 0.656830 0.000000 0.545203
O O11 0.793577 0.500000 0.711203
O O12 0.000000 0.710441 0.694466
O O13 0.703433 0.830460 0.854964
O O14 0.500000 0.000000 0.819364
O O15 0.500000 0.732281 0.100198
O O16 0.331966 0.500000 0.131526
O O17 0.253102 0.695165 0.073920
O O18 0.000000 0.241538 0.055276
O O19 0.187764 0.000000 0.049354
O O20 0.188645 0.260112 0.000000
#
# Coordination Sequence:
#
# PCOD8198881 Si02
#       7
#     4   8   8   8   4   8   8
#     4  10  20  36  58  81 102 129 168 208 248 310
#     4   9  15  25  44  68  93 122 158 199 240 285
#     4   8  14  24  38  60  92 128 163 198 238 284
#     4   9  17  31  52  77 104 130 158 200 253 302
#     4  10  22  40  57  77 108 140 169 214 270 311
#     4  10  21  37  57  80 107 144 187 223 261 315
#     4   9  18  33  54  81 113 147 183 226 273 315
#
# _framework density 18.672975000000001
#
# number of rings (size 3 to 8) (size 9 to 14) (size 15 to 20)
#    0.000    2.833    1.667    1.000    0.000    2.667 
#    0.000    5.000    0.000    2.000    0.000    3.500 
#    0.000    0.000    0.000    0.000    0.000    0.000 
#
# Total GULP energy -595033.623615 kJ/mol
# GULP energy per Si atom -12396.533825 kJ/mol
# Density = 1.863047 g / cm^3
# Si number density = 18.672975 Si / 1000 Ang^3
#
#
#
# Elastic Constant Matrix: (Units=GPa)
#
#
# Indices 1 2 3 4 5 6 
#
# 1 67.0266 32.3370 67.8195 0.0000 0.0000 0.0000
# 2 32.3370 98.0230 62.0254 0.0000 0.0000 0.0000
# 3 67.8195 62.0254 149.8721 0.0000 0.0000 0.0000
# 4 0.0000 0.0000 0.0000 5.4242 0.0000 0.0000
# 5 0.0000 0.0000 0.0000 0.0000 12.1893 0.0000
# 6 0.0000 0.0000 0.0000 0.0000 0.0000 11.6247
#
#
#
# Elastic Compliance Matrix: (Units=1/GPa)
#
#
# Indices 1 2 3 4 5 6 
#
# 1 0.027712 -0.001635 -0.011863 0.000000 0.000000 0.000000
# 2 -0.001635 0.013918 -0.005020 0.000000 0.000000 0.000000
# 3 -0.011863 -0.005020 0.014118 0.000000 0.000000 0.000000
# 4 0.000000 0.000000 0.000000 0.184358 0.000000 0.000000
# 5 0.000000 0.000000 0.000000 0.000000 0.082039 0.000000
# 6 0.000000 0.000000 0.000000 0.000000 0.000000 0.086024
#
#
# Mechanical properties :
#
#
# Convention : Reuss Voigt Hill
#
# Bulk Modulus (GPa) = 53.44504 71.03174 62.23839
# Shear Modulus (GPa) = 11.07561 16.03031 13.55296
#
# Velocity S-wave (km/s) = 2.43808 2.93316 2.69700
# Velocity P-wave (km/s) = 6.05057 7.04228 6.56517
#
# Compressibility (1/GPa) = 0.01871081
#
# Stress axis : x y z
#
# Youngs Moduli (GPa) = 36.08525 71.85179 70.83033
#
# Poissons Ratio (x) = 0.11750 0.84029
# Poissons Ratio (y) = 0.05901 0.35556
# Poissons Ratio (z) = 0.42809 0.36069
#
# Static dielectric constant tensor:
#      x y z
#    x 3.311020 0.000000 0.000000 
#    y 0.000000 3.416670 0.000000 
#    z 0.000000 0.000000 3.444840 
# 
# 
# High freq. dielectric constant tensor:
#      x y z
#    x 1.699080 0.000000 0.000000 
#    y 0.000000 1.721930 0.000000 
#    z 0.000000 0.000000 1.720090 
# 
# From -- ./inp_files/34205.got.cif
#   From: 2010.03.12/outbox.cif.g09.slc.cpg/sg47_18_cif.got.tgz:34205.got - 2010.04.14 03:12:58.
