data_PCOD8198475
_publ_section_title
;
Structure prediction by ZEFSAII (Michael W. Deem and Ramdas Pophale) SiO2 
 PCOD8198475
Probable space group: P M M M
;
_chemical_formula_sum "Si O2"
_cell_formula_units_Z 64
_cell_length_a 25.644415
_cell_length_b 14.429202
_cell_length_c 8.967769
_cell_angle_alpha 90.000000
_cell_angle_beta 90.000000
_cell_angle_gamma 90.000000
_cell_volume 3318.329611
_symmetry_space_group_name_H-M "P M M M"
_symmetry_group_IT_number 47
_symmetry_cell_setting 'orthorhombic'
loop_
_space_group_symop_operation_xyz
x,y,z
-x,-y,z
x,-y,-z
-x,y,-z
-x,-y,-z
x,y,-z
-x,y,z
x,-y,z
loop_
_atom_site_type_symbol
_atom_site_label
_atom_site_fract_x
_atom_site_fract_y
_atom_site_fract_z
Si Si1 0.438140 0.100581 0.833501
Si Si2 0.059210 0.292277 0.672605
Si Si3 0.847818 0.607808 0.824727
Si Si4 0.246703 0.283493 0.322935
Si Si5 0.345985 0.397017 0.322448
Si Si6 0.441729 0.281364 0.324064
Si Si7 0.109382 0.102618 0.330263
Si Si8 0.217041 0.104342 0.174012
O O1 0.500000 0.097634 0.834320
O O2 0.419139 0.181385 0.724208
O O3 0.416887 0.000000 0.778799
O O4 0.417305 0.120926 0.000000
O O5 0.070492 0.314999 0.500000
O O6 0.095784 0.356322 0.773399
O O7 0.067507 0.182519 0.703766
O O8 0.000000 0.316192 0.715736
O O9 0.842006 0.500000 0.782462
O O10 0.804109 0.666304 0.740351
O O11 0.841764 0.623921 0.000000
O O12 0.242957 0.283843 0.500000
O O13 0.297952 0.336150 0.263727
O O14 0.251536 0.178190 0.264622
O O15 0.346009 0.397870 0.500000
O O16 0.339597 0.500000 0.257330
O O17 0.401270 0.357602 0.263301
O O18 0.444113 0.282702 0.500000
O O19 0.500000 0.300832 0.258789
O O20 0.130325 0.111735 0.500000
O O21 0.157074 0.117229 0.218665
O O22 0.084323 0.000000 0.305913
O O23 0.236173 0.000000 0.212472
O O24 0.222439 0.125283 0.000000
#
# Coordination Sequence:
#
# PCOD8198475 Si02
#       8
#     8   8   8   8   8   8   8   8
#     4   8  14  26  45  69  99 137 177 213 253 305
#     4  10  21  36  55  82 114 148 186 227 271 321
#     4  11  24  40  58  80 106 140 183 230 283 336
#     4  11  21  36  60  84 107 139 180 225 272 323
#     4   9  19  35  54  79 109 139 175 222 273 322
#     4   9  17  30  51  79 108 139 176 218 265 317
#     4   9  17  31  53  81 112 146 182 217 258 314
#     4  10  20  34  55  83 114 145 176 215 266 323
#
# _framework density 19.286811
#
# number of rings (size 3 to 8) (size 9 to 14) (size 15 to 20)
#    0.000    2.375    1.250    1.875    0.000    3.500 
#    0.000    6.875    0.000    5.625    0.000    4.375 
#    0.000    0.000    0.000    0.000    0.000    0.000 
#
# Total GULP energy -793398.090094 kJ/mol
# GULP energy per Si atom -12396.845158 kJ/mol
# Density = 1.924291 g / cm^3
# Si number density = 19.286811 Si / 1000 Ang^3
#
#
#
# Elastic Constant Matrix: (Units=GPa)
#
#
# Indices 1 2 3 4 5 6 
#
# 1 101.0398 63.7194 31.3420 0.0000 0.0000 0.0000
# 2 63.7194 145.2935 44.1488 0.0000 0.0000 0.0000
# 3 31.3420 44.1488 53.8057 0.0000 0.0000 0.0000
# 4 0.0000 0.0000 0.0000 27.2534 0.0000 0.0000
# 5 0.0000 0.0000 0.0000 0.0000 6.7204 0.0000
# 6 0.0000 0.0000 0.0000 0.0000 0.0000 30.1245
#
#
#
# Elastic Compliance Matrix: (Units=1/GPa)
#
#
# Indices 1 2 3 4 5 6 
#
# 1 0.014380 -0.005010 -0.004265 0.000000 0.000000 0.000000
# 2 -0.005010 0.010914 -0.006037 0.000000 0.000000 0.000000
# 3 -0.004265 -0.006037 0.026023 0.000000 0.000000 0.000000
# 4 0.000000 0.000000 0.000000 0.036693 0.000000 0.000000
# 5 0.000000 0.000000 0.000000 0.000000 0.148801 0.000000
# 6 0.000000 0.000000 0.000000 0.000000 0.000000 0.033196
#
#
# Mechanical properties :
#
#
# Convention : Reuss Voigt Hill
#
# Bulk Modulus (GPa) = 48.32654 64.28437 56.30546
# Shear Modulus (GPa) = 16.25864 23.54823 19.90344
#
# Velocity S-wave (km/s) = 2.90658 3.49800 3.21592
# Velocity P-wave (km/s) = 6.03121 7.05108 6.56099
#
# Compressibility (1/GPa) = 0.02069256
#
# Stress axis : x y z
#
# Youngs Moduli (GPa) = 69.54178 91.62273 38.42712
#
# Poissons Ratio (x) = 0.45906 0.16390
# Poissons Ratio (y) = 0.34843 0.23198
# Poissons Ratio (z) = 0.29661 0.55312
#
# Static dielectric constant tensor:
#      x y z
#    x 3.416970 0.000000 0.000000 
#    y 0.000000 3.983290 0.000000 
#    z 0.000000 0.000000 3.392380 
# 
# 
# High freq. dielectric constant tensor:
#      x y z
#    x 1.728980 0.000000 0.000000 
#    y 0.000000 1.766090 0.000000 
#    z 0.000000 0.000000 1.732540 
# 
# From -- ./inp_files/12655.got.cif
#   From: 2010.03.12/outbox.cif.g09.slc.cpg/sg47_7_cif.got.tgz:12655.got - 2010.04.14 03:12:58.
