data_PCOD8198632
_publ_section_title
;
Structure prediction by ZEFSAII (Michael W. Deem and Ramdas Pophale) SiO2 
 PCOD8198632
Probable space group: P M M M
;
_chemical_formula_sum "Si O2"
_cell_formula_units_Z 64
_cell_length_a 24.092533
_cell_length_b 8.569727
_cell_length_c 15.447967
_cell_angle_alpha 90.000000
_cell_angle_beta 90.000000
_cell_angle_gamma 90.000000
_cell_volume 3189.486606
_symmetry_space_group_name_H-M "P M M M"
_symmetry_group_IT_number 47
_symmetry_cell_setting 'orthorhombic'
loop_
_space_group_symop_operation_xyz
x,y,z
-x,-y,z
x,-y,-z
-x,y,-z
-x,-y,-z
x,y,-z
-x,y,z
x,-y,z
loop_
_atom_site_type_symbol
_atom_site_label
_atom_site_fract_x
_atom_site_fract_y
_atom_site_fract_z
Si Si1 0.631123 0.820766 0.901974
Si Si2 0.361401 0.319172 0.403611
Si Si3 0.937959 0.314431 0.251646
Si Si4 0.438320 0.316389 0.749861
Si Si5 0.142555 0.680015 0.597755
Si Si6 0.863761 0.314589 0.904011
Si Si7 0.746766 0.819483 0.338751
Si Si8 0.256170 0.317636 0.152961
O O1 0.592822 0.721242 0.838687
O O2 0.695144 0.772606 0.895484
O O3 0.625289 0.000000 0.875024
O O4 0.610694 0.792305 0.000000
O O5 0.386699 0.298806 0.500000
O O6 0.347859 0.500000 0.384408
O O7 0.404741 0.251410 0.333194
O O8 0.304903 0.220669 0.399892
O O9 0.940630 0.500000 0.247375
O O10 0.905350 0.260289 0.337523
O O11 0.906754 0.246968 0.166637
O O12 0.000000 0.244034 0.254418
O O13 0.500000 0.241613 0.750514
O O14 0.443187 0.500000 0.741325
O O15 0.120414 0.700659 0.500000
O O16 0.157481 0.500000 0.617652
O O17 0.197160 0.782965 0.609811
O O18 0.863304 0.500000 0.897688
O O19 0.801985 0.253125 0.884020
O O20 0.881926 0.259039 0.000000
O O21 0.741818 0.711635 0.254823
O O22 0.745624 0.000000 0.311952
O O23 0.263582 0.500000 0.134436
#
# Coordination Sequence:
#
# PCOD8198632 Si02
#       8
#     8   8   8   8   8   8   8   8
#     4  11  24  40  59  87 121 155 191 234 289 346
#     4  10  21  38  61  88 118 152 188 230 283 341
#     4   9  17  30  49  76 110 144 182 230 279 328
#     4  10  22  40  62  87 115 153 200 243 281 329
#     4  10  20  35  55  79 109 146 187 230 279 334
#     4   9  17  29  49  79 111 141 174 218 276 335
#     4  12  23  35  56  85 116 149 185 228 284 344
#     4  11  20  35  59  84 114 149 187 233 284 339
#
# _framework density 20.065925
#
# number of rings (size 3 to 8) (size 9 to 14) (size 15 to 20)
#    0.000    1.750    2.500    2.625    0.000    4.750 
#    0.000    5.000    0.000    0.375    0.000    2.625 
#    0.000    1.000    0.000    0.000    0.000    0.000 
#
# Total GULP energy -793722.754411 kJ/mol
# GULP energy per Si atom -12401.918038 kJ/mol
# Density = 2.002025 g / cm^3
# Si number density = 20.065925 Si / 1000 Ang^3
#
#
#
# Elastic Constant Matrix: (Units=GPa)
#
#
# Indices 1 2 3 4 5 6 
#
# 1 162.1332 16.2474 68.2685 0.0000 0.0000 0.0000
# 2 16.2474 21.9279 16.0909 0.0000 0.0000 0.0000
# 3 68.2685 16.0909 146.0617 0.0000 0.0000 0.0000
# 4 0.0000 0.0000 0.0000 13.8540 0.0000 0.0000
# 5 0.0000 0.0000 0.0000 0.0000 13.7515 0.0000
# 6 0.0000 0.0000 0.0000 0.0000 0.0000 2.4428
#
#
#
# Elastic Compliance Matrix: (Units=1/GPa)
#
#
# Indices 1 2 3 4 5 6 
#
# 1 0.007908 -0.003424 -0.003319 0.000000 0.000000 0.000000
# 2 -0.003424 0.051097 -0.004029 0.000000 0.000000 0.000000
# 3 -0.003319 -0.004029 0.008842 0.000000 0.000000 0.000000
# 4 0.000000 0.000000 0.000000 0.072181 0.000000 0.000000
# 5 0.000000 0.000000 0.000000 0.000000 0.072719 0.000000
# 6 0.000000 0.000000 0.000000 0.000000 0.000000 0.409359
#
#
# Mechanical properties :
#
#
# Convention : Reuss Voigt Hill
#
# Bulk Modulus (GPa) = 21.59663 59.03738 40.31701
# Shear Modulus (GPa) = 7.58626 21.31073 14.44850
#
# Velocity S-wave (km/s) = 1.94650 3.26242 2.68629
# Velocity P-wave (km/s) = 3.97970 6.60884 5.45504
#
# Compressibility (1/GPa) = 0.04630352
#
# Stress axis : x y z
#
# Youngs Moduli (GPa) = 126.44645 19.57043 113.10158
#
# Poissons Ratio (x) = 0.06701 0.37540
# Poissons Ratio (y) = 0.43297 0.45566
# Poissons Ratio (z) = 0.41970 0.07884
#
# Static dielectric constant tensor:
#      x y z
#    x 3.834780 0.000000 0.000000 
#    y 0.000000 3.241290 0.000000 
#    z 0.000000 0.000000 3.770430 
# 
# 
# High freq. dielectric constant tensor:
#      x y z
#    x 1.779940 0.000000 0.000000 
#    y 0.000000 1.745470 0.000000 
#    z 0.000000 0.000000 1.797710 
# 
# From -- ./inp_files/7908.got.cif
#   From: 2010.03.12/outbox.cif.g09.slc.cpg/sg47_4_cif.got.tgz:7908.got - 2010.04.14 03:12:58.
