data_PCOD8198685
_publ_section_title
;
Structure prediction by ZEFSAII (Michael W. Deem and Ramdas Pophale) SiO2 
 PCOD8198685
Probable space group: P M M M
;
_chemical_formula_sum "Si O2"
_cell_formula_units_Z 56
_cell_length_a 19.214571
_cell_length_b 15.659665
_cell_length_c 9.419915
_cell_angle_alpha 90.000000
_cell_angle_beta 90.000000
_cell_angle_gamma 90.000000
_cell_volume 2834.393502
_symmetry_space_group_name_H-M "P M M M"
_symmetry_group_IT_number 47
_symmetry_cell_setting 'orthorhombic'
loop_
_space_group_symop_operation_xyz
x,y,z
-x,-y,z
x,-y,-z
-x,y,-z
-x,-y,-z
x,y,-z
-x,y,z
x,-y,z
loop_
_atom_site_type_symbol
_atom_site_label
_atom_site_fract_x
_atom_site_fract_y
_atom_site_fract_z
Si Si1 0.422863 0.097786 0.834122
Si Si2 0.297423 0.154577 0.656793
Si Si3 0.422834 0.400230 0.838074
Si Si4 0.917732 0.750281 0.836501
Si Si5 0.849724 0.903714 0.666334
Si Si6 0.850895 0.403800 0.333451
Si Si7 0.703566 0.347220 0.343170
O O1 0.500000 0.131807 0.792713
O O2 0.363918 0.151328 0.757378
O O3 0.415796 0.000000 0.787254
O O4 0.411008 0.108032 0.000000
O O5 0.321389 0.125466 0.500000
O O6 0.232214 0.097957 0.708076
O O7 0.268978 0.250690 0.655457
O O8 0.500000 0.377582 0.779146
O O9 0.408845 0.500000 0.824127
O O10 0.363953 0.351256 0.753829
O O11 0.417907 0.370288 0.000000
O O12 0.891277 0.836102 0.760485
O O13 0.892852 0.663906 0.759797
O O14 0.000000 0.751646 0.828677
O O15 0.891754 0.749673 0.000000
O O16 0.858895 0.880447 0.500000
O O17 0.877062 0.000000 0.697220
O O18 0.859017 0.380417 0.500000
O O19 0.878671 0.500000 0.303352
O O20 0.769158 0.402430 0.289656
O O21 0.681033 0.377770 0.500000
#
# Coordination Sequence:
#
# PCOD8198685 Si02
#       7
#     8   8   8   8   8   8   8
#     4   9  19  35  52  73 106 148 193 240 290 346
#     4  10  20  35  56  82 113 147 188 241 294 345
#     4   9  19  35  52  73 106 148 193 240 290 346
#     4  11  25  43  63  91 128 163 194 237 293 354
#     4  10  21  40  66  92 120 158 203 248 295 350
#     4  10  21  40  66  92 120 158 203 248 295 350
#     4  10  20  35  56  82 113 147 188 241 294 345
#
# _framework density 19.757313
#
# number of rings (size 3 to 8) (size 9 to 14) (size 15 to 20)
#    0.000    2.143    1.429    2.143    0.000    6.857 
#    0.000    7.143    0.000    0.000    0.000    0.000 
#    0.000    0.000    0.000    0.000    0.000    0.000 
#
# Total GULP energy -694251.518435 kJ/mol
# GULP energy per Si atom -12397.348543 kJ/mol
# Density = 1.971234 g / cm^3
# Si number density = 19.757313 Si / 1000 Ang^3
#
#
#
# Elastic Constant Matrix: (Units=GPa)
#
#
# Indices 1 2 3 4 5 6 
#
# 1 94.7375 43.4579 54.9642 0.0000 0.0000 0.0000
# 2 43.4579 107.6864 53.2870 0.0000 0.0000 0.0000
# 3 54.9642 53.2870 87.5076 0.0000 0.0000 0.0000
# 4 0.0000 0.0000 0.0000 27.8557 0.0000 0.0000
# 5 0.0000 0.0000 0.0000 0.0000 37.6795 0.0000
# 6 0.0000 0.0000 0.0000 0.0000 0.0000 25.1569
#
#
#
# Elastic Compliance Matrix: (Units=1/GPa)
#
#
# Indices 1 2 3 4 5 6 
#
# 1 0.016981 -0.002254 -0.009293 0.000000 0.000000 0.000000
# 2 -0.002254 0.013590 -0.006860 0.000000 0.000000 0.000000
# 3 -0.009293 -0.006860 0.021442 0.000000 0.000000 0.000000
# 4 0.000000 0.000000 0.000000 0.035899 0.000000 0.000000
# 5 0.000000 0.000000 0.000000 0.000000 0.026540 0.000000
# 6 0.000000 0.000000 0.000000 0.000000 0.000000 0.039751
#
#
# Mechanical properties :
#
#
# Convention : Reuss Voigt Hill
#
# Bulk Modulus (GPa) = 65.79459 65.92775 65.86117
# Shear Modulus (GPa) = 25.49918 27.35324 26.42621
#
# Velocity S-wave (km/s) = 3.59642 3.72487 3.66121
# Velocity P-wave (km/s) = 7.11472 7.20700 7.16101
#
# Compressibility (1/GPa) = 0.01519882
#
# Stress axis : x y z
#
# Youngs Moduli (GPa) = 58.88810 73.58101 46.63726
#
# Poissons Ratio (x) = 0.16587 0.43342
# Poissons Ratio (y) = 0.13275 0.31992
# Poissons Ratio (z) = 0.54727 0.50475
#
# Static dielectric constant tensor:
#      x y z
#    x 3.531780 0.000000 0.000000 
#    y 0.000000 3.649350 0.000000 
#    z 0.000000 0.000000 3.574880 
# 
# 
# High freq. dielectric constant tensor:
#      x y z
#    x 1.768900 0.000000 0.000000 
#    y 0.000000 1.776700 0.000000 
#    z 0.000000 0.000000 1.758400 
# 
# From -- ./inp_files/11226.got.cif
#   From: 2010.03.12/outbox.cif.g09.slc.cpg/sg47_6_cif.got.tgz:11226.got - 2010.04.14 03:12:58.
