data_PCOD8198924
_publ_section_title
;
Structure prediction by ZEFSAII (Michael W. Deem and Ramdas Pophale) SiO2 
 PCOD8198924
Probable space group: P M M M
;
_chemical_formula_sum "Si O2"
_cell_formula_units_Z 36
_cell_length_a 24.335767
_cell_length_b 7.947067
_cell_length_c 9.151474
_cell_angle_alpha 90.000000
_cell_angle_beta 90.000000
_cell_angle_gamma 90.000000
_cell_volume 1769.876502
_symmetry_space_group_name_H-M "P M M M"
_symmetry_group_IT_number 47
_symmetry_cell_setting 'orthorhombic'
loop_
_space_group_symop_operation_xyz
x,y,z
-x,-y,z
x,-y,-z
-x,y,-z
-x,-y,-z
x,y,-z
-x,y,z
x,-y,z
loop_
_atom_site_type_symbol
_atom_site_label
_atom_site_fract_x
_atom_site_fract_y
_atom_site_fract_z
Si Si1 0.564954 0.500000 0.832012
Si Si2 0.722591 0.691499 0.831799
Si Si3 0.060592 0.691853 0.671757
Si Si4 0.837468 0.809495 0.838437
Si Si5 0.621212 0.809006 0.670890
O O1 0.500000 0.500000 0.823700
O O2 0.584874 0.671627 0.755289
O O3 0.585827 0.500000 0.000000
O O4 0.702244 0.500000 0.817762
O O5 0.785642 0.705044 0.775392
O O6 0.683461 0.803635 0.730735
O O7 0.719538 0.753670 0.000000
O O8 0.065166 0.710989 0.500000
O O9 0.069032 0.500000 0.720324
O O10 0.108294 0.801357 0.741371
O O11 0.000000 0.754347 0.723071
O O12 0.817208 0.000000 0.843494
O O13 0.852556 0.742489 0.000000
O O14 0.620849 0.764159 0.500000
O O15 0.598773 0.000000 0.696326
#
# Coordination Sequence:
#
# PCOD8198924 Si02
#       5
#     4   8   8   8   8
#     4  11  25  45  69  97 129 169 216 261 306 359
#     4  10  20  36  60  87 116 155 201 247 299 359
#     4   9  19  36  55  74  99 136 184 236 291 352
#     4  10  21  35  52  79 113 147 186 234 289 350
#     4  11  24  41  64  96 132 169 209 256 312 370
#
# _framework density 20.340401
#
# number of rings (size 3 to 8) (size 9 to 14) (size 15 to 20)
#    0.000    1.889    1.111    3.000    0.000    7.556 
#    0.000    5.556    0.000    0.000    0.000    0.000 
#    0.000    0.000    0.000    0.000    0.000    0.000 
#
# Total GULP energy -446344.483027 kJ/mol
# GULP energy per Si atom -12398.457862 kJ/mol
# Density = 2.029411 g / cm^3
# Si number density = 20.340401 Si / 1000 Ang^3
#
#
#
# Elastic Constant Matrix: (Units=GPa)
#
#
# Indices 1 2 3 4 5 6 
#
# 1 108.1528 39.0466 53.0918 0.0000 0.0000 0.0000
# 2 39.0466 100.5935 52.2960 0.0000 0.0000 0.0000
# 3 53.0918 52.2960 97.3661 0.0000 0.0000 0.0000
# 4 0.0000 0.0000 0.0000 29.6002 0.0000 0.0000
# 5 0.0000 0.0000 0.0000 0.0000 10.4757 0.0000
# 6 0.0000 0.0000 0.0000 0.0000 0.0000 25.1169
#
#
#
# Elastic Compliance Matrix: (Units=1/GPa)
#
#
# Indices 1 2 3 4 5 6 
#
# 1 0.012874 -0.001870 -0.006016 0.000000 0.000000 0.000000
# 2 -0.001870 0.014064 -0.006534 0.000000 0.000000 0.000000
# 3 -0.006016 -0.006534 0.017060 0.000000 0.000000 0.000000
# 4 0.000000 0.000000 0.000000 0.033784 0.000000 0.000000
# 5 0.000000 0.000000 0.000000 0.000000 0.095459 0.000000
# 6 0.000000 0.000000 0.000000 0.000000 0.000000 0.039814
#
#
# Mechanical properties :
#
#
# Convention : Reuss Voigt Hill
#
# Bulk Modulus (GPa) = 65.96816 66.10903 66.03859
# Shear Modulus (GPa) = 20.24723 23.81710 22.03216
#
# Velocity S-wave (km/s) = 3.15845 3.42559 3.29473
# Velocity P-wave (km/s) = 6.76783 6.94393 6.85645
#
# Compressibility (1/GPa) = 0.01515883
#
# Stress axis : x y z
#
# Youngs Moduli (GPa) = 77.67338 71.10480 58.61544
#
# Poissons Ratio (x) = 0.13296 0.35262
# Poissons Ratio (y) = 0.14524 0.38300
# Poissons Ratio (z) = 0.46727 0.46461
#
# Static dielectric constant tensor:
#      x y z
#    x 3.683330 0.000000 0.000000 
#    y 0.000000 3.697540 0.000000 
#    z 0.000000 0.000000 3.602840 
# 
# 
# High freq. dielectric constant tensor:
#      x y z
#    x 1.800420 0.000000 0.000000 
#    y 0.000000 1.798030 0.000000 
#    z 0.000000 0.000000 1.783720 
# 
# From -- ./inp_files/12048.got.cif
#   From: 2010.03.12/outbox.cif.g09.slc.cpg/sg47_7_cif.got.tgz:12048.got - 2010.04.14 03:12:58.
