data_PCOD8198489
_publ_section_title
;
Structure prediction by ZEFSAII (Michael W. Deem and Ramdas Pophale) SiO2 
 PCOD8198489
Probable space group: P M M M
;
_chemical_formula_sum "Si O2"
_cell_formula_units_Z 48
_cell_length_a 20.622585
_cell_length_b 8.702215
_cell_length_c 13.985875
_cell_angle_alpha 90.000000
_cell_angle_beta 90.000000
_cell_angle_gamma 90.000000
_cell_volume 2509.935456
_symmetry_space_group_name_H-M "P M M M"
_symmetry_group_IT_number 47
_symmetry_cell_setting 'orthorhombic'
loop_
_space_group_symop_operation_xyz
x,y,z
-x,-y,z
x,-y,-z
-x,y,-z
-x,-y,-z
x,y,-z
-x,y,z
x,-y,z
loop_
_atom_site_type_symbol
_atom_site_label
_atom_site_fract_x
_atom_site_fract_y
_atom_site_fract_z
Si Si1 0.310629 0.676593 0.606948
Si Si2 0.746981 0.822856 0.888893
Si Si3 0.174198 0.178874 0.391716
Si Si4 0.870321 0.319368 0.789791
Si Si5 0.000000 0.317657 0.892539
Si Si6 0.623310 0.322497 0.202628
Si Si7 0.500000 0.180164 0.107134
O O1 0.338022 0.708016 0.500000
O O2 0.287669 0.500000 0.617723
O O3 0.249288 0.783388 0.629052
O O4 0.366243 0.713773 0.684476
O O5 0.811537 0.772951 0.835444
O O6 0.687279 0.719755 0.855795
O O7 0.731672 0.000000 0.865845
O O8 0.758585 0.794441 0.000000
O O9 0.156040 0.224316 0.500000
O O10 0.127793 0.278033 0.322730
O O11 0.163041 0.000000 0.372353
O O12 0.860531 0.500000 0.805693
O O13 0.936456 0.258824 0.837373
O O14 0.000000 0.500000 0.895276
O O15 0.000000 0.250281 0.000000
O O16 0.607609 0.500000 0.185825
O O17 0.563092 0.226608 0.165677
O O18 0.500000 0.000000 0.096694
O O19 0.500000 0.253335 0.000000
#
# Coordination Sequence:
#
# PCOD8198489 Si02
#       7
#     8   8   8   8   4   8   4
#     4   9  18  34  57  86 117 148 185 231 284 339
#     4  11  23  37  55  82 116 150 187 236 290 345
#     4  10  20  34  55  84 117 152 188 231 286 344
#     4  11  21  36  59  85 112 148 192 241 292 341
#     4   9  20  38  58  81 112 150 193 241 292 345
#     4  11  22  37  60  88 114 148 192 239 287 338
#     4  11  25  43  60  79 112 158 197 237 292 347
#
# _framework density 19.123998
#
# number of rings (size 3 to 8) (size 9 to 14) (size 15 to 20)
#    0.000    1.667    1.667    3.250    0.000    6.333 
#    0.000    2.500    0.000    8.000    0.000    0.000 
#    0.000    0.000    0.000    0.000    0.000    0.000 
#
# Total GULP energy -595323.624831 kJ/mol
# GULP energy per Si atom -12402.575517 kJ/mol
# Density = 1.908047 g / cm^3
# Si number density = 19.123998 Si / 1000 Ang^3
#
#
#
# Elastic Constant Matrix: (Units=GPa)
#
#
# Indices 1 2 3 4 5 6 
#
# 1 111.3321 11.8359 61.0584 0.0000 0.0000 0.0000
# 2 11.8359 41.8483 34.1801 0.0000 0.0000 0.0000
# 3 61.0584 34.1801 143.3724 0.0000 0.0000 0.0000
# 4 0.0000 0.0000 0.0000 30.6419 0.0000 0.0000
# 5 0.0000 0.0000 0.0000 0.0000 31.7256 0.0000
# 6 0.0000 0.0000 0.0000 0.0000 0.0000 41.7326
#
#
#
# Elastic Compliance Matrix: (Units=1/GPa)
#
#
# Indices 1 2 3 4 5 6 
#
# 1 0.011750 0.000948 -0.005230 0.000000 0.000000 0.000000
# 2 0.000948 0.029750 -0.007496 0.000000 0.000000 0.000000
# 3 -0.005230 -0.007496 0.010989 0.000000 0.000000 0.000000
# 4 0.000000 0.000000 0.000000 0.032635 0.000000 0.000000
# 5 0.000000 0.000000 0.000000 0.000000 0.031520 0.000000
# 6 0.000000 0.000000 0.000000 0.000000 0.000000 0.023962
#
#
# Mechanical properties :
#
#
# Convention : Reuss Voigt Hill
#
# Bulk Modulus (GPa) = 34.56208 56.74464 45.65336
# Shear Modulus (GPa) = 28.76755 33.45192 31.10973
#
# Velocity S-wave (km/s) = 3.88269 4.18689 4.03766
# Velocity P-wave (km/s) = 6.18161 7.28765 6.75730
#
# Compressibility (1/GPa) = 0.02893344
#
# Stress axis : x y z
#
# Youngs Moduli (GPa) = 85.10938 33.61300 90.99758
#
# Poissons Ratio (x) = -0.03188 0.47591
# Poissons Ratio (y) = -0.08073 0.68216
# Poissons Ratio (z) = 0.44512 0.25198
#
# Static dielectric constant tensor:
#      x y z
#    x 4.015090 0.000000 0.000000 
#    y 0.000000 3.501220 0.000000 
#    z 0.000000 0.000000 3.950950 
# 
# 
# High freq. dielectric constant tensor:
#      x y z
#    x 1.721200 0.000000 0.000000 
#    y 0.000000 1.743990 0.000000 
#    z 0.000000 0.000000 1.765850 
# 
# From -- ./inp_files/6443.got.cif
#   From: 2010.03.12/outbox.cif.g09.slc.cpg/sg47_4_cif.got.tgz:6443.got - 2010.04.14 03:12:58.
