data_PCOD8198167
_publ_section_title
;
Structure prediction by ZEFSAII (Michael W. Deem and Ramdas Pophale) SiO2 
 PCOD8198167
Probable space group: P M M M
;
_chemical_formula_sum "Si O2"
_cell_formula_units_Z 44
_cell_length_a 12.776883
_cell_length_b 14.052830
_cell_length_c 14.350376
_cell_angle_alpha 90.000000
_cell_angle_beta 90.000000
_cell_angle_gamma 90.000000
_cell_volume 2576.629595
_symmetry_space_group_name_H-M "P M M M"
_symmetry_group_IT_number 47
_symmetry_cell_setting 'orthorhombic'
loop_
_space_group_symop_operation_xyz
x,y,z
-x,-y,z
x,-y,-z
-x,y,-z
-x,-y,-z
x,y,-z
-x,y,z
x,-y,z
loop_
_atom_site_type_symbol
_atom_site_label
_atom_site_fract_x
_atom_site_fract_y
_atom_site_fract_z
Si Si1 0.500000 0.393185 0.389250
Si Si2 0.704818 0.717673 0.610385
Si Si3 0.721164 0.107483 0.103671
Si Si4 0.381040 0.108356 0.708477
Si Si5 0.119937 0.728185 0.104155
Si Si6 0.121796 0.389876 0.280907
O O1 0.500000 0.500000 0.348892
O O2 0.500000 0.394474 0.500000
O O3 0.604177 0.340883 0.352635
O O4 0.708124 0.722977 0.500000
O O5 0.696937 0.824212 0.650902
O O6 0.810906 0.668203 0.644362
O O7 0.631140 0.124140 0.180274
O O8 0.816709 0.176729 0.126856
O O9 0.764805 0.000000 0.109946
O O10 0.674891 0.127425 0.000000
O O11 0.500000 0.132193 0.681029
O O12 0.353027 0.000000 0.681339
O O13 0.149113 0.645118 0.176579
O O14 0.000000 0.758061 0.114398
O O15 0.144341 0.689652 0.000000
O O16 0.152216 0.500000 0.287487
O O17 0.000000 0.373401 0.304737
#
# Coordination Sequence:
#
# PCOD8198167 Si02
#       6
#     4   8   8   8   8   8
#     4   9  18  32  51  75  98 125 165 215 267 308
#     4  11  21  35  54  76 103 134 173 220 263 305
#     4   9  17  30  50  76 104 133 166 205 251 305
#     4  10  20  34  53  78 106 135 170 210 256 311
#     4   9  17  30  50  76 104 132 164 206 255 305
#     4  10  21  36  54  77 104 136 175 215 258 309
#
# _framework density 17.076573
#
# number of rings (size 3 to 8) (size 9 to 14) (size 15 to 20)
#    0.000    2.273    2.727    0.545    0.000    2.909 
#    0.000    7.273    0.000    0.545    0.000    1.273 
#    0.000    5.818    0.000    0.000    0.000    0.000 
#
# Total GULP energy -545541.837053 kJ/mol
# GULP energy per Si atom -12398.678115 kJ/mol
# Density = 1.703771 g / cm^3
# Si number density = 17.076573 Si / 1000 Ang^3
#
#
#
# Elastic Constant Matrix: (Units=GPa)
#
#
# Indices 1 2 3 4 5 6 
#
# 1 68.6002 51.9188 40.4089 0.0000 0.0000 0.0000
# 2 51.9188 119.4918 55.3510 0.0000 0.0000 0.0000
# 3 40.4089 55.3510 89.8600 0.0000 0.0000 0.0000
# 4 0.0000 0.0000 0.0000 23.9847 0.0000 0.0000
# 5 0.0000 0.0000 0.0000 0.0000 24.7058 0.0000
# 6 0.0000 0.0000 0.0000 0.0000 0.0000 28.4735
#
#
#
# Elastic Compliance Matrix: (Units=1/GPa)
#
#
# Indices 1 2 3 4 5 6 
#
# 1 0.023881 -0.007558 -0.006083 0.000000 0.000000 0.000000
# 2 -0.007558 0.014102 -0.005288 0.000000 0.000000 0.000000
# 3 -0.006083 -0.005288 0.017121 0.000000 0.000000 0.000000
# 4 0.000000 0.000000 0.000000 0.041693 0.000000 0.000000
# 5 0.000000 0.000000 0.000000 0.000000 0.040476 0.000000
# 6 0.000000 0.000000 0.000000 0.000000 0.000000 0.035120
#
#
# Mechanical properties :
#
#
# Convention : Reuss Voigt Hill
#
# Bulk Modulus (GPa) = 57.98543 63.70104 60.84324
# Shear Modulus (GPa) = 23.14804 24.11769 23.63287
#
# Velocity S-wave (km/s) = 3.68577 3.76217 3.72416
# Velocity P-wave (km/s) = 7.22101 7.50040 7.36203
#
# Compressibility (1/GPa) = 0.01724571
#
# Stress axis : x y z
#
# Youngs Moduli (GPa) = 41.87442 70.91111 58.40776
#
# Poissons Ratio (x) = 0.53597 0.35531
# Poissons Ratio (y) = 0.31650 0.30884
# Poissons Ratio (z) = 0.25473 0.37495
#
# Static dielectric constant tensor:
#      x y z
#    x 3.100490 0.000000 0.000000 
#    y 0.000000 3.262130 0.000000 
#    z 0.000000 0.000000 3.188180 
# 
# 
# High freq. dielectric constant tensor:
#      x y z
#    x 1.646500 0.000000 0.000000 
#    y 0.000000 1.663650 0.000000 
#    z 0.000000 0.000000 1.655410 
# 
# From -- ./inp_files/17393.got.cif
#   From: 2010.03.12/outbox.cif.g09.slc.cpg/sg47_9_cif.got.tgz:17393.got - 2010.04.14 03:12:58.
