data_PCOD8198691
_publ_section_title
;
Structure prediction by ZEFSAII (Michael W. Deem and Ramdas Pophale) SiO2 
 PCOD8198691
Probable space group: P M M M
;
_chemical_formula_sum "Si O2"
_cell_formula_units_Z 60
_cell_length_a 17.978647
_cell_length_b 9.319339
_cell_length_c 19.193850
_cell_angle_alpha 90.000000
_cell_angle_beta 90.000000
_cell_angle_gamma 90.000000
_cell_volume 3215.912411
_symmetry_space_group_name_H-M "P M M M"
_symmetry_group_IT_number 47
_symmetry_cell_setting 'orthorhombic'
loop_
_space_group_symop_operation_xyz
x,y,z
-x,-y,z
x,-y,-z
-x,y,-z
-x,-y,-z
x,y,-z
-x,y,z
x,-y,z
loop_
_atom_site_type_symbol
_atom_site_label
_atom_site_fract_x
_atom_site_fract_y
_atom_site_fract_z
Si Si1 0.413986 0.335321 0.298048
Si Si2 0.689707 0.332158 0.422034
Si Si3 0.413672 0.831322 0.160570
Si Si4 0.083915 0.166916 0.715526
Si Si5 0.162849 0.834843 0.422443
Si Si6 0.292768 0.334399 0.080749
Si Si7 0.000000 0.670525 0.922105
Si Si8 0.144212 0.669555 0.838903
O O1 0.500000 0.314970 0.314562
O O2 0.394804 0.500000 0.279296
O O3 0.372446 0.282523 0.367350
O O4 0.388734 0.237240 0.233778
O O5 0.663357 0.289170 0.500000
O O6 0.704470 0.500000 0.416778
O O7 0.765606 0.255802 0.401828
O O8 0.500000 0.796788 0.144403
O O9 0.363885 0.761624 0.100217
O O10 0.398957 0.000000 0.163610
O O11 0.099570 0.198919 0.634184
O O12 0.140721 0.255980 0.763471
O O13 0.000000 0.217491 0.730798
O O14 0.094644 0.000000 0.732438
O O15 0.133280 0.794295 0.500000
O O16 0.186797 0.000000 0.419775
O O17 0.311846 0.500000 0.096447
O O18 0.220452 0.284288 0.123759
O O19 0.274261 0.311008 0.000000
O O20 0.925801 0.726091 0.883813
O O21 0.000000 0.500000 0.924686
O O22 0.000000 0.734209 0.000000
O O23 0.140525 0.500000 0.828519
#
# Coordination Sequence:
#
# PCOD8198691 Si02
#       8
#     8   8   8   8   8   8   4   8
#     4   9  18  33  53  77 106 141 180 220 263 314
#     4   9  18  32  51  77 107 138 174 219 269 318
#     4  10  22  39  58  81 110 145 184 225 271 324
#     4  10  21  36  54  78 108 141 179 225 271 316
#     4   9  19  35  53  74 102 140 183 223 265 314
#     4  10  22  39  59  85 113 141 179 225 272 325
#     4   9  16  30  55  81 106 139 176 214 257 309
#     4  10  20  35  56  83 111 142 180 221 265 321
#
# _framework density 18.657225
#
# number of rings (size 3 to 8) (size 9 to 14) (size 15 to 20)
#    0.000    2.467    0.667    0.800    1.867    5.067 
#    0.000    4.000    0.000    1.600    0.000    6.533 
#    0.000    0.000    0.000    0.000    0.000    0.000 
#
# Total GULP energy -744073.010698 kJ/mol
# GULP energy per Si atom -12401.216845 kJ/mol
# Density = 1.861476 g / cm^3
# Si number density = 18.657225 Si / 1000 Ang^3
#
#
#
# Elastic Constant Matrix: (Units=GPa)
#
#
# Indices 1 2 3 4 5 6 
#
# 1 93.9065 42.0874 59.0346 0.0000 0.0000 0.0000
# 2 42.0874 49.5084 42.9141 0.0000 0.0000 0.0000
# 3 59.0346 42.9141 117.9559 0.0000 0.0000 0.0000
# 4 0.0000 0.0000 0.0000 24.2285 0.0000 0.0000
# 5 0.0000 0.0000 0.0000 0.0000 36.7224 0.0000
# 6 0.0000 0.0000 0.0000 0.0000 0.0000 25.8090
#
#
#
# Elastic Compliance Matrix: (Units=1/GPa)
#
#
# Indices 1 2 3 4 5 6 
#
# 1 0.019294 -0.011731 -0.005388 0.000000 0.000000 0.000000
# 2 -0.011731 0.036635 -0.007457 0.000000 0.000000 0.000000
# 3 -0.005388 -0.007457 0.013887 0.000000 0.000000 0.000000
# 4 0.000000 0.000000 0.000000 0.041274 0.000000 0.000000
# 5 0.000000 0.000000 0.000000 0.000000 0.027231 0.000000
# 6 0.000000 0.000000 0.000000 0.000000 0.000000 0.038746
#
#
# Mechanical properties :
#
#
# Convention : Reuss Voigt Hill
#
# Bulk Modulus (GPa) = 48.39495 61.04923 54.72209
# Shear Modulus (GPa) = 21.44914 25.17429 23.31171
#
# Velocity S-wave (km/s) = 3.39432 3.67727 3.53862
# Velocity P-wave (km/s) = 6.43095 7.12898 6.78894
#
# Compressibility (1/GPa) = 0.02066331
#
# Stress axis : x y z
#
# Youngs Moduli (GPa) = 51.82940 27.29600 72.00738
#
# Poissons Ratio (x) = 0.32022 0.38799
# Poissons Ratio (y) = 0.60803 0.53697
# Poissons Ratio (z) = 0.27927 0.20355
#
# Static dielectric constant tensor:
#      x y z
#    x 3.454950 0.000000 0.000000 
#    y 0.000000 3.280790 0.000000 
#    z 0.000000 0.000000 3.569410 
# 
# 
# High freq. dielectric constant tensor:
#      x y z
#    x 1.721250 0.000000 0.000000 
#    y 0.000000 1.708670 0.000000 
#    z 0.000000 0.000000 1.734590 
# 
# From -- ./inp_files/28764.got.cif
#   From: 2010.03.12/outbox.cif.g09.slc.cpg/sg47_15_cif.got.tgz:28764.got - 2010.04.14 03:12:58.
