data_PCOD8198705
_publ_section_title
;
Structure prediction by ZEFSAII (Michael W. Deem and Ramdas Pophale) SiO2 
 PCOD8198705
Probable space group: P M M M
;
_chemical_formula_sum "Si O2"
_cell_formula_units_Z 48
_cell_length_a 15.838635
_cell_length_b 9.035741
_cell_length_c 17.730528
_cell_angle_alpha 90.000000
_cell_angle_beta 90.000000
_cell_angle_gamma 90.000000
_cell_volume 2537.483303
_symmetry_space_group_name_H-M "P M M M"
_symmetry_group_IT_number 47
_symmetry_cell_setting 'orthorhombic'
loop_
_space_group_symop_operation_xyz
x,y,z
-x,-y,z
x,-y,-z
-x,y,-z
-x,-y,-z
x,y,-z
-x,y,z
x,-y,z
loop_
_atom_site_type_symbol
_atom_site_label
_atom_site_fract_x
_atom_site_fract_y
_atom_site_fract_z
Si Si1 0.167097 0.668792 0.663894
Si Si2 0.401786 0.664150 0.000000
Si Si3 0.141359 0.337592 0.837253
Si Si4 0.658777 0.823794 0.686830
Si Si5 0.000000 0.674545 0.585807
Si Si6 0.000000 0.827670 0.082320
Si Si7 0.333671 0.327519 0.154761
Si Si8 0.500000 0.175151 0.585975
O O1 0.187185 0.500000 0.638506
O O2 0.134562 0.673014 0.748325
O O3 0.252776 0.762894 0.653447
O O4 0.088026 0.739483 0.618536
O O5 0.375804 0.742075 0.079043
O O6 0.360049 0.500000 0.000000
O O7 0.500000 0.652316 0.000000
O O8 0.111280 0.500000 0.864089
O O9 0.235870 0.306903 0.862496
O O10 0.083529 0.214715 0.873401
O O11 0.638666 0.760230 0.770222
O O12 0.583844 0.771916 0.630738
O O13 0.664428 0.000000 0.692608
O O14 0.000000 0.500000 0.601453
O O15 0.000000 0.719693 0.500000
O O16 0.000000 0.000000 0.073344
O O17 0.000000 0.751860 0.000000
O O18 0.357944 0.500000 0.167590
O O19 0.500000 0.239434 0.500000
O O20 0.500000 0.000000 0.582076
#
# Coordination Sequence:
#
# PCOD8198705 Si02
#       8
#     8   4   8   8   4   4   8   4
#     4   9  18  35  56  79 107 138 175 216 260 316
#     4   9  18  32  53  82 109 136 172 213 261 315
#     4   9  18  33  53  72  95 135 179 212 245 300
#     4  10  20  35  57  81 106 141 185 227 271 319
#     4   9  17  30  53  83 112 141 170 210 269 328
#     4  11  24  35  45  69 102 131 166 216 270 305
#     4   9  19  35  56  81 108 139 175 217 263 315
#     4   9  20  38  57  78 109 150 188 221 263 321
#
# _framework density 18.91638
#
# number of rings (size 3 to 8) (size 9 to 14) (size 15 to 20)
#    0.000    2.667    0.000    2.250    2.333    5.333 
#    0.000    2.083    0.000    4.500    0.000    0.000 
#    0.000    0.000    0.000    0.000    0.000    0.000 
#
# Total GULP energy -594893.563444 kJ/mol
# GULP energy per Si atom -12393.615905 kJ/mol
# Density = 1.887333 g / cm^3
# Si number density = 18.916380 Si / 1000 Ang^3
#
#
#
# Elastic Constant Matrix: (Units=GPa)
#
#
# Indices 1 2 3 4 5 6 
#
# 1 130.7091 38.6161 92.8806 0.0000 0.0000 0.0000
# 2 38.6161 58.0487 33.7654 0.0000 0.0000 0.0000
# 3 92.8806 33.7654 123.9198 0.0000 0.0000 0.0000
# 4 0.0000 0.0000 0.0000 21.1827 0.0000 0.0000
# 5 0.0000 0.0000 0.0000 0.0000 38.9141 0.0000
# 6 0.0000 0.0000 0.0000 0.0000 0.0000 26.3474
#
#
#
# Elastic Compliance Matrix: (Units=1/GPa)
#
#
# Indices 1 2 3 4 5 6 
#
# 1 0.017401 -0.004741 -0.011751 0.000000 0.000000 0.000000
# 2 -0.004741 0.021763 -0.002377 0.000000 0.000000 0.000000
# 3 -0.011751 -0.002377 0.017525 0.000000 0.000000 0.000000
# 4 0.000000 0.000000 0.000000 0.047208 0.000000 0.000000
# 5 0.000000 0.000000 0.000000 0.000000 0.025698 0.000000
# 6 0.000000 0.000000 0.000000 0.000000 0.000000 0.037954
#
#
# Mechanical properties :
#
#
# Convention : Reuss Voigt Hill
#
# Bulk Modulus (GPa) = 52.76313 71.46685 62.11499
# Shear Modulus (GPa) = 23.62912 27.11655 25.37283
#
# Velocity S-wave (km/s) = 3.53815 3.79026 3.66637
# Velocity P-wave (km/s) = 6.68167 7.55097 7.12958
#
# Compressibility (1/GPa) = 0.01895263
#
# Stress axis : x y z
#
# Youngs Moduli (GPa) = 57.46748 45.94937 57.06203
#
# Poissons Ratio (x) = 0.21783 0.67052
# Poissons Ratio (y) = 0.27244 0.13562
# Poissons Ratio (z) = 0.67529 0.10921
#
# Static dielectric constant tensor:
#      x y z
#    x 3.528050 0.000000 0.000000 
#    y 0.000000 3.212110 0.000000 
#    z 0.000000 0.000000 3.627940 
# 
# 
# High freq. dielectric constant tensor:
#      x y z
#    x 1.746020 0.000000 0.000000 
#    y 0.000000 1.697660 0.000000 
#    z 0.000000 0.000000 1.740860 
# 
# From -- ./inp_files/28098.got.cif
#   From: 2010.03.12/outbox.cif.g09.slc.cpg/sg47_15_cif.got.tgz:28098.got - 2010.04.14 03:12:58.
