data_PCOD8198914
_publ_section_title
;
Structure prediction by ZEFSAII (Michael W. Deem and Ramdas Pophale) SiO2 
 PCOD8198914
Probable space group: P M M M
;
_chemical_formula_sum "Si O2"
_cell_formula_units_Z 48
_cell_length_a 28.970524
_cell_length_b 8.794467
_cell_length_c 9.843376
_cell_angle_alpha 90.000000
_cell_angle_beta 90.000000
_cell_angle_gamma 90.000000
_cell_volume 2507.898460
_symmetry_space_group_name_H-M "P M M M"
_symmetry_group_IT_number 47
_symmetry_cell_setting 'orthorhombic'
loop_
_space_group_symop_operation_xyz
x,y,z
-x,-y,z
x,-y,-z
-x,y,-z
-x,-y,-z
x,y,-z
-x,y,z
x,-y,z
loop_
_atom_site_type_symbol
_atom_site_label
_atom_site_fract_x
_atom_site_fract_y
_atom_site_fract_z
Si Si1 0.126880 0.320729 0.342838
Si Si2 0.392796 0.820134 0.757702
Si Si3 0.301026 0.324596 0.842523
Si Si4 0.053931 0.824282 0.154099
Si Si5 0.445295 0.326169 0.000000
Si Si6 0.204365 0.179636 0.845252
Si Si7 0.551385 0.179988 0.500000
O O1 0.125738 0.264361 0.500000
O O2 0.132552 0.500000 0.337546
O O3 0.079880 0.275022 0.266448
O O4 0.169075 0.246924 0.262694
O O5 0.342665 0.743563 0.755936
O O6 0.419399 0.762653 0.626255
O O7 0.386070 0.000000 0.766308
O O8 0.425893 0.763233 0.873972
O O9 0.293615 0.500000 0.805960
O O10 0.254868 0.235604 0.802975
O O11 0.313551 0.301138 0.000000
O O12 0.000000 0.798472 0.177740
O O13 0.067422 0.000000 0.174607
O O14 0.067492 0.775014 0.000000
O O15 0.427457 0.500000 0.000000
O O16 0.500000 0.318030 0.000000
O O17 0.202580 0.000000 0.835551
O O18 0.192564 0.232957 0.000000
O O19 0.500000 0.252717 0.500000
O O20 0.546676 0.000000 0.500000
#
# Coordination Sequence:
#
# PCOD8198914 Si02
#       7
#     8   8   8   8   4   8   4
#     4  11  24  39  55  82 121 159 196 239 291 347
#     4  11  21  36  60  85 112 147 189 234 281 337
#     4  10  20  36  59  86 118 149 181 228 285 342
#     4   9  19  37  61  88 117 152 198 248 294 344
#     4  11  23  37  55  83 117 149 185 233 286 339
#     4  10  21  38  62  88 112 144 191 240 286 341
#     4   9  20  38  57  81 113 147 187 233 278 329
#
# _framework density 19.139530000000001
#
# number of rings (size 3 to 8) (size 9 to 14) (size 15 to 20)
#    0.000    1.833    0.833    3.750    0.000    7.333 
#    1.500    4.167    0.000    3.000    0.000    0.000 
#    0.000    0.000    0.000    0.000    0.000    0.000 
#
# Total GULP energy -595247.857452 kJ/mol
# GULP energy per Si atom -12400.997030 kJ/mol
# Density = 1.909597 g / cm^3
# Si number density = 19.139530 Si / 1000 Ang^3
#
#
#
# Elastic Constant Matrix: (Units=GPa)
#
#
# Indices 1 2 3 4 5 6 
#
# 1 130.7688 39.9520 79.5244 0.0000 0.0000 0.0000
# 2 39.9520 59.7231 49.8437 0.0000 0.0000 0.0000
# 3 79.5244 49.8437 149.7859 0.0000 0.0000 0.0000
# 4 0.0000 0.0000 0.0000 27.6864 0.0000 0.0000
# 5 0.0000 0.0000 0.0000 0.0000 30.5360 0.0000
# 6 0.0000 0.0000 0.0000 0.0000 0.0000 32.0638
#
#
#
# Elastic Compliance Matrix: (Units=1/GPa)
#
#
# Indices 1 2 3 4 5 6 
#
# 1 0.011858 -0.003708 -0.005062 0.000000 0.000000 0.000000
# 2 -0.003708 0.024342 -0.006131 0.000000 0.000000 0.000000
# 3 -0.005062 -0.006131 0.011404 0.000000 0.000000 0.000000
# 4 0.000000 0.000000 0.000000 0.036119 0.000000 0.000000
# 5 0.000000 0.000000 0.000000 0.000000 0.032748 0.000000
# 6 0.000000 0.000000 0.000000 0.000000 0.000000 0.031188
#
#
# Mechanical properties :
#
#
# Convention : Reuss Voigt Hill
#
# Bulk Modulus (GPa) = 56.17612 75.43534 65.80573
# Shear Modulus (GPa) = 27.26356 29.45442 28.35899
#
# Velocity S-wave (km/s) = 3.77830 3.92718 3.85346
# Velocity P-wave (km/s) = 6.96051 7.75000 7.36584
#
# Compressibility (1/GPa) = 0.01780116
#
# Stress axis : x y z
#
# Youngs Moduli (GPa) = 84.32965 41.08198 87.68904
#
# Poissons Ratio (x) = 0.15234 0.44387
# Poissons Ratio (y) = 0.31270 0.53765
# Poissons Ratio (z) = 0.42686 0.25189
#
# Static dielectric constant tensor:
#      x y z
#    x 3.631540 0.000000 0.000000 
#    y 0.000000 3.518660 0.000000 
#    z 0.000000 0.000000 3.572490 
# 
# 
# High freq. dielectric constant tensor:
#      x y z
#    x 1.761270 0.000000 0.000000 
#    y 0.000000 1.745250 0.000000 
#    z 0.000000 0.000000 1.738640 
# 
# From -- ./inp_files/13904.got.cif
#   From: 2010.03.12/outbox.cif.g09.slc.cpg/sg47_7_cif.got.tgz:13904.got - 2010.04.14 03:12:58.
