data_PCOD8198592
_publ_section_title
;
Structure prediction by ZEFSAII (Michael W. Deem and Ramdas Pophale) SiO2 
 PCOD8198592
Probable space group: P M M M
;
_chemical_formula_sum "Si O2"
_cell_formula_units_Z 64
_cell_length_a 15.339392
_cell_length_b 24.844596
_cell_length_c 9.036705
_cell_angle_alpha 90.000000
_cell_angle_beta 90.000000
_cell_angle_gamma 90.000000
_cell_volume 3443.897286
_symmetry_space_group_name_H-M "P M M M"
_symmetry_group_IT_number 47
_symmetry_cell_setting 'orthorhombic'
loop_
_space_group_symop_operation_xyz
x,y,z
-x,-y,z
x,-y,-z
-x,y,-z
-x,-y,-z
x,y,-z
-x,y,z
x,-y,z
loop_
_atom_site_type_symbol
_atom_site_label
_atom_site_fract_x
_atom_site_fract_y
_atom_site_fract_z
Si Si1 0.757769 0.060965 0.170908
Si Si2 0.636708 0.213224 0.175476
Si Si3 0.594872 0.320075 0.330218
Si Si4 0.813317 0.765995 0.327149
Si Si5 0.097219 0.439404 0.825168
Si Si6 0.097484 0.145437 0.829246
Si Si7 0.780558 0.644061 0.329841
Si Si8 0.595714 0.892762 0.330248
O O1 0.834889 0.100084 0.227257
O O2 0.669221 0.068998 0.262032
O O3 0.790188 0.000000 0.194169
O O4 0.736546 0.072887 0.000000
O O5 0.590990 0.267588 0.229384
O O6 0.734904 0.209279 0.232961
O O7 0.586389 0.162725 0.241143
O O8 0.634229 0.211270 0.000000
O O9 0.610433 0.301700 0.500000
O O10 0.500000 0.349633 0.313383
O O11 0.677338 0.357272 0.285011
O O12 0.797654 0.775929 0.500000
O O13 0.895692 0.799705 0.268069
O O14 0.822333 0.702386 0.295058
O O15 0.117782 0.500000 0.770993
O O16 0.170260 0.400096 0.764268
O O17 0.000000 0.422675 0.770549
O O18 0.100782 0.436616 0.000000
O O19 0.000000 0.122651 0.806967
O O20 0.114551 0.160053 0.000000
O O21 0.792863 0.628721 0.500000
O O22 0.620227 0.880658 0.500000
O O23 0.500000 0.920758 0.319518
#
# Coordination Sequence:
#
# PCOD8198592 Si02
#       8
#     8   8   8   8   8   8   8   8
#     4  10  22  40  60  81 106 138 178 226 273 320
#     4  11  20  31  51  79 109 140 178 222 267 315
#     4   9  18  33  51  74 110 151 185 219 263 317
#     4  10  20  35  54  78 112 149 181 216 265 321
#     4   9  19  36  56  78 106 142 184 229 277 326
#     4  10  21  37  58  84 111 141 178 219 268 327
#     4   9  19  33  52  81 111 142 182 224 266 315
#     4  11  23  37  55  79 107 141 178 217 267 326
#
# _framework density 18.583596
#
# number of rings (size 3 to 8) (size 9 to 14) (size 15 to 20)
#    0.000    2.125    1.250    3.375    0.000    7.250 
#    0.000    5.625    0.000    0.375    0.000    4.375 
#    0.000    0.000    0.000    0.000    0.000    0.000 
#
# Total GULP energy -793378.534135 kJ/mol
# GULP energy per Si atom -12396.539596 kJ/mol
# Density = 1.854130 g / cm^3
# Si number density = 18.583596 Si / 1000 Ang^3
#
#
#
# Elastic Constant Matrix: (Units=GPa)
#
#
# Indices 1 2 3 4 5 6 
#
# 1 130.8935 65.1776 43.8087 0.0000 0.0000 0.0000
# 2 65.1776 91.9912 40.3318 0.0000 0.0000 0.0000
# 3 43.8087 40.3318 85.0006 0.0000 0.0000 0.0000
# 4 0.0000 0.0000 0.0000 23.3157 0.0000 0.0000
# 5 0.0000 0.0000 0.0000 0.0000 27.6453 0.0000
# 6 0.0000 0.0000 0.0000 0.0000 0.0000 16.9219
#
#
#
# Elastic Compliance Matrix: (Units=1/GPa)
#
#
# Indices 1 2 3 4 5 6 
#
# 1 0.012305 -0.007498 -0.002784 0.000000 0.000000 0.000000
# 2 -0.007498 0.018294 -0.004816 0.000000 0.000000 0.000000
# 3 -0.002784 -0.004816 0.015485 0.000000 0.000000 0.000000
# 4 0.000000 0.000000 0.000000 0.042890 0.000000 0.000000
# 5 0.000000 0.000000 0.000000 0.000000 0.036173 0.000000
# 6 0.000000 0.000000 0.000000 0.000000 0.000000 0.059095
#
#
# Mechanical properties :
#
#
# Convention : Reuss Voigt Hill
#
# Bulk Modulus (GPa) = 62.94121 67.39128 65.16624
# Shear Modulus (GPa) = 22.75478 24.14774 23.45126
#
# Velocity S-wave (km/s) = 3.50302 3.60865 3.55622
# Velocity P-wave (km/s) = 7.09255 7.32842 7.21145
#
# Compressibility (1/GPa) = 0.01588784
#
# Stress axis : x y z
#
# Youngs Moduli (GPa) = 81.26700 54.66149 64.57885
#
# Poissons Ratio (x) = 0.40983 0.17982
# Poissons Ratio (y) = 0.60931 0.31103
# Poissons Ratio (z) = 0.22628 0.26326
#
# Static dielectric constant tensor:
#      x y z
#    x 3.567270 0.000000 0.000000 
#    y 0.000000 3.209180 0.000000 
#    z 0.000000 0.000000 3.357250 
# 
# 
# High freq. dielectric constant tensor:
#      x y z
#    x 1.729710 0.000000 0.000000 
#    y 0.000000 1.694480 0.000000 
#    z 0.000000 0.000000 1.720030 
# 
# From -- ./inp_files/7847.got.cif
#   From: 2010.03.12/outbox.cif.g09.slc.cpg/sg47_4_cif.got.tgz:7847.got - 2010.04.14 03:12:58.
