data_PCOD8198519
_publ_section_title
;
Structure prediction by ZEFSAII (Michael W. Deem and Ramdas Pophale) SiO2 
 PCOD8198519
Probable space group: P M M M
;
_chemical_formula_sum "Si O2"
_cell_formula_units_Z 36
_cell_length_a 9.282195
_cell_length_b 7.850693
_cell_length_c 24.724730
_cell_angle_alpha 90.000000
_cell_angle_beta 90.000000
_cell_angle_gamma 90.000000
_cell_volume 1801.732200
_symmetry_space_group_name_H-M "P M M M"
_symmetry_group_IT_number 47
_symmetry_cell_setting 'orthorhombic'
loop_
_space_group_symop_operation_xyz
x,y,z
-x,-y,z
x,-y,-z
-x,y,-z
-x,-y,-z
x,y,-z
-x,y,z
x,-y,z
loop_
_atom_site_type_symbol
_atom_site_label
_atom_site_fract_x
_atom_site_fract_y
_atom_site_fract_z
Si Si1 0.158421 0.803746 0.160520
Si Si2 0.170707 0.000000 0.560219
Si Si3 0.334101 0.201918 0.261931
Si Si4 0.833751 0.691818 0.365585
Si Si5 0.337960 0.299207 0.939183
O O1 0.259813 0.725883 0.207277
O O2 0.228003 0.786102 0.101746
O O3 0.000000 0.716054 0.161151
O O4 0.139440 0.000000 0.173745
O O5 0.223678 0.829076 0.590788
O O6 0.238267 0.000000 0.500000
O O7 0.000000 0.000000 0.556173
O O8 0.500000 0.256651 0.259738
O O9 0.259228 0.294278 0.311761
O O10 0.316865 0.000000 0.268287
O O11 0.816832 0.500000 0.389193
O O12 0.000000 0.730682 0.351036
O O13 0.500000 0.235334 0.926699
O O14 0.329797 0.500000 0.932592
O O15 0.294088 0.245275 0.000000
#
# Coordination Sequence:
#
# PCOD8198519 Si02
#       5
#     8   4   8   8   8
#     4  10  21  35  53  79 109 140 176 222 274 328
#     4   9  18  34  57  85 119 155 188 231 280 323
#     4  10  20  35  56  79 106 143 184 227 279 335
#     4  10  20  34  56  85 115 150 190 231 279 333
#     4   9  19  36  55  74 100 137 180 225 273 326
#
# _framework density 19.980772000000002
#
# number of rings (size 3 to 8) (size 9 to 14) (size 15 to 20)
#    0.000    2.333    1.111    2.000    0.000    5.333 
#    0.000    5.556    0.000    1.333    0.000    1.556 
#    0.000    0.000    0.000    0.000    0.000    0.000 
#
# Total GULP energy -446358.215366 kJ/mol
# GULP energy per Si atom -12398.839316 kJ/mol
# Density = 1.993529 g / cm^3
# Si number density = 19.980772 Si / 1000 Ang^3
#
#
#
# Elastic Constant Matrix: (Units=GPa)
#
#
# Indices 1 2 3 4 5 6 
#
# 1 119.9428 34.1360 71.7760 0.0000 0.0000 0.0000
# 2 34.1360 73.5928 44.8663 0.0000 0.0000 0.0000
# 3 71.7760 44.8663 157.5538 0.0000 0.0000 0.0000
# 4 0.0000 0.0000 0.0000 11.9021 0.0000 0.0000
# 5 0.0000 0.0000 0.0000 0.0000 14.5139 0.0000
# 6 0.0000 0.0000 0.0000 0.0000 0.0000 19.4932
#
#
#
# Elastic Compliance Matrix: (Units=1/GPa)
#
#
# Indices 1 2 3 4 5 6 
#
# 1 0.011882 -0.002676 -0.004651 0.000000 0.000000 0.000000
# 2 -0.002676 0.017046 -0.003635 0.000000 0.000000 0.000000
# 3 -0.004651 -0.003635 0.009501 0.000000 0.000000 0.000000
# 4 0.000000 0.000000 0.000000 0.084019 0.000000 0.000000
# 5 0.000000 0.000000 0.000000 0.000000 0.068899 0.000000
# 6 0.000000 0.000000 0.000000 0.000000 0.000000 0.051300
#
#
# Mechanical properties :
#
#
# Convention : Reuss Voigt Hill
#
# Bulk Modulus (GPa) = 60.58854 72.51625 66.55239
# Shear Modulus (GPa) = 18.51354 22.53592 20.52473
#
# Velocity S-wave (km/s) = 3.04726 3.36204 3.20851
# Velocity P-wave (km/s) = 6.53990 7.17237 6.86342
#
# Compressibility (1/GPa) = 0.01650477
#
# Stress axis : x y z
#
# Youngs Moduli (GPa) = 84.15962 58.66612 105.25183
#
# Poissons Ratio (x) = 0.15699 0.48953
# Poissons Ratio (y) = 0.22521 0.38259
# Poissons Ratio (z) = 0.39143 0.21325
#
# Static dielectric constant tensor:
#      x y z
#    x 3.699470 0.000000 0.000000 
#    y 0.000000 3.508970 0.000000 
#    z 0.000000 0.000000 3.758260 
# 
# 
# High freq. dielectric constant tensor:
#      x y z
#    x 1.767750 0.000000 0.000000 
#    y 0.000000 1.771380 0.000000 
#    z 0.000000 0.000000 1.777780 
# 
# From -- ./inp_files/1447.got.cif
#   From: 2010.03.12/outbox.cif.g09.slc.cpg/sg47_1_cif.got.tgz:1447.got - 2010.04.14 03:12:58.
