data_PCOD8198049
_publ_section_title
;
Structure prediction by ZEFSAII (Michael W. Deem and Ramdas Pophale) SiO2 
 PCOD8198049
Probable space group: P M M M
;
_chemical_formula_sum "Si O2"
_cell_formula_units_Z 40
_cell_length_a 27.532871
_cell_length_b 9.235180
_cell_length_c 7.905238
_cell_angle_alpha 90.000000
_cell_angle_beta 90.000000
_cell_angle_gamma 90.000000
_cell_volume 2010.072926
_symmetry_space_group_name_H-M "P M M M"
_symmetry_group_IT_number 47
_symmetry_cell_setting 'orthorhombic'
loop_
_space_group_symop_operation_xyz
x,y,z
-x,-y,z
x,-y,-z
-x,y,-z
-x,-y,-z
x,y,-z
-x,y,z
x,-y,z
loop_
_atom_site_type_symbol
_atom_site_label
_atom_site_fract_x
_atom_site_fract_y
_atom_site_fract_z
Si Si1 0.781720 0.661642 0.200086
Si Si2 0.692363 0.159524 0.194578
Si Si3 0.500000 0.671573 0.190649
Si Si4 0.121496 0.170151 0.806059
Si Si5 0.396935 0.335707 0.305673
Si Si6 0.945894 0.828550 0.500000
O O1 0.783961 0.500000 0.277897
O O2 0.735007 0.744194 0.279404
O O3 0.829896 0.748226 0.249681
O O4 0.776497 0.651386 0.000000
O O5 0.640498 0.236672 0.205861
O O6 0.690321 0.000000 0.280619
O O7 0.705648 0.139608 0.000000
O O8 0.500000 0.500000 0.201712
O O9 0.548762 0.728601 0.281604
O O10 0.500000 0.729021 0.000000
O O11 0.080548 0.222292 0.673113
O O12 0.131701 0.000000 0.789855
O O13 0.105925 0.208766 0.000000
O O14 0.382447 0.331643 0.500000
O O15 0.393956 0.500000 0.234449
O O16 0.000000 0.761107 0.500000
O O17 0.948837 0.000000 0.500000
#
# Coordination Sequence:
#
# PCOD8198049 Si02
#       6
#     8   8   4   8   8   4
#     4   9  17  31  53  78 103 134 173 216 262 313
#     4  10  20  34  53  77 105 137 174 216 262 315
#     4   9  17  31  54  79 100 129 170 214 260 309
#     4   9  17  31  52  77 106 141 180 222 269 319
#     4  10  20  34  52  76 106 137 171 212 259 312
#     4   9  18  32  51  79 111 141 179 224 267 314
#
# _framework density 19.899777
#
# number of rings (size 3 to 8) (size 9 to 14) (size 15 to 20)
#    0.000    2.600    0.000    2.100    0.000    6.400 
#    1.800    3.000    0.000    4.200    0.000    2.800 
#    0.000    0.000    0.000    0.000    0.000    0.000 
#
# Total GULP energy -495862.232351 kJ/mol
# GULP energy per Si atom -12396.555809 kJ/mol
# Density = 1.985448 g / cm^3
# Si number density = 19.899777 Si / 1000 Ang^3
#
#
#
# Elastic Constant Matrix: (Units=GPa)
#
#
# Indices 1 2 3 4 5 6 
#
# 1 177.9970 69.7984 41.0082 0.0000 0.0000 0.0000
# 2 69.7984 98.5863 22.6080 0.0000 0.0000 0.0000
# 3 41.0082 22.6080 62.3948 0.0000 0.0000 0.0000
# 4 0.0000 0.0000 0.0000 10.7714 0.0000 0.0000
# 5 0.0000 0.0000 0.0000 0.0000 16.3360 0.0000
# 6 0.0000 0.0000 0.0000 0.0000 0.0000 23.8968
#
#
#
# Elastic Compliance Matrix: (Units=1/GPa)
#
#
# Indices 1 2 3 4 5 6 
#
# 1 0.008499 -0.005166 -0.003714 0.000000 0.000000 0.000000
# 2 -0.005166 0.014202 -0.001751 0.000000 0.000000 0.000000
# 3 -0.003714 -0.001751 0.019103 0.000000 0.000000 0.000000
# 4 0.000000 0.000000 0.000000 0.092839 0.000000 0.000000
# 5 0.000000 0.000000 0.000000 0.000000 0.061214 0.000000
# 6 0.000000 0.000000 0.000000 0.000000 0.000000 0.041847
#
#
# Mechanical properties :
#
#
# Convention : Reuss Voigt Hill
#
# Bulk Modulus (GPa) = 48.68024 67.31193 57.99609
# Shear Modulus (GPa) = 18.81017 23.90507 21.35762
#
# Velocity S-wave (km/s) = 3.07782 3.46970 3.27962
# Velocity P-wave (km/s) = 6.09479 7.06758 6.59913
#
# Compressibility (1/GPa) = 0.02054221
#
# Stress axis : x y z
#
# Youngs Moduli (GPa) = 117.65408 70.41144 52.34880
#
# Poissons Ratio (x) = 0.36373 0.19445
# Poissons Ratio (y) = 0.60777 0.09166
# Poissons Ratio (z) = 0.43702 0.12328
#
# Static dielectric constant tensor:
#      x y z
#    x 3.750950 0.000000 0.000000 
#    y 0.000000 3.588320 0.000000 
#    z 0.000000 0.000000 3.428690 
# 
# 
# High freq. dielectric constant tensor:
#      x y z
#    x 1.780200 0.000000 0.000000 
#    y 0.000000 1.751770 0.000000 
#    z 0.000000 0.000000 1.759720 
# 
# From -- ./inp_files/13057.got.cif
#   From: 2010.03.12/outbox.cif.g09.slc.cpg/sg47_7_cif.got.tgz:13057.got - 2010.04.14 03:12:58.
