data_PCOD8198539
_publ_section_title
;
Structure prediction by ZEFSAII (Michael W. Deem and Ramdas Pophale) SiO2 
 PCOD8198539
Probable space group: P M M M
;
_chemical_formula_sum "Si O2"
_cell_formula_units_Z 64
_cell_length_a 14.380245
_cell_length_b 25.525974
_cell_length_c 8.952891
_cell_angle_alpha 90.000000
_cell_angle_beta 90.000000
_cell_angle_gamma 90.000000
_cell_volume 3286.335551
_symmetry_space_group_name_H-M "P M M M"
_symmetry_group_IT_number 47
_symmetry_cell_setting 'orthorhombic'
loop_
_space_group_symop_operation_xyz
x,y,z
-x,-y,z
x,-y,-z
-x,y,-z
-x,-y,-z
x,y,-z
-x,y,z
x,-y,z
loop_
_atom_site_type_symbol
_atom_site_label
_atom_site_fract_x
_atom_site_fract_y
_atom_site_fract_z
Si Si1 0.783160 0.751492 0.823064
Si Si2 0.202643 0.559049 0.678035
Si Si3 0.892325 0.153454 0.324294
Si Si4 0.395264 0.217812 0.673869
Si Si5 0.597990 0.562146 0.666603
Si Si6 0.397075 0.109651 0.169943
Si Si7 0.106351 0.349182 0.171106
Si Si8 0.206972 0.059355 0.827039
O O1 0.832734 0.802140 0.755952
O O2 0.676999 0.747084 0.766910
O O3 0.834061 0.699164 0.766086
O O4 0.786962 0.756447 0.000000
O O5 0.205141 0.560278 0.500000
O O6 0.179710 0.500000 0.733125
O O7 0.304086 0.578906 0.742655
O O8 0.124634 0.597951 0.737410
O O9 0.877726 0.158827 0.500000
O O10 0.856504 0.096808 0.272688
O O11 0.000000 0.159594 0.279423
O O12 0.372752 0.223485 0.500000
O O13 0.500000 0.236967 0.710728
O O14 0.382254 0.157546 0.718207
O O15 0.594564 0.585749 0.500000
O O16 0.500000 0.579389 0.748587
O O17 0.601694 0.500000 0.655951
O O18 0.500000 0.084523 0.194439
O O19 0.317206 0.067416 0.203770
O O20 0.387939 0.130792 0.000000
O O21 0.000000 0.333079 0.192322
O O22 0.131143 0.360661 0.000000
O O23 0.182481 0.000000 0.782536
O O24 0.184127 0.070272 0.000000
#
# Coordination Sequence:
#
# PCOD8198539 Si02
#       8
#     8   8   8   8   8   8   8   8
#     4  11  22  39  63  86 110 143 186 235 284 337
#     4   9  18  33  55  84 115 147 185 228 273 324
#     4  11  24  40  59  83 109 142 186 236 295 353
#     4  10  20  34  56  87 120 150 181 221 272 333
#     4   7  10  20  42  72 104 137 173 212 254 303
#     4   9  17  31  53  81 113 150 189 226 269 325
#     4  10  23  41  58  79 108 144 186 232 283 335
#     4  10  21  36  55  82 115 152 193 235 279 331
#
# _framework density 19.474578000000001
#
# number of rings (size 3 to 8) (size 9 to 14) (size 15 to 20)
#    0.000    2.375    1.250    2.625    0.000    4.750 
#    0.000    4.375    0.000    2.625    0.000    4.375 
#    0.000    0.000    0.000    0.000    0.000    0.000 
#
# Total GULP energy -793224.837695 kJ/mol
# GULP energy per Si atom -12394.138089 kJ/mol
# Density = 1.943025 g / cm^3
# Si number density = 19.474578 Si / 1000 Ang^3
#
#
#
# Elastic Constant Matrix: (Units=GPa)
#
#
# Indices 1 2 3 4 5 6 
#
# 1 111.9828 48.2098 40.0419 0.0000 0.0000 0.0000
# 2 48.2098 97.2464 33.4981 0.0000 0.0000 0.0000
# 3 40.0419 33.4981 55.4868 0.0000 0.0000 0.0000
# 4 0.0000 0.0000 0.0000 -9.8200 0.0000 0.0000
# 5 0.0000 0.0000 0.0000 0.0000 28.3984 0.0000
# 6 0.0000 0.0000 0.0000 0.0000 0.0000 29.0741
#
#
#
# Elastic Compliance Matrix: (Units=1/GPa)
#
#
# Indices 1 2 3 4 5 6 
#
# 1 0.013230 -0.004129 -0.007055 0.000000 0.000000 0.000000
# 2 -0.004129 0.014271 -0.005636 0.000000 0.000000 0.000000
# 3 -0.007055 -0.005636 0.026516 0.000000 0.000000 0.000000
# 4 0.000000 0.000000 0.000000 -0.101833 0.000000 0.000000
# 5 0.000000 0.000000 0.000000 0.000000 0.035213 0.000000
# 6 0.000000 0.000000 0.000000 0.000000 0.000000 0.034395
#
#
# Mechanical properties :
#
#
# Convention : Reuss Voigt Hill
#
# Bulk Modulus (GPa) = 49.07305 56.46841 52.77073
# Shear Modulus (GPa) = 80.35231 19.06156 49.70694
#
# Velocity S-wave (km/s) = 6.43037 3.13196 5.05761
# Velocity P-wave (km/s) = 8.96583 6.49136 7.82700
#
# Compressibility (1/GPa) = 0.02037778
#
# Stress axis : x y z
#
# Youngs Moduli (GPa) = 75.58594 70.06984 37.71267
#
# Poissons Ratio (x) = 0.28929 0.26606
# Poissons Ratio (y) = 0.31206 0.21257
# Poissons Ratio (z) = 0.53325 0.39495
#
# Static dielectric constant tensor:
#      x y z
#    x 4.021580 0.000000 0.000000 
#    y 0.000000 3.309480 0.000000 
#    z 0.000000 0.000000 3.359260 
# 
# 
# High freq. dielectric constant tensor:
#      x y z
#    x 1.779730 0.000000 0.000000 
#    y 0.000000 1.734120 0.000000 
#    z 0.000000 0.000000 1.736120 
# 
# From -- ./inp_files/7786.got.cif
#   From: 2010.03.12/outbox.cif.g09.slc.cpg/sg47_4_cif.got.tgz:7786.got - 2010.04.14 03:12:58.
