data_PCOD8198203
_publ_section_title
;
Structure prediction by ZEFSAII (Michael W. Deem and Ramdas Pophale) SiO2 
 PCOD8198203
Probable space group: P M M M
;
_chemical_formula_sum "Si O2"
_cell_formula_units_Z 44
_cell_length_a 14.513450
_cell_length_b 19.166692
_cell_length_c 8.558665
_cell_angle_alpha 90.000000
_cell_angle_beta 90.000000
_cell_angle_gamma 90.000000
_cell_volume 2380.805147
_symmetry_space_group_name_H-M "P M M M"
_symmetry_group_IT_number 47
_symmetry_cell_setting 'orthorhombic'
loop_
_space_group_symop_operation_xyz
x,y,z
-x,-y,z
x,-y,-z
-x,y,-z
-x,-y,-z
x,y,-z
-x,y,z
x,-y,z
loop_
_atom_site_type_symbol
_atom_site_label
_atom_site_fract_x
_atom_site_fract_y
_atom_site_fract_z
Si Si1 0.865945 0.000000 0.182999
Si Si2 0.395829 0.143603 0.181254
Si Si3 0.667963 0.000000 0.316624
Si Si4 0.108945 0.500000 0.826492
Si Si5 0.232150 0.760674 0.177682
Si Si6 0.895622 0.644113 0.682994
Si Si7 0.100103 0.141151 0.674765
O O1 0.757253 0.000000 0.209368
O O2 0.913899 0.936968 0.271231
O O3 0.889111 0.000000 0.000000
O O4 0.500000 0.170361 0.203191
O O5 0.386353 0.071303 0.276784
O O6 0.330104 0.207918 0.239714
O O7 0.372703 0.127958 0.000000
O O8 0.691655 0.000000 0.500000
O O9 0.142521 0.430537 0.739207
O O10 0.000000 0.500000 0.831278
O O11 0.151270 0.500000 0.000000
O O12 0.185185 0.698515 0.274691
O O13 0.163196 0.825191 0.193219
O O14 0.240877 0.735517 0.000000
O O15 0.904806 0.642902 0.500000
O O16 0.000000 0.659954 0.751790
O O17 0.144131 0.146180 0.500000
O O18 0.000000 0.178146 0.670959
#
# Coordination Sequence:
#
# PCOD8198203 Si02
#       7
#     4   8   4   4   8   8   8
#     4  12  23  36  53  72  96 132 175 217 262 313
#     4  10  22  40  59  78 103 136 174 222 280 333
#     4  12  23  36  57  80 102 130 171 225 280 333
#     4   9  17  31  53  81 112 145 184 223 253 296
#     4  11  22  35  54  78 105 139 178 218 261 315
#     4  10  20  34  53  79 114 152 183 215 258 305
#     4  11  23  37  52  72 101 136 172 215 265 313
#
# _framework density 18.481142999999999
#
# number of rings (size 3 to 8) (size 9 to 14) (size 15 to 20)
#    0.000    1.364    1.818    4.636    0.000    9.091 
#    0.000    0.000    0.000    0.000    0.000    0.636 
#    0.000    5.091    0.000    0.000    0.000    0.000 
#
# Total GULP energy -545217.650925 kJ/mol
# GULP energy per Si atom -12391.310248 kJ/mol
# Density = 1.843908 g / cm^3
# Si number density = 18.481143 Si / 1000 Ang^3
#
#
#
# Elastic Constant Matrix: (Units=GPa)
#
#
# Indices 1 2 3 4 5 6 
#
# 1 109.3671 47.2674 24.0154 0.0000 0.0000 0.0000
# 2 47.2674 118.9936 26.6982 0.0000 0.0000 0.0000
# 3 24.0154 26.6982 69.0393 0.0000 0.0000 0.0000
# 4 0.0000 0.0000 0.0000 22.5100 0.0000 0.0000
# 5 0.0000 0.0000 0.0000 0.0000 18.1333 0.0000
# 6 0.0000 0.0000 0.0000 0.0000 0.0000 15.6153
#
#
#
# Elastic Compliance Matrix: (Units=1/GPa)
#
#
# Indices 1 2 3 4 5 6 
#
# 1 0.011397 -0.003983 -0.002424 0.000000 0.000000 0.000000
# 2 -0.003983 0.010594 -0.002711 0.000000 0.000000 0.000000
# 3 -0.002424 -0.002711 0.016376 0.000000 0.000000 0.000000
# 4 0.000000 0.000000 0.000000 0.044425 0.000000 0.000000
# 5 0.000000 0.000000 0.000000 0.000000 0.055147 0.000000
# 6 0.000000 0.000000 0.000000 0.000000 0.000000 0.064040
#
#
# Mechanical properties :
#
#
# Convention : Reuss Voigt Hill
#
# Bulk Modulus (GPa) = 49.67651 54.81800 52.24725
# Shear Modulus (GPa) = 22.03344 24.54633 23.28989
#
# Velocity S-wave (km/s) = 3.45659 3.64838 3.55378
# Velocity P-wave (km/s) = 6.54741 6.89010 6.72094
#
# Compressibility (1/GPa) = 0.02013024
#
# Stress axis : x y z
#
# Youngs Moduli (GPa) = 87.73901 94.38879 61.06399
#
# Poissons Ratio (x) = 0.37599 0.14803
# Poissons Ratio (y) = 0.34950 0.16557
# Poissons Ratio (z) = 0.21269 0.25592
#
# Static dielectric constant tensor:
#      x y z
#    x 3.359110 0.000000 0.000000 
#    y 0.000000 3.513960 0.000000 
#    z 0.000000 0.000000 3.402490 
# 
# 
# High freq. dielectric constant tensor:
#      x y z
#    x 1.696740 0.000000 0.000000 
#    y 0.000000 1.703850 0.000000 
#    z 0.000000 0.000000 1.721930 
# 
# From -- ./inp_files/6258.got.cif
#   From: 2010.03.12/outbox.cif.g09.slc.cpg/sg47_4_cif.got.tgz:6258.got - 2010.04.14 03:12:58.
