data_PCOD8198528
_publ_section_title
;
Structure prediction by ZEFSAII (Michael W. Deem and Ramdas Pophale) SiO2 
 PCOD8198528
Probable space group: P M M M
;
_chemical_formula_sum "Si O2"
_cell_formula_units_Z 64
_cell_length_a 14.462524
_cell_length_b 25.674306
_cell_length_c 8.830528
_cell_angle_alpha 90.000000
_cell_angle_beta 90.000000
_cell_angle_gamma 90.000000
_cell_volume 3278.909859
_symmetry_space_group_name_H-M "P M M M"
_symmetry_group_IT_number 47
_symmetry_cell_setting 'orthorhombic'
loop_
_space_group_symop_operation_xyz
x,y,z
-x,-y,z
x,-y,-z
-x,y,-z
-x,-y,-z
x,y,-z
-x,y,z
x,-y,z
loop_
_atom_site_type_symbol
_atom_site_label
_atom_site_fract_x
_atom_site_fract_y
_atom_site_fract_z
Si Si1 0.282501 0.058912 0.326486
Si Si2 0.294971 0.442010 0.818955
Si Si3 0.097221 0.438305 0.831632
Si Si4 0.104310 0.094046 0.176346
Si Si5 0.606979 0.150005 0.178081
Si Si6 0.102327 0.202365 0.327347
Si Si7 0.292885 0.752095 0.324514
Si Si8 0.603193 0.658564 0.179385
O O1 0.286874 0.077623 0.500000
O O2 0.176356 0.059999 0.271095
O O3 0.346998 0.095804 0.226486
O O4 0.319283 0.000000 0.309625
O O5 0.322243 0.500000 0.759041
O O6 0.194493 0.422848 0.751951
O O7 0.370043 0.399735 0.765780
O O8 0.287552 0.443867 0.000000
O O9 0.099223 0.500000 0.844133
O O10 0.000000 0.420860 0.748416
O O11 0.094812 0.414153 0.000000
O O12 0.118483 0.154544 0.214899
O O13 0.000000 0.076193 0.217701
O O14 0.124518 0.086030 0.000000
O O15 0.500000 0.149129 0.225862
O O16 0.656378 0.197661 0.259326
O O17 0.618931 0.157299 0.000000
O O18 0.110791 0.181741 0.500000
O O19 0.182297 0.244545 0.295448
O O20 0.000000 0.227085 0.299991
O O21 0.317199 0.748637 0.500000
O O22 0.326086 0.699908 0.245195
O O23 0.500000 0.670367 0.238567
O O24 0.607609 0.662404 0.000000
#
# Coordination Sequence:
#
# PCOD8198528 Si02
#       8
#     8   8   8   8   8   8   8   8
#     4  11  24  40  58  83 116 154 194 234 277 330
#     4   8  14  26  45  69  98 135 179 223 268 324
#     4   7   9  15  31  57  89 124 161 203 254 310
#     4  10  20  34  56  86 117 150 188 231 279 330
#     4  11  24  41  62  86 111 142 182 233 292 343
#     4   9  18  34  57  83 110 141 178 220 271 333
#     4  11  22  37  60  85 109 142 182 223 269 329
#     4  10  21  35  51  75 108 143 180 229 284 328
#
# _framework density 19.518681999999998
#
# number of rings (size 3 to 8) (size 9 to 14) (size 15 to 20)
#    0.000    2.375    1.250    3.000    0.000    5.750 
#    0.000    4.375    0.000    1.125    0.000    0.875 
#    0.000    0.000    0.000    6.250    0.000    2.500 
#
# Total GULP energy -793104.245025 kJ/mol
# GULP energy per Si atom -12392.253829 kJ/mol
# Density = 1.947426 g / cm^3
# Si number density = 19.518682 Si / 1000 Ang^3
#
#
#
# Elastic Constant Matrix: (Units=GPa)
#
#
# Indices 1 2 3 4 5 6 
#
# 1 122.9775 49.6753 21.6952 0.0000 0.0000 0.0000
# 2 49.6753 95.7562 11.1709 0.0000 0.0000 0.0000
# 3 21.6952 11.1709 13.0228 0.0000 0.0000 0.0000
# 4 0.0000 0.0000 0.0000 -76.4832 0.0000 0.0000
# 5 0.0000 0.0000 0.0000 0.0000 23.8549 0.0000
# 6 0.0000 0.0000 0.0000 0.0000 0.0000 24.6885
#
#
#
# Elastic Compliance Matrix: (Units=1/GPa)
#
#
# Indices 1 2 3 4 5 6 
#
# 1 0.013221 -0.004766 -0.017938 0.000000 0.000000 0.000000
# 2 -0.004766 0.013323 -0.003488 0.000000 0.000000 0.000000
# 3 -0.017938 -0.003488 0.109663 0.000000 0.000000 0.000000
# 4 0.000000 0.000000 0.000000 -0.013075 0.000000 0.000000
# 5 0.000000 0.000000 0.000000 0.000000 0.041920 0.000000
# 6 0.000000 0.000000 0.000000 0.000000 0.000000 0.040505
#
#
# Mechanical properties :
#
#
# Convention : Reuss Voigt Hill
#
# Bulk Modulus (GPa) = 11.92974 44.09323 28.01148
# Shear Modulus (GPa) = 17.48974 4.35970 10.92472
#
# Velocity S-wave (km/s) = 2.99666 1.49615 2.36838
# Velocity P-wave (km/s) = 4.25423 5.06201 4.67560
#
# Compressibility (1/GPa) = 0.08382415
#
# Stress axis : x y z
#
# Youngs Moduli (GPa) = 75.63557 75.06018 9.11882
#
# Poissons Ratio (x) = 0.35775 0.16357
# Poissons Ratio (y) = 0.36050 0.03180
# Poissons Ratio (z) = 1.35671 0.26180
#
# Static dielectric constant tensor:
#      x y z
#    x 4.137980 0.000000 0.000000 
#    y 0.000000 3.362370 0.000000 
#    z 0.000000 0.000000 3.318270 
# 
# 
# High freq. dielectric constant tensor:
#      x y z
#    x 1.780660 0.000000 0.000000 
#    y 0.000000 1.736720 0.000000 
#    z 0.000000 0.000000 1.730510 
# 
# From -- ./inp_files/7856.got.cif
#   From: 2010.03.12/outbox.cif.g09.slc.cpg/sg47_4_cif.got.tgz:7856.got - 2010.04.14 03:12:58.
