data_PCOD8198522
_publ_section_title
;
Structure prediction by ZEFSAII (Michael W. Deem and Ramdas Pophale) SiO2 
 PCOD8198522
Probable space group: P M M M
;
_chemical_formula_sum "Si O2"
_cell_formula_units_Z 40
_cell_length_a 8.037486
_cell_length_b 9.027054
_cell_length_c 27.255774
_cell_angle_alpha 90.000000
_cell_angle_beta 90.000000
_cell_angle_gamma 90.000000
_cell_volume 1977.537781
_symmetry_space_group_name_H-M "P M M M"
_symmetry_group_IT_number 47
_symmetry_cell_setting 'orthorhombic'
loop_
_space_group_symop_operation_xyz
x,y,z
-x,-y,z
x,-y,-z
-x,y,-z
-x,-y,-z
x,y,-z
-x,y,z
x,-y,z
loop_
_atom_site_type_symbol
_atom_site_label
_atom_site_fract_x
_atom_site_fract_y
_atom_site_fract_z
Si Si1 0.309024 0.664766 0.593090
Si Si2 0.809931 0.160733 0.500000
Si Si3 0.687382 0.172131 0.881471
Si Si4 0.807264 0.673381 0.787263
Si Si5 0.805030 0.171019 0.687714
Si Si6 0.000000 0.824269 0.054829
O O1 0.500000 0.651742 0.579548
O O2 0.231273 0.500000 0.598964
O O3 0.224322 0.747598 0.548543
O O4 0.289798 0.754858 0.642988
O O5 0.000000 0.122407 0.500000
O O6 0.715258 0.000000 0.500000
O O7 0.500000 0.195506 0.903320
O O8 0.698422 0.262789 0.831332
O O9 0.830449 0.231118 0.918568
O O10 0.719206 0.000000 0.869835
O O11 0.774781 0.500000 0.782235
O O12 0.746241 0.750387 0.737501
O O13 0.000000 0.710217 0.797611
O O14 0.000000 0.192696 0.679224
O O15 0.754487 0.000000 0.690840
O O16 0.000000 0.000000 0.052396
O O17 0.000000 0.757076 0.000000
#
# Coordination Sequence:
#
# PCOD8198522 Si02
#       6
#     8   4   8   8   8   4
#     4  11  24  40  58  83 115 149 187 232 283 339
#     4  11  24  41  62  86 110 141 186 235 284 342
#     4  10  20  34  56  85 116 153 196 241 293 351
#     4  10  20  35  57  83 113 152 194 237 289 345
#     4  10  21  37  59  86 115 149 190 235 283 338
#     4   9  18  34  57  85 119 155 193 244 297 344
#
# _framework density 20.227174000000002
#
# number of rings (size 3 to 8) (size 9 to 14) (size 15 to 20)
#    0.000    1.800    1.000    3.000    0.000    9.600 
#    0.000    2.000    0.000    1.200    0.000    1.400 
#    0.000    0.000    0.000    0.000    0.000    0.000 
#
# Total GULP energy -496041.386749 kJ/mol
# GULP energy per Si atom -12401.034669 kJ/mol
# Density = 2.018114 g / cm^3
# Si number density = 20.227174 Si / 1000 Ang^3
#
#
#
# Elastic Constant Matrix: (Units=GPa)
#
#
# Indices 1 2 3 4 5 6 
#
# 1 93.7285 37.1119 51.6009 0.0000 0.0000 0.0000
# 2 37.1119 113.8076 55.2518 0.0000 0.0000 0.0000
# 3 51.6009 55.2518 150.2560 0.0000 0.0000 0.0000
# 4 0.0000 0.0000 0.0000 83.3742 0.0000 0.0000
# 5 0.0000 0.0000 0.0000 0.0000 -461.7766 0.0000
# 6 0.0000 0.0000 0.0000 0.0000 0.0000 18.9586
#
#
#
# Elastic Compliance Matrix: (Units=1/GPa)
#
#
# Indices 1 2 3 4 5 6 
#
# 1 0.013795 -0.002676 -0.003753 0.000000 0.000000 0.000000
# 2 -0.002676 0.011215 -0.003205 0.000000 0.000000 0.000000
# 3 -0.003753 -0.003205 0.009123 0.000000 0.000000 0.000000
# 4 0.000000 0.000000 0.000000 0.011994 0.000000 0.000000
# 5 0.000000 0.000000 0.000000 0.000000 -0.002166 0.000000
# 6 0.000000 0.000000 0.000000 0.000000 0.000000 0.052746
#
#
# Mechanical properties :
#
#
# Convention : Reuss Voigt Hill
#
# Bulk Modulus (GPa) = 67.27657 71.74682 69.51170
# Shear Modulus (GPa) = 41.34528 -57.63359 -8.14416
#
# Velocity S-wave (km/s) = 4.52602 -5.34369 -2.00875
# Velocity P-wave (km/s) = 7.78754 1.58929 5.39073
#
# Compressibility (1/GPa) = 0.01486402
#
# Stress axis : x y z
#
# Youngs Moduli (GPa) = 72.48904 89.16245 109.61471
#
# Poissons Ratio (x) = 0.23863 0.41143
# Poissons Ratio (y) = 0.19400 0.35132
# Poissons Ratio (z) = 0.27208 0.28577
#
# Static dielectric constant tensor:
#      x y z
#    x 3.668680 0.000000 0.000000 
#    y 0.000000 3.794810 0.000000 
#    z 0.000000 0.000000 3.588190 
# 
# 
# High freq. dielectric constant tensor:
#      x y z
#    x 1.788600 0.000000 0.000000 
#    y 0.000000 1.789680 0.000000 
#    z 0.000000 0.000000 1.790410 
# 
# From -- ./inp_files/33098.got.cif
#   From: 2010.03.12/outbox.cif.g09.slc.cpg/sg47_17_cif.got.tgz:33098.got - 2010.04.14 03:12:58.
