data_PCOD8198424
_publ_section_title
;
Structure prediction by ZEFSAII (Michael W. Deem and Ramdas Pophale) SiO2 
 PCOD8198424
Probable space group: P M M M
;
_chemical_formula_sum "Si O2"
_cell_formula_units_Z 44
_cell_length_a 15.490984
_cell_length_b 9.019831
_cell_length_c 16.963012
_cell_angle_alpha 90.000000
_cell_angle_beta 90.000000
_cell_angle_gamma 90.000000
_cell_volume 2370.174794
_symmetry_space_group_name_H-M "P M M M"
_symmetry_group_IT_number 47
_symmetry_cell_setting 'orthorhombic'
loop_
_space_group_symop_operation_xyz
x,y,z
-x,-y,z
x,-y,-z
-x,y,-z
-x,-y,-z
x,y,-z
-x,y,z
x,-y,z
loop_
_atom_site_type_symbol
_atom_site_label
_atom_site_fract_x
_atom_site_fract_y
_atom_site_fract_z
Si Si1 0.170339 0.671709 0.911759
Si Si2 0.738909 0.672807 0.241204
Si Si3 0.094177 0.323614 0.666373
Si Si4 0.597730 0.829992 0.658555
Si Si5 0.000000 0.834070 0.906280
Si Si6 0.845552 0.675753 0.500000
Si Si7 0.648400 0.323835 0.500000
O O1 0.145325 0.500000 0.912802
O O2 0.251095 0.699472 0.853017
O O3 0.086373 0.753266 0.876653
O O4 0.195625 0.726680 0.000000
O O5 0.724499 0.500000 0.261562
O O6 0.827415 0.733916 0.280077
O O7 0.658074 0.763413 0.273242
O O8 0.095451 0.500000 0.666379
O O9 0.107469 0.262221 0.577661
O O10 0.000000 0.266706 0.696755
O O11 0.500000 0.817824 0.689919
O O12 0.603700 0.740092 0.577556
O O13 0.623901 0.000000 0.643060
O O14 0.000000 0.000000 0.872687
O O15 0.000000 0.830656 0.000000
O O16 0.848644 0.500000 0.500000
O O17 0.746960 0.728803 0.500000
O O18 0.637932 0.500000 0.500000
#
# Coordination Sequence:
#
# PCOD8198424 Si02
#       7
#     8   8   8   8   4   4   4
#     4   9  18  32  51  77 109 142 178 225 279 328
#     4  10  20  34  55  81 106 138 182 227 271 325
#     4   9  16  26  44  72 104 137 175 217 256 300
#     4  11  24  40  57  79 109 142 175 219 279 332
#     4   9  17  29  47  73 105 144 187 222 259 317
#     4   9  15  26  45  71 103 134 169 211 254 296
#     4  11  20  35  59  85 109 138 181 224 261 316
#
# _framework density 18.564031
#
# number of rings (size 3 to 8) (size 9 to 14) (size 15 to 20)
#    0.000    2.273    1.818    1.636    1.273    5.455 
#    0.000    0.000    0.000    0.545    0.000    5.091 
#    0.000    0.000    0.000    0.000    0.000    0.000 
#
# Total GULP energy -545448.970498 kJ/mol
# GULP energy per Si atom -12396.567511 kJ/mol
# Density = 1.852178 g / cm^3
# Si number density = 18.564031 Si / 1000 Ang^3
#
#
#
# Elastic Constant Matrix: (Units=GPa)
#
#
# Indices 1 2 3 4 5 6 
#
# 1 121.2259 43.6446 50.2179 0.0000 0.0000 0.0000
# 2 43.6446 70.4440 32.7363 0.0000 0.0000 0.0000
# 3 50.2179 32.7363 96.9625 0.0000 0.0000 0.0000
# 4 0.0000 0.0000 0.0000 15.2037 0.0000 0.0000
# 5 0.0000 0.0000 0.0000 0.0000 -7.9367 0.0000
# 6 0.0000 0.0000 0.0000 0.0000 0.0000 20.2337
#
#
#
# Elastic Compliance Matrix: (Units=1/GPa)
#
#
# Indices 1 2 3 4 5 6 
#
# 1 0.012016 -0.005400 -0.004400 0.000000 0.000000 0.000000
# 2 -0.005400 0.019264 -0.003707 0.000000 0.000000 0.000000
# 3 -0.004400 -0.003707 0.013844 0.000000 0.000000 0.000000
# 4 0.000000 0.000000 0.000000 0.065774 0.000000 0.000000
# 5 0.000000 0.000000 0.000000 0.000000 -0.125997 0.000000
# 6 0.000000 0.000000 0.000000 0.000000 0.000000 0.049422
#
#
# Mechanical properties :
#
#
# Convention : Reuss Voigt Hill
#
# Bulk Modulus (GPa) = 55.22012 60.20331 57.71171
# Shear Modulus (GPa) = 74.21365 16.30239 45.25802
#
# Velocity S-wave (km/s) = 6.32961 2.96661 4.94291
# Velocity P-wave (km/s) = 9.12299 6.65093 7.98322
#
# Compressibility (1/GPa) = 0.01810934
#
# Stress axis : x y z
#
# Youngs Moduli (GPa) = 83.22317 51.91021 72.23484
#
# Poissons Ratio (x) = 0.28031 0.31784
# Poissons Ratio (y) = 0.44939 0.26779
# Poissons Ratio (z) = 0.36619 0.19244
#
# Static dielectric constant tensor:
#      x y z
#    x 3.423560 0.000000 0.000000 
#    y 0.000000 3.171520 0.000000 
#    z 0.000000 0.000000 3.544170 
# 
# 
# High freq. dielectric constant tensor:
#      x y z
#    x 1.709590 0.000000 0.000000 
#    y 0.000000 1.689480 0.000000 
#    z 0.000000 0.000000 1.719940 
# 
# From -- ./inp_files/27910.got.cif
#   From: 2010.03.12/outbox.cif.g09.slc.cpg/sg47_14_cif.got.tgz:27910.got - 2010.04.14 03:12:58.
