data_PCOD8198498
_publ_section_title
;
Structure prediction by ZEFSAII (Michael W. Deem and Ramdas Pophale) SiO2 
 PCOD8198498
Probable space group: P M M M
;
_chemical_formula_sum "Si O2"
_cell_formula_units_Z 64
_cell_length_a 9.094961
_cell_length_b 24.571696
_cell_length_c 14.635522
_cell_angle_alpha 90.000000
_cell_angle_beta 90.000000
_cell_angle_gamma 90.000000
_cell_volume 3270.726213
_symmetry_space_group_name_H-M "P M M M"
_symmetry_group_IT_number 47
_symmetry_cell_setting 'orthorhombic'
loop_
_space_group_symop_operation_xyz
x,y,z
-x,-y,z
x,-y,-z
-x,y,-z
-x,-y,-z
x,y,-z
-x,y,z
x,-y,z
loop_
_atom_site_type_symbol
_atom_site_label
_atom_site_fract_x
_atom_site_fract_y
_atom_site_fract_z
Si Si1 0.827669 0.628430 0.243778
Si Si2 0.663126 0.564063 0.101345
Si Si3 0.326764 0.739856 0.769479
Si Si4 0.165919 0.215126 0.603039
Si Si5 0.330172 0.060102 0.220140
Si Si6 0.674889 0.160900 0.896625
Si Si7 0.329096 0.438055 0.606006
Si Si8 0.831709 0.912788 0.601259
O O1 0.791705 0.584749 0.166271
O O2 0.753873 0.683844 0.208608
O O3 0.764818 0.606448 0.339570
O O4 0.000000 0.637018 0.254572
O O5 0.500000 0.581112 0.137356
O O6 0.674922 0.500000 0.097950
O O7 0.686756 0.588222 0.000000
O O8 0.500000 0.731343 0.776143
O O9 0.284841 0.756489 0.666906
O O10 0.272391 0.785772 0.841301
O O11 0.196100 0.234903 0.500000
O O12 0.187004 0.151255 0.611178
O O13 0.000000 0.231503 0.632428
O O14 0.500000 0.073520 0.234792
O O15 0.262317 0.106552 0.153764
O O16 0.260206 0.058322 0.320378
O O17 0.307423 0.000000 0.175791
O O18 0.500000 0.158402 0.899625
O O19 0.738071 0.163115 0.000000
O O20 0.293954 0.429240 0.500000
O O21 0.500000 0.428036 0.626727
O O22 0.287140 0.500000 0.634785
O O23 0.777105 0.930997 0.500000
O O24 0.000000 0.930164 0.613627
#
# Coordination Sequence:
#
# PCOD8198498 Si02
#       8
#     8   8   8   8   8   8   8   8
#     4  12  25  37  54  84 121 155 189 234 286 342
#     4   9  19  38  63  87 112 146 188 233 281 334
#     4  11  22  37  58  81 107 145 191 235 279 332
#     4   9  18  34  56  80 107 140 177 221 274 328
#     4  10  20  34  55  85 116 143 179 231 283 331
#     4   9  19  37  59  82 107 138 181 231 284 341
#     4   9  19  38  63  88 116 154 200 245 286 334
#     4   9  18  33  54  79 110 149 185 216 261 326
#
# _framework density 19.567519999999998
#
# number of rings (size 3 to 8) (size 9 to 14) (size 15 to 20)
#    0.000    2.250    1.250    3.375    0.000    4.750 
#    0.000    6.250    0.000    3.000    0.000    0.875 
#    0.000    0.000    0.000    0.000    0.000    0.000 
#
# Total GULP energy -793469.702978 kJ/mol
# GULP energy per Si atom -12397.964109 kJ/mol
# Density = 1.952298 g / cm^3
# Si number density = 19.567520 Si / 1000 Ang^3
#
#
#
# Elastic Constant Matrix: (Units=GPa)
#
#
# Indices 1 2 3 4 5 6 
#
# 1 74.0998 41.8329 37.7842 0.0000 0.0000 0.0000
# 2 41.8329 95.2653 52.4298 0.0000 0.0000 0.0000
# 3 37.7842 52.4298 116.7827 0.0000 0.0000 0.0000
# 4 0.0000 0.0000 0.0000 12.3498 0.0000 0.0000
# 5 0.0000 0.0000 0.0000 0.0000 11.2366 0.0000
# 6 0.0000 0.0000 0.0000 0.0000 0.0000 21.3672
#
#
#
# Elastic Compliance Matrix: (Units=1/GPa)
#
#
# Indices 1 2 3 4 5 6 
#
# 1 0.018779 -0.006511 -0.003153 0.000000 0.000000 0.000000
# 2 -0.006511 0.016199 -0.005166 0.000000 0.000000 0.000000
# 3 -0.003153 -0.005166 0.011902 0.000000 0.000000 0.000000
# 4 0.000000 0.000000 0.000000 0.080973 0.000000 0.000000
# 5 0.000000 0.000000 0.000000 0.000000 0.088995 0.000000
# 6 0.000000 0.000000 0.000000 0.000000 0.000000 0.046801
#
#
# Mechanical properties :
#
#
# Convention : Reuss Voigt Hill
#
# Bulk Modulus (GPa) = 58.06938 61.13794 59.60366
# Shear Modulus (GPa) = 16.71970 19.26411 17.99190
#
# Velocity S-wave (km/s) = 2.92629 3.14107 3.03558
# Velocity P-wave (km/s) = 6.41548 6.66840 6.54316
#
# Compressibility (1/GPa) = 0.01722078
#
# Stress axis : x y z
#
# Youngs Moduli (GPa) = 53.25206 61.73097 84.01788
#
# Poissons Ratio (x) = 0.40193 0.26487
# Poissons Ratio (y) = 0.34673 0.43405
# Poissons Ratio (z) = 0.16788 0.31891
#
# Static dielectric constant tensor:
#      x y z
#    x 3.378620 0.000000 0.000000 
#    y 0.000000 3.636910 0.000000 
#    z 0.000000 0.000000 4.297180 
# 
# 
# High freq. dielectric constant tensor:
#      x y z
#    x 1.736450 0.000000 0.000000 
#    y 0.000000 1.765900 0.000000 
#    z 0.000000 0.000000 1.765620 
# 
# From -- ./inp_files/7810.got.cif
#   From: 2010.03.12/outbox.cif.g09.slc.cpg/sg47_4_cif.got.tgz:7810.got - 2010.04.14 03:12:58.
