data_PCOD8198248
_publ_section_title
;
Structure prediction by ZEFSAII (Michael W. Deem and Ramdas Pophale) SiO2 
 PCOD8198248
Probable space group: P M M M
;
_chemical_formula_sum "Si O2"
_cell_formula_units_Z 36
_cell_length_a 9.721995
_cell_length_b 8.917870
_cell_length_c 23.102946
_cell_angle_alpha 90.000000
_cell_angle_beta 90.000000
_cell_angle_gamma 90.000000
_cell_volume 2003.013579
_symmetry_space_group_name_H-M "P M M M"
_symmetry_group_IT_number 47
_symmetry_cell_setting 'orthorhombic'
loop_
_space_group_symop_operation_xyz
x,y,z
-x,-y,z
x,-y,-z
-x,y,-z
-x,-y,-z
x,y,-z
-x,y,z
x,-y,z
loop_
_atom_site_type_symbol
_atom_site_label
_atom_site_fract_x
_atom_site_fract_y
_atom_site_fract_z
Si Si1 0.836656 0.168709 0.500000
Si Si2 0.154446 0.678153 0.063890
Si Si3 0.341228 0.326361 0.833053
Si Si4 0.659397 0.824994 0.713608
Si Si5 0.841215 0.323611 0.383689
O O1 0.782595 0.252081 0.442796
O O2 0.000000 0.171372 0.500000
O O3 0.778551 0.000000 0.500000
O O4 0.161169 0.500000 0.063714
O O5 0.256328 0.740841 0.112889
O O6 0.000000 0.732453 0.078193
O O7 0.198401 0.737342 0.000000
O O8 0.500000 0.305939 0.848922
O O9 0.305428 0.500000 0.820727
O O10 0.299690 0.230669 0.777245
O O11 0.500000 0.789189 0.700817
O O12 0.751991 0.736051 0.668841
O O13 0.691449 0.000000 0.708594
O O14 0.823804 0.500000 0.388832
O O15 0.000000 0.278393 0.373313
#
# Coordination Sequence:
#
# PCOD8198248 Si02
#       5
#     4   8   8   8   8
#     4   9  17  31  52  77 106 137 166 200 244 293
#     4   8  14  25  42  66  95 123 152 192 242 291
#     4   9  17  29  46  68  93 122 158 200 244 291
#     4  10  21  36  52  71  99 134 169 207 252 299
#     4  10  20  34  54  79 104 131 166 207 249 294
#
# _framework density 17.972916999999999
#
# number of rings (size 3 to 8) (size 9 to 14) (size 15 to 20)
#    0.000    2.778    0.000    2.333    0.000    5.333 
#    0.000    5.000    0.000    4.000    0.000    4.667 
#    0.000    0.000    0.000    0.000    0.000    0.000 
#
# Total GULP energy -446368.199350 kJ/mol
# GULP energy per Si atom -12399.116649 kJ/mol
# Density = 1.793201 g / cm^3
# Si number density = 17.972917 Si / 1000 Ang^3
#
#
#
# Elastic Constant Matrix: (Units=GPa)
#
#
# Indices 1 2 3 4 5 6 
#
# 1 68.5306 32.0607 73.5706 0.0000 0.0000 0.0000
# 2 32.0607 62.6334 44.0170 0.0000 0.0000 0.0000
# 3 73.5706 44.0170 148.7593 0.0000 0.0000 0.0000
# 4 0.0000 0.0000 0.0000 -0.0736 0.0000 0.0000
# 5 0.0000 0.0000 0.0000 0.0000 1.2473 0.0000
# 6 0.0000 0.0000 0.0000 0.0000 0.0000 19.4498
#
#
#
# Elastic Compliance Matrix: (Units=1/GPa)
#
#
# Indices 1 2 3 4 5 6 
#
# 1 0.033322 -0.006913 -0.014434 0.000000 0.000000 0.000000
# 2 -0.006913 0.021592 -0.002970 0.000000 0.000000 0.000000
# 3 -0.014434 -0.002970 0.014740 0.000000 0.000000 0.000000
# 4 0.000000 0.000000 0.000000-13.593468 0.000000 0.000000
# 5 0.000000 0.000000 0.000000 0.000000 0.801705 0.000000
# 6 0.000000 0.000000 0.000000 0.000000 0.000000 0.051414
#
#
# Mechanical properties :
#
#
# Convention : Reuss Voigt Hill
#
# Bulk Modulus (GPa) = 47.57578 64.35778 55.96678
# Shear Modulus (GPa) = -0.39635 12.80971 6.20668
#
# Velocity S-wave (km/s) = -0.47011 2.67258 1.86034
# Velocity P-wave (km/s) = 5.12188 6.73866 5.98511
#
# Compressibility (1/GPa) = 0.02101910
#
# Stress axis : x y z
#
# Youngs Moduli (GPa) = 30.01033 46.31412 67.84381
#
# Poissons Ratio (x) = 0.32016 0.97928
# Poissons Ratio (y) = 0.20745 0.20150
# Poissons Ratio (z) = 0.43318 0.13756
#
# Static dielectric constant tensor:
#      x y z
#    x 3.269370 0.000000 0.000000 
#    y 0.000000 3.180520 0.000000 
#    z 0.000000 0.000000 3.613240 
# 
# 
# High freq. dielectric constant tensor:
#      x y z
#    x 1.679930 0.000000 0.000000 
#    y 0.000000 1.678560 0.000000 
#    z 0.000000 0.000000 1.709440 
# 
# From -- ./inp_files/8668.got.cif
#   From: 2010.03.12/outbox.cif.g09.slc.cpg/sg47_5_cif.got.tgz:8668.got - 2010.04.14 03:12:58.
