data_PCOD8198987
_publ_section_title
;
Structure prediction by ZEFSAII (Michael W. Deem and Ramdas Pophale) SiO2 
 PCOD8198987
Probable space group: P M M M
;
_chemical_formula_sum "Si O2"
_cell_formula_units_Z 40
_cell_length_a 28.574214
_cell_length_b 9.269316
_cell_length_c 7.762475
_cell_angle_alpha 90.000000
_cell_angle_beta 90.000000
_cell_angle_gamma 90.000000
_cell_volume 2055.995669
_symmetry_space_group_name_H-M "P M M M"
_symmetry_group_IT_number 47
_symmetry_cell_setting 'orthorhombic'
loop_
_space_group_symop_operation_xyz
x,y,z
-x,-y,z
x,-y,-z
-x,y,-z
-x,-y,-z
x,y,-z
-x,y,z
x,-y,z
loop_
_atom_site_type_symbol
_atom_site_label
_atom_site_fract_x
_atom_site_fract_y
_atom_site_fract_z
Si Si1 0.052743 0.336191 0.297606
Si Si2 0.774663 0.665735 0.691193
Si Si3 0.860558 0.837839 0.804597
Si Si4 0.605352 0.327892 0.000000
Si Si5 0.711295 0.671157 0.000000
Si Si6 0.554815 0.165817 0.696681
O O1 0.060323 0.321430 0.500000
O O2 0.062345 0.500000 0.238595
O O3 0.088151 0.231204 0.201593
O O4 0.000000 0.291113 0.246711
O O5 0.752716 0.681288 0.500000
O O6 0.786102 0.500000 0.735117
O O7 0.823534 0.749789 0.692303
O O8 0.737751 0.728951 0.829113
O O9 0.863435 0.000000 0.732073
O O10 0.842713 0.836265 0.000000
O O11 0.581631 0.269729 0.173190
O O12 0.601725 0.500000 0.000000
O O13 0.658580 0.270440 0.000000
O O14 0.710086 0.500000 0.000000
O O15 0.569024 0.204138 0.500000
O O16 0.500000 0.191033 0.723392
O O17 0.567587 0.000000 0.737429
#
# Coordination Sequence:
#
# PCOD8198987 Si02
#       6
#     8   8   8   4   4   8
#     4   9  19  36  56  78 104 136 177 220 262 317
#     4  10  20  37  62  83 101 137 187 230 271 325
#     4  11  23  36  52  78 111 142 173 217 274 330
#     4  11  22  34  55  88 122 153 187 238 303 354
#     4   9  20  38  56  81 115 147 182 228 281 337
#     4   9  19  37  59  82 113 158 207 245 280 334
#
# _framework density 19.455293000000001
#
# number of rings (size 3 to 8) (size 9 to 14) (size 15 to 20)
#    0.000    2.200    1.000    3.000    0.000    8.000 
#    0.000    8.000    0.000    0.000    0.000    0.000 
#    0.000    0.000    0.000    0.000    0.000    0.000 
#
# Total GULP energy -496029.424746 kJ/mol
# GULP energy per Si atom -12400.735619 kJ/mol
# Density = 1.941101 g / cm^3
# Si number density = 19.455293 Si / 1000 Ang^3
#
#
#
# Elastic Constant Matrix: (Units=GPa)
#
#
# Indices 1 2 3 4 5 6 
#
# 1 119.3823 57.6852 61.0942 0.0000 0.0000 0.0000
# 2 57.6852 94.8617 49.0875 0.0000 0.0000 0.0000
# 3 61.0942 49.0875 118.1781 0.0000 0.0000 0.0000
# 4 0.0000 0.0000 0.0000 25.2895 0.0000 0.0000
# 5 0.0000 0.0000 0.0000 0.0000 17.5155 0.0000
# 6 0.0000 0.0000 0.0000 0.0000 0.0000 3.3440
#
#
#
# Elastic Compliance Matrix: (Units=1/GPa)
#
#
# Indices 1 2 3 4 5 6 
#
# 1 0.013553 -0.005880 -0.004564 0.000000 0.000000 0.000000
# 2 -0.005880 0.015979 -0.003597 0.000000 0.000000 0.000000
# 3 -0.004564 -0.003597 0.012316 0.000000 0.000000 0.000000
# 4 0.000000 0.000000 0.000000 0.039542 0.000000 0.000000
# 5 0.000000 0.000000 0.000000 0.000000 0.057092 0.000000
# 6 0.000000 0.000000 0.000000 0.000000 0.000000 0.299044
#
#
# Mechanical properties :
#
#
# Convention : Reuss Voigt Hill
#
# Bulk Modulus (GPa) = 72.65019 74.23954 73.44486
# Shear Modulus (GPa) = 10.63382 20.20015 15.41699
#
# Velocity S-wave (km/s) = 2.34044 3.22574 2.81807
# Velocity P-wave (km/s) = 6.68780 7.21912 6.95854
#
# Compressibility (1/GPa) = 0.01376459
#
# Stress axis : x y z
#
# Youngs Moduli (GPa) = 73.78205 62.58320 81.19762
#
# Poissons Ratio (x) = 0.36799 0.37061
# Poissons Ratio (y) = 0.43383 0.29209
# Poissons Ratio (z) = 0.33677 0.22513
#
# Static dielectric constant tensor:
#      x y z
#    x 3.533120 0.000000 0.000000 
#    y 0.000000 3.410670 0.000000 
#    z 0.000000 0.000000 3.584610 
# 
# 
# High freq. dielectric constant tensor:
#      x y z
#    x 1.750160 0.000000 0.000000 
#    y 0.000000 1.741740 0.000000 
#    z 0.000000 0.000000 1.768360 
# 
# From -- ./inp_files/13060.got.cif
#   From: 2010.03.12/outbox.cif.g09.slc.cpg/sg47_7_cif.got.tgz:13060.got - 2010.04.14 03:12:58.
