data_PCOD8198640
_publ_section_title
;
Structure prediction by ZEFSAII (Michael W. Deem and Ramdas Pophale) SiO2 
 PCOD8198640
Probable space group: P M M M
;
_chemical_formula_sum "Si O2"
_cell_formula_units_Z 56
_cell_length_a 14.864019
_cell_length_b 14.267944
_cell_length_c 13.376140
_cell_angle_alpha 90.000000
_cell_angle_beta 90.000000
_cell_angle_gamma 90.000000
_cell_volume 2836.798271
_symmetry_space_group_name_H-M "P M M M"
_symmetry_group_IT_number 47
_symmetry_cell_setting 'orthorhombic'
loop_
_space_group_symop_operation_xyz
x,y,z
-x,-y,z
x,-y,-z
-x,y,-z
-x,-y,-z
x,y,-z
-x,y,z
x,-y,z
loop_
_atom_site_type_symbol
_atom_site_label
_atom_site_fract_x
_atom_site_fract_y
_atom_site_fract_z
Si Si1 0.357638 0.395071 0.115312
Si Si2 0.901255 0.765493 0.886022
Si Si3 0.600255 0.223722 0.241140
Si Si4 0.174993 0.605185 0.226152
Si Si5 0.899732 0.104581 0.381489
Si Si6 0.736488 0.106543 0.882225
Si Si7 0.242820 0.259101 0.381684
O O1 0.395775 0.500000 0.133098
O O2 0.411122 0.322917 0.184602
O O3 0.253098 0.391108 0.143509
O O4 0.368551 0.365510 0.000000
O O5 0.901918 0.672031 0.818092
O O6 0.826474 0.838819 0.847762
O O7 0.000000 0.812268 0.875923
O O8 0.881893 0.736722 0.000000
O O9 0.500000 0.187792 0.268241
O O10 0.648702 0.150006 0.168775
O O11 0.657286 0.233892 0.343165
O O12 0.138228 0.500000 0.242116
O O13 0.210518 0.643323 0.332854
O O14 0.900233 0.104979 0.500000
O O15 0.825389 0.178036 0.343802
O O16 0.000000 0.133335 0.342976
O O17 0.874975 0.000000 0.343107
O O18 0.747586 0.000000 0.847080
O O19 0.722320 0.113912 0.000000
O O20 0.245111 0.271355 0.500000
#
# Coordination Sequence:
#
# PCOD8198640 Si02
#       7
#     8   8   8   8   8   8   8
#     4   9  17  32  57  85 111 141 180 230 288 344
#     4  10  20  36  60  90 123 157 192 229 279 347
#     4  11  23  38  56  82 116 152 194 243 293 349
#     4  10  20  35  55  82 118 156 193 234 281 340
#     4   8  15  31  57  85 107 129 168 227 287 336
#     4  10  21  39  61  86 120 157 192 233 285 348
#     4  10  21  38  58  82 114 155 198 245 296 343
#
# _framework density 19.740565
#
# number of rings (size 3 to 8) (size 9 to 14) (size 15 to 20)
#    0.000    2.286    2.857    1.286    0.000    4.857 
#    0.000    3.571    0.000    0.000    0.000   10.000 
#    0.000    0.000    0.000    0.000    0.000    0.000 
#
# Total GULP energy -694231.596906 kJ/mol
# GULP energy per Si atom -12396.992802 kJ/mol
# Density = 1.969563 g / cm^3
# Si number density = 19.740565 Si / 1000 Ang^3
#
#
#
# Elastic Constant Matrix: (Units=GPa)
#
#
# Indices 1 2 3 4 5 6 
#
# 1 129.1405 55.0753 35.1522 0.0000 0.0000 0.0000
# 2 55.0753 136.0863 42.1564 0.0000 0.0000 0.0000
# 3 35.1522 42.1564 89.2927 0.0000 0.0000 0.0000
# 4 0.0000 0.0000 0.0000 22.2411 0.0000 0.0000
# 5 0.0000 0.0000 0.0000 0.0000 14.8225 0.0000
# 6 0.0000 0.0000 0.0000 0.0000 0.0000 8.8946
#
#
#
# Elastic Compliance Matrix: (Units=1/GPa)
#
#
# Indices 1 2 3 4 5 6 
#
# 1 0.009751 -0.003229 -0.002314 0.000000 0.000000 0.000000
# 2 -0.003229 0.009677 -0.003297 0.000000 0.000000 0.000000
# 3 -0.002314 -0.003297 0.013667 0.000000 0.000000 0.000000
# 4 0.000000 0.000000 0.000000 0.044962 0.000000 0.000000
# 5 0.000000 0.000000 0.000000 0.000000 0.067465 0.000000
# 6 0.000000 0.000000 0.000000 0.000000 0.000000 0.112428
#
#
# Mechanical properties :
#
#
# Convention : Reuss Voigt Hill
#
# Bulk Modulus (GPa) = 64.88022 68.80971 66.84496
# Shear Modulus (GPa) = 17.80831 24.00066 20.90449
#
# Velocity S-wave (km/s) = 3.00679 3.49062 3.25770
# Velocity P-wave (km/s) = 6.70762 7.15392 6.93436
#
# Compressibility (1/GPa) = 0.01541302
#
# Stress axis : x y z
#
# Youngs Moduli (GPa) = 102.55782 103.34207 73.17055
#
# Poissons Ratio (x) = 0.33373 0.16931
# Poissons Ratio (y) = 0.33119 0.24125
# Poissons Ratio (z) = 0.23731 0.34074
#
# Static dielectric constant tensor:
#      x y z
#    x 3.486760 0.000000 0.000000 
#    y 0.000000 3.800920 0.000000 
#    z 0.000000 0.000000 3.409090 
# 
# 
# High freq. dielectric constant tensor:
#      x y z
#    x 1.758440 0.000000 0.000000 
#    y 0.000000 1.766030 0.000000 
#    z 0.000000 0.000000 1.765910 
# 
# From -- ./inp_files/23852.got.cif
#   From: 2010.03.12/outbox.cif.g09.slc.cpg/sg47_12_cif.got.tgz:23852.got - 2010.04.14 03:12:58.
