data_PCOD8198781
_publ_section_title
;
Structure prediction by ZEFSAII (Michael W. Deem and Ramdas Pophale) SiO2 
 PCOD8198781
Probable space group: P M M M
;
_chemical_formula_sum "Si O2"
_cell_formula_units_Z 40
_cell_length_a 7.740895
_cell_length_b 27.178866
_cell_length_c 9.139639
_cell_angle_alpha 90.000000
_cell_angle_beta 90.000000
_cell_angle_gamma 90.000000
_cell_volume 1922.877206
_symmetry_space_group_name_H-M "P M M M"
_symmetry_group_IT_number 47
_symmetry_cell_setting 'orthorhombic'
loop_
_space_group_symop_operation_xyz
x,y,z
-x,-y,z
x,-y,-z
-x,y,-z
-x,-y,-z
x,y,-z
-x,y,z
x,-y,z
loop_
_atom_site_type_symbol
_atom_site_label
_atom_site_fract_x
_atom_site_fract_y
_atom_site_fract_z
Si Si1 0.194698 0.388279 0.331092
Si Si2 0.500000 0.441921 0.831527
Si Si3 0.205976 0.095057 0.335278
Si Si4 0.697982 0.296425 0.166581
Si Si5 0.795524 0.189709 0.834227
Si Si6 0.793974 0.000000 0.165023
O O1 0.251297 0.387144 0.500000
O O2 0.326074 0.422447 0.243107
O O3 0.194509 0.332878 0.268803
O O4 0.000000 0.409279 0.314090
O O5 0.500000 0.500000 0.816326
O O6 0.500000 0.424701 0.000000
O O7 0.276376 0.091880 0.500000
O O8 0.277522 0.145084 0.262957
O O9 0.000000 0.094917 0.332042
O O10 0.277921 0.048296 0.246489
O O11 0.500000 0.313313 0.173776
O O12 0.718027 0.240855 0.225832
O O13 0.768452 0.299182 0.000000
O O14 0.000000 0.192694 0.824402
O O15 0.733710 0.180439 0.000000
O O16 0.000000 0.000000 0.166125
O O17 0.722949 0.000000 0.000000
#
# Coordination Sequence:
#
# PCOD8198781 Si02
#       6
#     8   4   8   8   8   4
#     4  11  24  41  64  95 130 168 208 253 309 369
#     4  11  25  45  69  97 129 167 213 262 307 356
#     4   9  16  25  38  59  89 124 165 215 270 331
#     4  10  20  35  57  84 114 152 197 244 294 351
#     4   9  17  29  45  68 100 137 177 223 276 336
#     4   9  15  23  37  57  84 121 162 207 266 334
#
# _framework density 20.802159
#
# number of rings (size 3 to 8) (size 9 to 14) (size 15 to 20)
#    0.000    2.200    1.000    2.400    0.000    8.000 
#    0.000    4.000    0.000    0.000    0.000    0.700 
#    0.000    5.600    0.000    0.000    0.000    0.000 
#
# Total GULP energy -496058.751767 kJ/mol
# GULP energy per Si atom -12401.468794 kJ/mol
# Density = 2.075481 g / cm^3
# Si number density = 20.802159 Si / 1000 Ang^3
#
#
#
# Elastic Constant Matrix: (Units=GPa)
#
#
# Indices 1 2 3 4 5 6 
#
# 1 63.4889 35.3400 40.3815 0.0000 0.0000 0.0000
# 2 35.3400 130.0004 83.7955 0.0000 0.0000 0.0000
# 3 40.3815 83.7955 163.1431 0.0000 0.0000 0.0000
# 4 0.0000 0.0000 0.0000 20.9702 0.0000 0.0000
# 5 0.0000 0.0000 0.0000 0.0000 17.6711 0.0000
# 6 0.0000 0.0000 0.0000 0.0000 0.0000 18.3043
#
#
#
# Elastic Compliance Matrix: (Units=1/GPa)
#
#
# Indices 1 2 3 4 5 6 
#
# 1 0.019591 -0.003289 -0.003160 0.000000 0.000000 0.000000
# 2 -0.003289 0.012052 -0.005376 0.000000 0.000000 0.000000
# 3 -0.003160 -0.005376 0.009673 0.000000 0.000000 0.000000
# 4 0.000000 0.000000 0.000000 0.047687 0.000000 0.000000
# 5 0.000000 0.000000 0.000000 0.000000 0.056590 0.000000
# 6 0.000000 0.000000 0.000000 0.000000 0.000000 0.054632
#
#
# Mechanical properties :
#
#
# Convention : Reuss Voigt Hill
#
# Bulk Modulus (GPa) = 56.60542 75.07407 65.83974
# Shear Modulus (GPa) = 21.76155 24.53014 23.14585
#
# Velocity S-wave (km/s) = 3.23789 3.43769 3.33928
# Velocity P-wave (km/s) = 6.42253 7.20589 6.82546
#
# Compressibility (1/GPa) = 0.01766615
#
# Stress axis : x y z
#
# Youngs Moduli (GPa) = 51.04277 82.97624 103.37997
#
# Poissons Ratio (x) = 0.27291 0.32668
# Poissons Ratio (y) = 0.16788 0.55577
# Poissons Ratio (z) = 0.16129 0.44608
#
# Static dielectric constant tensor:
#      x y z
#    x 3.406760 0.000000 0.000000 
#    y 0.000000 3.843740 0.000000 
#    z 0.000000 0.000000 3.863750 
# 
# 
# High freq. dielectric constant tensor:
#      x y z
#    x 1.792560 0.000000 0.000000 
#    y 0.000000 1.820920 0.000000 
#    z 0.000000 0.000000 1.812960 
# 
# From -- ./inp_files/1752.got.cif
#   From: 2010.03.12/outbox.cif.g09.slc.cpg/sg47_1_cif.got.tgz:1752.got - 2010.04.14 03:12:58.
