data_PCOD8198937
_publ_section_title
;
Structure prediction by ZEFSAII (Michael W. Deem and Ramdas Pophale) SiO2 
 PCOD8198937
Probable space group: P M M M
;
_chemical_formula_sum "Si O2"
_cell_formula_units_Z 56
_cell_length_a 20.055179
_cell_length_b 9.007808
_cell_length_c 15.178570
_cell_angle_alpha 90.000000
_cell_angle_beta 90.000000
_cell_angle_gamma 90.000000
_cell_volume 2742.057270
_symmetry_space_group_name_H-M "P M M M"
_symmetry_group_IT_number 47
_symmetry_cell_setting 'orthorhombic'
loop_
_space_group_symop_operation_xyz
x,y,z
-x,-y,z
x,-y,-z
-x,y,-z
-x,-y,-z
x,y,-z
-x,y,z
x,-y,z
loop_
_atom_site_type_symbol
_atom_site_label
_atom_site_fract_x
_atom_site_fract_y
_atom_site_fract_z
Si Si1 0.398354 0.329727 0.403572
Si Si2 0.702185 0.330679 0.168324
Si Si3 0.748993 0.665852 0.365109
Si Si4 0.924402 0.329072 0.769121
Si Si5 0.176472 0.829731 0.099555
Si Si6 0.425838 0.171003 0.229210
Si Si7 0.879464 0.827996 0.598807
O O1 0.430489 0.299348 0.500000
O O2 0.410764 0.500000 0.373804
O O3 0.319869 0.299939 0.413406
O O4 0.430031 0.224435 0.330521
O O5 0.694197 0.500000 0.137145
O O6 0.738954 0.318412 0.261223
O O7 0.750033 0.243525 0.101500
O O8 0.627997 0.261263 0.172042
O O9 0.774350 0.500000 0.388254
O O10 0.801793 0.785191 0.398196
O O11 0.902352 0.500000 0.766399
O O12 0.876054 0.246608 0.836077
O O13 0.920266 0.265951 0.670127
O O14 0.000000 0.310697 0.802796
O O15 0.183312 0.000000 0.128655
O O16 0.149433 0.814998 0.000000
O O17 0.500000 0.192009 0.188203
O O18 0.404230 0.000000 0.228668
O O19 0.907065 0.796982 0.500000
O O20 0.886920 0.000000 0.622890
#
# Coordination Sequence:
#
# PCOD8198937 Si02
#       7
#     8   8   8   8   8   8   8
#     4   9  18  31  47  70 103 146 197 252 305 357
#     4  10  20  36  61  89 118 155 197 244 297 353
#     4   9  17  31  52  78 109 148 195 247 302 356
#     4  11  25  44  65  90 123 165 209 252 300 354
#     4  11  24  42  68 100 129 158 194 240 300 368
#     4  10  21  35  52  77 112 156 201 246 301 361
#     4  11  23  36  55  85 120 161 207 255 307 359
#
# _framework density 20.422620999999999
#
# number of rings (size 3 to 8) (size 9 to 14) (size 15 to 20)
#    0.000    1.857    1.429    3.429    0.000    8.571 
#    0.000    4.286    0.000    0.429    0.000    3.000 
#    0.000    0.000    0.000    0.000    0.000    0.000 
#
# Total GULP energy -694351.566119 kJ/mol
# GULP energy per Si atom -12399.135109 kJ/mol
# Density = 2.037614 g / cm^3
# Si number density = 20.422621 Si / 1000 Ang^3
#
#
#
# Elastic Constant Matrix: (Units=GPa)
#
#
# Indices 1 2 3 4 5 6 
#
# 1 107.7887 61.5998 34.6814 0.0000 0.0000 0.0000
# 2 61.5998 152.1904 47.0887 0.0000 0.0000 0.0000
# 3 34.6814 47.0887 76.4899 0.0000 0.0000 0.0000
# 4 0.0000 0.0000 0.0000 17.5450 0.0000 0.0000
# 5 0.0000 0.0000 0.0000 0.0000 12.5008 0.0000
# 6 0.0000 0.0000 0.0000 0.0000 0.0000 29.7510
#
#
#
# Elastic Compliance Matrix: (Units=1/GPa)
#
#
# Indices 1 2 3 4 5 6 
#
# 1 0.012672 -0.004140 -0.003197 0.000000 0.000000 0.000000
# 2 -0.004140 0.009469 -0.003952 0.000000 0.000000 0.000000
# 3 -0.003197 -0.003952 0.016956 0.000000 0.000000 0.000000
# 4 0.000000 0.000000 0.000000 0.056996 0.000000 0.000000
# 5 0.000000 0.000000 0.000000 0.000000 0.079995 0.000000
# 6 0.000000 0.000000 0.000000 0.000000 0.000000 0.033612
#
#
# Mechanical properties :
#
#
# Convention : Reuss Voigt Hill
#
# Bulk Modulus (GPa) = 60.53635 69.24542 64.89088
# Shear Modulus (GPa) = 21.02733 24.83265 22.92999
#
# Velocity S-wave (km/s) = 3.21223 3.49081 3.35442
# Velocity P-wave (km/s) = 6.59273 7.08714 6.84440
#
# Compressibility (1/GPa) = 0.01651900
#
# Stress axis : x y z
#
# Youngs Moduli (GPa) = 78.91462 105.60514 58.97485
#
# Poissons Ratio (x) = 0.43719 0.18854
# Poissons Ratio (y) = 0.32669 0.23309
# Poissons Ratio (z) = 0.25229 0.41739
#
# Static dielectric constant tensor:
#      x y z
#    x 3.677950 0.000000 0.000000 
#    y 0.000000 3.757440 0.000000 
#    z 0.000000 0.000000 3.556850 
# 
# 
# High freq. dielectric constant tensor:
#      x y z
#    x 1.799190 0.000000 0.000000 
#    y 0.000000 1.803050 0.000000 
#    z 0.000000 0.000000 1.779570 
# 
# From -- ./inp_files/25121.got.cif
#   From: 2010.03.12/outbox.cif.g09.slc.cpg/sg47_13_cif.got.tgz:25121.got - 2010.04.14 03:12:58.
