data_PCOD8198220
_publ_section_title
;
Structure prediction by ZEFSAII (Michael W. Deem and Ramdas Pophale) SiO2 
 PCOD8198220
Probable space group: P M M M
;
_chemical_formula_sum "Si O2"
_cell_formula_units_Z 48
_cell_length_a 8.126047
_cell_length_b 9.866607
_cell_length_c 32.456961
_cell_angle_alpha 90.000000
_cell_angle_beta 90.000000
_cell_angle_gamma 90.000000
_cell_volume 2602.285930
_symmetry_space_group_name_H-M "P M M M"
_symmetry_group_IT_number 47
_symmetry_cell_setting 'orthorhombic'
loop_
_space_group_symop_operation_xyz
x,y,z
-x,-y,z
x,-y,-z
-x,y,-z
-x,-y,-z
x,y,-z
-x,y,z
x,-y,z
loop_
_atom_site_type_symbol
_atom_site_label
_atom_site_fract_x
_atom_site_fract_y
_atom_site_fract_z
Si Si1 0.684355 0.161333 0.596780
Si Si2 0.184434 0.160647 0.000000
Si Si3 0.308590 0.650387 0.243282
Si Si4 0.810734 0.651537 0.843524
Si Si5 0.690466 0.154877 0.913043
Si Si6 0.693424 0.850327 0.310995
Si Si7 0.000000 0.161504 0.453224
O O1 0.500000 0.214515 0.583660
O O2 0.726936 0.208131 0.643268
O O3 0.831524 0.217788 0.567814
O O4 0.679725 0.000000 0.595259
O O5 0.277357 0.211657 0.959070
O O6 0.000000 0.219331 0.000000
O O7 0.184501 0.000000 0.000000
O O8 0.500000 0.641187 0.252800
O O9 0.228920 0.500000 0.246979
O O10 0.282276 0.706838 0.197044
O O11 0.226296 0.750044 0.277071
O O12 0.746800 0.500000 0.855195
O O13 0.786845 0.752220 0.881318
O O14 0.000000 0.646620 0.831901
O O15 0.500000 0.164384 0.902731
O O16 0.754031 0.000000 0.908929
O O17 0.500000 0.863214 0.303631
O O18 0.773328 0.000000 0.305950
O O19 0.000000 0.213521 0.500000
O O20 0.000000 0.000000 0.450762
#
# Coordination Sequence:
#
# PCOD8198220 Si02
#       7
#     8   4   8   8   8   8   4
#     4   8  14  25  39  56  83 118 152 190 236 281
#     4   9  17  31  52  77 104 131 156 190 240 289
#     4   9  17  30  48  68  91 121 157 197 239 284
#     4  10  21  36  51  69  98 133 164 198 243 291
#     4  10  20  34  54  78 101 127 162 202 240 283
#     4   8  14  26  44  64  88 119 152 188 234 285
#     4   9  16  24  36  58  87 119 155 191 231 286
#
# _framework density 18.445319999999999
#
# number of rings (size 3 to 8) (size 9 to 14) (size 15 to 20)
#    0.000    3.000    0.000    2.250    0.000    4.000 
#    1.500    3.750    0.000    2.500    0.000    0.000 
#    0.000    1.333    0.000    6.500    0.000    6.667 
#
# Total GULP energy -594882.091364 kJ/mol
# GULP energy per Si atom -12393.376903 kJ/mol
# Density = 1.840334 g / cm^3
# Si number density = 18.445320 Si / 1000 Ang^3
#
#
#
# Elastic Constant Matrix: (Units=GPa)
#
#
# Indices 1 2 3 4 5 6 
#
# 1 65.7038 20.6833 39.8817 0.0000 0.0000 0.0000
# 2 20.6833 52.5612 54.8336 0.0000 0.0000 0.0000
# 3 39.8817 54.8336 148.2038 0.0000 0.0000 0.0000
# 4 0.0000 0.0000 0.0000 4.6751 0.0000 0.0000
# 5 0.0000 0.0000 0.0000 0.0000 23.3452 0.0000
# 6 0.0000 0.0000 0.0000 0.0000 0.0000 13.0253
#
#
#
# Elastic Compliance Matrix: (Units=1/GPa)
#
#
# Indices 1 2 3 4 5 6 
#
# 1 0.018559 -0.003409 -0.003733 0.000000 0.000000 0.000000
# 2 -0.003409 0.031611 -0.010779 0.000000 0.000000 0.000000
# 3 -0.003733 -0.010779 0.011740 0.000000 0.000000 0.000000
# 4 0.000000 0.000000 0.000000 0.213898 0.000000 0.000000
# 5 0.000000 0.000000 0.000000 0.000000 0.042835 0.000000
# 6 0.000000 0.000000 0.000000 0.000000 0.000000 0.076774
#
#
# Mechanical properties :
#
#
# Convention : Reuss Voigt Hill
#
# Bulk Modulus (GPa) = 38.35877 55.25176 46.80527
# Shear Modulus (GPa) = 11.36500 18.28047 14.82274
#
# Velocity S-wave (km/s) = 2.48492 3.15153 2.83787
# Velocity P-wave (km/s) = 5.39205 6.57740 6.01400
#
# Compressibility (1/GPa) = 0.02606966
#
# Stress axis : x y z
#
# Youngs Moduli (GPa) = 53.88296 31.63425 85.17921
#
# Poissons Ratio (x) = 0.10783 0.31798
# Poissons Ratio (y) = 0.18367 0.91811
# Poissons Ratio (z) = 0.20115 0.34097
#
# Static dielectric constant tensor:
#      x y z
#    x 3.372080 0.000000 0.000000 
#    y 0.000000 3.293420 0.000000 
#    z 0.000000 0.000000 3.512830 
# 
# 
# High freq. dielectric constant tensor:
#      x y z
#    x 1.708080 0.000000 0.000000 
#    y 0.000000 1.666830 0.000000 
#    z 0.000000 0.000000 1.719440 
# 
# From -- ./inp_files/34173.got.cif
#   From: 2010.03.12/outbox.cif.g09.slc.cpg/sg47_18_cif.got.tgz:34173.got - 2010.04.14 03:12:58.
