data_PCOD8198594
_publ_section_title
;
Structure prediction by ZEFSAII (Michael W. Deem and Ramdas Pophale) SiO2 
 PCOD8198594
Probable space group: P M M M
;
_chemical_formula_sum "Si O2"
_cell_formula_units_Z 64
_cell_length_a 14.428177
_cell_length_b 31.131757
_cell_length_c 9.293386
_cell_angle_alpha 90.000000
_cell_angle_beta 90.000000
_cell_angle_gamma 90.000000
_cell_volume 4174.352013
_symmetry_space_group_name_H-M "P M M M"
_symmetry_group_IT_number 47
_symmetry_cell_setting 'orthorhombic'
loop_
_space_group_symop_operation_xyz
x,y,z
-x,-y,z
x,-y,-z
-x,y,-z
-x,-y,-z
x,y,-z
-x,y,z
x,-y,z
loop_
_atom_site_type_symbol
_atom_site_label
_atom_site_fract_x
_atom_site_fract_y
_atom_site_fract_z
Si Si1 0.108352 0.881504 0.331666
Si Si2 0.891775 0.710218 0.667381
Si Si3 0.605119 0.076277 0.333213
Si Si4 0.110472 0.627328 0.838320
Si Si5 0.399944 0.174935 0.329725
Si Si6 0.793007 0.795172 0.328734
Si Si7 0.223724 0.048537 0.165124
Si Si8 0.889783 0.452576 0.338377
O O1 0.129795 0.887579 0.500000
O O2 0.151358 0.836856 0.273836
O O3 0.152679 0.921099 0.248166
O O4 0.000000 0.880481 0.299191
O O5 0.870523 0.702710 0.500000
O O6 0.854024 0.668789 0.751755
O O7 0.839215 0.751775 0.730993
O O8 0.000000 0.717782 0.694218
O O9 0.631544 0.069849 0.500000
O O10 0.500000 0.060713 0.305330
O O11 0.617023 0.125725 0.287232
O O12 0.674241 0.049128 0.235266
O O13 0.151361 0.584124 0.765419
O O14 0.000000 0.626052 0.835961
O O15 0.148940 0.629693 0.000000
O O16 0.404050 0.178356 0.500000
O O17 0.500000 0.190789 0.266782
O O18 0.313483 0.202888 0.271499
O O19 0.797461 0.794435 0.500000
O O20 0.185695 0.000000 0.175956
O O21 0.230831 0.063477 0.000000
O O22 0.853298 0.444298 0.500000
O O23 0.857804 0.500000 0.285036
O O24 0.000000 0.450228 0.338081
#
# Coordination Sequence:
#
# PCOD8198594 Si02
#       8
#     8   8   8   8   8   8   8   8
#     4  10  20  35  55  74  89 109 144 188 223 252
#     4   9  16  25  38  56  78 106 138 170 206 246
#     4   9  17  32  55  78  96 115 141 174 210 248
#     4   9  16  24  33  47  71 102 135 173 213 249
#     4   8  13  23  44  72  94 108 126 161 208 250
#     4   9  15  26  46  69  89 107 133 172 213 253
#     4  11  24  38  50  67  94 124 147 170 208 259
#     4   8  13  21  33  48  66  92 130 175 218 256
#
# _framework density 15.331720000000001
#
# number of rings (size 3 to 8) (size 9 to 14) (size 15 to 20)
#    0.000    2.875    1.250    2.250    0.000    5.250 
#    0.000    4.375    0.000    1.500    0.000    0.000 
#    0.000    0.000    0.000    0.000    0.000    0.625 
#
# Total GULP energy -793263.455644 kJ/mol
# GULP energy per Si atom -12394.741494 kJ/mol
# Density = 1.529682 g / cm^3
# Si number density = 15.331720 Si / 1000 Ang^3
#
#
#
# Elastic Constant Matrix: (Units=GPa)
#
#
# Indices 1 2 3 4 5 6 
#
# 1 72.5010 47.1877 31.6714 0.0000 0.0000 0.0000
# 2 47.1877 125.4178 51.1813 0.0000 0.0000 0.0000
# 3 31.6714 51.1813 62.1152 0.0000 0.0000 0.0000
# 4 0.0000 0.0000 0.0000 6.1923 0.0000 0.0000
# 5 0.0000 0.0000 0.0000 0.0000 8.5488 0.0000
# 6 0.0000 0.0000 0.0000 0.0000 0.0000 7.1047
#
#
#
# Elastic Compliance Matrix: (Units=1/GPa)
#
#
# Indices 1 2 3 4 5 6 
#
# 1 0.019605 -0.004967 -0.005903 0.000000 0.000000 0.000000
# 2 -0.004967 0.013271 -0.008402 0.000000 0.000000 0.000000
# 3 -0.005903 -0.008402 0.026032 0.000000 0.000000 0.000000
# 4 0.000000 0.000000 0.000000 0.161490 0.000000 0.000000
# 5 0.000000 0.000000 0.000000 0.000000 0.116975 0.000000
# 6 0.000000 0.000000 0.000000 0.000000 0.000000 0.140753
#
#
# Mechanical properties :
#
#
# Convention : Reuss Voigt Hill
#
# Bulk Modulus (GPa) = 49.10961 57.79052 53.45006
# Shear Modulus (GPa) = 9.55184 13.03540 11.29362
#
# Velocity S-wave (km/s) = 2.49873 2.91902 2.71702
# Velocity P-wave (km/s) = 6.35813 7.00972 6.69186
#
# Compressibility (1/GPa) = 0.02036261
#
# Stress axis : x y z
#
# Youngs Moduli (GPa) = 51.00858 75.35183 38.41356
#
# Poissons Ratio (x) = 0.37428 0.22677
# Poissons Ratio (y) = 0.25336 0.32277
# Poissons Ratio (z) = 0.30112 0.63314
#
# Static dielectric constant tensor:
#      x y z
#    x 2.927740 0.000000 0.000000 
#    y 0.000000 3.052420 0.000000 
#    z 0.000000 0.000000 2.784860 
# 
# 
# High freq. dielectric constant tensor:
#      x y z
#    x 1.553030 0.000000 0.000000 
#    y 0.000000 1.583690 0.000000 
#    z 0.000000 0.000000 1.565960 
# 
# From -- ./inp_files/8282.got.cif
#   From: 2010.03.12/outbox.cif.g09.slc.cpg/sg47_5_cif.got.tgz:8282.got - 2010.04.14 03:12:58.
