data_PCOD8198726
_publ_section_title
;
Structure prediction by ZEFSAII (Michael W. Deem and Ramdas Pophale) SiO2 
 PCOD8198726
Probable space group: P M M M
;
_chemical_formula_sum "Si O2"
_cell_formula_units_Z 48
_cell_length_a 9.001605
_cell_length_b 31.174685
_cell_length_c 8.954724
_cell_angle_alpha 90.000000
_cell_angle_beta 90.000000
_cell_angle_gamma 90.000000
_cell_volume 2512.894353
_symmetry_space_group_name_H-M "P M M M"
_symmetry_group_IT_number 47
_symmetry_cell_setting 'orthorhombic'
loop_
_space_group_symop_operation_xyz
x,y,z
-x,-y,z
x,-y,-z
-x,y,-z
-x,-y,-z
x,y,-z
-x,y,z
x,-y,z
loop_
_atom_site_type_symbol
_atom_site_label
_atom_site_fract_x
_atom_site_fract_y
_atom_site_fract_z
Si Si1 0.173508 0.329813 0.671979
Si Si2 0.824734 0.000000 0.671639
Si Si3 0.326160 0.079889 0.174325
Si Si4 0.338408 0.500000 0.823828
Si Si5 0.322549 0.407338 0.170426
Si Si6 0.671428 0.251447 0.175064
Si Si7 0.676538 0.834235 0.331800
O O1 0.210003 0.319852 0.500000
O O2 0.251520 0.373865 0.717039
O O3 0.233991 0.291652 0.772896
O O4 0.000000 0.334714 0.701064
O O5 0.761546 0.958180 0.749658
O O6 0.774553 0.000000 0.500000
O O7 0.000000 0.000000 0.689288
O O8 0.500000 0.073623 0.206932
O O9 0.265700 0.124431 0.242111
O O10 0.291676 0.079955 0.000000
O O11 0.500000 0.500000 0.746116
O O12 0.258923 0.545187 0.781796
O O13 0.361697 0.500000 0.000000
O O14 0.500000 0.406447 0.185091
O O15 0.276527 0.396247 0.000000
O O16 0.500000 0.259524 0.218309
O O17 0.735868 0.208927 0.254140
O O18 0.690351 0.244934 0.000000
O O19 0.738639 0.836264 0.500000
O O20 0.500000 0.833785 0.329159
#
# Coordination Sequence:
#
# PCOD8198726 Si02
#       7
#     8   4   8   4   8   8   8
#     4  11  24  38  50  70 104 143 179 215 257 306
#     4  11  24  39  54  76 108 145 184 225 268 314
#     4  10  20  35  57  84 111 140 177 220 264 312
#     4   7  12  26  50  79 106 128 158 207 260 307
#     4   9  17  32  56  82 104 130 168 213 260 310
#     4  10  20  35  57  83 107 133 170 216 263 311
#     4   9  17  31  54  83 112 140 170 209 259 312
#
# _framework density 19.101481
#
# number of rings (size 3 to 8) (size 9 to 14) (size 15 to 20)
#    0.000    2.333    0.000    4.000    0.000    9.333 
#    0.000    1.667    0.000    9.000    0.000    0.000 
#    0.000    0.000    0.000    0.000    0.000    0.000 
#
# Total GULP energy -595112.489357 kJ/mol
# GULP energy per Si atom -12398.176862 kJ/mol
# Density = 1.905800 g / cm^3
# Si number density = 19.101481 Si / 1000 Ang^3
#
#
#
# Elastic Constant Matrix: (Units=GPa)
#
#
# Indices 1 2 3 4 5 6 
#
# 1 41.2249 37.5036 33.9537 0.0000 0.0000 0.0000
# 2 37.5036 169.1835 57.1080 0.0000 0.0000 0.0000
# 3 33.9537 57.1080 97.7143 0.0000 0.0000 0.0000
# 4 0.0000 0.0000 0.0000 -83.3956 0.0000 0.0000
# 5 0.0000 0.0000 0.0000 0.0000 24.1345 0.0000
# 6 0.0000 0.0000 0.0000 0.0000 0.0000 -6.5306
#
#
#
# Elastic Compliance Matrix: (Units=1/GPa)
#
#
# Indices 1 2 3 4 5 6 
#
# 1 0.036859 -0.004793 -0.010007 0.000000 0.000000 0.000000
# 2 -0.004793 0.007987 -0.003002 0.000000 0.000000 0.000000
# 3 -0.010007 -0.003002 0.015466 0.000000 0.000000 0.000000
# 4 0.000000 0.000000 0.000000 -0.011991 0.000000 0.000000
# 5 0.000000 0.000000 0.000000 0.000000 0.041435 0.000000
# 6 0.000000 0.000000 0.000000 0.000000 0.000000 -0.153126
#
#
# Mechanical properties :
#
#
# Convention : Reuss Voigt Hill
#
# Bulk Modulus (GPa) = 40.47302 62.80593 51.63947
# Shear Modulus (GPa) = -256.00276 -1.18785 -128.59531
#
# Velocity S-wave (km/s) = -11.58937 -0.78944 -8.21391
# Velocity P-wave (km/s) = 12.56384 5.66750 7.92873
#
# Compressibility (1/GPa) = 0.02470782
#
# Stress axis : x y z
#
# Youngs Moduli (GPa) = 27.13027 125.20923 64.65960
#
# Poissons Ratio (x) = 0.60013 0.64702
# Poissons Ratio (y) = 0.13004 0.19412
# Poissons Ratio (z) = 0.27148 0.37591
#
# Static dielectric constant tensor:
#      x y z
#    x 3.156470 0.000000 0.000000 
#    y 0.000000 3.895720 0.000000 
#    z 0.000000 0.000000 3.543650 
# 
# 
# High freq. dielectric constant tensor:
#      x y z
#    x 1.703790 0.000000 0.000000 
#    y 0.000000 1.766870 0.000000 
#    z 0.000000 0.000000 1.744820 
# 
# From -- ./inp_files/2647.got.cif
#   From: 2010.03.12/outbox.cif.g09.slc.cpg/sg47_2_cif.got.tgz:2647.got - 2010.04.14 03:12:58.
