data_PCOD8198886
_publ_section_title
;
Structure prediction by ZEFSAII (Michael W. Deem and Ramdas Pophale) SiO2 
 PCOD8198886
Probable space group: P M M M
;
_chemical_formula_sum "Si O2"
_cell_formula_units_Z 48
_cell_length_a 8.925705
_cell_length_b 15.254430
_cell_length_c 17.407626
_cell_angle_alpha 90.000000
_cell_angle_beta 90.000000
_cell_angle_gamma 90.000000
_cell_volume 2370.162163
_symmetry_space_group_name_H-M "P M M M"
_symmetry_group_IT_number 47
_symmetry_cell_setting 'orthorhombic'
loop_
_space_group_symop_operation_xyz
x,y,z
-x,-y,z
x,-y,-z
-x,y,-z
-x,-y,-z
x,y,-z
-x,y,z
x,-y,z
loop_
_atom_site_type_symbol
_atom_site_label
_atom_site_fract_x
_atom_site_fract_y
_atom_site_fract_z
Si Si1 0.821765 0.000000 0.410215
Si Si2 0.324606 0.759408 0.817065
Si Si3 0.835145 0.667714 0.412083
Si Si4 0.667744 0.500000 0.407952
Si Si5 0.168037 0.901891 0.909785
Si Si6 0.321669 0.402118 0.086675
Si Si7 0.321859 0.824831 0.347442
O O1 0.755683 0.083471 0.366294
O O2 0.773552 0.000000 0.500000
O O3 0.000000 0.000000 0.402620
O O4 0.500000 0.747914 0.810137
O O5 0.290115 0.839029 0.873446
O O6 0.255635 0.669244 0.852693
O O7 0.261593 0.784889 0.733300
O O8 0.857877 0.643275 0.500000
O O9 0.750684 0.585397 0.373309
O O10 0.732892 0.754244 0.409266
O O11 0.000000 0.681925 0.374356
O O12 0.500000 0.500000 0.374457
O O13 0.662974 0.500000 0.500000
O O14 0.000000 0.871439 0.887662
O O15 0.196127 0.000000 0.878590
O O16 0.190440 0.899974 0.000000
O O17 0.500000 0.398021 0.086955
O O18 0.267722 0.500000 0.110496
O O19 0.264780 0.380349 0.000000
O O20 0.500000 0.837429 0.350110
#
# Coordination Sequence:
#
# PCOD8198886 Si02
#       7
#     4   8   8   4   8   8   8
#     4  11  25  45  67  87 106 141 196 245 291 358
#     4  10  21  35  53  82 116 147 186 233 281 338
#     4  10  20  36  58  83 112 148 192 237 280 339
#     4   9  17  31  55  85 113 143 180 227 284 337
#     4   9  19  35  54  78 108 145 188 229 275 334
#     4   8  14  28  53  82 111 147 191 234 274 319
#     4  11  24  39  56  85 119 150 185 236 298 353
#
# _framework density 20.251778000000002
#
# number of rings (size 3 to 8) (size 9 to 14) (size 15 to 20)
#    0.000    2.333    0.000    3.500    1.167    7.333 
#    1.500    0.833    0.000    0.500    0.000    2.333 
#    0.000    0.000    0.000    0.000    0.000    0.000 
#
# Total GULP energy -594983.485666 kJ/mol
# GULP energy per Si atom -12395.489285 kJ/mol
# Density = 2.020568 g / cm^3
# Si number density = 20.251778 Si / 1000 Ang^3
#
#
#
# Elastic Constant Matrix: (Units=GPa)
#
#
# Indices 1 2 3 4 5 6 
#
# 1 65.2602 47.5339 29.9331 0.0000 0.0000 0.0000
# 2 47.5339 162.8974 57.0998 0.0000 0.0000 0.0000
# 3 29.9331 57.0998 76.7120 0.0000 0.0000 0.0000
# 4 0.0000 0.0000 0.0000 27.6594 0.0000 0.0000
# 5 0.0000 0.0000 0.0000 0.0000 20.3566 0.0000
# 6 0.0000 0.0000 0.0000 0.0000 0.0000 27.9632
#
#
#
# Elastic Compliance Matrix: (Units=1/GPa)
#
#
# Indices 1 2 3 4 5 6 
#
# 1 0.020711 -0.004344 -0.004848 0.000000 0.000000 0.000000
# 2 -0.004344 0.009217 -0.005166 0.000000 0.000000 0.000000
# 3 -0.004848 -0.005166 0.018772 0.000000 0.000000 0.000000
# 4 0.000000 0.000000 0.000000 0.036154 0.000000 0.000000
# 5 0.000000 0.000000 0.000000 0.000000 0.049124 0.000000
# 6 0.000000 0.000000 0.000000 0.000000 0.000000 0.035761
#
#
# Mechanical properties :
#
#
# Convention : Reuss Voigt Hill
#
# Bulk Modulus (GPa) = 50.03702 63.77813 56.90758
# Shear Modulus (GPa) = 24.37629 26.54936 25.46283
#
# Velocity S-wave (km/s) = 3.47315 3.62465 3.54971
# Velocity P-wave (km/s) = 6.39099 7.00560 6.70534
#
# Compressibility (1/GPa) = 0.01998520
#
# Stress axis : x y z
#
# Youngs Moduli (GPa) = 48.28322 108.49322 53.26968
#
# Poissons Ratio (x) = 0.47132 0.25825
# Poissons Ratio (y) = 0.20975 0.27517
# Poissons Ratio (z) = 0.23407 0.56043
#
# Static dielectric constant tensor:
#      x y z
#    x 3.567770 0.000000 0.000000 
#    y 0.000000 3.980260 0.000000 
#    z 0.000000 0.000000 3.657010 
# 
# 
# High freq. dielectric constant tensor:
#      x y z
#    x 1.772560 0.000000 0.000000 
#    y 0.000000 1.806600 0.000000 
#    z 0.000000 0.000000 1.771850 
# 
# From -- ./inp_files/26525.got.cif
#   From: 2010.03.12/outbox.cif.g09.slc.cpg/sg47_14_cif.got.tgz:26525.got - 2010.04.14 03:12:58.
