data_PCOD8198333
_publ_section_title
;
Structure prediction by ZEFSAII (Michael W. Deem and Ramdas Pophale) SiO2 
 PCOD8198333
Probable space group: P M M M
;
_chemical_formula_sum "Si O2"
_cell_formula_units_Z 48
_cell_length_a 9.133988
_cell_length_b 32.391220
_cell_length_c 8.027654
_cell_angle_alpha 90.000000
_cell_angle_beta 90.000000
_cell_angle_gamma 90.000000
_cell_volume 2375.069859
_symmetry_space_group_name_H-M "P M M M"
_symmetry_group_IT_number 47
_symmetry_cell_setting 'orthorhombic'
loop_
_space_group_symop_operation_xyz
x,y,z
-x,-y,z
x,-y,-z
-x,y,-z
-x,-y,-z
x,y,-z
-x,y,z
x,-y,z
loop_
_atom_site_type_symbol
_atom_site_label
_atom_site_fract_x
_atom_site_fract_y
_atom_site_fract_z
Si Si1 0.829852 0.900428 0.187019
Si Si2 0.166262 0.587153 0.307696
Si Si3 0.167785 0.257131 0.197785
Si Si4 0.332164 0.176975 0.691422
Si Si5 0.338766 0.335987 0.192529
Si Si6 0.173817 0.046173 0.500000
Si Si7 0.826428 0.500000 0.188058
O O1 0.743093 0.857678 0.195794
O O2 0.771149 0.931493 0.330325
O O3 0.000000 0.890660 0.218238
O O4 0.806454 0.919074 0.000000
O O5 0.171874 0.598246 0.500000
O O6 0.264270 0.619713 0.211193
O O7 0.231944 0.541302 0.278171
O O8 0.000000 0.589787 0.239010
O O9 0.252137 0.220088 0.284385
O O10 0.238534 0.299552 0.267688
O O11 0.000000 0.256526 0.255776
O O12 0.180899 0.253035 0.000000
O O13 0.319284 0.163239 0.500000
O O14 0.500000 0.181800 0.747530
O O15 0.500000 0.335991 0.277737
O O16 0.357931 0.326665 0.000000
O O17 0.000000 0.044344 0.500000
O O18 0.239738 0.000000 0.500000
O O19 0.000000 0.500000 0.199368
O O20 0.768886 0.500000 0.000000
#
# Coordination Sequence:
#
# PCOD8198333 Si02
#       7
#     8   8   8   8   8   4   4
#     4  10  20  35  58  86 116 154 198 242 293 350
#     4  10  20  34  54  80 109 140 176 220 271 326
#     4  10  21  37  58  83 109 141 184 231 280 335
#     4  11  23  37  55  81 114 152 192 235 286 342
#     4  10  21  37  56  78 107 144 184 226 274 329
#     4   9  18  34  57  87 123 157 193 245 299 344
#     4   9  17  31  54  81 106 135 174 220 268 319
#
# _framework density 20.209931999999998
#
# number of rings (size 3 to 8) (size 9 to 14) (size 15 to 20)
#    0.000    2.000    0.833    2.750    0.000    8.333 
#    0.000    2.083    0.000    3.500    0.000    1.167 
#    0.000    0.000    0.000    0.000    0.000    0.000 
#
# Total GULP energy -595214.446465 kJ/mol
# GULP energy per Si atom -12400.300968 kJ/mol
# Density = 2.016393 g / cm^3
# Si number density = 20.209932 Si / 1000 Ang^3
#
#
#
# Elastic Constant Matrix: (Units=GPa)
#
#
# Indices 1 2 3 4 5 6 
#
# 1 110.6143 58.1697 30.3746 0.0000 0.0000 0.0000
# 2 58.1697 150.9487 36.9804 0.0000 0.0000 0.0000
# 3 30.3746 36.9804 76.8677 0.0000 0.0000 0.0000
# 4 0.0000 0.0000 0.0000 31.9131 0.0000 0.0000
# 5 0.0000 0.0000 0.0000 0.0000 19.7815 0.0000
# 6 0.0000 0.0000 0.0000 0.0000 0.0000 -0.8802
#
#
#
# Elastic Compliance Matrix: (Units=1/GPa)
#
#
# Indices 1 2 3 4 5 6 
#
# 1 0.011853 -0.003877 -0.002819 0.000000 0.000000 0.000000
# 2 -0.003877 0.008778 -0.002691 0.000000 0.000000 0.000000
# 3 -0.002819 -0.002691 0.015418 0.000000 0.000000 0.000000
# 4 0.000000 0.000000 0.000000 0.031335 0.000000 0.000000
# 5 0.000000 0.000000 0.000000 0.000000 0.050552 0.000000
# 6 0.000000 0.000000 0.000000 0.000000 0.000000 -1.136075
#
#
# Mechanical properties :
#
#
# Convention : Reuss Voigt Hill
#
# Bulk Modulus (GPa) = 57.88513 65.49779 61.69146
# Shear Modulus (GPa) = -5.03218 24.35659 9.66221
#
# Velocity S-wave (km/s) = -1.57967 3.47534 2.18890
# Velocity P-wave (km/s) = 5.03755 6.97015 6.08112
#
# Compressibility (1/GPa) = 0.01727559
#
# Stress axis : x y z
#
# Youngs Moduli (GPa) = 84.36397 113.91868 64.86037
#
# Poissons Ratio (x) = 0.44170 0.18281
# Poissons Ratio (y) = 0.32711 0.17454
# Poissons Ratio (z) = 0.23779 0.30655
#
# Static dielectric constant tensor:
#      x y z
#    x 3.621220 0.000000 0.000000 
#    y 0.000000 3.731380 0.000000 
#    z 0.000000 0.000000 3.608820 
# 
# 
# High freq. dielectric constant tensor:
#      x y z
#    x 1.770300 0.000000 0.000000 
#    y 0.000000 1.792800 0.000000 
#    z 0.000000 0.000000 1.787130 
# 
# From -- ./inp_files/2707.got.cif
#   From: 2010.03.12/outbox.cif.g09.slc.cpg/sg47_2_cif.got.tgz:2707.got - 2010.04.14 03:12:58.
