data_PCOD8198616
_publ_section_title
;
Structure prediction by ZEFSAII (Michael W. Deem and Ramdas Pophale) SiO2 
 PCOD8198616
Probable space group: P M M M
;
_chemical_formula_sum "Si O2"
_cell_formula_units_Z 40
_cell_length_a 8.645794
_cell_length_b 15.013550
_cell_length_c 15.116208
_cell_angle_alpha 90.000000
_cell_angle_beta 90.000000
_cell_angle_gamma 90.000000
_cell_volume 1962.145178
_symmetry_space_group_name_H-M "P M M M"
_symmetry_group_IT_number 47
_symmetry_cell_setting 'orthorhombic'
loop_
_space_group_symop_operation_xyz
x,y,z
-x,-y,z
x,-y,-z
-x,y,-z
-x,-y,-z
x,y,-z
-x,y,z
x,-y,z
loop_
_atom_site_type_symbol
_atom_site_label
_atom_site_fract_x
_atom_site_fract_y
_atom_site_fract_z
Si Si1 0.318230 0.599114 0.713262
Si Si2 0.317202 0.103175 0.500000
Si Si3 0.675140 0.170977 0.827480
Si Si4 0.820652 0.774148 0.650759
Si Si5 0.830574 0.000000 0.897975
Si Si6 0.323918 0.355844 0.095482
O O1 0.500000 0.621440 0.717629
O O2 0.286529 0.500000 0.675380
O O3 0.242251 0.671847 0.647754
O O4 0.249134 0.603581 0.814354
O O5 0.500000 0.099970 0.500000
O O6 0.262315 0.158066 0.584870
O O7 0.254106 0.000000 0.500000
O O8 0.500000 0.162703 0.790761
O O9 0.792486 0.188721 0.747936
O O10 0.686589 0.249251 0.899105
O O11 0.726077 0.082761 0.874640
O O12 0.000000 0.772054 0.626610
O O13 0.000000 0.000000 0.850188
O O14 0.863646 0.000000 0.000000
O O15 0.500000 0.388762 0.092193
O O16 0.246217 0.384137 0.000000
#
# Coordination Sequence:
#
# PCOD8198616 Si02
#       6
#     8   4   8   8   4   8
#     4   9  18  34  57  85 119 160 204 248 295 351
#     4  11  25  45  70  95 120 149 187 232 287 358
#     4  10  20  35  55  77 108 152 201 243 288 349
#     4  11  23  40  62  89 122 154 189 239 297 354
#     4  11  23  35  49  76 113 150 193 247 303 353
#     4   8  14  26  47  77 110 145 192 248 295 332
#
# _framework density 20.385853000000001
#
# number of rings (size 3 to 8) (size 9 to 14) (size 15 to 20)
#    0.000    2.200    0.000    4.800    1.400    3.200 
#    0.000    2.500    0.000    8.400    0.000    5.600 
#    0.000    0.000    0.000    0.000    0.000    0.000 
#
# Total GULP energy -495595.466604 kJ/mol
# GULP energy per Si atom -12389.886665 kJ/mol
# Density = 2.033945 g / cm^3
# Si number density = 20.385853 Si / 1000 Ang^3
#
#
#
# Elastic Constant Matrix: (Units=GPa)
#
#
# Indices 1 2 3 4 5 6 
#
# 1 71.3883 42.1569 17.6129 0.0000 0.0000 0.0000
# 2 42.1569 153.7781 36.5554 0.0000 0.0000 0.0000
# 3 17.6129 36.5554 73.8533 0.0000 0.0000 0.0000
# 4 0.0000 0.0000 0.0000 84.1936 0.0000 0.0000
# 5 0.0000 0.0000 0.0000 0.0000 17.8300 0.0000
# 6 0.0000 0.0000 0.0000 0.0000 0.0000 19.6575
#
#
#
# Elastic Compliance Matrix: (Units=1/GPa)
#
#
# Indices 1 2 3 4 5 6 
#
# 1 0.016964 -0.004181 -0.001976 0.000000 0.000000 0.000000
# 2 -0.004181 0.008400 -0.003161 0.000000 0.000000 0.000000
# 3 -0.001976 -0.003161 0.015576 0.000000 0.000000 0.000000
# 4 0.000000 0.000000 0.000000 0.011877 0.000000 0.000000
# 5 0.000000 0.000000 0.000000 0.000000 0.056085 0.000000
# 6 0.000000 0.000000 0.000000 0.000000 0.000000 0.050871
#
#
# Mechanical properties :
#
#
# Convention : Reuss Voigt Hill
#
# Bulk Modulus (GPa) = 44.83326 54.63001 49.73163
# Shear Modulus (GPa) = 26.90398 37.84918 32.37658
#
# Velocity S-wave (km/s) = 3.63676 4.31355 3.98953
# Velocity P-wave (km/s) = 6.29879 7.18784 6.75795
#
# Compressibility (1/GPa) = 0.02230487
#
# Stress axis : x y z
#
# Youngs Moduli (GPa) = 58.94695 119.04180 64.20032
#
# Poissons Ratio (x) = 0.49769 0.12688
# Poissons Ratio (y) = 0.24645 0.20293
# Poissons Ratio (z) = 0.11650 0.37628
#
# Static dielectric constant tensor:
#      x y z
#    x 3.489530 0.000000 0.000000 
#    y 0.000000 3.868930 0.000000 
#    z 0.000000 0.000000 3.653680 
# 
# 
# High freq. dielectric constant tensor:
#      x y z
#    x 1.769130 0.000000 0.000000 
#    y 0.000000 1.809040 0.000000 
#    z 0.000000 0.000000 1.783020 
# 
# From -- ./inp_files/20705.got.cif
#   From: 2010.03.12/outbox.cif.g09.slc.cpg/sg47_11_cif.got.tgz:20705.got - 2010.04.14 03:12:58.
