data_PCOD8198388
_publ_section_title
;
Structure prediction by ZEFSAII (Michael W. Deem and Ramdas Pophale) SiO2 
 PCOD8198388
Probable space group: P M M M
;
_chemical_formula_sum "Si O2"
_cell_formula_units_Z 52
_cell_length_a 8.412026
_cell_length_b 21.138354
_cell_length_c 14.592144
_cell_angle_alpha 90.000000
_cell_angle_beta 90.000000
_cell_angle_gamma 90.000000
_cell_volume 2594.722273
_symmetry_space_group_name_H-M "P M M M"
_symmetry_group_IT_number 47
_symmetry_cell_setting 'orthorhombic'
loop_
_space_group_symop_operation_xyz
x,y,z
-x,-y,z
x,-y,-z
-x,y,-z
-x,-y,-z
x,y,-z
-x,y,z
x,-y,z
loop_
_atom_site_type_symbol
_atom_site_label
_atom_site_fract_x
_atom_site_fract_y
_atom_site_fract_z
Si Si1 0.690920 0.000000 0.607674
Si Si2 0.684277 0.335984 0.648174
Si Si3 0.687395 0.432125 0.500000
Si Si4 0.812112 0.572303 0.000000
Si Si5 0.177974 0.792030 0.397698
Si Si6 0.679165 0.114912 0.271093
Si Si7 0.313330 0.806353 0.103832
Si Si8 0.187231 0.330644 0.154902
O O1 0.760288 0.941079 0.668362
O O2 0.500000 0.000000 0.603941
O O3 0.752065 0.000000 0.500000
O O4 0.500000 0.319823 0.630566
O O5 0.739579 0.397582 0.593117
O O6 0.794259 0.282074 0.605700
O O7 0.715403 0.345970 0.754568
O O8 0.772657 0.500000 0.500000
O O9 0.500000 0.439775 0.500000
O O10 0.755874 0.613737 0.086785
O O11 0.740843 0.500000 0.000000
O O12 0.000000 0.567096 0.000000
O O13 0.199649 0.818095 0.500000
O O14 0.310233 0.823092 0.333561
O O15 0.000000 0.807362 0.361950
O O16 0.500000 0.093544 0.253727
O O17 0.751570 0.137329 0.172128
O O18 0.500000 0.795716 0.123419
O O19 0.225950 0.739688 0.118638
O O20 0.282067 0.829397 0.000000
O O21 0.000000 0.333819 0.172882
#
# Coordination Sequence:
#
# PCOD8198388 Si02
#       8
#     4   8   4   4   8   8   8   8
#     4   9  18  34  56  84 116 151 197 239 273 332
#     4  11  21  35  56  81 109 144 184 229 282 337
#     4   9  20  38  57  77 107 148 189 228 277 341
#     4   9  20  38  57  79 111 150 189 230 284 348
#     4  11  22  34  52  81 114 143 181 234 282 329
#     4  10  20  35  57  83 112 151 191 232 281 332
#     4  10  20  34  54  82 114 146 185 234 286 335
#     4  11  21  35  57  83 110 144 187 234 284 337
#
# _framework density 20.040680999999999
#
# number of rings (size 3 to 8) (size 9 to 14) (size 15 to 20)
#    0.000    1.769    3.077    1.846    0.000    2.154 
#    0.000    0.769    0.000   10.154    0.000    0.000 
#    0.000    2.462    0.000    0.000    0.000    0.000 
#
# Total GULP energy -644303.112241 kJ/mol
# GULP energy per Si atom -12390.444466 kJ/mol
# Density = 1.999507 g / cm^3
# Si number density = 20.040681 Si / 1000 Ang^3
#
#
#
# Elastic Constant Matrix: (Units=GPa)
#
#
# Indices 1 2 3 4 5 6 
#
# 1 24.5518 4.3288 14.6062 0.0000 0.0000 0.0000
# 2 4.3288 126.8029 70.8982 0.0000 0.0000 0.0000
# 3 14.6062 70.8982 162.0354 0.0000 0.0000 0.0000
# 4 0.0000 0.0000 0.0000 35.3544 0.0000 0.0000
# 5 0.0000 0.0000 0.0000 0.0000 17.6776 0.0000
# 6 0.0000 0.0000 0.0000 0.0000 0.0000 15.8040
#
#
#
# Elastic Compliance Matrix: (Units=1/GPa)
#
#
# Indices 1 2 3 4 5 6 
#
# 1 0.043121 0.000928 -0.004293 0.000000 0.000000 0.000000
# 2 0.000928 0.010460 -0.004661 0.000000 0.000000 0.000000
# 3 -0.004293 -0.004661 0.008598 0.000000 0.000000 0.000000
# 4 0.000000 0.000000 0.000000 0.028285 0.000000 0.000000
# 5 0.000000 0.000000 0.000000 0.000000 0.056569 0.000000
# 6 0.000000 0.000000 0.000000 0.000000 0.000000 0.063275
#
#
# Mechanical properties :
#
#
# Convention : Reuss Voigt Hill
#
# Bulk Modulus (GPa) = 21.67888 54.78406 38.23147
# Shear Modulus (GPa) = 20.68385 28.67099 24.67742
#
# Velocity S-wave (km/s) = 3.21611 3.78648 3.51289
# Velocity P-wave (km/s) = 4.96307 6.82000 5.96424
#
# Compressibility (1/GPa) = 0.04612784
#
# Stress axis : x y z
#
# Youngs Moduli (GPa) = 23.19077 95.59859 116.30983
#
# Poissons Ratio (x) = -0.08875 0.49934
# Poissons Ratio (y) = -0.02153 0.54207
# Poissons Ratio (z) = 0.09956 0.44555
#
# Static dielectric constant tensor:
#      x y z
#    x 3.303210 0.000000 0.000000 
#    y 0.000000 3.815220 0.000000 
#    z 0.000000 0.000000 3.940790 
# 
# 
# High freq. dielectric constant tensor:
#      x y z
#    x 1.751710 0.000000 0.000000 
#    y 0.000000 1.773090 0.000000 
#    z 0.000000 0.000000 1.797760 
# 
# From -- ./inp_files/21531.got.cif
#   From: 2010.03.12/outbox.cif.g09.slc.cpg/sg47_11_cif.got.tgz:21531.got - 2010.04.14 03:12:58.
