data_PCOD8198809
_publ_section_title
;
Structure prediction by ZEFSAII (Michael W. Deem and Ramdas Pophale) SiO2 
 PCOD8198809
Probable space group: P M M M
;
_chemical_formula_sum "Si O2"
_cell_formula_units_Z 40
_cell_length_a 20.353890
_cell_length_b 11.810390
_cell_length_c 8.899833
_cell_angle_alpha 90.000000
_cell_angle_beta 90.000000
_cell_angle_gamma 90.000000
_cell_volume 2139.407528
_symmetry_space_group_name_H-M "P M M M"
_symmetry_group_IT_number 47
_symmetry_cell_setting 'orthorhombic'
loop_
_space_group_symop_operation_xyz
x,y,z
-x,-y,z
x,-y,-z
-x,y,-z
-x,-y,-z
x,y,-z
-x,y,z
x,-y,z
loop_
_atom_site_type_symbol
_atom_site_label
_atom_site_fract_x
_atom_site_fract_y
_atom_site_fract_z
Si Si1 0.100100 0.500000 0.677770
Si Si2 0.927850 0.746541 0.324378
Si Si3 0.575318 0.371154 0.824262
Si Si4 0.692548 0.730575 0.322144
Si Si5 0.244662 0.500000 0.321720
Si Si6 0.194965 0.131647 0.174869
O O1 0.103065 0.500000 0.500000
O O2 0.065261 0.615707 0.729960
O O3 0.172469 0.500000 0.747775
O O4 0.909226 0.753037 0.500000
O O5 0.870545 0.808679 0.235481
O O6 0.000000 0.802097 0.294681
O O7 0.500000 0.341943 0.788417
O O8 0.590730 0.500000 0.768377
O O9 0.617894 0.274470 0.738793
O O10 0.589696 0.362311 0.000000
O O11 0.692687 0.744908 0.500000
O O12 0.720784 0.611999 0.262129
O O13 0.737701 0.829029 0.254018
O O14 0.243552 0.500000 0.500000
O O15 0.186872 0.000000 0.208901
O O16 0.201199 0.158267 0.000000
#
# Coordination Sequence:
#
# PCOD8198809 Si02
#       6
#     4   8   8   8   4   8
#     4   9  15  30  53  81 115 141 167 209 268 332
#     4  10  20  35  58  85 111 141 178 222 274 332
#     4   9  18  32  51  81 122 160 187 213 256 319
#     4  11  20  34  57  84 113 143 183 231 277 324
#     4   9  16  27  49  81 111 139 170 215 272 325
#     4  11  25  42  57  75 103 143 190 235 282 334
#
# _framework density 18.696764999999999
#
# number of rings (size 3 to 8) (size 9 to 14) (size 15 to 20)
#    0.000    2.000    3.000    2.100    0.000    4.000 
#    0.000    4.500    0.000    1.800    0.000    4.200 
#    0.000    0.000    0.000    0.000    0.000    0.000 
#
# Total GULP energy -495748.003134 kJ/mol
# GULP energy per Si atom -12393.700078 kJ/mol
# Density = 1.865421 g / cm^3
# Si number density = 18.696765 Si / 1000 Ang^3
#
#
#
# Elastic Constant Matrix: (Units=GPa)
#
#
# Indices 1 2 3 4 5 6 
#
# 1 139.7614 52.5739 57.2453 0.0000 0.0000 0.0000
# 2 52.5739 86.5337 49.8973 0.0000 0.0000 0.0000
# 3 57.2453 49.8973 79.8832 0.0000 0.0000 0.0000
# 4 0.0000 0.0000 0.0000 23.5140 0.0000 0.0000
# 5 0.0000 0.0000 0.0000 0.0000 32.8201 0.0000
# 6 0.0000 0.0000 0.0000 0.0000 0.0000 -10.6663
#
#
#
# Elastic Compliance Matrix: (Units=1/GPa)
#
#
# Indices 1 2 3 4 5 6 
#
# 1 0.010680 -0.003244 -0.005627 0.000000 0.000000 0.000000
# 2 -0.003244 0.019047 -0.009572 0.000000 0.000000 0.000000
# 3 -0.005627 -0.009572 0.022530 0.000000 0.000000 0.000000
# 4 0.000000 0.000000 0.000000 0.042528 0.000000 0.000000
# 5 0.000000 0.000000 0.000000 0.000000 0.030469 0.000000
# 6 0.000000 0.000000 0.000000 0.000000 0.000000 -0.093753
#
#
# Mechanical properties :
#
#
# Convention : Reuss Voigt Hill
#
# Bulk Modulus (GPa) = 65.06354 69.51238 67.28796
# Shear Modulus (GPa) = 68.01620 18.89768 43.45694
#
# Velocity S-wave (km/s) = 6.03801 3.18267 4.82633
# Velocity P-wave (km/s) = 9.13701 7.12498 8.19300
#
# Compressibility (1/GPa) = 0.01536959
#
# Stress axis : x y z
#
# Youngs Moduli (GPa) = 93.63079 52.50227 44.38504
#
# Poissons Ratio (x) = 0.17032 0.24977
# Poissons Ratio (y) = 0.30374 0.42488
# Poissons Ratio (z) = 0.52689 0.50258
#
# Static dielectric constant tensor:
#      x y z
#    x 3.618440 0.000000 0.000000 
#    y 0.000000 3.361630 0.000000 
#    z 0.000000 0.000000 3.191620 
# 
# 
# High freq. dielectric constant tensor:
#      x y z
#    x 1.742250 0.000000 0.000000 
#    y 0.000000 1.700790 0.000000 
#    z 0.000000 0.000000 1.705960 
# 
# From -- ./inp_files/10681.got.cif
#   From: 2010.03.12/outbox.cif.g09.slc.cpg/sg47_6_cif.got.tgz:10681.got - 2010.04.14 03:12:58.
