data_PCOD8198810
_publ_section_title
;
Structure prediction by ZEFSAII (Michael W. Deem and Ramdas Pophale) SiO2 
 PCOD8198810
Probable space group: P M M M
;
_chemical_formula_sum "Si O2"
_cell_formula_units_Z 64
_cell_length_a 15.351557
_cell_length_b 23.788020
_cell_length_c 8.971647
_cell_angle_alpha 90.000000
_cell_angle_beta 90.000000
_cell_angle_gamma 90.000000
_cell_volume 3276.294267
_symmetry_space_group_name_H-M "P M M M"
_symmetry_group_IT_number 47
_symmetry_cell_setting 'orthorhombic'
loop_
_space_group_symop_operation_xyz
x,y,z
-x,-y,z
x,-y,-z
-x,y,-z
-x,-y,-z
x,y,-z
-x,y,z
x,-y,z
loop_
_atom_site_type_symbol
_atom_site_label
_atom_site_fract_x
_atom_site_fract_y
_atom_site_fract_z
Si Si1 0.248045 0.752997 0.823048
Si Si2 0.250487 0.632487 0.675657
Si Si3 0.595692 0.170401 0.828872
Si Si4 0.351440 0.937679 0.674660
Si Si5 0.845947 0.060474 0.323501
Si Si6 0.099811 0.434649 0.828042
Si Si7 0.097852 0.179598 0.672550
Si Si8 0.599405 0.434198 0.170826
O O1 0.254488 0.692307 0.752545
O O2 0.330502 0.788704 0.761649
O O3 0.158982 0.782266 0.773347
O O4 0.249350 0.747093 0.000000
O O5 0.248615 0.640437 0.500000
O O6 0.162649 0.601017 0.723775
O O7 0.336326 0.598197 0.720055
O O8 0.500000 0.198324 0.807943
O O9 0.591627 0.109745 0.752198
O O10 0.617730 0.159903 0.000000
O O11 0.357052 0.927448 0.500000
O O12 0.252635 0.931507 0.731970
O O13 0.387071 0.000000 0.714972
O O14 0.848137 0.057056 0.500000
O O15 0.900286 0.114666 0.269983
O O16 0.882376 0.000000 0.261700
O O17 0.115707 0.500000 0.794607
O O18 0.000000 0.418350 0.792004
O O19 0.121333 0.421424 0.000000
O O20 0.127992 0.183182 0.500000
O O21 0.000000 0.202296 0.691546
O O22 0.500000 0.417082 0.208079
O O23 0.613046 0.500000 0.196835
O O24 0.621348 0.418563 0.000000
#
# Coordination Sequence:
#
# PCOD8198810 Si02
#       8
#     8   8   8   8   8   8   8   8
#     4  11  24  42  60  77 105 149 196 241 286 338
#     4  12  25  38  58  88 121 155 193 241 292 341
#     4  10  22  39  58  80 105 138 184 236 287 335
#     4   9  17  31  54  82 111 143 178 219 271 335
#     4   8  14  27  50  80 112 142 173 215 270 335
#     4   9  19  38  64  92 122 157 196 235 277 333
#     4  10  20  35  58  85 112 143 182 232 286 338
#     4   9  19  38  64  92 123 160 198 233 273 329
#
# _framework density 19.534265000000001
#
# number of rings (size 3 to 8) (size 9 to 14) (size 15 to 20)
#    0.000    2.250    1.250    3.375    0.000    5.250 
#    0.000    5.000    0.000    0.375    0.000    0.875 
#    0.000    0.000    0.000    0.000    0.000    0.000 
#
# Total GULP energy -793432.232761 kJ/mol
# GULP energy per Si atom -12397.378637 kJ/mol
# Density = 1.948980 g / cm^3
# Si number density = 19.534265 Si / 1000 Ang^3
#
#
#
# Elastic Constant Matrix: (Units=GPa)
#
#
# Indices 1 2 3 4 5 6 
#
# 1 115.7203 60.3377 44.8976 0.0000 0.0000 0.0000
# 2 60.3377 110.5021 46.4954 0.0000 0.0000 0.0000
# 3 44.8976 46.4954 73.2393 0.0000 0.0000 0.0000
# 4 0.0000 0.0000 0.0000 22.8288 0.0000 0.0000
# 5 0.0000 0.0000 0.0000 0.0000 25.3287 0.0000
# 6 0.0000 0.0000 0.0000 0.0000 0.0000 -23.3166
#
#
#
# Elastic Compliance Matrix: (Units=1/GPa)
#
#
# Indices 1 2 3 4 5 6 
#
# 1 0.013213 -0.005194 -0.004803 0.000000 0.000000 0.000000
# 2 -0.005194 0.014390 -0.005951 0.000000 0.000000 0.000000
# 3 -0.004803 -0.005951 0.020376 0.000000 0.000000 0.000000
# 4 0.000000 0.000000 0.000000 0.043804 0.000000 0.000000
# 5 0.000000 0.000000 0.000000 0.000000 0.039481 0.000000
# 6 0.000000 0.000000 0.000000 0.000000 0.000000 -0.042888
#
#
# Mechanical properties :
#
#
# Convention : Reuss Voigt Hill
#
# Bulk Modulus (GPa) = 62.17611 66.99145 64.58378
# Shear Modulus (GPa) = 39.79856 14.81691 27.30773
#
# Velocity S-wave (km/s) = 4.51862 2.75709 3.74296
# Velocity P-wave (km/s) = 7.68910 6.67115 7.19814
#
# Compressibility (1/GPa) = 0.01608335
#
# Stress axis : x y z
#
# Youngs Moduli (GPa) = 75.68280 69.49410 49.07734
#
# Poissons Ratio (x) = 0.36095 0.23570
# Poissons Ratio (y) = 0.39310 0.29207
# Poissons Ratio (z) = 0.36347 0.41357
#
# Static dielectric constant tensor:
#      x y z
#    x 3.630670 0.000000 0.000000 
#    y 0.000000 3.204940 0.000000 
#    z 0.000000 0.000000 3.303060 
# 
# 
# High freq. dielectric constant tensor:
#      x y z
#    x 1.767860 0.000000 0.000000 
#    y 0.000000 1.764040 0.000000 
#    z 0.000000 0.000000 1.734830 
# 
# From -- ./inp_files/7826.got.cif
#   From: 2010.03.12/outbox.cif.g09.slc.cpg/sg47_4_cif.got.tgz:7826.got - 2010.04.14 03:12:58.
