data_PCOD8198372
_publ_section_title
;
Structure prediction by ZEFSAII (Michael W. Deem and Ramdas Pophale) SiO2 
 PCOD8198372
Probable space group: P M M M
;
_chemical_formula_sum "Si O2"
_cell_formula_units_Z 52
_cell_length_a 20.665783
_cell_length_b 14.647130
_cell_length_c 9.201715
_cell_angle_alpha 90.000000
_cell_angle_beta 90.000000
_cell_angle_gamma 90.000000
_cell_volume 2785.307694
_symmetry_space_group_name_H-M "P M M M"
_symmetry_group_IT_number 47
_symmetry_cell_setting 'orthorhombic'
loop_
_space_group_symop_operation_xyz
x,y,z
-x,-y,z
x,-y,-z
-x,y,-z
-x,-y,-z
x,y,-z
-x,y,z
x,-y,z
loop_
_atom_site_type_symbol
_atom_site_label
_atom_site_fract_x
_atom_site_fract_y
_atom_site_fract_z
Si Si1 0.428452 0.331197 0.837812
Si Si2 0.292897 0.740438 0.833006
Si Si3 0.764282 0.899121 0.664745
Si Si4 0.897649 0.898712 0.170474
Si Si5 0.929287 0.277569 0.333653
Si Si6 0.576509 0.500000 0.657352
Si Si7 0.803458 0.392843 0.328155
O O1 0.500000 0.294397 0.786876
O O2 0.371085 0.259107 0.828671
O O3 0.400295 0.411150 0.739328
O O4 0.435581 0.369938 0.000000
O O5 0.284280 0.831479 0.741721
O O6 0.255311 0.655548 0.758157
O O7 0.268769 0.746652 0.000000
O O8 0.779082 0.867020 0.500000
O O9 0.828147 0.896763 0.758374
O O10 0.733390 0.000000 0.665249
O O11 0.936546 0.815811 0.241751
O O12 0.929055 0.000000 0.197546
O O13 0.891907 0.879838 0.000000
O O14 0.916276 0.249938 0.500000
O O15 0.871551 0.344759 0.281105
O O16 0.000000 0.326592 0.318181
O O17 0.500000 0.500000 0.646324
O O18 0.609879 0.500000 0.500000
O O19 0.791816 0.381900 0.500000
O O20 0.806205 0.500000 0.285059
#
# Coordination Sequence:
#
# PCOD8198372 Si02
#       7
#     8   8   8   8   8   4   8
#     4   9  19  35  52  73 107 149 186 221 269 327
#     4  11  22  35  57  85 111 143 183 228 273 322
#     4  10  20  35  57  83 111 143 178 220 273 331
#     4  10  20  34  54  81 112 144 178 220 273 330
#     4  10  21  37  57  80 108 146 189 229 272 325
#     4   9  17  29  47  73 103 137 180 225 266 313
#     4  10  22  39  57  79 109 146 186 230 277 323
#
# _framework density 18.669391000000001
#
# number of rings (size 3 to 8) (size 9 to 14) (size 15 to 20)
#    0.000    2.077    1.538    1.615    1.077    5.231 
#    0.000    3.077    0.000    0.462    0.000    5.385 
#    0.000    0.000    0.000    0.000    0.000    0.000 
#
# Total GULP energy -644197.430734 kJ/mol
# GULP energy per Si atom -12388.412130 kJ/mol
# Density = 1.862690 g / cm^3
# Si number density = 18.669391 Si / 1000 Ang^3
#
#
#
# Elastic Constant Matrix: (Units=GPa)
#
#
# Indices 1 2 3 4 5 6 
#
# 1 99.6123 40.4264 23.9361 0.0000 0.0000 0.0000
# 2 40.4264 100.9039 38.6110 0.0000 0.0000 0.0000
# 3 23.9361 38.6110 69.0510 0.0000 0.0000 0.0000
# 4 0.0000 0.0000 0.0000 29.8973 0.0000 0.0000
# 5 0.0000 0.0000 0.0000 0.0000 21.5442 0.0000
# 6 0.0000 0.0000 0.0000 0.0000 0.0000 25.5630
#
#
#
# Elastic Compliance Matrix: (Units=1/GPa)
#
#
# Indices 1 2 3 4 5 6 
#
# 1 0.012181 -0.004153 -0.001900 0.000000 0.000000 0.000000
# 2 -0.004153 0.014024 -0.006402 0.000000 0.000000 0.000000
# 3 -0.001900 -0.006402 0.018721 0.000000 0.000000 0.000000
# 4 0.000000 0.000000 0.000000 0.033448 0.000000 0.000000
# 5 0.000000 0.000000 0.000000 0.000000 0.046416 0.000000
# 6 0.000000 0.000000 0.000000 0.000000 0.000000 0.039119
#
#
# Mechanical properties :
#
#
# Convention : Reuss Voigt Hill
#
# Bulk Modulus (GPa) = 49.96301 52.83490 51.39896
# Shear Modulus (GPa) = 25.57657 26.50715 26.04186
#
# Velocity S-wave (km/s) = 3.70533 3.77214 3.73888
# Velocity P-wave (km/s) = 6.71759 6.87995 6.79926
#
# Compressibility (1/GPa) = 0.02001481
#
# Stress axis : x y z
#
# Youngs Moduli (GPa) = 82.09502 71.30567 53.41703
#
# Poissons Ratio (x) = 0.29614 0.10150
# Poissons Ratio (y) = 0.34095 0.34198
# Poissons Ratio (z) = 0.15600 0.45651
#
# Static dielectric constant tensor:
#      x y z
#    x 3.475940 0.000000 0.000000 
#    y 0.000000 3.592490 0.000000 
#    z 0.000000 0.000000 3.656900 
# 
# 
# High freq. dielectric constant tensor:
#      x y z
#    x 1.720910 0.000000 0.000000 
#    y 0.000000 1.709690 0.000000 
#    z 0.000000 0.000000 1.733400 
# 
# From -- ./inp_files/11063.got.cif
#   From: 2010.03.12/outbox.cif.g09.slc.cpg/sg47_6_cif.got.tgz:11063.got - 2010.04.14 03:12:58.
