data_PCOD8198683
_publ_section_title
;
Structure prediction by ZEFSAII (Michael W. Deem and Ramdas Pophale) SiO2 
 PCOD8198683
Probable space group: P M M M
;
_chemical_formula_sum "Si O2"
_cell_formula_units_Z 52
_cell_length_a 19.657530
_cell_length_b 9.181849
_cell_length_c 14.843723
_cell_angle_alpha 90.000000
_cell_angle_beta 90.000000
_cell_angle_gamma 90.000000
_cell_volume 2679.180261
_symmetry_space_group_name_H-M "P M M M"
_symmetry_group_IT_number 47
_symmetry_cell_setting 'orthorhombic'
loop_
_space_group_symop_operation_xyz
x,y,z
-x,-y,z
x,-y,-z
-x,y,-z
-x,-y,-z
x,y,-z
-x,y,z
x,-y,z
loop_
_atom_site_type_symbol
_atom_site_label
_atom_site_fract_x
_atom_site_fract_y
_atom_site_fract_z
Si Si1 0.173718 0.831973 0.633540
Si Si2 0.126798 0.163035 0.166430
Si Si3 0.628866 0.329503 0.214735
Si Si4 0.000000 0.671631 0.101656
Si Si5 0.267949 0.834402 0.099652
Si Si6 0.079812 0.328617 0.500000
Si Si7 0.500000 0.326065 0.895568
Si Si8 0.687354 0.668079 0.600109
O O1 0.163085 0.815055 0.738722
O O2 0.112742 0.743889 0.587609
O O3 0.246158 0.766844 0.606443
O O4 0.171732 0.000000 0.602612
O O5 0.186841 0.193233 0.095215
O O6 0.066425 0.275880 0.153812
O O7 0.096969 0.000000 0.155993
O O8 0.626340 0.500000 0.201082
O O9 0.697627 0.272251 0.170288
O O10 0.564306 0.263028 0.161010
O O11 0.632150 0.289595 0.321883
O O12 0.000000 0.500000 0.102285
O O13 0.000000 0.733707 0.000000
O O14 0.282514 0.000000 0.130355
O O15 0.297318 0.804510 0.000000
O O16 0.094826 0.500000 0.500000
O O17 0.000000 0.294936 0.500000
O O18 0.500000 0.500000 0.896026
O O19 0.500000 0.269491 0.000000
O O20 0.654828 0.690352 0.500000
O O21 0.709367 0.500000 0.613702
#
# Coordination Sequence:
#
# PCOD8198683 Si02
#       8
#     8   8   8   4   8   4   4   8
#     4  11  22  37  59  84 109 143 190 238 283 340
#     4  10  22  39  58  80 108 145 188 232 288 348
#     4  10  20  35  57  84 115 153 196 239 285 344
#     4  11  25  41  57  80 109 144 189 237 286 347
#     4  10  20  35  56  82 112 144 183 233 285 340
#     4  11  25  41  57  81 115 152 187 232 295 353
#     4   9  18  34  56  84 120 159 197 239 291 348
#     4  10  20  35  56  83 114 148 188 236 293 346
#
# _framework density 19.408920999999999
#
# number of rings (size 3 to 8) (size 9 to 14) (size 15 to 20)
#    0.000    1.769    2.308    1.846    1.077    4.615 
#    0.000    0.769    0.000    3.692    0.000    0.000 
#    0.000    2.462    0.000    0.000    0.000    0.000 
#
# Total GULP energy -644671.698940 kJ/mol
# GULP energy per Si atom -12397.532672 kJ/mol
# Density = 1.936475 g / cm^3
# Si number density = 19.408921 Si / 1000 Ang^3
#
#
#
# Elastic Constant Matrix: (Units=GPa)
#
#
# Indices 1 2 3 4 5 6 
#
# 1 95.0889 33.0726 56.3586 0.0000 0.0000 0.0000
# 2 33.0726 53.7372 36.0894 0.0000 0.0000 0.0000
# 3 56.3586 36.0894 133.6430 0.0000 0.0000 0.0000
# 4 0.0000 0.0000 0.0000 24.6317 0.0000 0.0000
# 5 0.0000 0.0000 0.0000 0.0000 33.5170 0.0000
# 6 0.0000 0.0000 0.0000 0.0000 0.0000 14.7924
#
#
#
# Elastic Compliance Matrix: (Units=1/GPa)
#
#
# Indices 1 2 3 4 5 6 
#
# 1 0.015606 -0.006334 -0.004871 0.000000 0.000000 0.000000
# 2 -0.006334 0.025302 -0.004162 0.000000 0.000000 0.000000
# 3 -0.004871 -0.004162 0.010661 0.000000 0.000000 0.000000
# 4 0.000000 0.000000 0.000000 0.040598 0.000000 0.000000
# 5 0.000000 0.000000 0.000000 0.000000 0.029836 0.000000
# 6 0.000000 0.000000 0.000000 0.000000 0.000000 0.067602
#
#
# Mechanical properties :
#
#
# Convention : Reuss Voigt Hill
#
# Bulk Modulus (GPa) = 47.99298 59.27892 53.63595
# Shear Modulus (GPa) = 21.99897 25.05144 23.52521
#
# Velocity S-wave (km/s) = 3.37032 3.59655 3.48527
# Velocity P-wave (km/s) = 6.31873 6.91776 6.62502
#
# Compressibility (1/GPa) = 0.02083638
#
# Stress axis : x y z
#
# Youngs Moduli (GPa) = 64.07644 39.52248 93.80324
#
# Poissons Ratio (x) = 0.25032 0.45692
# Poissons Ratio (y) = 0.40584 0.39038
# Poissons Ratio (z) = 0.31212 0.16448
#
# Static dielectric constant tensor:
#      x y z
#    x 3.433330 0.000000 0.000000 
#    y 0.000000 3.432560 0.000000 
#    z 0.000000 0.000000 3.928320 
# 
# 
# High freq. dielectric constant tensor:
#      x y z
#    x 1.738980 0.000000 0.000000 
#    y 0.000000 1.743470 0.000000 
#    z 0.000000 0.000000 1.775390 
# 
# From -- ./inp_files/25113.got.cif
#   From: 2010.03.12/outbox.cif.g09.slc.cpg/sg47_13_cif.got.tgz:25113.got - 2010.04.14 03:12:58.
