data_PCOD8198670
_publ_section_title
;
Structure prediction by ZEFSAII (Michael W. Deem and Ramdas Pophale) SiO2 
 PCOD8198670
Probable space group: P M M M
;
_chemical_formula_sum "Si O2"
_cell_formula_units_Z 48
_cell_length_a 8.971012
_cell_length_b 29.479938
_cell_length_c 10.094582
_cell_angle_alpha 90.000000
_cell_angle_beta 90.000000
_cell_angle_gamma 90.000000
_cell_volume 2669.662393
_symmetry_space_group_name_H-M "P M M M"
_symmetry_group_IT_number 47
_symmetry_cell_setting 'orthorhombic'
loop_
_space_group_symop_operation_xyz
x,y,z
-x,-y,z
x,-y,-z
-x,y,-z
-x,-y,-z
x,y,-z
-x,y,z
x,-y,z
loop_
_atom_site_type_symbol
_atom_site_label
_atom_site_fract_x
_atom_site_fract_y
_atom_site_fract_z
Si Si1 0.824240 0.446929 0.500000
Si Si2 0.324324 0.138766 0.349544
Si Si3 0.676526 0.550297 0.000000
Si Si4 0.825229 0.689184 0.847095
Si Si5 0.832297 0.950603 0.657241
Si Si6 0.325993 0.783107 0.848122
Si Si7 0.677376 0.603291 0.256930
O O1 0.784396 0.500000 0.500000
O O2 0.750900 0.423501 0.624813
O O3 0.000000 0.438636 0.500000
O O4 0.265534 0.147818 0.500000
O O5 0.500000 0.136566 0.349265
O O6 0.267506 0.090841 0.290601
O O7 0.267888 0.177925 0.250882
O O8 0.733029 0.576903 0.872459
O O9 0.746849 0.500000 0.000000
O O10 0.500000 0.547219 0.000000
O O11 0.767707 0.738907 0.810213
O O12 0.738870 0.654335 0.752011
O O13 0.000000 0.686233 0.818564
O O14 0.787250 0.678240 0.000000
O O15 0.828560 0.950714 0.500000
O O16 0.000000 0.943112 0.708671
O O17 0.773170 0.000000 0.708094
O O18 0.500000 0.772504 0.826435
O O19 0.295591 0.798001 0.000000
O O20 0.500000 0.604418 0.273462
#
# Coordination Sequence:
#
# PCOD8198670 Si02
#       7
#     4   8   4   8   8   8   8
#     4  11  25  43  59  81 117 153 181 215 264 319
#     4   9  17  29  46  71  99 124 158 210 259 297
#     4   9  18  32  55  87 113 133 171 223 262 301
#     4  10  20  35  56  81 109 138 174 220 267 315
#     4   8  14  25  42  65  94 128 163 199 243 298
#     4   9  18  33  52  71  96 133 173 208 251 310
#     4  11  21  37  61  85 111 144 182 222 264 313
#
# _framework density 17.979800999999998
#
# number of rings (size 3 to 8) (size 9 to 14) (size 15 to 20)
#    0.000    2.500    0.833    2.250    0.000    3.000 
#    1.500    1.667    0.000    2.500    0.000    3.500 
#    0.000    0.000    0.000    0.000    0.000    0.000 
#
# Total GULP energy -595094.416484 kJ/mol
# GULP energy per Si atom -12397.800343 kJ/mol
# Density = 1.793888 g / cm^3
# Si number density = 17.979801 Si / 1000 Ang^3
#
#
#
# Elastic Constant Matrix: (Units=GPa)
#
#
# Indices 1 2 3 4 5 6 
#
# 1 64.9267 61.4001 41.4593 0.0000 0.0000 0.0000
# 2 61.4001 170.2108 77.0923 0.0000 0.0000 0.0000
# 3 41.4593 77.0923 101.0920 0.0000 0.0000 0.0000
# 4 0.0000 0.0000 0.0000 30.2393 0.0000 0.0000
# 5 0.0000 0.0000 0.0000 0.0000 20.8897 0.0000
# 6 0.0000 0.0000 0.0000 0.0000 0.0000 33.2235
#
#
#
# Elastic Compliance Matrix: (Units=1/GPa)
#
#
# Indices 1 2 3 4 5 6 
#
# 1 0.025024 -0.006689 -0.005162 0.000000 0.000000 0.000000
# 2 -0.006689 0.010763 -0.005465 0.000000 0.000000 0.000000
# 3 -0.005162 -0.005465 0.016176 0.000000 0.000000 0.000000
# 4 0.000000 0.000000 0.000000 0.033070 0.000000 0.000000
# 5 0.000000 0.000000 0.000000 0.000000 0.047871 0.000000
# 6 0.000000 0.000000 0.000000 0.000000 0.000000 0.030099
#
#
# Mechanical properties :
#
#
# Convention : Reuss Voigt Hill
#
# Bulk Modulus (GPa) = 57.69525 77.34808 67.52166
# Shear Modulus (GPa) = 24.58096 27.28903 25.93499
#
# Velocity S-wave (km/s) = 3.70150 3.90007 3.80208
# Velocity P-wave (km/s) = 7.10118 7.96201 7.54388
#
# Compressibility (1/GPa) = 0.01733245
#
# Stress axis : x y z
#
# Youngs Moduli (GPa) = 39.96236 92.91081 61.81971
#
# Poissons Ratio (x) = 0.62148 0.31909
# Poissons Ratio (y) = 0.26731 0.33782
# Poissons Ratio (z) = 0.20627 0.50772
#
# Static dielectric constant tensor:
#      x y z
#    x 3.239990 0.000000 0.000000 
#    y 0.000000 3.645570 0.000000 
#    z 0.000000 0.000000 3.121660 
# 
# 
# High freq. dielectric constant tensor:
#      x y z
#    x 1.689290 0.000000 0.000000 
#    y 0.000000 1.710520 0.000000 
#    z 0.000000 0.000000 1.670900 
# 
# From -- ./inp_files/2724.got.cif
#   From: 2010.03.12/outbox.cif.g09.slc.cpg/sg47_2_cif.got.tgz:2724.got - 2010.04.14 03:12:58.
