data_PCOD8198624
_publ_section_title
;
Structure prediction by ZEFSAII (Michael W. Deem and Ramdas Pophale) SiO2 
 PCOD8198624
Probable space group: P M M M
;
_chemical_formula_sum "Si O2"
_cell_formula_units_Z 52
_cell_length_a 27.023774
_cell_length_b 8.619185
_cell_length_c 12.263789
_cell_angle_alpha 90.000000
_cell_angle_beta 90.000000
_cell_angle_gamma 90.000000
_cell_volume 2856.517391
_symmetry_space_group_name_H-M "P M M M"
_symmetry_group_IT_number 47
_symmetry_cell_setting 'orthorhombic'
loop_
_space_group_symop_operation_xyz
x,y,z
-x,-y,z
x,-y,-z
-x,y,-z
-x,-y,-z
x,y,-z
-x,y,z
x,-y,z
loop_
_atom_site_type_symbol
_atom_site_label
_atom_site_fract_x
_atom_site_fract_y
_atom_site_fract_z
Si Si1 0.326364 0.818645 0.124990
Si Si2 0.942202 0.683160 0.000000
Si Si3 0.054043 0.184179 0.619995
Si Si4 0.122209 0.183615 0.191644
Si Si5 0.500000 0.816687 0.124090
Si Si6 0.222436 0.676604 0.874014
Si Si7 0.443820 0.316058 0.500000
Si Si8 0.411511 0.682720 0.736776
O O1 0.269681 0.781851 0.153230
O O2 0.358581 0.726150 0.213221
O O3 0.336499 0.000000 0.138616
O O4 0.338423 0.766271 0.000000
O O5 0.915722 0.756588 0.102752
O O6 0.934190 0.500000 0.000000
O O7 0.000000 0.728458 0.000000
O O8 0.064639 0.250950 0.500000
O O9 0.098289 0.241056 0.695807
O O10 0.000000 0.243693 0.660898
O O11 0.053006 0.000000 0.618092
O O12 0.175840 0.261057 0.191927
O O13 0.128409 0.000000 0.179892
O O14 0.548135 0.760546 0.186685
O O15 0.500000 0.000000 0.121509
O O16 0.500000 0.751717 0.000000
O O17 0.234411 0.500000 0.841084
O O18 0.207935 0.689896 0.000000
O O19 0.444809 0.500000 0.500000
O O20 0.500000 0.251295 0.500000
O O21 0.416338 0.257663 0.389213
O O22 0.419714 0.500000 0.740277
#
# Coordination Sequence:
#
# PCOD8198624 Si02
#       8
#     8   4   8   8   4   8   4   8
#     4  10  21  37  57  82 113 142 176 224 275 320
#     4  11  23  35  47  71 111 151 181 216 267 324
#     4   8  15  29  49  74 103 134 170 214 264 315
#     4  11  20  31  53  80 106 137 177 222 269 320
#     4  11  23  36  51  78 118 153 182 223 274 319
#     4  10  20  35  55  78 107 143 181 217 264 325
#     4   9  18  36  58  82 112 148 186 226 267 316
#     4  11  21  36  59  83 110 146 187 226 270 324
#
# _framework density 18.203986
#
# number of rings (size 3 to 8) (size 9 to 14) (size 15 to 20)
#    0.000    1.923    1.538    3.692    0.000    5.231 
#    0.000    1.923    1.692    1.846    0.000    5.385 
#    0.000    0.000    0.000    0.000    0.000    0.000 
#
# Total GULP energy -644690.746429 kJ/mol
# GULP energy per Si atom -12397.898970 kJ/mol
# Density = 1.816255 g / cm^3
# Si number density = 18.203986 Si / 1000 Ang^3
#
#
#
# Elastic Constant Matrix: (Units=GPa)
#
#
# Indices 1 2 3 4 5 6 
#
# 1 113.5197 15.3498 69.0981 0.0000 0.0000 0.0000
# 2 15.3498 46.3599 25.9346 0.0000 0.0000 0.0000
# 3 69.0981 25.9346 131.2306 0.0000 0.0000 0.0000
# 4 0.0000 0.0000 0.0000 -3.2049 0.0000 0.0000
# 5 0.0000 0.0000 0.0000 0.0000 34.4534 0.0000
# 6 0.0000 0.0000 0.0000 0.0000 0.0000 33.8816
#
#
#
# Elastic Compliance Matrix: (Units=1/GPa)
#
#
# Indices 1 2 3 4 5 6 
#
# 1 0.012976 -0.000533 -0.006727 0.000000 0.000000 0.000000
# 2 -0.000533 0.024273 -0.004516 0.000000 0.000000 0.000000
# 3 -0.006727 -0.004516 0.012055 0.000000 0.000000 0.000000
# 4 0.000000 0.000000 0.000000 -0.312022 0.000000 0.000000
# 5 0.000000 0.000000 0.000000 0.000000 0.029025 0.000000
# 6 0.000000 0.000000 0.000000 0.000000 0.000000 0.029515
#
#
# Mechanical properties :
#
#
# Convention : Reuss Voigt Hill
#
# Bulk Modulus (GPa) = 38.83326 56.87500 47.85413
# Shear Modulus (GPa) = -29.06251 25.07455 -1.99398
#
# Velocity S-wave (km/s) = -3.99995 3.71539 -1.04773
# Velocity P-wave (km/s) = 0.21407 7.05099 4.98810
#
# Compressibility (1/GPa) = 0.02575112
#
# Stress axis : x y z
#
# Youngs Moduli (GPa) = 77.06721 41.19734 82.95541
#
# Poissons Ratio (x) = 0.02196 0.55803
# Poissons Ratio (y) = 0.04109 0.37466
# Poissons Ratio (z) = 0.51842 0.18606
#
# Static dielectric constant tensor:
#      x y z
#    x 3.493760 0.000000 0.000000 
#    y 0.000000 3.272050 0.000000 
#    z 0.000000 0.000000 4.004500 
# 
# 
# High freq. dielectric constant tensor:
#      x y z
#    x 1.710890 0.000000 0.000000 
#    y 0.000000 1.697290 0.000000 
#    z 0.000000 0.000000 1.698760 
# 
# From -- ./inp_files/19894.got.cif
#   From: 2010.03.12/outbox.cif.g09.slc.cpg/sg47_10_cif.got.tgz:19894.got - 2010.04.14 03:12:58.
