data_PCOD8198956
_publ_section_title
;
Structure prediction by ZEFSAII (Michael W. Deem and Ramdas Pophale) SiO2 
 PCOD8198956
Probable space group: P M M M
;
_chemical_formula_sum "Si O2"
_cell_formula_units_Z 52
_cell_length_a 21.704221
_cell_length_b 14.510257
_cell_length_c 9.304374
_cell_angle_alpha 90.000000
_cell_angle_beta 90.000000
_cell_angle_gamma 90.000000
_cell_volume 2930.262090
_symmetry_space_group_name_H-M "P M M M"
_symmetry_group_IT_number 47
_symmetry_cell_setting 'orthorhombic'
loop_
_space_group_symop_operation_xyz
x,y,z
-x,-y,z
x,-y,-z
-x,y,-z
-x,-y,-z
x,y,-z
-x,y,z
x,-y,z
loop_
_atom_site_type_symbol
_atom_site_label
_atom_site_fract_x
_atom_site_fract_y
_atom_site_fract_z
Si Si1 0.071767 0.605163 0.667068
Si Si2 0.116791 0.221343 0.171519
Si Si3 0.569356 0.000000 0.169455
Si Si4 0.782737 0.107216 0.333559
Si Si5 0.358058 0.853810 0.338059
Si Si6 0.430345 0.670988 0.337759
Si Si7 0.573206 0.500000 0.840828
Si Si8 0.000000 0.103779 0.829861
O O1 0.084458 0.625975 0.500000
O O2 0.091661 0.500000 0.703815
O O3 0.110986 0.675928 0.763499
O O4 0.000000 0.618284 0.703186
O O5 0.177026 0.171523 0.231334
O O6 0.059599 0.159026 0.224043
O O7 0.120576 0.229103 0.000000
O O8 0.602853 0.089886 0.225221
O O9 0.500000 0.000000 0.228029
O O10 0.571591 0.000000 0.000000
O O11 0.799750 0.124408 0.500000
O O12 0.713299 0.137311 0.300627
O O13 0.792214 0.000000 0.293163
O O14 0.370068 0.890432 0.500000
O O15 0.380427 0.750228 0.320723
O O16 0.432374 0.634153 0.500000
O O17 0.500000 0.702183 0.292283
O O18 0.403323 0.590645 0.238971
O O19 0.500000 0.500000 0.840888
O O20 0.601101 0.500000 0.000000
O O21 0.000000 0.000000 0.764379
O O22 0.000000 0.097457 0.000000
#
# Coordination Sequence:
#
# PCOD8198956 Si02
#       8
#     8   8   4   8   8   8   4   4
#     4   9  18  34  57  84 114 146 179 222 276 329
#     4  11  21  34  55  82 112 146 182 225 274 325
#     4  11  23  35  51  81 117 146 177 224 277 327
#     4  10  21  38  57  78 106 143 187 229 268 320
#     4  10  20  37  58  78 104 142 187 228 266 319
#     4   9  17  30  52  80 104 130 170 219 265 311
#     4   9  17  29  47  73 107 141 167 202 261 326
#     4   9  18  32  48  73 110 144 177 219 264 315
#
# _framework density 17.745853
#
# number of rings (size 3 to 8) (size 9 to 14) (size 15 to 20)
#    0.000    2.231    1.538    2.308    0.000    4.615 
#    0.000    2.308    1.692    1.846    0.000    0.000 
#    0.000    0.000    0.000    0.000    0.000    0.000 
#
# Total GULP energy -644785.242417 kJ/mol
# GULP energy per Si atom -12399.716200 kJ/mol
# Density = 1.770546 g / cm^3
# Si number density = 17.745853 Si / 1000 Ang^3
#
#
#
# Elastic Constant Matrix: (Units=GPa)
#
#
# Indices 1 2 3 4 5 6 
#
# 1 96.5251 59.9831 51.1487 0.0000 0.0000 0.0000
# 2 59.9831 134.0173 65.2350 0.0000 0.0000 0.0000
# 3 51.1487 65.2350 87.3838 0.0000 0.0000 0.0000
# 4 0.0000 0.0000 0.0000 -47.2674 0.0000 0.0000
# 5 0.0000 0.0000 0.0000 0.0000 23.9249 0.0000
# 6 0.0000 0.0000 0.0000 0.0000 0.0000 21.3174
#
#
#
# Elastic Compliance Matrix: (Units=1/GPa)
#
#
# Indices 1 2 3 4 5 6 
#
# 1 0.016389 -0.004187 -0.006467 0.000000 0.000000 0.000000
# 2 -0.004187 0.012791 -0.007098 0.000000 0.000000 0.000000
# 3 -0.006467 -0.007098 0.020528 0.000000 0.000000 0.000000
# 4 0.000000 0.000000 0.000000 -0.021156 0.000000 0.000000
# 5 0.000000 0.000000 0.000000 0.000000 0.041798 0.000000
# 6 0.000000 0.000000 0.000000 0.000000 0.000000 0.046910
#
#
# Mechanical properties :
#
#
# Convention : Reuss Voigt Hill
#
# Bulk Modulus (GPa) = 70.40595 74.51776 72.46185
# Shear Modulus (GPa) = 31.74641 9.03225 20.38933
#
# Velocity S-wave (km/s) = 4.23418 2.25850 3.39331
# Velocity P-wave (km/s) = 7.97904 6.99170 7.50164
#
# Compressibility (1/GPa) = 0.01420334
#
# Stress axis : x y z
#
# Youngs Moduli (GPa) = 61.01629 78.18064 48.71432
#
# Poissons Ratio (x) = 0.32738 0.31504
# Poissons Ratio (y) = 0.25550 0.34576
# Poissons Ratio (z) = 0.39459 0.55491
#
# Static dielectric constant tensor:
#      x y z
#    x 3.164720 0.000000 0.000000 
#    y 0.000000 3.333140 0.000000 
#    z 0.000000 0.000000 3.260620 
# 
# 
# High freq. dielectric constant tensor:
#      x y z
#    x 1.668310 0.000000 0.000000 
#    y 0.000000 1.694810 0.000000 
#    z 0.000000 0.000000 1.681960 
# 
# From -- ./inp_files/11161.got.cif
#   From: 2010.03.12/outbox.cif.g09.slc.cpg/sg47_6_cif.got.tgz:11161.got - 2010.04.14 03:12:58.
