data_PCOD8198135
_publ_section_title
;
Structure prediction by ZEFSAII (Michael W. Deem and Ramdas Pophale) SiO2 
 PCOD8198135
Probable space group: P M M M
;
_chemical_formula_sum "Si O2"
_cell_formula_units_Z 40
_cell_length_a 9.399842
_cell_length_b 8.019317
_cell_length_c 27.508156
_cell_angle_alpha 90.000000
_cell_angle_beta 90.000000
_cell_angle_gamma 90.000000
_cell_volume 2073.573402
_symmetry_space_group_name_H-M "P M M M"
_symmetry_group_IT_number 47
_symmetry_cell_setting 'orthorhombic'
loop_
_space_group_symop_operation_xyz
x,y,z
-x,-y,z
x,-y,-z
-x,y,-z
-x,-y,-z
x,y,-z
-x,y,z
x,-y,z
loop_
_atom_site_type_symbol
_atom_site_label
_atom_site_fract_x
_atom_site_fract_y
_atom_site_fract_z
Si Si1 0.330927 0.814083 0.115872
Si Si2 0.338375 0.192425 0.397121
Si Si3 0.669795 0.500000 0.944914
Si Si4 0.337672 0.302102 0.780019
Si Si5 0.331340 0.312757 0.500000
Si Si6 0.842966 0.307014 0.690617
O O1 0.500000 0.804327 0.114746
O O2 0.270167 0.668456 0.080766
O O3 0.278397 0.780892 0.170746
O O4 0.279771 0.000000 0.099334
O O5 0.500000 0.261641 0.392999
O O6 0.276929 0.220421 0.451464
O O7 0.239136 0.288709 0.359869
O O8 0.333492 0.000000 0.383898
O O9 0.500000 0.500000 0.942796
O O10 0.725697 0.500000 0.000000
O O11 0.500000 0.248823 0.770004
O O12 0.325980 0.500000 0.785650
O O13 0.245515 0.228773 0.735358
O O14 0.271736 0.500000 0.500000
O O15 0.500000 0.308217 0.500000
O O16 0.860284 0.500000 0.701604
O O17 0.000000 0.223621 0.687430
#
# Coordination Sequence:
#
# PCOD8198135 Si02
#       6
#     8   8   4   8   4   8
#     4   9  16  26  42  65  93 127 169 211 251 302
#     4  10  20  34  53  77 104 133 167 207 252 302
#     4   9  16  26  40  62  97 135 167 204 253 304
#     4   9  16  29  49  69  94 131 171 211 255 301
#     4   9  17  31  54  79 100 125 162 208 252 297
#     4  10  21  35  51  74 104 136 170 209 255 307
#
# _framework density 19.290371
#
# number of rings (size 3 to 8) (size 9 to 14) (size 15 to 20)
#    0.000    2.600    1.000    1.500    0.000    4.800 
#    0.000    4.500    0.000    3.000    0.000    0.000 
#    0.000    1.600    0.000    1.800    0.000    2.000 
#
# Total GULP energy -495840.364680 kJ/mol
# GULP energy per Si atom -12396.009117 kJ/mol
# Density = 1.924647 g / cm^3
# Si number density = 19.290371 Si / 1000 Ang^3
#
#
#
# Elastic Constant Matrix: (Units=GPa)
#
#
# Indices 1 2 3 4 5 6 
#
# 1 65.5776 19.2687 51.1786 0.0000 0.0000 0.0000
# 2 19.2687 76.6123 48.4665 0.0000 0.0000 0.0000
# 3 51.1786 48.4665 164.8910 0.0000 0.0000 0.0000
# 4 0.0000 0.0000 0.0000 16.6273 0.0000 0.0000
# 5 0.0000 0.0000 0.0000 0.0000 1.9959 0.0000
# 6 0.0000 0.0000 0.0000 0.0000 0.0000 8.5086
#
#
#
# Elastic Compliance Matrix: (Units=1/GPa)
#
#
# Indices 1 2 3 4 5 6 
#
# 1 0.020240 -0.001371 -0.005879 0.000000 0.000000 0.000000
# 2 -0.001371 0.016127 -0.004315 0.000000 0.000000 0.000000
# 3 -0.005879 -0.004315 0.009158 0.000000 0.000000 0.000000
# 4 0.000000 0.000000 0.000000 0.060142 0.000000 0.000000
# 5 0.000000 0.000000 0.000000 0.000000 0.501026 0.000000
# 6 0.000000 0.000000 0.000000 0.000000 0.000000 0.117528
#
#
# Mechanical properties :
#
#
# Convention : Reuss Voigt Hill
#
# Bulk Modulus (GPa) = 44.65319 60.54539 52.59929
# Shear Modulus (GPa) = 6.62414 17.97084 12.29749
#
# Velocity S-wave (km/s) = 1.85509 3.05552 2.52760
# Velocity P-wave (km/s) = 5.27130 6.62591 5.98704
#
# Compressibility (1/GPa) = 0.02239482
#
# Stress axis : x y z
#
# Youngs Moduli (GPa) = 49.40660 62.00714 109.19972
#
# Poissons Ratio (x) = 0.08504 0.64199
# Poissons Ratio (y) = 0.06776 0.47115
# Poissons Ratio (z) = 0.29046 0.26754
#
# Static dielectric constant tensor:
#      x y z
#    x 3.212970 0.000000 0.000000 
#    y 0.000000 3.531220 0.000000 
#    z 0.000000 0.000000 3.670730 
# 
# 
# High freq. dielectric constant tensor:
#      x y z
#    x 1.690460 0.000000 0.000000 
#    y 0.000000 1.749040 0.000000 
#    z 0.000000 0.000000 1.758560 
# 
# From -- ./inp_files/33036.got.cif
#   From: 2010.03.12/outbox.cif.g09.slc.cpg/sg47_17_cif.got.tgz:33036.got - 2010.04.14 03:12:58.
