data_PCOD8198156
_publ_section_title
;
Structure prediction by ZEFSAII (Michael W. Deem and Ramdas Pophale) SiO2 
 PCOD8198156
Probable space group: P M M M
;
_chemical_formula_sum "Si O2"
_cell_formula_units_Z 36
_cell_length_a 10.371600
_cell_length_b 9.040917
_cell_length_c 19.793066
_cell_angle_alpha 90.000000
_cell_angle_beta 90.000000
_cell_angle_gamma 90.000000
_cell_volume 1855.971548
_symmetry_space_group_name_H-M "P M M M"
_symmetry_group_IT_number 47
_symmetry_cell_setting 'orthorhombic'
loop_
_space_group_symop_operation_xyz
x,y,z
-x,-y,z
x,-y,-z
-x,y,-z
-x,-y,-z
x,y,-z
-x,y,z
x,-y,z
loop_
_atom_site_type_symbol
_atom_site_label
_atom_site_fract_x
_atom_site_fract_y
_atom_site_fract_z
Si Si1 0.854269 0.330303 0.920414
Si Si2 0.645513 0.661578 0.302458
Si Si3 0.000000 0.664883 0.579819
Si Si4 0.650258 0.173896 0.828837
Si Si5 0.744107 0.825203 0.422699
O O1 0.829594 0.500000 0.899421
O O2 0.743686 0.229379 0.887916
O O3 0.000000 0.283461 0.898070
O O4 0.840847 0.310424 0.000000
O O5 0.500000 0.633501 0.282075
O O6 0.713835 0.500000 0.311029
O O7 0.705293 0.753784 0.240475
O O8 0.641456 0.753835 0.372433
O O9 0.877773 0.757596 0.604028
O O10 0.000000 0.500000 0.611503
O O11 0.000000 0.653807 0.500000
O O12 0.500000 0.214371 0.844366
O O13 0.665511 0.000000 0.820760
O O14 0.712585 0.779613 0.500000
O O15 0.747415 0.000000 0.415481
#
# Coordination Sequence:
#
# PCOD8198156 Si02
#       5
#     8   8   4   8   8
#     4   9  19  37  60  86 117 151 187 229 275 325
#     4  10  21  37  56  77 104 140 182 228 275 324
#     4   9  17  31  51  73  99 131 168 213 264 317
#     4  10  21  37  57  82 114 150 188 232 281 335
#     4  10  20  34  53  77 106 139 176 222 276 331
#
# _framework density 19.396847999999999
#
# number of rings (size 3 to 8) (size 9 to 14) (size 15 to 20)
#    0.000    2.333    0.000    3.000    0.000    7.111 
#    2.000    5.556    0.000    0.000    0.000    0.000 
#    0.000    0.000    0.000    0.000    0.000    0.000 
#
# Total GULP energy -446180.258821 kJ/mol
# GULP energy per Si atom -12393.896078 kJ/mol
# Density = 1.935270 g / cm^3
# Si number density = 19.396848 Si / 1000 Ang^3
#
#
#
# Elastic Constant Matrix: (Units=GPa)
#
#
# Indices 1 2 3 4 5 6 
#
# 1 75.5394 45.5091 40.5303 0.0000 0.0000 0.0000
# 2 45.5091 125.4427 53.9456 0.0000 0.0000 0.0000
# 3 40.5303 53.9456 85.5688 0.0000 0.0000 0.0000
# 4 0.0000 0.0000 0.0000 36.2629 0.0000 0.0000
# 5 0.0000 0.0000 0.0000 0.0000 20.8896 0.0000
# 6 0.0000 0.0000 0.0000 0.0000 0.0000 33.1877
#
#
#
# Elastic Compliance Matrix: (Units=1/GPa)
#
#
# Indices 1 2 3 4 5 6 
#
# 1 0.019236 -0.004199 -0.006464 0.000000 0.000000 0.000000
# 2 -0.004199 0.011853 -0.005484 0.000000 0.000000 0.000000
# 3 -0.006464 -0.005484 0.018206 0.000000 0.000000 0.000000
# 4 0.000000 0.000000 0.000000 0.027576 0.000000 0.000000
# 5 0.000000 0.000000 0.000000 0.000000 0.047871 0.000000
# 6 0.000000 0.000000 0.000000 0.000000 0.000000 0.030132
#
#
# Mechanical properties :
#
#
# Convention : Reuss Voigt Hill
#
# Bulk Modulus (GPa) = 58.81988 62.94677 60.88332
# Shear Modulus (GPa) = 25.92891 27.83909 26.88400
#
# Velocity S-wave (km/s) = 3.66014 3.79256 3.72694
# Velocity P-wave (km/s) = 6.94640 7.19031 7.06941
#
# Compressibility (1/GPa) = 0.01700106
#
# Stress axis : x y z
#
# Youngs Moduli (GPa) = 51.98575 84.36424 54.92791
#
# Poissons Ratio (x) = 0.35422 0.35507
# Poissons Ratio (y) = 0.21827 0.30123
# Poissons Ratio (z) = 0.33605 0.46266
#
# Static dielectric constant tensor:
#      x y z
#    x 3.544400 0.000000 0.000000 
#    y 0.000000 3.724370 0.000000 
#    z 0.000000 0.000000 3.365250 
# 
# 
# High freq. dielectric constant tensor:
#      x y z
#    x 1.743680 0.000000 0.000000 
#    y 0.000000 1.767300 0.000000 
#    z 0.000000 0.000000 1.744240 
# 
# From -- ./inp_files/3724.got.cif
#   From: 2010.03.12/outbox.cif.g09.slc.cpg/sg47_2_cif.got.tgz:3724.got - 2010.04.14 03:12:58.
