data_PCOD8198401
_publ_section_title
;
Structure prediction by ZEFSAII (Michael W. Deem and Ramdas Pophale) SiO2 
 PCOD8198401
Probable space group: P M M M
;
_chemical_formula_sum "Si O2"
_cell_formula_units_Z 52
_cell_length_a 14.253521
_cell_length_b 9.048488
_cell_length_c 20.471427
_cell_angle_alpha 90.000000
_cell_angle_beta 90.000000
_cell_angle_gamma 90.000000
_cell_volume 2640.257541
_symmetry_space_group_name_H-M "P M M M"
_symmetry_group_IT_number 47
_symmetry_cell_setting 'orthorhombic'
loop_
_space_group_symop_operation_xyz
x,y,z
-x,-y,z
x,-y,-z
-x,y,-z
-x,-y,-z
x,y,-z
-x,y,z
x,-y,z
loop_
_atom_site_type_symbol
_atom_site_label
_atom_site_fract_x
_atom_site_fract_y
_atom_site_fract_z
Si Si1 0.500000 0.665813 0.577492
Si Si2 0.790499 0.166458 0.695521
Si Si3 0.785702 0.170322 0.928227
Si Si4 0.397854 0.163965 0.767488
Si Si5 0.394214 0.671821 0.102797
Si Si6 0.108819 0.672618 0.190226
Si Si7 0.311779 0.826201 0.426079
O O1 0.500000 0.500000 0.606290
O O2 0.500000 0.665116 0.500000
O O3 0.594831 0.746506 0.600952
O O4 0.681680 0.177980 0.714306
O O5 0.854202 0.272076 0.739551
O O6 0.780620 0.212566 0.618974
O O7 0.829815 0.000000 0.703971
O O8 0.680983 0.233926 0.937316
O O9 0.841565 0.253127 0.871542
O O10 0.780807 0.000000 0.907391
O O11 0.834317 0.188089 0.000000
O O12 0.500000 0.189080 0.734351
O O13 0.381018 0.288757 0.821477
O O14 0.393814 0.000000 0.800167
O O15 0.500000 0.709981 0.079094
O O16 0.372632 0.500000 0.092546
O O17 0.128479 0.500000 0.185834
O O18 0.000000 0.711787 0.185909
O O19 0.287119 0.776695 0.500000
O O20 0.332270 0.000000 0.422204
#
# Coordination Sequence:
#
# PCOD8198401 Si02
#       7
#     4   8   8   8   8   8   8
#     4   9  17  29  45  71 111 159 204 239 276 325
#     4  10  20  34  58  86 112 149 192 234 283 337
#     4  11  24  41  62  88 117 151 190 230 276 334
#     4   9  17  29  48  76 111 149 189 232 276 327
#     4  10  20  34  54  82 117 156 195 233 274 322
#     4  11  25  44  65  88 113 141 179 233 295 354
#     4   9  18  32  51  78 114 155 197 238 281 331
#
# _framework density 19.695046999999999
#
# number of rings (size 3 to 8) (size 9 to 14) (size 15 to 20)
#    0.000    2.077    1.538    1.615    1.077    5.538 
#    0.000    3.077    0.000    0.462    0.000    3.231 
#    0.000    0.000    0.000    0.000    0.000    0.000 
#
# Total GULP energy -644435.535411 kJ/mol
# GULP energy per Si atom -12392.991066 kJ/mol
# Density = 1.965022 g / cm^3
# Si number density = 19.695047 Si / 1000 Ang^3
#
#
#
# Elastic Constant Matrix: (Units=GPa)
#
#
# Indices 1 2 3 4 5 6 
#
# 1 93.2426 59.9133 51.4742 0.0000 0.0000 0.0000
# 2 59.9133 97.9601 47.7596 0.0000 0.0000 0.0000
# 3 51.4742 47.7596 102.6474 0.0000 0.0000 0.0000
# 4 0.0000 0.0000 0.0000 8.4101 0.0000 0.0000
# 5 0.0000 0.0000 0.0000 0.0000 10.5466 0.0000
# 6 0.0000 0.0000 0.0000 0.0000 0.0000 26.0586
#
#
#
# Elastic Compliance Matrix: (Units=1/GPa)
#
#
# Indices 1 2 3 4 5 6 
#
# 1 0.019860 -0.009430 -0.005571 0.000000 0.000000 0.000000
# 2 -0.009430 0.017681 -0.003498 0.000000 0.000000 0.000000
# 3 -0.005571 -0.003498 0.014163 0.000000 0.000000 0.000000
# 4 0.000000 0.000000 0.000000 0.118905 0.000000 0.000000
# 5 0.000000 0.000000 0.000000 0.000000 0.094817 0.000000
# 6 0.000000 0.000000 0.000000 0.000000 0.000000 0.038375
#
#
# Mechanical properties :
#
#
# Convention : Reuss Voigt Hill
#
# Bulk Modulus (GPa) = 68.00066 68.01602 68.00834
# Shear Modulus (GPa) = 14.46335 17.98326 16.22330
#
# Velocity S-wave (km/s) = 2.71286 3.02501 2.87317
# Velocity P-wave (km/s) = 6.66442 6.84182 6.75370
#
# Compressibility (1/GPa) = 0.01470574
#
# Stress axis : x y z
#
# Youngs Moduli (GPa) = 50.35324 56.55771 70.60476
#
# Poissons Ratio (x) = 0.53335 0.39336
# Poissons Ratio (y) = 0.47484 0.24696
# Poissons Ratio (z) = 0.28054 0.19782
#
# Static dielectric constant tensor:
#      x y z
#    x 3.484030 0.000000 0.000000 
#    y 0.000000 3.684820 0.000000 
#    z 0.000000 0.000000 3.672210 
# 
# 
# High freq. dielectric constant tensor:
#      x y z
#    x 1.741950 0.000000 0.000000 
#    y 0.000000 1.766930 0.000000 
#    z 0.000000 0.000000 1.770100 
# 
# From -- ./inp_files/30899.got.cif
#   From: 2010.03.12/outbox.cif.g09.slc.cpg/sg47_16_cif.got.tgz:30899.got - 2010.04.14 03:12:58.
