data_PCOD8198327
_publ_section_title
;
Structure prediction by ZEFSAII (Michael W. Deem and Ramdas Pophale) SiO2 
 PCOD8198327
Probable space group: P M M M
;
_chemical_formula_sum "Si O2"
_cell_formula_units_Z 48
_cell_length_a 9.274763
_cell_length_b 8.048170
_cell_length_c 32.289752
_cell_angle_alpha 90.000000
_cell_angle_beta 90.000000
_cell_angle_gamma 90.000000
_cell_volume 2410.264319
_symmetry_space_group_name_H-M "P M M M"
_symmetry_group_IT_number 47
_symmetry_cell_setting 'orthorhombic'
loop_
_space_group_symop_operation_xyz
x,y,z
-x,-y,z
x,-y,-z
-x,y,-z
-x,-y,-z
x,y,-z
-x,y,z
x,-y,z
loop_
_atom_site_type_symbol
_atom_site_label
_atom_site_fract_x
_atom_site_fract_y
_atom_site_fract_z
Si Si1 0.660929 0.189983 0.739005
Si Si2 0.662190 0.801257 0.500000
Si Si3 0.669564 0.309896 0.898732
Si Si4 0.663565 0.309967 0.348405
Si Si5 0.840883 0.808156 0.576979
Si Si6 0.835667 0.307155 0.184750
Si Si7 0.670870 0.000000 0.953738
O O1 0.500000 0.250782 0.751956
O O2 0.716571 0.291303 0.699049
O O3 0.768505 0.209689 0.777061
O O4 0.657800 0.000000 0.725397
O O5 0.500000 0.730008 0.500000
O O6 0.743216 0.729336 0.540603
O O7 0.658024 0.000000 0.500000
O O8 0.500000 0.294347 0.890675
O O9 0.707721 0.500000 0.913279
O O10 0.749133 0.263315 0.856551
O O11 0.722434 0.171401 0.931748
O O12 0.500000 0.241614 0.352163
O O13 0.672224 0.500000 0.361826
O O14 0.766618 0.208467 0.378515
O O15 0.000000 0.724169 0.577533
O O16 0.859586 0.000000 0.566858
O O17 0.824573 0.500000 0.195120
O O18 0.000000 0.249591 0.178526
O O19 0.500000 0.000000 0.955502
O O20 0.736392 0.000000 0.000000
#
# Coordination Sequence:
#
# PCOD8198327 Si02
#       7
#     8   4   8   8   8   8   4
#     4  10  21  36  56  81 107 138 178 223 269 320
#     4   9  17  31  54  81 106 135 172 216 264 313
#     4   9  18  33  54  79 109 146 185 228 280 335
#     4  10  21  37  56  77 103 138 178 218 262 314
#     4  10  20  34  54  80 109 139 172 213 262 317
#     4  10  21  36  54  78 109 144 181 224 273 324
#     4   9  18  32  53  83 113 141 183 237 285 334
#
# _framework density 19.914828
#
# number of rings (size 3 to 8) (size 9 to 14) (size 15 to 20)
#    0.000    2.333    0.000    2.250    1.167    6.000 
#    0.000    2.083    0.000    3.500    0.000    2.333 
#    0.000    0.000    0.000    0.000    0.000    0.000 
#
# Total GULP energy -595156.593436 kJ/mol
# GULP energy per Si atom -12399.095697 kJ/mol
# Density = 1.986950 g / cm^3
# Si number density = 19.914828 Si / 1000 Ang^3
#
#
#
# Elastic Constant Matrix: (Units=GPa)
#
#
# Indices 1 2 3 4 5 6 
#
# 1 107.4424 27.8486 70.6405 0.0000 0.0000 0.0000
# 2 27.8486 61.5682 41.0117 0.0000 0.0000 0.0000
# 3 70.6405 41.0117 148.2497 0.0000 0.0000 0.0000
# 4 0.0000 0.0000 0.0000 5.9757 0.0000 0.0000
# 5 0.0000 0.0000 0.0000 0.0000 5.4102 0.0000
# 6 0.0000 0.0000 0.0000 0.0000 0.0000 17.5378
#
#
#
# Elastic Compliance Matrix: (Units=1/GPa)
#
#
# Indices 1 2 3 4 5 6 
#
# 1 0.013811 -0.002284 -0.005949 0.000000 0.000000 0.000000
# 2 -0.002284 0.020289 -0.004524 0.000000 0.000000 0.000000
# 3 -0.005949 -0.004524 0.010832 0.000000 0.000000 0.000000
# 4 0.000000 0.000000 0.000000 0.167346 0.000000 0.000000
# 5 0.000000 0.000000 0.000000 0.000000 0.184835 0.000000
# 6 0.000000 0.000000 0.000000 0.000000 0.000000 0.057020
#
#
# Mechanical properties :
#
#
# Convention : Reuss Voigt Hill
#
# Bulk Modulus (GPa) = 51.50251 66.25133 58.87692
# Shear Modulus (GPa) = 10.28557 17.63538 13.96047
#
# Velocity S-wave (km/s) = 2.27508 2.97903 2.65053
# Velocity P-wave (km/s) = 5.72877 6.72104 6.24465
#
# Compressibility (1/GPa) = 0.01941653
#
# Stress axis : x y z
#
# Youngs Moduli (GPa) = 72.40849 49.28761 92.32280
#
# Poissons Ratio (x) = 0.11258 0.54921
# Poissons Ratio (y) = 0.16540 0.41770
# Poissons Ratio (z) = 0.43074 0.22299
#
# Static dielectric constant tensor:
#      x y z
#    x 3.649340 0.000000 0.000000 
#    y 0.000000 3.538270 0.000000 
#    z 0.000000 0.000000 3.579620 
# 
# 
# High freq. dielectric constant tensor:
#      x y z
#    x 1.765610 0.000000 0.000000 
#    y 0.000000 1.767570 0.000000 
#    z 0.000000 0.000000 1.776120 
# 
# From -- ./inp_files/34129.got.cif
#   From: 2010.03.12/outbox.cif.g09.slc.cpg/sg47_18_cif.got.tgz:34129.got - 2010.04.14 03:12:58.
