data_PCOD8198893
_publ_section_title
;
Structure prediction by ZEFSAII (Michael W. Deem and Ramdas Pophale) SiO2 
 PCOD8198893
Probable space group: P M M M
;
_chemical_formula_sum "Si O2"
_cell_formula_units_Z 48
_cell_length_a 8.683572
_cell_length_b 16.973802
_cell_length_c 17.057434
_cell_angle_alpha 90.000000
_cell_angle_beta 90.000000
_cell_angle_gamma 90.000000
_cell_volume 2514.150323
_symmetry_space_group_name_H-M "P M M M"
_symmetry_group_IT_number 47
_symmetry_cell_setting 'orthorhombic'
loop_
_space_group_symop_operation_xyz
x,y,z
-x,-y,z
x,-y,-z
-x,y,-z
-x,-y,-z
x,y,-z
-x,y,z
x,-y,z
loop_
_atom_site_type_symbol
_atom_site_label
_atom_site_fract_x
_atom_site_fract_y
_atom_site_fract_z
Si Si1 0.316785 0.500000 0.411586
Si Si2 0.182951 0.088567 0.500000
Si Si3 0.817682 0.179804 0.346846
Si Si4 0.819185 0.000000 0.090872
Si Si5 0.682764 0.855456 0.183634
Si Si6 0.684464 0.410984 0.000000
Si Si7 0.681090 0.682382 0.851931
Si Si8 0.317845 0.346400 0.678325
O O1 0.500000 0.500000 0.409927
O O2 0.253167 0.500000 0.500000
O O3 0.255069 0.577717 0.367931
O O4 0.242837 0.133541 0.577018
O O5 0.000000 0.087010 0.500000
O O6 0.249680 0.000000 0.500000
O O7 0.743575 0.136790 0.272052
O O8 0.765087 0.269918 0.356116
O O9 0.000000 0.176109 0.338451
O O10 0.748979 0.076986 0.129582
O O11 0.000000 0.000000 0.104327
O O12 0.773917 0.000000 0.000000
O O13 0.500000 0.860775 0.185722
O O14 0.740593 0.772410 0.147434
O O15 0.753436 0.366883 0.923554
O O16 0.746712 0.500000 0.000000
O O17 0.500000 0.410445 0.000000
O O18 0.500000 0.682936 0.862917
O O19 0.725567 0.641577 0.769646
O O20 0.500000 0.334476 0.668180
#
# Coordination Sequence:
#
# PCOD8198893 Si02
#       8
#     4   4   8   4   8   4   8   8
#     4   9  18  30  49  76 104 142 185 229 287 342
#     4   9  20  36  55  80 107 142 183 222 274 338
#     4  10  20  36  59  82 109 145 186 228 280 341
#     4  11  25  41  59  86 117 150 191 231 278 337
#     4  10  21  38  59  83 113 147 187 231 282 332
#     4   9  16  24  42  73 105 134 170 213 261 315
#     4   8  16  29  46  72 104 138 171 214 270 324
#     4   9  18  33  52  75 106 140 181 229 278 333
#
# _framework density 19.091937999999999
#
# number of rings (size 3 to 8) (size 9 to 14) (size 15 to 20)
#    0.000    2.667    0.000    2.250    4.667    0.667 
#    0.000    1.667    0.000    2.500    0.000    0.000 
#    0.000   16.667    0.000    0.000    0.000    0.000 
#
# Total GULP energy -595161.103285 kJ/mol
# GULP energy per Si atom -12399.189652 kJ/mol
# Density = 1.904848 g / cm^3
# Si number density = 19.091938 Si / 1000 Ang^3
#
#
#
# Elastic Constant Matrix: (Units=GPa)
#
#
# Indices 1 2 3 4 5 6 
#
# 1 42.4568 35.8627 40.4289 0.0000 0.0000 0.0000
# 2 35.8627 145.7473 111.6082 0.0000 0.0000 0.0000
# 3 40.4289 111.6082 180.6731 0.0000 0.0000 0.0000
# 4 0.0000 0.0000 0.0000 39.9089 0.0000 0.0000
# 5 0.0000 0.0000 0.0000 0.0000 21.0622 0.0000
# 6 0.0000 0.0000 0.0000 0.0000 0.0000 19.3856
#
#
#
# Elastic Compliance Matrix: (Units=1/GPa)
#
#
# Indices 1 2 3 4 5 6 
#
# 1 0.031381 -0.004449 -0.004274 0.000000 0.000000 0.000000
# 2 -0.004449 0.013651 -0.007437 0.000000 0.000000 0.000000
# 3 -0.004274 -0.007437 0.011085 0.000000 0.000000 0.000000
# 4 0.000000 0.000000 0.000000 0.025057 0.000000 0.000000
# 5 0.000000 0.000000 0.000000 0.000000 0.047478 0.000000
# 6 0.000000 0.000000 0.000000 0.000000 0.000000 0.051585
#
#
# Mechanical properties :
#
#
# Convention : Reuss Voigt Hill
#
# Bulk Modulus (GPa) = 42.02106 82.74187 62.38147
# Shear Modulus (GPa) = 22.67676 28.13651 25.40663
#
# Velocity S-wave (km/s) = 3.45014 3.84309 3.65190
# Velocity P-wave (km/s) = 6.15864 7.94514 7.10824
#
# Compressibility (1/GPa) = 0.02379759
#
# Stress axis : x y z
#
# Youngs Moduli (GPa) = 31.86644 73.25450 90.20845
#
# Poissons Ratio (x) = 0.32590 0.38554
# Poissons Ratio (y) = 0.14177 0.67090
# Poissons Ratio (z) = 0.13619 0.54481
#
# Static dielectric constant tensor:
#      x y z
#    x 3.102990 0.000000 0.000000 
#    y 0.000000 3.737340 0.000000 
#    z 0.000000 0.000000 3.764370 
# 
# 
# High freq. dielectric constant tensor:
#      x y z
#    x 1.703010 0.000000 0.000000 
#    y 0.000000 1.752530 0.000000 
#    z 0.000000 0.000000 1.754760 
# 
# From -- ./inp_files/21165.got.cif
#   From: 2010.03.12/outbox.cif.g09.slc.cpg/sg47_11_cif.got.tgz:21165.got - 2010.04.14 03:12:58.
