data_PCOD8198343
_publ_section_title
;
Structure prediction by ZEFSAII (Michael W. Deem and Ramdas Pophale) SiO2 
 PCOD8198343
Probable space group: P M M M
;
_chemical_formula_sum "Si O2"
_cell_formula_units_Z 48
_cell_length_a 30.903287
_cell_length_b 8.929935
_cell_length_c 8.974705
_cell_angle_alpha 90.000000
_cell_angle_beta 90.000000
_cell_angle_gamma 90.000000
_cell_volume 2476.698580
_symmetry_space_group_name_H-M "P M M M"
_symmetry_group_IT_number 47
_symmetry_cell_setting 'orthorhombic'
loop_
_space_group_symop_operation_xyz
x,y,z
-x,-y,z
x,-y,-z
-x,y,-z
-x,-y,-z
x,y,-z
-x,y,z
x,-y,z
loop_
_atom_site_type_symbol
_atom_site_label
_atom_site_fract_x
_atom_site_fract_y
_atom_site_fract_z
Si Si1 0.754465 0.823677 0.170827
Si Si2 0.585833 0.830912 0.676847
Si Si3 0.086507 0.172863 0.175241
Si Si4 0.500000 0.330891 0.677535
Si Si5 0.000000 0.822100 0.667730
Si Si6 0.665223 0.325387 0.828022
Si Si7 0.166275 0.325683 0.672457
O O1 0.709292 0.753608 0.223130
O O2 0.791328 0.761936 0.277493
O O3 0.751401 0.000000 0.190458
O O4 0.764937 0.779286 0.000000
O O5 0.585519 0.830283 0.500000
O O6 0.542303 0.753870 0.739089
O O7 0.626644 0.737811 0.730380
O O8 0.588095 0.000000 0.738758
O O9 0.042719 0.236522 0.248963
O O10 0.125827 0.271484 0.232190
O O11 0.094768 0.000000 0.219253
O O12 0.081876 0.191608 0.000000
O O13 0.500000 0.500000 0.739712
O O14 0.500000 0.331057 0.500000
O O15 0.000000 0.759058 0.500000
O O16 0.000000 0.000000 0.670420
O O17 0.670207 0.500000 0.796372
O O18 0.655340 0.290815 0.000000
O O19 0.157213 0.291070 0.500000
O O20 0.173792 0.500000 0.702402
#
# Coordination Sequence:
#
# PCOD8198343 Si02
#       7
#     8   8   8   4   4   8   8
#     4  10  21  38  60  83 106 137 178 221 267 322
#     4  10  20  34  54  80 109 142 181 224 270 322
#     4  10  20  35  57  84 112 144 184 227 271 323
#     4   9  17  31  52  77 106 141 180 224 274 325
#     4   9  17  31  54  83 114 147 182 224 274 323
#     4  10  21  37  57  81 110 144 180 220 269 323
#     4  11  24  39  55  79 111 145 181 223 271 321
#
# _framework density 19.380638999999999
#
# number of rings (size 3 to 8) (size 9 to 14) (size 15 to 20)
#    0.000    2.000    0.000    3.500    0.000   10.000 
#    0.000    0.833    0.000    5.000    0.000    0.000 
#    0.000    0.000    0.000    0.000    0.000    0.000 
#
# Total GULP energy -595412.746682 kJ/mol
# GULP energy per Si atom -12404.432223 kJ/mol
# Density = 1.933653 g / cm^3
# Si number density = 19.380639 Si / 1000 Ang^3
#
#
#
# Elastic Constant Matrix: (Units=GPa)
#
#
# Indices 1 2 3 4 5 6 
#
# 1 150.1731 49.5352 38.9320 0.0000 0.0000 0.0000
# 2 49.5352 85.0803 30.1938 0.0000 0.0000 0.0000
# 3 38.9320 30.1938 54.2917 0.0000 0.0000 0.0000
# 4 0.0000 0.0000 0.0000 26.3710 0.0000 0.0000
# 5 0.0000 0.0000 0.0000 0.0000 29.2091 0.0000
# 6 0.0000 0.0000 0.0000 0.0000 0.0000 114.5504
#
#
#
# Elastic Compliance Matrix: (Units=1/GPa)
#
#
# Indices 1 2 3 4 5 6 
#
# 1 0.009020 -0.003683 -0.004420 0.000000 0.000000 0.000000
# 2 -0.003683 0.016148 -0.006339 0.000000 0.000000 0.000000
# 3 -0.004420 -0.006339 0.025114 0.000000 0.000000 0.000000
# 4 0.000000 0.000000 0.000000 0.037920 0.000000 0.000000
# 5 0.000000 0.000000 0.000000 0.000000 0.034236 0.000000
# 6 0.000000 0.000000 0.000000 0.000000 0.000000 0.008730
#
#
# Mechanical properties :
#
#
# Convention : Reuss Voigt Hill
#
# Bulk Modulus (GPa) = 46.73497 58.54080 52.63789
# Shear Modulus (GPa) = 29.90728 45.41836 37.66282
#
# Velocity S-wave (km/s) = 3.93256 4.84621 4.41309
# Velocity P-wave (km/s) = 6.69228 7.84766 7.29289
#
# Compressibility (1/GPa) = 0.02139725
#
# Stress axis : x y z
#
# Youngs Moduli (GPa) = 110.86991 61.92876 39.81865
#
# Poissons Ratio (x) = 0.22808 0.17598
# Poissons Ratio (y) = 0.40832 0.25242
# Poissons Ratio (z) = 0.49001 0.39259
#
# Static dielectric constant tensor:
#      x y z
#    x 3.818950 0.000000 0.000000 
#    y 0.000000 3.604530 0.000000 
#    z 0.000000 0.000000 3.444160 
# 
# 
# High freq. dielectric constant tensor:
#      x y z
#    x 1.771290 0.000000 0.000000 
#    y 0.000000 1.756660 0.000000 
#    z 0.000000 0.000000 1.743250 
# 
# From -- ./inp_files/13849.got.cif
#   From: 2010.03.12/outbox.cif.g09.slc.cpg/sg47_7_cif.got.tgz:13849.got - 2010.04.14 03:12:58.
