data_PCOD8198741
_publ_section_title
;
Structure prediction by ZEFSAII (Michael W. Deem and Ramdas Pophale) SiO2 
 PCOD8198741
Probable space group: P M M M
;
_chemical_formula_sum "Si O2"
_cell_formula_units_Z 48
_cell_length_a 8.245105
_cell_length_b 32.302941
_cell_length_c 9.378722
_cell_angle_alpha 90.000000
_cell_angle_beta 90.000000
_cell_angle_gamma 90.000000
_cell_volume 2497.939513
_symmetry_space_group_name_H-M "P M M M"
_symmetry_group_IT_number 47
_symmetry_cell_setting 'orthorhombic'
loop_
_space_group_symop_operation_xyz
x,y,z
-x,-y,z
x,-y,-z
-x,y,-z
-x,-y,-z
x,y,-z
-x,y,z
x,-y,z
loop_
_atom_site_type_symbol
_atom_site_label
_atom_site_fract_x
_atom_site_fract_y
_atom_site_fract_z
Si Si1 0.000000 0.953455 0.669241
Si Si2 0.685651 0.902133 0.668580
Si Si3 0.187629 0.414843 0.842338
Si Si4 0.813569 0.266977 0.836947
Si Si5 0.686637 0.820262 0.838686
Si Si6 0.311773 0.500000 0.164075
Si Si7 0.686854 0.659686 0.339521
O O1 0.830267 0.932559 0.722441
O O2 0.000000 0.953361 0.500000
O O3 0.000000 0.000000 0.730087
O O4 0.693047 0.897439 0.500000
O O5 0.500000 0.916492 0.713076
O O6 0.728262 0.858001 0.735521
O O7 0.245948 0.457481 0.766263
O O8 0.221158 0.376051 0.743376
O O9 0.000000 0.418358 0.865701
O O10 0.270135 0.409034 0.000000
O O11 0.790210 0.219389 0.789487
O O12 0.708974 0.296302 0.736396
O O13 0.000000 0.279577 0.821007
O O14 0.754241 0.272431 0.000000
O O15 0.500000 0.807426 0.827066
O O16 0.731570 0.833497 0.000000
O O17 0.500000 0.500000 0.185689
O O18 0.255399 0.500000 0.000000
O O19 0.755905 0.662658 0.500000
O O20 0.500000 0.647858 0.340978
#
# Coordination Sequence:
#
# PCOD8198741 Si02
#       7
#     4   8   8   8   8   4   8
#     4   9  18  32  51  77 107 139 179 225 271 318
#     4   9  18  32  51  76 105 138 178 222 267 318
#     4  10  20  35  57  83 109 137 172 216 263 312
#     4  10  21  36  55  80 106 135 175 218 261 315
#     4   9  18  33  53  77 105 137 171 211 261 314
#     4   9  17  31  54  83 110 137 172 212 256 307
#     4  11  24  39  54  75 105 141 179 218 262 313
#
# _framework density 19.215838999999999
#
# number of rings (size 3 to 8) (size 9 to 14) (size 15 to 20)
#    0.000    2.333    0.000    2.250    1.167    7.333 
#    0.000    3.750    0.000    3.500    0.000    2.333 
#    0.000    0.000    0.000    0.000    0.000    0.000 
#
# Total GULP energy -595031.085355 kJ/mol
# GULP energy per Si atom -12396.480945 kJ/mol
# Density = 1.917210 g / cm^3
# Si number density = 19.215839 Si / 1000 Ang^3
#
#
#
# Elastic Constant Matrix: (Units=GPa)
#
#
# Indices 1 2 3 4 5 6 
#
# 1 71.5647 47.1184 21.3519 0.0000 0.0000 0.0000
# 2 47.1184 133.0655 45.2316 0.0000 0.0000 0.0000
# 3 21.3519 45.2316 55.9807 0.0000 0.0000 0.0000
# 4 0.0000 0.0000 0.0000 36.1708 0.0000 0.0000
# 5 0.0000 0.0000 0.0000 0.0000 18.7489 0.0000
# 6 0.0000 0.0000 0.0000 0.0000 0.0000 38.5440
#
#
#
# Elastic Compliance Matrix: (Units=1/GPa)
#
#
# Indices 1 2 3 4 5 6 
#
# 1 0.018457 -0.005711 -0.002425 0.000000 0.000000 0.000000
# 2 -0.005711 0.012128 -0.007621 0.000000 0.000000 0.000000
# 3 -0.002425 -0.007621 0.024946 0.000000 0.000000 0.000000
# 4 0.000000 0.000000 0.000000 0.027647 0.000000 0.000000
# 5 0.000000 0.000000 0.000000 0.000000 0.053336 0.000000
# 6 0.000000 0.000000 0.000000 0.000000 0.000000 0.025944
#
#
# Mechanical properties :
#
#
# Convention : Reuss Voigt Hill
#
# Bulk Modulus (GPa) = 41.63836 54.22388 47.93112
# Shear Modulus (GPa) = 24.75508 28.48666 26.62087
#
# Velocity S-wave (km/s) = 3.59313 3.85445 3.72608
# Velocity P-wave (km/s) = 6.23939 6.93459 6.59616
#
# Compressibility (1/GPa) = 0.02401632
#
# Stress axis : x y z
#
# Youngs Moduli (GPa) = 54.17900 82.45424 40.08690
#
# Poissons Ratio (x) = 0.47092 0.09722
# Poissons Ratio (y) = 0.30943 0.30549
# Poissons Ratio (z) = 0.13140 0.62837
#
# Static dielectric constant tensor:
#      x y z
#    x 3.636590 0.000000 0.000000 
#    y 0.000000 3.549580 0.000000 
#    z 0.000000 0.000000 3.390790 
# 
# 
# High freq. dielectric constant tensor:
#      x y z
#    x 1.756570 0.000000 0.000000 
#    y 0.000000 1.750890 0.000000 
#    z 0.000000 0.000000 1.717770 
# 
# From -- ./inp_files/2629.got.cif
#   From: 2010.03.12/outbox.cif.g09.slc.cpg/sg47_2_cif.got.tgz:2629.got - 2010.04.14 03:12:58.
