data_PCOD8198578
_publ_section_title
;
Structure prediction by ZEFSAII (Michael W. Deem and Ramdas Pophale) SiO2 
 PCOD8198578
Probable space group: P M M M
;
_chemical_formula_sum "Si O2"
_cell_formula_units_Z 52
_cell_length_a 9.176632
_cell_length_b 18.997765
_cell_length_c 15.916878
_cell_angle_alpha 90.000000
_cell_angle_beta 90.000000
_cell_angle_gamma 90.000000
_cell_volume 2774.876856
_symmetry_space_group_name_H-M "P M M M"
_symmetry_group_IT_number 47
_symmetry_cell_setting 'orthorhombic'
loop_
_space_group_symop_operation_xyz
x,y,z
-x,-y,z
x,-y,-z
-x,y,-z
-x,-y,-z
x,y,-z
-x,y,z
x,-y,z
loop_
_atom_site_type_symbol
_atom_site_label
_atom_site_fract_x
_atom_site_fract_y
_atom_site_fract_z
Si Si1 0.172213 0.844123 0.334899
Si Si2 0.164611 0.698442 0.594913
Si Si3 0.670533 0.419502 0.325724
Si Si4 0.170509 0.917741 0.833676
Si Si5 0.334684 0.083609 0.000000
Si Si6 0.173593 0.920057 0.500000
Si Si7 0.162919 0.583406 0.159376
Si Si8 0.335906 0.415857 0.000000
O O1 0.212754 0.761484 0.342927
O O2 0.232627 0.875474 0.247299
O O3 0.238697 0.884595 0.415522
O O4 0.000000 0.854803 0.336026
O O5 0.173146 0.727509 0.500000
O O6 0.272178 0.631676 0.601553
O O7 0.000000 0.673711 0.615667
O O8 0.500000 0.410372 0.311406
O O9 0.708709 0.500000 0.349516
O O10 0.752583 0.393926 0.242446
O O11 0.253701 0.889064 0.916142
O O12 0.000000 0.903653 0.847851
O O13 0.201108 0.000000 0.817920
O O14 0.500000 0.111945 0.000000
O O15 0.329676 0.000000 0.000000
O O16 0.000000 0.913147 0.500000
O O17 0.225973 0.000000 0.500000
O O18 0.155290 0.500000 0.152160
O O19 0.251476 0.614185 0.080722
O O20 0.000000 0.615414 0.160417
O O21 0.338489 0.500000 0.000000
O O22 0.500000 0.386259 0.000000
#
# Coordination Sequence:
#
# PCOD8198578 Si02
#       8
#     8   8   8   8   4   4   8   4
#     4   9  16  28  46  73 107 139 170 207 253 302
#     4  10  20  35  54  74 100 133 167 205 253 314
#     4  10  21  36  53  73  97 125 163 215 269 317
#     4   9  16  27  47  76 107 139 177 218 256 296
#     4   9  17  29  45  68 101 140 180 221 263 303
#     4   9  14  22  42  74 110 141 168 202 245 293
#     4   9  16  27  45  70  98 126 158 196 241 296
#     4   9  15  23  39  66 101 136 163 189 231 289
#
# _framework density 18.739570000000001
#
# number of rings (size 3 to 8) (size 9 to 14) (size 15 to 20)
#    0.000    2.692    0.769    1.846    0.000    7.077 
#    0.000    2.308    0.000    0.923    0.000    4.308 
#    0.000    3.692    0.000    0.000    0.000    0.000 
#
# Total GULP energy -644680.033865 kJ/mol
# GULP energy per Si atom -12397.692959 kJ/mol
# Density = 1.869692 g / cm^3
# Si number density = 18.739570 Si / 1000 Ang^3
#
#
#
# Elastic Constant Matrix: (Units=GPa)
#
#
# Indices 1 2 3 4 5 6 
#
# 1 88.4910 35.9665 46.9384 0.0000 0.0000 0.0000
# 2 35.9665 71.3371 50.1283 0.0000 0.0000 0.0000
# 3 46.9384 50.1283 137.9698 0.0000 0.0000 0.0000
# 4 0.0000 0.0000 0.0000 20.7105 0.0000 0.0000
# 5 0.0000 0.0000 0.0000 0.0000 18.0530 0.0000
# 6 0.0000 0.0000 0.0000 0.0000 0.0000 11.6359
#
#
#
# Elastic Compliance Matrix: (Units=1/GPa)
#
#
# Indices 1 2 3 4 5 6 
#
# 1 0.015200 -0.005411 -0.003205 0.000000 0.000000 0.000000
# 2 -0.005411 0.020750 -0.005698 0.000000 0.000000 0.000000
# 3 -0.003205 -0.005698 0.010409 0.000000 0.000000 0.000000
# 4 0.000000 0.000000 0.000000 0.048285 0.000000 0.000000
# 5 0.000000 0.000000 0.000000 0.000000 0.055392 0.000000
# 6 0.000000 0.000000 0.000000 0.000000 0.000000 0.085941
#
#
# Mechanical properties :
#
#
# Convention : Reuss Voigt Hill
#
# Bulk Modulus (GPa) = 56.40210 62.65158 59.52684
# Shear Modulus (GPa) = 18.48320 21.06422 19.77371
#
# Velocity S-wave (km/s) = 3.14398 3.35632 3.25189
# Velocity P-wave (km/s) = 6.58352 6.96601 6.77746
#
# Compressibility (1/GPa) = 0.01772984
#
# Stress axis : x y z
#
# Youngs Moduli (GPa) = 65.78932 48.19211 96.07370
#
# Poissons Ratio (x) = 0.26078 0.30793
# Poissons Ratio (y) = 0.35600 0.54745
# Poissons Ratio (z) = 0.21086 0.27461
#
# Static dielectric constant tensor:
#      x y z
#    x 3.248340 0.000000 0.000000 
#    y 0.000000 3.071520 0.000000 
#    z 0.000000 0.000000 3.621700 
# 
# 
# High freq. dielectric constant tensor:
#      x y z
#    x 1.701800 0.000000 0.000000 
#    y 0.000000 1.691060 0.000000 
#    z 0.000000 0.000000 1.737990 
# 
# From -- ./inp_files/21553.got.cif
#   From: 2010.03.12/outbox.cif.g09.slc.cpg/sg47_11_cif.got.tgz:21553.got - 2010.04.14 03:12:58.
