data_PCOD8198472
_publ_section_title
;
Structure prediction by ZEFSAII (Michael W. Deem and Ramdas Pophale) SiO2 
 PCOD8198472
Probable space group: P M M M
;
_chemical_formula_sum "Si O2"
_cell_formula_units_Z 52
_cell_length_a 15.703181
_cell_length_b 8.909420
_cell_length_c 19.310523
_cell_angle_alpha 90.000000
_cell_angle_beta 90.000000
_cell_angle_gamma 90.000000
_cell_volume 2701.662566
_symmetry_space_group_name_H-M "P M M M"
_symmetry_group_IT_number 47
_symmetry_cell_setting 'orthorhombic'
loop_
_space_group_symop_operation_xyz
x,y,z
-x,-y,z
x,-y,-z
-x,y,-z
-x,-y,-z
x,y,-z
-x,y,z
x,-y,z
loop_
_atom_site_type_symbol
_atom_site_label
_atom_site_fract_x
_atom_site_fract_y
_atom_site_fract_z
Si Si1 0.404834 0.826058 0.210194
Si Si2 0.650499 0.324440 0.921555
Si Si3 0.252136 0.323141 0.707455
Si Si4 0.500000 0.176278 0.420905
Si Si5 0.315632 0.178185 0.579558
Si Si6 0.829138 0.827490 0.077879
Si Si7 0.094633 0.673111 0.200746
O O1 0.500000 0.803732 0.242103
O O2 0.408517 0.767125 0.131168
O O3 0.334728 0.735827 0.252605
O O4 0.379363 0.000000 0.211383
O O5 0.642897 0.500000 0.905256
O O6 0.747315 0.275498 0.909531
O O7 0.621065 0.288298 0.000000
O O8 0.258099 0.500000 0.702826
O O9 0.247526 0.256296 0.629675
O O10 0.165264 0.270627 0.744637
O O11 0.500000 0.224415 0.500000
O O12 0.590744 0.233593 0.391196
O O13 0.500000 0.000000 0.413181
O O14 0.300703 0.228588 0.500000
O O15 0.307588 0.000000 0.585317
O O16 0.900639 0.771350 0.130910
O O17 0.804724 0.000000 0.092444
O O18 0.864426 0.807857 0.000000
O O19 0.110631 0.500000 0.181543
O O20 0.000000 0.696082 0.232389
#
# Coordination Sequence:
#
# PCOD8198472 Si02
#       7
#     8   8   8   4   8   8   8
#     4  11  24  39  56  80 112 152 195 236 280 334
#     4  10  20  35  56  80 109 147 190 237 287 334
#     4  11  23  38  58  84 115 148 184 234 286 334
#     4   7  12  26  49  77 107 141 180 215 252 309
#     4   9  18  34  57  83 113 151 190 226 270 330
#     4  10  20  34  55  83 113 145 183 230 285 343
#     4  10  22  40  60  82 110 148 191 233 286 347
#
# _framework density 19.247406000000002
#
# number of rings (size 3 to 8) (size 9 to 14) (size 15 to 20)
#    0.000    2.077    1.538    2.769    1.077    4.923 
#    0.000    3.077    0.000    1.846    0.000    3.231 
#    0.000    0.000    0.000    0.000    0.000    0.000 
#
# Total GULP energy -644563.553860 kJ/mol
# GULP energy per Si atom -12395.452959 kJ/mol
# Density = 1.920360 g / cm^3
# Si number density = 19.247406 Si / 1000 Ang^3
#
#
#
# Elastic Constant Matrix: (Units=GPa)
#
#
# Indices 1 2 3 4 5 6 
#
# 1 104.1982 31.0582 58.4263 0.0000 0.0000 0.0000
# 2 31.0582 56.1349 39.5673 0.0000 0.0000 0.0000
# 3 58.4263 39.5673 110.4793 0.0000 0.0000 0.0000
# 4 0.0000 0.0000 0.0000 33.4727 0.0000 0.0000
# 5 0.0000 0.0000 0.0000 0.0000 21.3905 0.0000
# 6 0.0000 0.0000 0.0000 0.0000 0.0000 20.0313
#
#
#
# Elastic Compliance Matrix: (Units=1/GPa)
#
#
# Indices 1 2 3 4 5 6 
#
# 1 0.014114 -0.003408 -0.006243 0.000000 0.000000 0.000000
# 2 -0.003408 0.024653 -0.007027 0.000000 0.000000 0.000000
# 3 -0.006243 -0.007027 0.014870 0.000000 0.000000 0.000000
# 4 0.000000 0.000000 0.000000 0.029875 0.000000 0.000000
# 5 0.000000 0.000000 0.000000 0.000000 0.046750 0.000000
# 6 0.000000 0.000000 0.000000 0.000000 0.000000 0.049922
#
#
# Mechanical properties :
#
#
# Convention : Reuss Voigt Hill
#
# Bulk Modulus (GPa) = 49.31029 58.76844 54.03936
# Shear Modulus (GPa) = 22.69633 24.42959 23.56296
#
# Velocity S-wave (km/s) = 3.43766 3.56651 3.50267
# Velocity P-wave (km/s) = 6.43673 6.89633 6.67049
#
# Compressibility (1/GPa) = 0.02027974
#
# Stress axis : x y z
#
# Youngs Moduli (GPa) = 70.85286 40.56330 67.25016
#
# Poissons Ratio (x) = 0.13824 0.41987
# Poissons Ratio (y) = 0.24147 0.47256
# Poissons Ratio (z) = 0.44236 0.28503
#
# Static dielectric constant tensor:
#      x y z
#    x 3.458510 0.000000 0.000000 
#    y 0.000000 3.421670 0.000000 
#    z 0.000000 0.000000 3.669510 
# 
# 
# High freq. dielectric constant tensor:
#      x y z
#    x 1.729870 0.000000 0.000000 
#    y 0.000000 1.743200 0.000000 
#    z 0.000000 0.000000 1.748100 
# 
# From -- ./inp_files/25037.got.cif
#   From: 2010.03.12/outbox.cif.g09.slc.cpg/sg47_13_cif.got.tgz:25037.got - 2010.04.14 03:12:58.
