data_PCOD8198110
_publ_section_title
;
Structure prediction by ZEFSAII (Michael W. Deem and Ramdas Pophale) SiO2 
 PCOD8198110
Probable space group: P M M M
;
_chemical_formula_sum "Si O2"
_cell_formula_units_Z 44
_cell_length_a 8.921701
_cell_length_b 18.138745
_cell_length_c 14.317426
_cell_angle_alpha 90.000000
_cell_angle_beta 90.000000
_cell_angle_gamma 90.000000
_cell_volume 2316.966992
_symmetry_space_group_name_H-M "P M M M"
_symmetry_group_IT_number 47
_symmetry_cell_setting 'orthorhombic'
loop_
_space_group_symop_operation_xyz
x,y,z
-x,-y,z
x,-y,-z
-x,y,-z
-x,-y,-z
x,y,-z
-x,y,z
x,-y,z
loop_
_atom_site_type_symbol
_atom_site_label
_atom_site_fract_x
_atom_site_fract_y
_atom_site_fract_z
Si Si1 0.174787 0.774567 0.108940
Si Si2 0.177320 0.151384 0.397944
Si Si3 0.178044 0.919309 0.788139
Si Si4 0.673635 0.637258 0.203028
Si Si5 0.328832 0.695950 0.603363
Si Si6 0.177235 0.500000 0.893876
O O1 0.230070 0.856095 0.139848
O O2 0.273195 0.715125 0.162786
O O3 0.000000 0.762773 0.133613
O O4 0.204652 0.765616 0.000000
O O5 0.238488 0.125739 0.500000
O O6 0.239253 0.098666 0.316207
O O7 0.224400 0.234638 0.376630
O O8 0.000000 0.149758 0.397625
O O9 0.000000 0.921981 0.786918
O O10 0.241179 0.000000 0.818058
O O11 0.500000 0.625602 0.178335
O O12 0.700571 0.635882 0.315353
O O13 0.767536 0.572243 0.158266
O O14 0.295129 0.661970 0.500000
O O15 0.500000 0.723510 0.608933
O O16 0.000000 0.500000 0.892827
O O17 0.237726 0.500000 0.000000
#
# Coordination Sequence:
#
# PCOD8198110 Si02
#       6
#     8   8   8   8   8   4
#     4  10  20  34  53  76 104 141 184 228 274 323
#     4   9  16  27  47  74 102 135 176 223 272 319
#     4   9  17  29  46  72 106 140 178 226 274 321
#     4  11  22  37  60  86 111 141 177 219 265 316
#     4   9  18  33  54  80 109 141 176 213 258 315
#     4  11  25  43  62  85 114 146 177 215 264 313
#
# _framework density 18.990344
#
# number of rings (size 3 to 8) (size 9 to 14) (size 15 to 20)
#    0.000    2.273    1.818    1.364    0.000    4.727 
#    0.000    4.091    0.000    4.909    0.000    3.818 
#    0.000    0.000    0.000    0.000    0.000    0.000 
#
# Total GULP energy -545378.571059 kJ/mol
# GULP energy per Si atom -12394.967524 kJ/mol
# Density = 1.894712 g / cm^3
# Si number density = 18.990344 Si / 1000 Ang^3
#
#
#
# Elastic Constant Matrix: (Units=GPa)
#
#
# Indices 1 2 3 4 5 6 
#
# 1 26.2841 17.1517 24.0231 0.0000 0.0000 0.0000
# 2 17.1517 105.2968 53.6318 0.0000 0.0000 0.0000
# 3 24.0231 53.6318 112.6573 0.0000 0.0000 0.0000
# 4 0.0000 0.0000 0.0000 24.8777 0.0000 0.0000
# 5 0.0000 0.0000 0.0000 0.0000 21.9075 0.0000
# 6 0.0000 0.0000 0.0000 0.0000 0.0000 -8.0141
#
#
#
# Elastic Compliance Matrix: (Units=1/GPa)
#
#
# Indices 1 2 3 4 5 6 
#
# 1 0.048188 -0.003453 -0.008632 0.000000 0.000000 0.000000
# 2 -0.003453 0.012784 -0.005350 0.000000 0.000000 0.000000
# 3 -0.008632 -0.005350 0.013264 0.000000 0.000000 0.000000
# 4 0.000000 0.000000 0.000000 0.040197 0.000000 0.000000
# 5 0.000000 0.000000 0.000000 0.000000 0.045646 0.000000
# 6 0.000000 0.000000 0.000000 0.000000 0.000000 -0.124780
#
#
# Mechanical properties :
#
#
# Convention : Reuss Voigt Hill
#
# Bulk Modulus (GPa) = 25.40168 48.20570 36.80369
# Shear Modulus (GPa) = 60.03063 17.71634 38.87348
#
# Velocity S-wave (km/s) = 5.62848 3.05768 4.52930
# Velocity P-wave (km/s) = 7.45955 6.15673 6.83923
#
# Compressibility (1/GPa) = 0.03936748
#
# Stress axis : x y z
#
# Youngs Moduli (GPa) = 20.75191 78.22128 75.39199
#
# Poissons Ratio (x) = 0.27008 0.65078
# Poissons Ratio (y) = 0.07165 0.40333
# Poissons Ratio (z) = 0.17913 0.41847
#
# Static dielectric constant tensor:
#      x y z
#    x 3.274050 0.000000 0.000000 
#    y 0.000000 3.566640 0.000000 
#    z 0.000000 0.000000 3.975790 
# 
# 
# High freq. dielectric constant tensor:
#      x y z
#    x 1.712580 0.000000 0.000000 
#    y 0.000000 1.721410 0.000000 
#    z 0.000000 0.000000 1.758160 
# 
# From -- ./inp_files/6052.got.cif
#   From: 2010.03.12/outbox.cif.g09.slc.cpg/sg47_4_cif.got.tgz:6052.got - 2010.04.14 03:12:58.
