data_PCOD8198138
_publ_section_title
;
Structure prediction by ZEFSAII (Michael W. Deem and Ramdas Pophale) SiO2 
 PCOD8198138
Probable space group: P M M M
;
_chemical_formula_sum "Si O2"
_cell_formula_units_Z 48
_cell_length_a 9.051050
_cell_length_b 31.009667
_cell_length_c 9.041582
_cell_angle_alpha 90.000000
_cell_angle_beta 90.000000
_cell_angle_gamma 90.000000
_cell_volume 2537.701240
_symmetry_space_group_name_H-M "P M M M"
_symmetry_group_IT_number 47
_symmetry_cell_setting 'orthorhombic'
loop_
_space_group_symop_operation_xyz
x,y,z
-x,-y,z
x,-y,-z
-x,y,-z
-x,-y,-z
x,y,-z
-x,y,z
x,-y,z
loop_
_atom_site_type_symbol
_atom_site_label
_atom_site_fract_x
_atom_site_fract_y
_atom_site_fract_z
Si Si1 0.828292 0.165811 0.670771
Si Si2 0.168551 0.335567 0.675623
Si Si3 0.672262 0.414404 0.173050
Si Si4 0.171718 0.921611 0.172534
Si Si5 0.325486 0.000000 0.669125
Si Si6 0.666520 0.749135 0.675940
Si Si7 0.833293 0.500000 0.175774
O O1 0.790407 0.156413 0.500000
O O2 0.779202 0.124611 0.765099
O O3 0.738349 0.206560 0.733696
O O4 0.000000 0.176447 0.691465
O O5 0.177831 0.337867 0.500000
O O6 0.261160 0.374454 0.740926
O O7 0.239084 0.291161 0.735729
O O8 0.000000 0.338111 0.730992
O O9 0.500000 0.418020 0.208171
O O10 0.749532 0.457657 0.234146
O O11 0.702859 0.408101 0.000000
O O12 0.000000 0.930260 0.205407
O O13 0.265707 0.957696 0.252445
O O14 0.206942 0.923043 0.000000
O O15 0.500000 0.000000 0.681851
O O16 0.271910 0.000000 0.500000
O O17 0.668841 0.749101 0.500000
O O18 0.500000 0.745480 0.737085
O O19 0.000000 0.500000 0.238048
O O20 0.832151 0.500000 0.000000
#
# Coordination Sequence:
#
# PCOD8198138 Si02
#       7
#     8   8   8   8   4   8   4
#     4   9  17  31  52  76 101 132 172 215 256 302
#     4  10  20  34  53  77 105 138 176 217 261 310
#     4  10  20  34  53  77 104 134 170 213 261 313
#     4  10  21  37  57  81 109 141 176 214 260 313
#     4  11  24  39  56  80 108 139 178 221 262 308
#     4   9  17  30  50  75 102 134 173 216 260 306
#     4   9  17  31  52  75 100 133 172 212 256 309
#
# _framework density 18.914757000000002
#
# number of rings (size 3 to 8) (size 9 to 14) (size 15 to 20)
#    0.000    2.333    0.000    2.750    0.000    8.333 
#    0.000    2.917    0.000    5.500    0.000    0.000 
#    0.000    0.000    0.000    0.000    0.000    0.000 
#
# Total GULP energy -595327.413275 kJ/mol
# GULP energy per Si atom -12402.654443 kJ/mol
# Density = 1.887171 g / cm^3
# Si number density = 18.914757 Si / 1000 Ang^3
#
#
#
# Elastic Constant Matrix: (Units=GPa)
#
#
# Indices 1 2 3 4 5 6 
#
# 1 104.8497 68.4074 33.1373 0.0000 0.0000 0.0000
# 2 68.4074 166.7906 46.1942 0.0000 0.0000 0.0000
# 3 33.1373 46.1942 49.9454 0.0000 0.0000 0.0000
# 4 0.0000 0.0000 0.0000 55.3435 0.0000 0.0000
# 5 0.0000 0.0000 0.0000 0.0000 22.8246 0.0000
# 6 0.0000 0.0000 0.0000 0.0000 0.0000 15.8069
#
#
#
# Elastic Compliance Matrix: (Units=1/GPa)
#
#
# Indices 1 2 3 4 5 6 
#
# 1 0.014011 -0.004264 -0.005352 0.000000 0.000000 0.000000
# 2 -0.004264 0.009358 -0.005826 0.000000 0.000000 0.000000
# 3 -0.005352 -0.005826 0.028961 0.000000 0.000000 0.000000
# 4 0.000000 0.000000 0.000000 0.018069 0.000000 0.000000
# 5 0.000000 0.000000 0.000000 0.000000 0.043812 0.000000
# 6 0.000000 0.000000 0.000000 0.000000 0.000000 0.063264
#
#
# Mechanical properties :
#
#
# Convention : Reuss Voigt Hill
#
# Bulk Modulus (GPa) = 46.62904 68.56264 57.59584
# Shear Modulus (GPa) = 23.20097 30.38478 26.79287
#
# Velocity S-wave (km/s) = 3.50609 4.01235 3.76773
# Velocity P-wave (km/s) = 6.41061 7.60212 7.03165
#
# Compressibility (1/GPa) = 0.02144586
#
# Stress axis : x y z
#
# Youngs Moduli (GPa) = 71.37233 106.86015 34.52897
#
# Poissons Ratio (x) = 0.45567 0.18480
# Poissons Ratio (y) = 0.30435 0.20117
# Poissons Ratio (z) = 0.38198 0.62257
#
# Static dielectric constant tensor:
#      x y z
#    x 3.610910 0.000000 0.000000 
#    y 0.000000 3.782060 0.000000 
#    z 0.000000 0.000000 3.199540 
# 
# 
# High freq. dielectric constant tensor:
#      x y z
#    x 1.743830 0.000000 0.000000 
#    y 0.000000 1.753420 0.000000 
#    z 0.000000 0.000000 1.702840 
# 
# From -- ./inp_files/2618.got.cif
#   From: 2010.03.12/outbox.cif.g09.slc.cpg/sg47_2_cif.got.tgz:2618.got - 2010.04.14 03:12:58.
