data_PCOD8198051
_publ_section_title
;
Structure prediction by ZEFSAII (Michael W. Deem and Ramdas Pophale) SiO2 
 PCOD8198051
Probable space group: P M M M
;
_chemical_formula_sum "Si O2"
_cell_formula_units_Z 40
_cell_length_a 15.136706
_cell_length_b 10.356372
_cell_length_c 13.423089
_cell_angle_alpha 90.000000
_cell_angle_beta 90.000000
_cell_angle_gamma 90.000000
_cell_volume 2104.221663
_symmetry_space_group_name_H-M "P M M M"
_symmetry_group_IT_number 47
_symmetry_cell_setting 'orthorhombic'
loop_
_space_group_symop_operation_xyz
x,y,z
-x,-y,z
x,-y,-z
-x,y,-z
-x,-y,-z
x,y,-z
-x,y,z
x,-y,z
loop_
_atom_site_type_symbol
_atom_site_label
_atom_site_fract_x
_atom_site_fract_y
_atom_site_fract_z
Si Si1 0.000000 0.151621 0.390516
Si Si2 0.221551 0.259046 0.886819
Si Si3 0.183811 0.853863 0.689834
Si Si4 0.403721 0.351156 0.813773
Si Si5 0.316444 0.353798 0.388531
Si Si6 0.100784 0.500000 0.882745
O O1 0.915310 0.194326 0.328071
O O2 0.000000 0.217252 0.500000
O O3 0.000000 0.000000 0.404610
O O4 0.201573 0.145471 0.808786
O O5 0.325685 0.289881 0.878949
O O6 0.159014 0.376702 0.850558
O O7 0.200362 0.216308 0.000000
O O8 0.241908 0.753026 0.628443
O O9 0.200754 0.000000 0.650891
O O10 0.500000 0.290286 0.840854
O O11 0.404713 0.500000 0.842019
O O12 0.391027 0.331271 0.694857
O O13 0.355933 0.335628 0.500000
O O14 0.277695 0.500000 0.377001
O O15 0.000000 0.500000 0.837233
O O16 0.091555 0.500000 0.000000
#
# Coordination Sequence:
#
# PCOD8198051 Si02
#       6
#     4   8   8   8   8   4
#     4   9  18  34  54  76 103 136 177 219 262 315
#     4  10  20  34  52  76 108 142 181 223 265 314
#     4  10  21  35  53  77 105 142 182 219 264 318
#     4   9  17  30  50  78 110 140 172 217 271 322
#     4   9  18  33  53  78 107 136 171 217 267 318
#     4   9  18  32  51  75 103 140 178 214 265 318
#
# _framework density 19.009405000000001
#
# number of rings (size 3 to 8) (size 9 to 14) (size 15 to 20)
#    0.000    2.600    1.000    0.600    2.800    2.400 
#    0.000    3.500    0.000   13.200    0.000   11.200 
#    0.000    0.000    0.000    0.000    0.000    0.000 
#
# Total GULP energy -495591.156639 kJ/mol
# GULP energy per Si atom -12389.778916 kJ/mol
# Density = 1.896614 g / cm^3
# Si number density = 19.009405 Si / 1000 Ang^3
#
#
#
# Elastic Constant Matrix: (Units=GPa)
#
#
# Indices 1 2 3 4 5 6 
#
# 1 130.4988 25.2720 10.5667 0.0000 0.0000 0.0000
# 2 25.2720 53.6381 2.9877 0.0000 0.0000 0.0000
# 3 10.5667 2.9877 85.4030 0.0000 0.0000 0.0000
# 4 0.0000 0.0000 0.0000 18.5040 0.0000 0.0000
# 5 0.0000 0.0000 0.0000 0.0000 17.1780 0.0000
# 6 0.0000 0.0000 0.0000 0.0000 0.0000 18.9608
#
#
#
# Elastic Compliance Matrix: (Units=1/GPa)
#
#
# Indices 1 2 3 4 5 6 
#
# 1 0.008503 -0.003955 -0.000914 0.000000 0.000000 0.000000
# 2 -0.003955 0.020520 -0.000228 0.000000 0.000000 0.000000
# 3 -0.000914 -0.000228 0.011830 0.000000 0.000000 0.000000
# 4 0.000000 0.000000 0.000000 0.054042 0.000000 0.000000
# 5 0.000000 0.000000 0.000000 0.000000 0.058214 0.000000
# 6 0.000000 0.000000 0.000000 0.000000 0.000000 0.052740
#
#
# Mechanical properties :
#
#
# Convention : Reuss Voigt Hill
#
# Bulk Modulus (GPa) = 32.61795 38.57697 35.59746
# Shear Modulus (GPa) = 22.09812 26.30947 24.20380
#
# Velocity S-wave (km/s) = 3.41322 3.72428 3.57214
# Velocity P-wave (km/s) = 5.72097 6.23148 5.98168
#
# Compressibility (1/GPa) = 0.03065797
#
# Stress axis : x y z
#
# Youngs Moduli (GPa) = 117.60753 48.73350 84.52926
#
# Poissons Ratio (x) = 0.19276 0.07723
# Poissons Ratio (y) = 0.46517 0.01931
# Poissons Ratio (z) = 0.10745 0.01113
#
# Static dielectric constant tensor:
#      x y z
#    x 3.709810 0.000000 0.000000 
#    y 0.000000 3.199910 0.000000 
#    z 0.000000 0.000000 3.489360 
# 
# 
# High freq. dielectric constant tensor:
#      x y z
#    x 1.735500 0.000000 0.000000 
#    y 0.000000 1.705020 0.000000 
#    z 0.000000 0.000000 1.742690 
# 
# From -- ./inp_files/23377.got.cif
#   From: 2010.03.12/outbox.cif.g09.slc.cpg/sg47_12_cif.got.tgz:23377.got - 2010.04.14 03:12:58.
