data_PCOD8198858
_publ_section_title
;
Structure prediction by ZEFSAII (Michael W. Deem and Ramdas Pophale) SiO2 
 PCOD8198858
Probable space group: P M M M
;
_chemical_formula_sum "Si O2"
_cell_formula_units_Z 64
_cell_length_a 24.525808
_cell_length_b 8.785416
_cell_length_c 14.820489
_cell_angle_alpha 90.000000
_cell_angle_beta 90.000000
_cell_angle_gamma 90.000000
_cell_volume 3193.362258
_symmetry_space_group_name_H-M "P M M M"
_symmetry_group_IT_number 47
_symmetry_cell_setting 'orthorhombic'
loop_
_space_group_symop_operation_xyz
x,y,z
-x,-y,z
x,-y,-z
-x,y,-z
-x,-y,-z
x,y,-z
-x,y,z
x,-y,z
loop_
_atom_site_type_symbol
_atom_site_label
_atom_site_fract_x
_atom_site_fract_y
_atom_site_fract_z
Si Si1 0.339022 0.320745 0.895563
Si Si2 0.935904 0.169465 0.900374
Si Si3 0.870190 0.324454 0.242370
Si Si4 0.938081 0.821519 0.603915
Si Si5 0.588645 0.819397 0.402887
Si Si6 0.439518 0.177953 0.208393
Si Si7 0.711430 0.180520 0.596910
Si Si8 0.757561 0.180595 0.781436
O O1 0.334256 0.500000 0.884113
O O2 0.394769 0.267108 0.848604
O O3 0.285509 0.246296 0.852338
O O4 0.341408 0.272004 0.000000
O O5 0.916322 0.298677 0.832228
O O6 0.000000 0.180896 0.905381
O O7 0.918763 0.000000 0.866531
O O8 0.911256 0.198811 0.000000
O O9 0.855769 0.500000 0.253134
O O10 0.892397 0.263701 0.337868
O O11 0.818442 0.236292 0.200834
O O12 0.927529 0.778907 0.500000
O O13 0.000000 0.773603 0.631252
O O14 0.930725 0.000000 0.619763
O O15 0.563939 0.760725 0.500000
O O16 0.557951 0.763153 0.312805
O O17 0.650130 0.758351 0.394782
O O18 0.587208 0.000000 0.405152
O O19 0.500000 0.206281 0.167409
O O20 0.423907 0.000000 0.205445
O O21 0.736485 0.233579 0.500000
O O22 0.745158 0.244967 0.680865
O O23 0.711076 0.000000 0.601766
O O24 0.754085 0.000000 0.787824
#
# Coordination Sequence:
#
# PCOD8198858 Si02
#       8
#     8   8   8   8   8   8   8   8
#     4  11  25  44  63  82 110 149 191 239 301 365
#     4   9  19  38  63  87 111 144 190 241 289 341
#     4  12  25  37  54  86 126 160 192 236 294 360
#     4   9  19  38  63  88 117 160 214 263 301 342
#     4   8  13  25  49  83 119 148 178 221 271 321
#     4  10  20  35  59  91 121 150 191 239 281 333
#     4   8  14  27  52  83 109 136 175 223 272 322
#     4  11  22  39  63  86 111 148 194 241 287 339
#
# _framework density 20.041571999999999
#
# number of rings (size 3 to 8) (size 9 to 14) (size 15 to 20)
#    0.000    2.250    1.250    3.750    0.000    5.250 
#    0.000    5.000    0.000    2.250    0.000    0.875 
#    0.000    0.000    0.000    0.000    0.000    0.000 
#
# Total GULP energy -793135.940142 kJ/mol
# GULP energy per Si atom -12392.749065 kJ/mol
# Density = 1.999596 g / cm^3
# Si number density = 20.041572 Si / 1000 Ang^3
#
#
#
# Elastic Constant Matrix: (Units=GPa)
#
#
# Indices 1 2 3 4 5 6 
#
# 1 94.1075 38.8987 54.9711 0.0000 0.0000 0.0000
# 2 38.8987 67.1120 48.7223 0.0000 0.0000 0.0000
# 3 54.9711 48.7223 137.9838 0.0000 0.0000 0.0000
# 4 0.0000 0.0000 0.0000 16.0841 0.0000 0.0000
# 5 0.0000 0.0000 0.0000 0.0000 9.1749 0.0000
# 6 0.0000 0.0000 0.0000 0.0000 0.0000 19.9285
#
#
#
# Elastic Compliance Matrix: (Units=1/GPa)
#
#
# Indices 1 2 3 4 5 6 
#
# 1 0.015480 -0.006045 -0.004033 0.000000 0.000000 0.000000
# 2 -0.006045 0.022397 -0.005500 0.000000 0.000000 0.000000
# 3 -0.004033 -0.005500 0.010796 0.000000 0.000000 0.000000
# 4 0.000000 0.000000 0.000000 0.062173 0.000000 0.000000
# 5 0.000000 0.000000 0.000000 0.000000 0.108993 0.000000
# 6 0.000000 0.000000 0.000000 0.000000 0.000000 0.050179
#
#
# Mechanical properties :
#
#
# Convention : Reuss Voigt Hill
#
# Bulk Modulus (GPa) = 57.08475 64.93194 61.00835
# Shear Modulus (GPa) = 16.28587 19.47824 17.88205
#
# Velocity S-wave (km/s) = 2.85371 3.12090 2.99029
# Velocity P-wave (km/s) = 6.27720 6.74208 6.51379
#
# Compressibility (1/GPa) = 0.01751781
#
# Stress axis : x y z
#
# Youngs Moduli (GPa) = 64.59775 44.64832 92.62691
#
# Poissons Ratio (x) = 0.26989 0.37354
# Poissons Ratio (y) = 0.39048 0.50948
# Poissons Ratio (z) = 0.26051 0.24558
#
# Static dielectric constant tensor:
#      x y z
#    x 3.586420 0.000000 0.000000 
#    y 0.000000 3.277910 0.000000 
#    z 0.000000 0.000000 4.059940 
# 
# 
# High freq. dielectric constant tensor:
#      x y z
#    x 1.779090 0.000000 0.000000 
#    y 0.000000 1.742900 0.000000 
#    z 0.000000 0.000000 1.796430 
# 
# From -- ./inp_files/25554.got.cif
#   From: 2010.03.12/outbox.cif.g09.slc.cpg/sg47_13_cif.got.tgz:25554.got - 2010.04.14 03:12:58.
