data_PCOD8198730
_publ_section_title
;
Structure prediction by ZEFSAII (Michael W. Deem and Ramdas Pophale) SiO2 
 PCOD8198730
Probable space group: P M M M
;
_chemical_formula_sum "Si O2"
_cell_formula_units_Z 48
_cell_length_a 9.180702
_cell_length_b 8.845192
_cell_length_c 31.370230
_cell_angle_alpha 90.000000
_cell_angle_beta 90.000000
_cell_angle_gamma 90.000000
_cell_volume 2547.421782
_symmetry_space_group_name_H-M "P M M M"
_symmetry_group_IT_number 47
_symmetry_cell_setting 'orthorhombic'
loop_
_space_group_symop_operation_xyz
x,y,z
-x,-y,z
x,-y,-z
-x,y,-z
-x,-y,-z
x,y,-z
-x,y,z
x,-y,z
loop_
_atom_site_type_symbol
_atom_site_label
_atom_site_fract_x
_atom_site_fract_y
_atom_site_fract_z
Si Si1 0.830992 0.322410 0.921282
Si Si2 0.671201 0.825974 0.327013
Si Si3 0.672811 0.330790 0.757558
Si Si4 0.836295 0.180879 0.408849
Si Si5 0.173527 0.166352 0.500000
Si Si6 0.329606 0.176096 0.156102
Si Si7 0.666682 0.820979 0.000000
O O1 0.810245 0.500000 0.927413
O O2 0.764321 0.273023 0.876516
O O3 0.000000 0.276398 0.923005
O O4 0.746434 0.237962 0.958364
O O5 0.500000 0.805588 0.330208
O O6 0.736043 0.737620 0.286294
O O7 0.737575 0.756827 0.370416
O O8 0.716199 0.000000 0.321467
O O9 0.500000 0.332487 0.754726
O O10 0.734221 0.500000 0.763956
O O11 0.721446 0.226253 0.796910
O O12 0.780769 0.246954 0.455112
O O13 0.000000 0.235754 0.399681
O O14 0.829254 0.000000 0.411378
O O15 0.000000 0.151285 0.500000
O O16 0.244580 0.000000 0.500000
O O17 0.500000 0.210725 0.148679
O O18 0.295823 0.000000 0.150039
O O19 0.500000 0.763754 0.000000
O O20 0.673009 0.000000 0.000000
#
# Coordination Sequence:
#
# PCOD8198730 Si02
#       7
#     8   8   8   8   4   8   4
#     4  11  24  40  58  83 115 148 180 215 259 309
#     4   9  16  26  41  63  90 117 148 191 239 282
#     4   9  17  30  49  71  95 127 165 201 240 290
#     4   8  13  22  37  57  82 113 147 182 225 280
#     4   7  10  18  33  53  78 109 144 180 220 273
#     4  10  20  35  57  83 107 134 173 217 257 302
#     4  11  24  41  62  88 114 143 184 227 262 302
#
# _framework density 18.842580000000002
#
# number of rings (size 3 to 8) (size 9 to 14) (size 15 to 20)
#    0.000    2.667    0.000    3.500    0.000    8.000 
#    0.000    1.250    0.000    6.000    0.000    0.583 
#    0.000    4.667    0.000    0.000    0.000    0.000 
#
# Total GULP energy -594947.437954 kJ/mol
# GULP energy per Si atom -12394.738291 kJ/mol
# Density = 1.879969 g / cm^3
# Si number density = 18.842580 Si / 1000 Ang^3
#
#
#
# Elastic Constant Matrix: (Units=GPa)
#
#
# Indices 1 2 3 4 5 6 
#
# 1 61.7924 30.6044 49.6199 0.0000 0.0000 0.0000
# 2 30.6044 49.8891 29.8436 0.0000 0.0000 0.0000
# 3 49.6199 29.8436 161.1968 0.0000 0.0000 0.0000
# 4 0.0000 0.0000 0.0000 -11.8661 0.0000 0.0000
# 5 0.0000 0.0000 0.0000 0.0000 148.0295 0.0000
# 6 0.0000 0.0000 0.0000 0.0000 0.0000 17.1096
#
#
#
# Elastic Compliance Matrix: (Units=1/GPa)
#
#
# Indices 1 2 3 4 5 6 
#
# 1 0.027641 -0.013344 -0.006038 0.000000 0.000000 0.000000
# 2 -0.013344 0.028983 -0.001258 0.000000 0.000000 0.000000
# 3 -0.006038 -0.001258 0.008295 0.000000 0.000000 0.000000
# 4 0.000000 0.000000 0.000000 -0.084274 0.000000 0.000000
# 5 0.000000 0.000000 0.000000 0.000000 0.006755 0.000000
# 6 0.000000 0.000000 0.000000 0.000000 0.000000 0.058447
#
#
# Mechanical properties :
#
#
# Convention : Reuss Voigt Hill
#
# Bulk Modulus (GPa) = 42.30433 54.77934 48.54183
# Shear Modulus (GPa) = 52.62713 41.50864 47.06788
#
# Velocity S-wave (km/s) = 5.29061 4.69862 5.00337
# Velocity P-wave (km/s) = 7.73440 7.65318 7.69390
#
# Compressibility (1/GPa) = 0.02363824
#
# Stress axis : x y z
#
# Youngs Moduli (GPa) = 36.17820 34.50270 120.55252
#
# Poissons Ratio (x) = 0.46042 0.72789
# Poissons Ratio (y) = 0.48278 0.15168
# Poissons Ratio (z) = 0.21844 0.04341
#
# Static dielectric constant tensor:
#      x y z
#    x 3.263170 0.000000 0.000000 
#    y 0.000000 3.274050 0.000000 
#    z 0.000000 0.000000 4.018410 
# 
# 
# High freq. dielectric constant tensor:
#      x y z
#    x 1.698930 0.000000 0.000000 
#    y 0.000000 1.706020 0.000000 
#    z 0.000000 0.000000 1.759040 
# 
# From -- ./inp_files/34097.got.cif
#   From: 2010.03.12/outbox.cif.g09.slc.cpg/sg47_18_cif.got.tgz:34097.got - 2010.04.14 03:12:58.
