data_PCOD8198742
_publ_section_title
;
Structure prediction by ZEFSAII (Michael W. Deem and Ramdas Pophale) SiO2 
 PCOD8198742
Probable space group: P M M M
;
_chemical_formula_sum "Si O2"
_cell_formula_units_Z 48
_cell_length_a 32.129029
_cell_length_b 9.100335
_cell_length_c 7.901110
_cell_angle_alpha 90.000000
_cell_angle_beta 90.000000
_cell_angle_gamma 90.000000
_cell_volume 2310.165472
_symmetry_space_group_name_H-M "P M M M"
_symmetry_group_IT_number 47
_symmetry_cell_setting 'orthorhombic'
loop_
_space_group_symop_operation_xyz
x,y,z
-x,-y,z
x,-y,-z
-x,y,-z
-x,-y,-z
x,y,-z
-x,y,z
x,-y,z
loop_
_atom_site_type_symbol
_atom_site_label
_atom_site_fract_x
_atom_site_fract_y
_atom_site_fract_z
Si Si1 0.950829 0.669129 0.500000
Si Si2 0.421587 0.338844 0.694494
Si Si3 0.094925 0.826309 0.196517
Si Si4 0.344397 0.835944 0.192561
Si Si5 0.267661 0.333473 0.306844
Si Si6 0.500000 0.164403 0.702555
Si Si7 0.821359 0.665893 0.803099
O O1 0.935626 0.500000 0.500000
O O2 0.935946 0.747559 0.672752
O O3 0.000000 0.679303 0.500000
O O4 0.432694 0.359580 0.500000
O O5 0.419220 0.500000 0.781530
O O6 0.377207 0.260407 0.705502
O O7 0.458920 0.244595 0.776738
O O8 0.141303 0.774705 0.244646
O O9 0.091608 0.000000 0.222211
O O10 0.084354 0.783597 0.000000
O O11 0.298312 0.768566 0.200673
O O12 0.343478 0.000000 0.269391
O O13 0.359127 0.839512 0.000000
O O14 0.281989 0.325618 0.500000
O O15 0.270418 0.500000 0.236917
O O16 0.220149 0.277665 0.290567
O O17 0.500000 0.160744 0.500000
O O18 0.500000 0.000000 0.775521
O O19 0.833150 0.500000 0.745201
O O20 0.811573 0.670325 0.000000
#
# Coordination Sequence:
#
# PCOD8198742 Si02
#       7
#     4   8   8   8   8   4   8
#     4  11  25  43  65  93 125 165 215 267 315 370
#     4  10  20  35  57  83 109 138 176 222 271 328
#     4  10  22  40  63  93 129 167 207 256 316 378
#     4  11  24  39  54  75 106 145 187 231 280 333
#     4  10  21  36  56  84 114 146 188 235 282 336
#     4   9  17  31  54  83 112 141 172 212 266 325
#     4   9  18  34  57  85 118 157 198 241 291 349
#
# _framework density 20.777733000000001
#
# number of rings (size 3 to 8) (size 9 to 14) (size 15 to 20)
#    0.000    2.000    0.000    3.000    1.167    9.000 
#    0.000    3.750    0.000    2.500    0.000    0.000 
#    0.000    0.000    0.000    0.000    0.000    0.000 
#
# Total GULP energy -595212.790172 kJ/mol
# GULP energy per Si atom -12400.266462 kJ/mol
# Density = 2.073044 g / cm^3
# Si number density = 20.777733 Si / 1000 Ang^3
#
#
#
# Elastic Constant Matrix: (Units=GPa)
#
#
# Indices 1 2 3 4 5 6 
#
# 1 124.6677 75.0453 32.7020 0.0000 0.0000 0.0000
# 2 75.0453 159.7498 37.1250 0.0000 0.0000 0.0000
# 3 32.7020 37.1250 58.1201 0.0000 0.0000 0.0000
# 4 0.0000 0.0000 0.0000 22.9680 0.0000 0.0000
# 5 0.0000 0.0000 0.0000 0.0000 -6.1858 0.0000
# 6 0.0000 0.0000 0.0000 0.0000 0.0000 25.9163
#
#
#
# Elastic Compliance Matrix: (Units=1/GPa)
#
#
# Indices 1 2 3 4 5 6 
#
# 1 0.011805 -0.004700 -0.003640 0.000000 0.000000 0.000000
# 2 -0.004700 0.009222 -0.003246 0.000000 0.000000 0.000000
# 3 -0.003640 -0.003246 0.021328 0.000000 0.000000 0.000000
# 4 0.000000 0.000000 0.000000 0.043539 0.000000 0.000000
# 5 0.000000 0.000000 0.000000 0.000000 -0.161659 0.000000
# 6 0.000000 0.000000 0.000000 0.000000 0.000000 0.038586
#
#
# Mechanical properties :
#
#
# Convention : Reuss Voigt Hill
#
# Bulk Modulus (GPa) = 52.13188 70.25358 61.19273
# Shear Modulus (GPa) = -656.77422 21.71739 -317.52841
#
# Velocity S-wave (km/s) = -17.79835 3.23650 -12.37551
# Velocity P-wave (km/s) = 19.93064 6.91751 13.21701
#
# Compressibility (1/GPa) = 0.01918212
#
# Stress axis : x y z
#
# Youngs Moduli (GPa) = 84.70758 108.43621 46.88746
#
# Poissons Ratio (x) = 0.50962 0.17069
# Poissons Ratio (y) = 0.39811 0.15221
# Poissons Ratio (z) = 0.30837 0.35202
#
# Static dielectric constant tensor:
#      x y z
#    x 3.656050 0.000000 0.000000 
#    y 0.000000 3.944900 0.000000 
#    z 0.000000 0.000000 3.579900 
# 
# 
# High freq. dielectric constant tensor:
#      x y z
#    x 1.815240 0.000000 0.000000 
#    y 0.000000 1.817440 0.000000 
#    z 0.000000 0.000000 1.800720 
# 
# From -- ./inp_files/13948.got.cif
#   From: 2010.03.12/outbox.cif.g09.slc.cpg/sg47_7_cif.got.tgz:13948.got - 2010.04.14 03:12:58.
