data_PCOD8198521
_publ_section_title
;
Structure prediction by ZEFSAII (Michael W. Deem and Ramdas Pophale) SiO2 
 PCOD8198521
Probable space group: P M M M
;
_chemical_formula_sum "Si O2"
_cell_formula_units_Z 44
_cell_length_a 7.942924
_cell_length_b 29.686068
_cell_length_c 9.194970
_cell_angle_alpha 90.000000
_cell_angle_beta 90.000000
_cell_angle_gamma 90.000000
_cell_volume 2168.120430
_symmetry_space_group_name_H-M "P M M M"
_symmetry_group_IT_number 47
_symmetry_cell_setting 'orthorhombic'
loop_
_space_group_symop_operation_xyz
x,y,z
-x,-y,z
x,-y,-z
-x,y,-z
-x,-y,-z
x,y,-z
-x,y,z
x,-y,z
loop_
_atom_site_type_symbol
_atom_site_label
_atom_site_fract_x
_atom_site_fract_y
_atom_site_fract_z
Si Si1 0.307723 0.865896 0.337066
Si Si2 0.689888 0.389404 0.831530
Si Si3 0.197452 0.948985 0.165475
Si Si4 0.198860 0.697205 0.668397
Si Si5 0.000000 0.550229 0.827613
Si Si6 0.193897 0.217011 0.160121
O O1 0.231978 0.865518 0.500000
O O2 0.500000 0.850731 0.339761
O O3 0.294761 0.915938 0.272756
O O4 0.208426 0.830951 0.237777
O O5 0.500000 0.409065 0.811172
O O6 0.704154 0.344064 0.740132
O O7 0.829704 0.424805 0.773952
O O8 0.724826 0.377928 0.000000
O O9 0.000000 0.940910 0.182573
O O10 0.245217 0.000000 0.208531
O O11 0.253156 0.939252 0.000000
O O12 0.246760 0.699844 0.500000
O O13 0.270275 0.742792 0.742579
O O14 0.000000 0.690908 0.691254
O O15 0.000000 0.500000 0.760303
O O16 0.000000 0.547337 0.000000
O O17 0.000000 0.227761 0.139096
O O18 0.280603 0.215544 0.000000
#
# Coordination Sequence:
#
# PCOD8198521 Si02
#       6
#     8   8   8   8   4   8
#     4  11  24  38  52  76 112 148 181 222 272 327
#     4  10  20  34  56  85 116 153 195 239 290 346
#     4   9  19  37  60  83 105 133 175 225 274 328
#     4  10  20  35  57  83 112 148 188 231 283 340
#     4   9  18  34  57  85 119 155 193 245 296 339
#     4  10  21  37  59  84 109 142 185 231 277 328
#
# _framework density 20.294077000000001
#
# number of rings (size 3 to 8) (size 9 to 14) (size 15 to 20)
#    0.000    2.091    0.909    2.727    0.000    8.000 
#    0.000    4.545    0.000    1.091    0.000    1.273 
#    0.000    0.000    0.000    0.000    0.000    0.000 
#
# Total GULP energy -545616.338100 kJ/mol
# GULP energy per Si atom -12400.371320 kJ/mol
# Density = 2.024789 g / cm^3
# Si number density = 20.294077 Si / 1000 Ang^3
#
#
#
# Elastic Constant Matrix: (Units=GPa)
#
#
# Indices 1 2 3 4 5 6 
#
# 1 71.0753 38.1397 32.9190 0.0000 0.0000 0.0000
# 2 38.1397 147.0546 66.9283 0.0000 0.0000 0.0000
# 3 32.9190 66.9283 129.2461 0.0000 0.0000 0.0000
# 4 0.0000 0.0000 0.0000 9.4726 0.0000 0.0000
# 5 0.0000 0.0000 0.0000 0.0000 21.0756 0.0000
# 6 0.0000 0.0000 0.0000 0.0000 0.0000 13.5645
#
#
#
# Elastic Compliance Matrix: (Units=1/GPa)
#
#
# Indices 1 2 3 4 5 6 
#
# 1 0.017026 -0.003195 -0.002682 0.000000 0.000000 0.000000
# 2 -0.003195 0.009497 -0.004104 0.000000 0.000000 0.000000
# 3 -0.002682 -0.004104 0.010545 0.000000 0.000000 0.000000
# 4 0.000000 0.000000 0.000000 0.105567 0.000000 0.000000
# 5 0.000000 0.000000 0.000000 0.000000 0.047448 0.000000
# 6 0.000000 0.000000 0.000000 0.000000 0.000000 0.073722
#
#
# Mechanical properties :
#
#
# Convention : Reuss Voigt Hill
#
# Bulk Modulus (GPa) = 58.45839 69.26110 63.85974
# Shear Modulus (GPa) = 17.27292 22.78180 20.02736
#
# Velocity S-wave (km/s) = 2.92058 3.35413 3.14484
# Velocity P-wave (km/s) = 6.34360 7.01449 6.68746
#
# Compressibility (1/GPa) = 0.01710619
#
# Stress axis : x y z
#
# Youngs Moduli (GPa) = 58.73238 105.29972 94.82779
#
# Poissons Ratio (x) = 0.33646 0.25433
# Poissons Ratio (y) = 0.18767 0.38916
# Poissons Ratio (z) = 0.15752 0.43214
#
# Static dielectric constant tensor:
#      x y z
#    x 3.533350 0.000000 0.000000 
#    y 0.000000 3.688230 0.000000 
#    z 0.000000 0.000000 3.732800 
# 
# 
# High freq. dielectric constant tensor:
#      x y z
#    x 1.783540 0.000000 0.000000 
#    y 0.000000 1.791820 0.000000 
#    z 0.000000 0.000000 1.785750 
# 
# From -- ./inp_files/2315.got.cif
#   From: 2010.03.12/outbox.cif.g09.slc.cpg/sg47_2_cif.got.tgz:2315.got - 2010.04.14 03:12:58.
