data_PCOD8198976
_publ_section_title
;
Structure prediction by ZEFSAII (Michael W. Deem and Ramdas Pophale) SiO2 
 PCOD8198976
Probable space group: P M M M
;
_chemical_formula_sum "Si O2"
_cell_formula_units_Z 48
_cell_length_a 28.957982
_cell_length_b 9.006351
_cell_length_c 9.515469
_cell_angle_alpha 90.000000
_cell_angle_beta 90.000000
_cell_angle_gamma 90.000000
_cell_volume 2481.689031
_symmetry_space_group_name_H-M "P M M M"
_symmetry_group_IT_number 47
_symmetry_cell_setting 'orthorhombic'
loop_
_space_group_symop_operation_xyz
x,y,z
-x,-y,z
x,-y,-z
-x,y,-z
-x,-y,-z
x,y,-z
-x,y,z
x,-y,z
loop_
_atom_site_type_symbol
_atom_site_label
_atom_site_fract_x
_atom_site_fract_y
_atom_site_fract_z
Si Si1 0.050558 0.172742 0.500000
Si Si2 0.948632 0.672962 0.000000
Si Si3 0.446050 0.171223 0.160032
Si Si4 0.710280 0.175797 0.836477
Si Si5 0.371431 0.675405 0.663531
Si Si6 0.894084 0.670611 0.729328
Si Si7 0.211038 0.671732 0.336346
O O1 0.079984 0.218413 0.630937
O O2 0.000000 0.250270 0.500000
O O3 0.043458 0.000000 0.500000
O O4 0.915897 0.720046 0.125543
O O5 0.957867 0.500000 0.000000
O O6 0.000000 0.749755 0.000000
O O7 0.500000 0.198680 0.182307
O O8 0.420275 0.274396 0.272242
O O9 0.433242 0.000000 0.188514
O O10 0.431854 0.212940 0.000000
O O11 0.667717 0.247248 0.755176
O O12 0.756577 0.228003 0.759665
O O13 0.706218 0.000000 0.825139
O O14 0.710510 0.226186 0.000000
O O15 0.367949 0.723773 0.500000
O O16 0.366158 0.500000 0.677559
O O17 0.904517 0.500000 0.688591
O O18 0.839731 0.699238 0.724429
O O19 0.213911 0.719652 0.500000
O O20 0.225636 0.500000 0.321202
#
# Coordination Sequence:
#
# PCOD8198976 Si02
#       7
#     4   4   8   8   8   8   8
#     4  11  23  37  55  83 117 153 193 233 280 339
#     4   9  18  32  55  87 115 143 187 237 282 333
#     4   9  19  37  61  89 122 161 205 251 297 349
#     4  11  25  42  61  87 116 150 194 238 288 352
#     4  11  24  40  59  87 122 158 199 248 298 347
#     4  10  20  37  60  85 113 149 190 236 285 337
#     4  10  21  38  60  87 115 145 188 236 287 345
#
# _framework density 19.341667000000001
#
# number of rings (size 3 to 8) (size 9 to 14) (size 15 to 20)
#    0.000    1.833    0.833    3.250    1.167   10.000 
#    0.000    2.917    0.000    1.500    0.000    0.000 
#    0.000    0.000    0.000    0.000    0.000    0.000 
#
# Total GULP energy -595084.091143 kJ/mol
# GULP energy per Si atom -12397.585232 kJ/mol
# Density = 1.929764 g / cm^3
# Si number density = 19.341667 Si / 1000 Ang^3
#
#
#
# Elastic Constant Matrix: (Units=GPa)
#
#
# Indices 1 2 3 4 5 6 
#
# 1 120.3771 48.3321 79.9354 0.0000 0.0000 0.0000
# 2 48.3321 68.5404 58.0222 0.0000 0.0000 0.0000
# 3 79.9354 58.0222 177.5436 0.0000 0.0000 0.0000
# 4 0.0000 0.0000 0.0000 31.4219 0.0000 0.0000
# 5 0.0000 0.0000 0.0000 0.0000 37.7695 0.0000
# 6 0.0000 0.0000 0.0000 0.0000 0.0000 34.8220
#
#
#
# Elastic Compliance Matrix: (Units=1/GPa)
#
#
# Indices 1 2 3 4 5 6 
#
# 1 0.013434 -0.006018 -0.004082 0.000000 0.000000 0.000000
# 2 -0.006018 0.022866 -0.004763 0.000000 0.000000 0.000000
# 3 -0.004082 -0.004763 0.009027 0.000000 0.000000 0.000000
# 4 0.000000 0.000000 0.000000 0.031825 0.000000 0.000000
# 5 0.000000 0.000000 0.000000 0.000000 0.026476 0.000000
# 6 0.000000 0.000000 0.000000 0.000000 0.000000 0.028717
#
#
# Mechanical properties :
#
#
# Convention : Reuss Voigt Hill
#
# Bulk Modulus (GPa) = 64.09868 82.11561 73.10715
# Shear Modulus (GPa) = 29.89169 32.81411 31.35290
#
# Velocity S-wave (km/s) = 3.93549 4.12339 4.03054
# Velocity P-wave (km/s) = 7.33914 8.07572 7.71622
#
# Compressibility (1/GPa) = 0.01560094
#
# Stress axis : x y z
#
# Youngs Moduli (GPa) = 74.43935 43.73371 110.78154
#
# Poissons Ratio (x) = 0.26317 0.45217
# Poissons Ratio (y) = 0.44795 0.52768
# Poissons Ratio (z) = 0.30384 0.20832
#
# Static dielectric constant tensor:
#      x y z
#    x 3.571780 0.000000 0.000000 
#    y 0.000000 3.404280 0.000000 
#    z 0.000000 0.000000 3.626450 
# 
# 
# High freq. dielectric constant tensor:
#      x y z
#    x 1.770750 0.000000 0.000000 
#    y 0.000000 1.738440 0.000000 
#    z 0.000000 0.000000 1.765150 
# 
# From -- ./inp_files/13985.got.cif
#   From: 2010.03.12/outbox.cif.g09.slc.cpg/sg47_7_cif.got.tgz:13985.got - 2010.04.14 03:12:58.
