data_PCOD8198344
_publ_section_title
;
Structure prediction by ZEFSAII (Michael W. Deem and Ramdas Pophale) SiO2 
 PCOD8198344
Probable space group: P M M M
;
_chemical_formula_sum "Si O2"
_cell_formula_units_Z 40
_cell_length_a 9.124751
_cell_length_b 25.587762
_cell_length_c 8.780736
_cell_angle_alpha 90.000000
_cell_angle_beta 90.000000
_cell_angle_gamma 90.000000
_cell_volume 2050.143424
_symmetry_space_group_name_H-M "P M M M"
_symmetry_group_IT_number 47
_symmetry_cell_setting 'orthorhombic'
loop_
_space_group_symop_operation_xyz
x,y,z
-x,-y,z
x,-y,-z
-x,y,-z
-x,-y,-z
x,y,-z
-x,y,z
x,-y,z
loop_
_atom_site_type_symbol
_atom_site_label
_atom_site_fract_x
_atom_site_fract_y
_atom_site_fract_z
Si Si1 0.326010 0.105409 0.672545
Si Si2 0.165593 0.500000 0.679937
Si Si3 0.330794 0.403414 0.178215
Si Si4 0.831633 0.200207 0.175980
Si Si5 0.829809 0.691397 0.676945
Si Si6 0.674431 0.000000 0.828163
O O1 0.268410 0.110866 0.500000
O O2 0.500000 0.106880 0.678317
O O3 0.267264 0.152084 0.774916
O O4 0.266333 0.051035 0.740963
O O5 0.165266 0.500000 0.500000
O O6 0.246250 0.551483 0.734995
O O7 0.000000 0.500000 0.743653
O O8 0.500000 0.405772 0.225646
O O9 0.266942 0.347663 0.224594
O O10 0.309817 0.412085 0.000000
O O11 0.785616 0.250262 0.274963
O O12 0.000000 0.185404 0.206205
O O13 0.802880 0.213258 0.000000
O O14 0.794374 0.683539 0.500000
O O15 0.000000 0.680641 0.712664
O O16 0.500000 0.000000 0.829273
O O17 0.736158 0.000000 0.000000
#
# Coordination Sequence:
#
# PCOD8198344 Si02
#       6
#     8   4   8   8   8   4
#     4  10  20  34  54  80 109 142 181 225 274 329
#     4  11  24  41  62  88 116 149 190 231 274 328
#     4  11  24  40  59  86 118 150 186 229 276 325
#     4  10  21  37  57  81 110 145 184 227 276 328
#     4  10  21  38  60  84 110 144 186 228 273 329
#     4   9  17  31  52  77 106 141 180 224 274 327
#
# _framework density 19.510829999999999
#
# number of rings (size 3 to 8) (size 9 to 14) (size 15 to 20)
#    0.000    1.800    0.000    3.900    0.000   11.600 
#    0.000    0.500    0.000    3.000    0.000    0.000 
#    0.000    0.000    0.000    0.000    0.000    0.000 
#
# Total GULP energy -496210.945674 kJ/mol
# GULP energy per Si atom -12405.273642 kJ/mol
# Density = 1.946642 g / cm^3
# Si number density = 19.510830 Si / 1000 Ang^3
#
#
#
# Elastic Constant Matrix: (Units=GPa)
#
#
# Indices 1 2 3 4 5 6 
#
# 1 74.0247 50.3927 35.5056 0.0000 0.0000 0.0000
# 2 50.3927 120.4181 25.8925 0.0000 0.0000 0.0000
# 3 35.5056 25.8925 68.4784 0.0000 0.0000 0.0000
# 4 0.0000 0.0000 0.0000 44.2744 0.0000 0.0000
# 5 0.0000 0.0000 0.0000 0.0000 28.3324 0.0000
# 6 0.0000 0.0000 0.0000 0.0000 0.0000 29.4768
#
#
#
# Elastic Compliance Matrix: (Units=1/GPa)
#
#
# Indices 1 2 3 4 5 6 
#
# 1 0.023115 -0.007724 -0.009064 0.000000 0.000000 0.000000
# 2 -0.007724 0.011620 -0.000389 0.000000 0.000000 0.000000
# 3 -0.009064 -0.000389 0.019450 0.000000 0.000000 0.000000
# 4 0.000000 0.000000 0.000000 0.022586 0.000000 0.000000
# 5 0.000000 0.000000 0.000000 0.000000 0.035295 0.000000
# 6 0.000000 0.000000 0.000000 0.000000 0.000000 0.033925
#
#
# Mechanical properties :
#
#
# Convention : Reuss Voigt Hill
#
# Bulk Modulus (GPa) = 50.42720 54.05587 52.24154
# Shear Modulus (GPa) = 26.74412 30.49208 28.61810
#
# Velocity S-wave (km/s) = 3.70636 3.95755 3.83401
# Velocity P-wave (km/s) = 6.64966 6.97486 6.81420
#
# Compressibility (1/GPa) = 0.01983057
#
# Stress axis : x y z
#
# Youngs Moduli (GPa) = 43.26213 86.05538 51.41392
#
# Poissons Ratio (x) = 0.66470 0.46603
# Poissons Ratio (y) = 0.33416 0.01999
# Poissons Ratio (z) = 0.39214 0.03347
#
# Static dielectric constant tensor:
#      x y z
#    x 3.469780 0.000000 0.000000 
#    y 0.000000 3.785990 0.000000 
#    z 0.000000 0.000000 3.751270 
# 
# 
# High freq. dielectric constant tensor:
#      x y z
#    x 1.744640 0.000000 0.000000 
#    y 0.000000 1.775210 0.000000 
#    z 0.000000 0.000000 1.776990 
# 
# From -- ./inp_files/1747.got.cif
#   From: 2010.03.12/outbox.cif.g09.slc.cpg/sg47_1_cif.got.tgz:1747.got - 2010.04.14 03:12:58.
