data_PCOD8198328
_publ_section_title
;
Structure prediction by ZEFSAII (Michael W. Deem and Ramdas Pophale) SiO2 
 PCOD8198328
Probable space group: P M M M
;
_chemical_formula_sum "Si O2"
_cell_formula_units_Z 48
_cell_length_a 7.982560
_cell_length_b 32.057453
_cell_length_c 9.255787
_cell_angle_alpha 90.000000
_cell_angle_beta 90.000000
_cell_angle_gamma 90.000000
_cell_volume 2368.560910
_symmetry_space_group_name_H-M "P M M M"
_symmetry_group_IT_number 47
_symmetry_cell_setting 'orthorhombic'
loop_
_space_group_symop_operation_xyz
x,y,z
-x,-y,z
x,-y,-z
-x,y,-z
-x,-y,-z
x,y,-z
-x,y,z
x,-y,z
loop_
_atom_site_type_symbol
_atom_site_label
_atom_site_fract_x
_atom_site_fract_y
_atom_site_fract_z
Si Si1 0.306571 0.335192 0.658935
Si Si2 0.000000 0.049244 0.166355
Si Si3 0.193010 0.411753 0.164062
Si Si4 0.698929 0.742286 0.163374
Si Si5 0.688936 0.500000 0.171260
Si Si6 0.310215 0.910832 0.331554
Si Si7 0.807701 0.821151 0.661989
O O1 0.221492 0.337408 0.500000
O O2 0.500000 0.325106 0.640423
O O3 0.291125 0.379136 0.738834
O O4 0.225315 0.297376 0.750213
O O5 0.828998 0.065210 0.239465
O O6 0.000000 0.000000 0.180076
O O7 0.000000 0.063961 0.000000
O O8 0.220495 0.458224 0.228481
O O9 0.000000 0.400070 0.169404
O O10 0.262415 0.409099 0.000000
O O11 0.500000 0.743188 0.170589
O O12 0.770335 0.784625 0.227342
O O13 0.763081 0.738130 0.000000
O O14 0.500000 0.500000 0.228527
O O15 0.699660 0.500000 0.000000
O O16 0.272350 0.919252 0.500000
O O17 0.500000 0.925707 0.291806
O O18 0.301626 0.861501 0.298333
O O19 0.764587 0.805485 0.500000
O O20 0.000000 0.834968 0.673911
#
# Coordination Sequence:
#
# PCOD8198328 Si02
#       7
#     8   4   8   8   4   8   8
#     4  10  21  37  56  77 104 142 187 232 279 332
#     4  11  25  43  63  91 131 173 211 259 317 376
#     4  10  20  34  54  80 109 139 173 217 270 329
#     4  10  21  36  55  81 112 147 189 235 284 341
#     4   9  17  31  54  81 106 135 172 214 264 323
#     4  10  21  40  67  95 124 163 212 263 314 371
#     4  10  20  36  59  86 118 155 195 242 296 353
#
# _framework density 20.265470000000001
#
# number of rings (size 3 to 8) (size 9 to 14) (size 15 to 20)
#    0.000    2.000    0.833    2.500    0.000    7.667 
#    0.000    2.083    0.000    2.500    0.000    0.000 
#    0.000    0.000    0.000    0.000    0.000    0.000 
#
# Total GULP energy -595191.468117 kJ/mol
# GULP energy per Si atom -12399.822252 kJ/mol
# Density = 2.021935 g / cm^3
# Si number density = 20.265470 Si / 1000 Ang^3
#
#
#
# Elastic Constant Matrix: (Units=GPa)
#
#
# Indices 1 2 3 4 5 6 
#
# 1 78.2926 38.1981 48.4343 0.0000 0.0000 0.0000
# 2 38.1981 113.2314 69.2734 0.0000 0.0000 0.0000
# 3 48.4343 69.2734 127.0912 0.0000 0.0000 0.0000
# 4 0.0000 0.0000 0.0000 15.7505 0.0000 0.0000
# 5 0.0000 0.0000 0.0000 0.0000 23.6462 0.0000
# 6 0.0000 0.0000 0.0000 0.0000 0.0000 28.6258
#
#
#
# Elastic Compliance Matrix: (Units=1/GPa)
#
#
# Indices 1 2 3 4 5 6 
#
# 1 0.017244 -0.002696 -0.005102 0.000000 0.000000 0.000000
# 2 -0.002696 0.013671 -0.006424 0.000000 0.000000 0.000000
# 3 -0.005102 -0.006424 0.013315 0.000000 0.000000 0.000000
# 4 0.000000 0.000000 0.000000 0.063490 0.000000 0.000000
# 5 0.000000 0.000000 0.000000 0.000000 0.042290 0.000000
# 6 0.000000 0.000000 0.000000 0.000000 0.000000 0.034933
#
#
# Mechanical properties :
#
#
# Convention : Reuss Voigt Hill
#
# Bulk Modulus (GPa) = 63.35101 70.04743 66.69922
# Shear Modulus (GPa) = 22.86755 24.45181 23.65968
#
# Velocity S-wave (km/s) = 3.36281 3.47735 3.42056
# Velocity P-wave (km/s) = 6.81223 7.12478 6.97026
#
# Compressibility (1/GPa) = 0.01578507
#
# Stress axis : x y z
#
# Youngs Moduli (GPa) = 57.99006 73.14635 75.10525
#
# Poissons Ratio (x) = 0.19718 0.38322
# Poissons Ratio (y) = 0.15632 0.48251
# Poissons Ratio (z) = 0.29589 0.46992
#
# Static dielectric constant tensor:
#      x y z
#    x 3.653070 0.000000 0.000000 
#    y 0.000000 3.670410 0.000000 
#    z 0.000000 0.000000 3.760460 
# 
# 
# High freq. dielectric constant tensor:
#      x y z
#    x 1.789020 0.000000 0.000000 
#    y 0.000000 1.797000 0.000000 
#    z 0.000000 0.000000 1.779360 
# 
# From -- ./inp_files/2544.got.cif
#   From: 2010.03.12/outbox.cif.g09.slc.cpg/sg47_2_cif.got.tgz:2544.got - 2010.04.14 03:12:58.
