data_PCOD8198202
_publ_section_title
;
Structure prediction by ZEFSAII (Michael W. Deem and Ramdas Pophale) SiO2 
 PCOD8198202
Probable space group: P M M M
;
_chemical_formula_sum "Si O2"
_cell_formula_units_Z 52
_cell_length_a 8.901099
_cell_length_b 23.075274
_cell_length_c 14.078209
_cell_angle_alpha 90.000000
_cell_angle_beta 90.000000
_cell_angle_gamma 90.000000
_cell_volume 2891.597937
_symmetry_space_group_name_H-M "P M M M"
_symmetry_group_IT_number 47
_symmetry_cell_setting 'orthorhombic'
loop_
_space_group_symop_operation_xyz
x,y,z
-x,-y,z
x,-y,-z
-x,y,-z
-x,-y,-z
x,y,-z
-x,y,z
x,-y,z
loop_
_atom_site_type_symbol
_atom_site_label
_atom_site_fract_x
_atom_site_fract_y
_atom_site_fract_z
Si Si1 0.322774 0.778274 0.710672
Si Si2 0.175109 0.253471 0.893084
Si Si3 0.325715 0.565713 0.704774
Si Si4 0.830323 0.115161 0.387222
Si Si5 0.670700 0.373317 0.894622
Si Si6 0.330498 0.000000 0.613179
Si Si7 0.174857 0.670971 0.610277
O O1 0.500000 0.780252 0.707511
O O2 0.265988 0.786247 0.818877
O O3 0.260502 0.829495 0.646646
O O4 0.267981 0.716756 0.671281
O O5 0.217274 0.320332 0.877534
O O6 0.000000 0.246145 0.872766
O O7 0.216773 0.233565 0.000000
O O8 0.500000 0.575573 0.679821
O O9 0.276665 0.500000 0.683971
O O10 0.295386 0.577983 0.816310
O O11 0.226379 0.606579 0.638038
O O12 0.828396 0.115205 0.500000
O O13 0.000000 0.117982 0.348429
O O14 0.753728 0.056793 0.347440
O O15 0.500000 0.349884 0.884075
O O16 0.695415 0.400138 0.000000
O O17 0.500000 0.000000 0.652410
O O18 0.329223 0.000000 0.500000
O O19 0.208025 0.681651 0.500000
O O20 0.000000 0.678864 0.633505
#
# Coordination Sequence:
#
# PCOD8198202 Si02
#       7
#     8   8   8   8   8   4   8
#     4  12  23  35  55  82 110 140 176 220 270 320
#     4  10  20  34  54  79 107 138 171 211 261 317
#     4  10  21  36  54  77 103 134 172 213 262 320
#     4  10  20  34  53  79 113 152 190 226 266 313
#     4   9  17  31  52  77 104 133 165 204 255 316
#     4   9  17  31  51  77 112 151 190 229 267 309
#     4  11  24  40  56  74  99 134 176 221 270 321
#
# _framework density 17.983135999999998
#
# number of rings (size 3 to 8) (size 9 to 14) (size 15 to 20)
#    0.000    1.769    1.538    3.462    0.000    6.769 
#    0.000    3.077    0.000    0.000    0.000    3.769 
#    0.000    4.308    0.000    0.000    0.000    0.000 
#
# Total GULP energy -644912.087974 kJ/mol
# GULP energy per Si atom -12402.155538 kJ/mol
# Density = 1.794221 g / cm^3
# Si number density = 17.983136 Si / 1000 Ang^3
#
#
#
# Elastic Constant Matrix: (Units=GPa)
#
#
# Indices 1 2 3 4 5 6 
#
# 1 125.1860 41.5453 40.9018 0.0000 0.0000 0.0000
# 2 41.5453 82.3786 16.5299 0.0000 0.0000 0.0000
# 3 40.9018 16.5299 58.7492 0.0000 0.0000 0.0000
# 4 0.0000 0.0000 0.0000 13.0795 0.0000 0.0000
# 5 0.0000 0.0000 0.0000 0.0000 27.8285 0.0000
# 6 0.0000 0.0000 0.0000 0.0000 0.0000 22.4128
#
#
#
# Elastic Compliance Matrix: (Units=1/GPa)
#
#
# Indices 1 2 3 4 5 6 
#
# 1 0.011751 -0.004541 -0.006903 0.000000 0.000000 0.000000
# 2 -0.004541 0.014620 -0.000952 0.000000 0.000000 0.000000
# 3 -0.006903 -0.000952 0.022095 0.000000 0.000000 0.000000
# 4 0.000000 0.000000 0.000000 0.076456 0.000000 0.000000
# 5 0.000000 0.000000 0.000000 0.000000 0.035934 0.000000
# 6 0.000000 0.000000 0.000000 0.000000 0.000000 0.044617
#
#
# Mechanical properties :
#
#
# Convention : Reuss Voigt Hill
#
# Bulk Modulus (GPa) = 42.24097 51.58531 46.91314
# Shear Modulus (GPa) = 20.99450 23.81994 22.40722
#
# Velocity S-wave (km/s) = 3.42051 3.64341 3.53372
# Velocity P-wave (km/s) = 6.25620 6.81520 6.54167
#
# Compressibility (1/GPa) = 0.02367370
#
# Stress axis : x y z
#
# Youngs Moduli (GPa) = 85.10230 68.39851 45.25809
#
# Poissons Ratio (x) = 0.31059 0.31243
# Poissons Ratio (y) = 0.38644 0.04309
# Poissons Ratio (z) = 0.58748 0.06513
#
# Static dielectric constant tensor:
#      x y z
#    x 3.464330 0.000000 0.000000 
#    y 0.000000 3.197520 0.000000 
#    z 0.000000 0.000000 3.429740 
# 
# 
# High freq. dielectric constant tensor:
#      x y z
#    x 1.707800 0.000000 0.000000 
#    y 0.000000 1.676170 0.000000 
#    z 0.000000 0.000000 1.689470 
# 
# From -- ./inp_files/21419.got.cif
#   From: 2010.03.12/outbox.cif.g09.slc.cpg/sg47_11_cif.got.tgz:21419.got - 2010.04.14 03:12:58.
