data_PCOD8198849
_publ_section_title
;
Structure prediction by ZEFSAII (Michael W. Deem and Ramdas Pophale) SiO2 
 PCOD8198849
Probable space group: P M M M
;
_chemical_formula_sum "Si O2"
_cell_formula_units_Z 48
_cell_length_a 8.726548
_cell_length_b 20.515109
_cell_length_c 13.942927
_cell_angle_alpha 90.000000
_cell_angle_beta 90.000000
_cell_angle_gamma 90.000000
_cell_volume 2496.147612
_symmetry_space_group_name_H-M "P M M M"
_symmetry_group_IT_number 47
_symmetry_cell_setting 'orthorhombic'
loop_
_space_group_symop_operation_xyz
x,y,z
-x,-y,z
x,-y,-z
-x,y,-z
-x,-y,-z
x,y,-z
-x,y,z
x,-y,z
loop_
_atom_site_type_symbol
_atom_site_label
_atom_site_fract_x
_atom_site_fract_y
_atom_site_fract_z
Si Si1 0.680980 0.000000 0.608230
Si Si2 0.178640 0.877229 0.288103
Si Si3 0.178041 0.683907 0.109321
Si Si4 0.679586 0.822850 0.108761
Si Si5 0.676236 0.243548 0.388255
Si Si6 0.819143 0.500000 0.389135
Si Si7 0.320594 0.377331 0.283319
O O1 0.735901 0.935957 0.661508
O O2 0.500000 0.000000 0.606907
O O3 0.746355 0.000000 0.500000
O O4 0.233402 0.873084 0.177791
O O5 0.215371 0.810302 0.342062
O O6 0.000000 0.891392 0.291166
O O7 0.270508 0.749490 0.132693
O O8 0.241977 0.627606 0.178634
O O9 0.000000 0.697420 0.129113
O O10 0.205853 0.661245 0.000000
O O11 0.500000 0.828066 0.127698
O O12 0.723335 0.841383 0.000000
O O13 0.711876 0.247611 0.500000
O O14 0.500000 0.224466 0.368199
O O15 0.717220 0.312903 0.343453
O O16 0.769912 0.500000 0.500000
O O17 0.750699 0.563174 0.339744
O O18 0.000000 0.500000 0.376505
O O19 0.500000 0.388872 0.269837
#
# Coordination Sequence:
#
# PCOD8198849 Si02
#       7
#     4   8   8   8   8   4   8
#     4  11  25  45  66  85 116 163 207 248 298 359
#     4  12  24  38  60  90 123 157 197 248 304 358
#     4  10  20  35  58  90 125 158 195 244 302 357
#     4  10  20  36  60  89 121 159 202 245 293 353
#     4  10  21  37  58  85 117 154 199 248 296 351
#     4  11  25  43  62  85 120 163 203 248 306 365
#     4  11  22  38  62  89 119 158 204 249 297 357
#
# _framework density 19.22963
#
# number of rings (size 3 to 8) (size 9 to 14) (size 15 to 20)
#    0.000    1.333    1.667    4.500    0.000    7.000 
#    0.000    0.833    0.000    5.000    0.000    0.000 
#    0.000    0.000    0.000    0.000    0.000    0.000 
#
# Total GULP energy -595463.185271 kJ/mol
# GULP energy per Si atom -12405.483026 kJ/mol
# Density = 1.918586 g / cm^3
# Si number density = 19.229630 Si / 1000 Ang^3
#
#
#
# Elastic Constant Matrix: (Units=GPa)
#
#
# Indices 1 2 3 4 5 6 
#
# 1 73.4618 37.1231 42.8930 0.0000 0.0000 0.0000
# 2 37.1231 103.9032 63.4135 0.0000 0.0000 0.0000
# 3 42.8930 63.4135 146.4648 0.0000 0.0000 0.0000
# 4 0.0000 0.0000 0.0000 28.6088 0.0000 0.0000
# 5 0.0000 0.0000 0.0000 0.0000 29.9731 0.0000
# 6 0.0000 0.0000 0.0000 0.0000 0.0000 1.4658
#
#
#
# Elastic Compliance Matrix: (Units=1/GPa)
#
#
# Indices 1 2 3 4 5 6 
#
# 1 0.017731 -0.004303 -0.003330 0.000000 0.000000 0.000000
# 2 -0.004303 0.014125 -0.004855 0.000000 0.000000 0.000000
# 3 -0.003330 -0.004855 0.009905 0.000000 0.000000 0.000000
# 4 0.000000 0.000000 0.000000 0.034954 0.000000 0.000000
# 5 0.000000 0.000000 0.000000 0.000000 0.033363 0.000000
# 6 0.000000 0.000000 0.000000 0.000000 0.000000 0.682213
#
#
# Mechanical properties :
#
#
# Convention : Reuss Voigt Hill
#
# Bulk Modulus (GPa) = 59.57708 67.85434 63.71571
# Shear Modulus (GPa) = 6.07635 24.03622 15.05628
#
# Velocity S-wave (km/s) = 1.77954 3.53931 2.80120
# Velocity P-wave (km/s) = 5.93898 7.21562 6.60820
#
# Compressibility (1/GPa) = 0.01678498
#
# Stress axis : x y z
#
# Youngs Moduli (GPa) = 56.39816 70.79604 100.96006
#
# Poissons Ratio (x) = 0.30463 0.33616
# Poissons Ratio (y) = 0.24268 0.49021
# Poissons Ratio (z) = 0.18779 0.34375
#
# Static dielectric constant tensor:
#      x y z
#    x 3.596650 0.000000 0.000000 
#    y 0.000000 3.017710 0.000000 
#    z 0.000000 0.000000 3.858320 
# 
# 
# High freq. dielectric constant tensor:
#      x y z
#    x 1.759730 0.000000 0.000000 
#    y 0.000000 1.731460 0.000000 
#    z 0.000000 0.000000 1.769730 
# 
# From -- ./inp_files/21114.got.cif
#   From: 2010.03.12/outbox.cif.g09.slc.cpg/sg47_11_cif.got.tgz:21114.got - 2010.04.14 03:12:58.
