data_PCOD8198428
_publ_section_title
;
Structure prediction by ZEFSAII (Michael W. Deem and Ramdas Pophale) SiO2 
 PCOD8198428
Probable space group: P M M M
;
_chemical_formula_sum "Si O2"
_cell_formula_units_Z 52
_cell_length_a 12.741091
_cell_length_b 23.302230
_cell_length_c 9.117543
_cell_angle_alpha 90.000000
_cell_angle_beta 90.000000
_cell_angle_gamma 90.000000
_cell_volume 2706.960523
_symmetry_space_group_name_H-M "P M M M"
_symmetry_group_IT_number 47
_symmetry_cell_setting 'orthorhombic'
loop_
_space_group_symop_operation_xyz
x,y,z
-x,-y,z
x,-y,-z
-x,y,-z
-x,-y,-z
x,y,-z
-x,y,z
x,-y,z
loop_
_atom_site_type_symbol
_atom_site_label
_atom_site_fract_x
_atom_site_fract_y
_atom_site_fract_z
Si Si1 0.000000 0.763394 0.173910
Si Si2 0.500000 0.067631 0.836679
Si Si3 0.379685 0.631022 0.672167
Si Si4 0.797291 0.566408 0.169983
Si Si5 0.200094 0.166035 0.171753
Si Si6 0.709128 0.066092 0.672143
Si Si7 0.380536 0.252844 0.831349
Si Si8 0.000000 0.365717 0.174717
O O1 0.102399 0.796895 0.229445
O O2 0.000000 0.698971 0.238117
O O3 0.000000 0.759201 0.000000
O O4 0.602065 0.087035 0.748328
O O5 0.500000 0.000000 0.852801
O O6 0.500000 0.095996 0.000000
O O7 0.361757 0.632085 0.500000
O O8 0.500000 0.616672 0.713043
O O9 0.307465 0.582205 0.742114
O O10 0.347472 0.692908 0.734715
O O11 0.823013 0.500000 0.194635
O O12 0.895967 0.602252 0.232526
O O13 0.777536 0.580492 0.000000
O O14 0.199660 0.106030 0.260551
O O15 0.306166 0.200123 0.209953
O O16 0.190250 0.152168 0.000000
O O17 0.697840 0.075799 0.500000
O O18 0.735868 0.000000 0.708472
O O19 0.500000 0.233496 0.799566
O O20 0.364452 0.270933 0.000000
O O21 0.000000 0.367123 0.000000
#
# Coordination Sequence:
#
# PCOD8198428 Si02
#       8
#     4   4   8   8   8   8   8   4
#     4   9  18  33  54  81 108 139 178 227 280 327
#     4   9  17  31  53  79 107 141 179 217 260 315
#     4  10  21  36  53  75 108 150 189 224 268 323
#     4  10  20  34  56  85 112 141 180 225 273 327
#     4  10  20  34  55  81 109 140 182 229 276 329
#     4  10  21  36  53  77 111 148 183 222 272 326
#     4   9  18  33  54  80 107 137 178 229 278 326
#     4   9  17  34  60  85 111 138 172 223 284 333
#
# _framework density 19.209737000000001
#
# number of rings (size 3 to 8) (size 9 to 14) (size 15 to 20)
#    0.000    2.385    0.000    2.308    1.077    7.385 
#    0.000    2.692    0.000    4.154    0.000    0.000 
#    0.000    0.000    0.000    0.000    0.000    0.000 
#
# Total GULP energy -644920.157457 kJ/mol
# GULP energy per Si atom -12402.310720 kJ/mol
# Density = 1.916601 g / cm^3
# Si number density = 19.209737 Si / 1000 Ang^3
#
#
#
# Elastic Constant Matrix: (Units=GPa)
#
#
# Indices 1 2 3 4 5 6 
#
# 1 109.7391 73.3152 42.5319 0.0000 0.0000 0.0000
# 2 73.3152 127.2159 51.4322 0.0000 0.0000 0.0000
# 3 42.5319 51.4322 71.1336 0.0000 0.0000 0.0000
# 4 0.0000 0.0000 0.0000 20.7893 0.0000 0.0000
# 5 0.0000 0.0000 0.0000 0.0000 16.9495 0.0000
# 6 0.0000 0.0000 0.0000 0.0000 0.0000 35.2077
#
#
#
# Elastic Compliance Matrix: (Units=1/GPa)
#
#
# Indices 1 2 3 4 5 6 
#
# 1 0.015580 -0.007366 -0.003990 0.000000 0.000000 0.000000
# 2 -0.007366 0.014590 -0.006145 0.000000 0.000000 0.000000
# 3 -0.003990 -0.006145 0.020887 0.000000 0.000000 0.000000
# 4 0.000000 0.000000 0.000000 0.048102 0.000000 0.000000
# 5 0.000000 0.000000 0.000000 0.000000 0.058999 0.000000
# 6 0.000000 0.000000 0.000000 0.000000 0.000000 0.028403
#
#
# Mechanical properties :
#
#
# Convention : Reuss Voigt Hill
#
# Bulk Modulus (GPa) = 62.28392 71.40524 66.84458
# Shear Modulus (GPa) = 22.03497 23.97659 23.00578
#
# Velocity S-wave (km/s) = 3.39052 3.53675 3.46440
# Velocity P-wave (km/s) = 6.91527 7.34372 7.13271
#
# Compressibility (1/GPa) = 0.01605551
#
# Stress axis : x y z
#
# Youngs Moduli (GPa) = 64.18585 68.54064 47.87760
#
# Poissons Ratio (x) = 0.50485 0.19102
# Poissons Ratio (y) = 0.47277 0.29421
# Poissons Ratio (z) = 0.25608 0.42118
#
# Static dielectric constant tensor:
#      x y z
#    x 3.574500 0.000000 0.000000 
#    y 0.000000 3.500620 0.000000 
#    z 0.000000 0.000000 3.315560 
# 
# 
# High freq. dielectric constant tensor:
#      x y z
#    x 1.744070 0.000000 0.000000 
#    y 0.000000 1.751400 0.000000 
#    z 0.000000 0.000000 1.724760 
# 
# From -- ./inp_files/7159.got.cif
#   From: 2010.03.12/outbox.cif.g09.slc.cpg/sg47_4_cif.got.tgz:7159.got - 2010.04.14 03:12:58.
