data_PCOD8198757
_publ_section_title
;
Structure prediction by ZEFSAII (Michael W. Deem and Ramdas Pophale) SiO2 
 PCOD8198757
Probable space group: P M M M
;
_chemical_formula_sum "Si O2"
_cell_formula_units_Z 48
_cell_length_a 30.900066
_cell_length_b 8.784088
_cell_length_c 8.962310
_cell_angle_alpha 90.000000
_cell_angle_beta 90.000000
_cell_angle_gamma 90.000000
_cell_volume 2432.629935
_symmetry_space_group_name_H-M "P M M M"
_symmetry_group_IT_number 47
_symmetry_cell_setting 'orthorhombic'
loop_
_space_group_symop_operation_xyz
x,y,z
-x,-y,z
x,-y,-z
-x,y,-z
-x,-y,-z
x,y,-z
-x,y,z
x,-y,z
loop_
_atom_site_type_symbol
_atom_site_label
_atom_site_fract_x
_atom_site_fract_y
_atom_site_fract_z
Si Si1 0.162011 0.676309 0.174666
Si Si2 0.581770 0.821486 0.326892
Si Si3 0.500000 0.673325 0.176329
Si Si4 0.000000 0.679746 0.832018
Si Si5 0.669584 0.671009 0.677104
Si Si6 0.918778 0.177839 0.327862
Si Si7 0.757407 0.176041 0.675681
O O1 0.152955 0.500000 0.209744
O O2 0.126342 0.779111 0.253644
O O3 0.208531 0.721538 0.237104
O O4 0.160466 0.709800 0.000000
O O5 0.574639 0.781312 0.500000
O O6 0.542061 0.757661 0.234999
O O7 0.625476 0.745740 0.262833
O O8 0.585540 0.000000 0.301536
O O9 0.500000 0.500000 0.233913
O O10 0.500000 0.681654 0.000000
O O11 0.957437 0.733512 0.748819
O O12 0.000000 0.500000 0.834724
O O13 0.000000 0.745341 0.000000
O O14 0.668395 0.669620 0.500000
O O15 0.673782 0.500000 0.740763
O O16 0.710166 0.771174 0.731083
O O17 0.917059 0.225201 0.500000
O O18 0.927132 0.000000 0.307965
O O19 0.763447 0.203635 0.500000
O O20 0.763831 0.000000 0.717152
#
# Coordination Sequence:
#
# PCOD8198757 Si02
#       7
#     8   8   4   4   8   8   8
#     4  11  24  40  58  83 115 151 192 236 282 334
#     4  10  20  35  57  84 111 141 181 228 276 329
#     4  11  24  39  54  76 108 145 184 227 276 330
#     4  11  24  41  62  90 122 155 192 233 280 336
#     4   9  17  31  54  83 113 145 181 224 275 328
#     4  11  24  41  62  89 118 150 192 238 283 335
#     4  10  20  35  57  85 115 147 185 229 277 331
#
# _framework density 19.731731
#
# number of rings (size 3 to 8) (size 9 to 14) (size 15 to 20)
#    0.000    1.667    0.000    4.500    0.000   14.000 
#    0.000    0.833    0.000    5.000    0.000    0.000 
#    0.000    0.000    0.000    0.000    0.000    0.000 
#
# Total GULP energy -595433.381230 kJ/mol
# GULP energy per Si atom -12404.862109 kJ/mol
# Density = 1.968682 g / cm^3
# Si number density = 19.731731 Si / 1000 Ang^3
#
#
#
# Elastic Constant Matrix: (Units=GPa)
#
#
# Indices 1 2 3 4 5 6 
#
# 1 138.2776 26.4890 44.6608 0.0000 0.0000 0.0000
# 2 26.4890 72.9163 39.8334 0.0000 0.0000 0.0000
# 3 44.6608 39.8334 77.8179 0.0000 0.0000 0.0000
# 4 0.0000 0.0000 0.0000 26.8684 0.0000 0.0000
# 5 0.0000 0.0000 0.0000 0.0000 52.4117 0.0000
# 6 0.0000 0.0000 0.0000 0.0000 0.0000 46.3911
#
#
#
# Elastic Compliance Matrix: (Units=1/GPa)
#
#
# Indices 1 2 3 4 5 6 
#
# 1 0.008897 -0.000615 -0.004792 0.000000 0.000000 0.000000
# 2 -0.000615 0.019080 -0.009414 0.000000 0.000000 0.000000
# 3 -0.004792 -0.009414 0.020419 0.000000 0.000000 0.000000
# 4 0.000000 0.000000 0.000000 0.037218 0.000000 0.000000
# 5 0.000000 0.000000 0.000000 0.000000 0.019080 0.000000
# 6 0.000000 0.000000 0.000000 0.000000 0.000000 0.021556
#
#
# Mechanical properties :
#
#
# Convention : Reuss Voigt Hill
#
# Bulk Modulus (GPa) = 53.31543 56.77539 55.04541
# Shear Modulus (GPa) = 30.83678 37.00281 33.91980
#
# Velocity S-wave (km/s) = 3.95752 4.33517 4.15064
# Velocity P-wave (km/s) = 6.92542 7.34128 7.13638
#
# Compressibility (1/GPa) = 0.01875629
#
# Stress axis : x y z
#
# Youngs Moduli (GPa) = 112.39551 52.40953 48.97287
#
# Poissons Ratio (x) = 0.03221 0.23466
# Poissons Ratio (y) = 0.06907 0.46104
# Poissons Ratio (z) = 0.53856 0.49340
#
# Static dielectric constant tensor:
#      x y z
#    x 3.851790 0.000000 0.000000 
#    y 0.000000 3.771470 0.000000 
#    z 0.000000 0.000000 3.499560 
# 
# 
# High freq. dielectric constant tensor:
#      x y z
#    x 1.789050 0.000000 0.000000 
#    y 0.000000 1.786060 0.000000 
#    z 0.000000 0.000000 1.751240 
# 
# From -- ./inp_files/13886.got.cif
#   From: 2010.03.12/outbox.cif.g09.slc.cpg/sg47_7_cif.got.tgz:13886.got - 2010.04.14 03:12:58.
