data_PCOD8198429
_publ_section_title
;
Structure prediction by ZEFSAII (Michael W. Deem and Ramdas Pophale) SiO2 
 PCOD8198429
Probable space group: P M M M
;
_chemical_formula_sum "Si O2"
_cell_formula_units_Z 64
_cell_length_a 25.090895
_cell_length_b 8.685831
_cell_length_c 14.860201
_cell_angle_alpha 90.000000
_cell_angle_beta 90.000000
_cell_angle_gamma 90.000000
_cell_volume 3238.561971
_symmetry_space_group_name_H-M "P M M M"
_symmetry_group_IT_number 47
_symmetry_cell_setting 'orthorhombic'
loop_
_space_group_symop_operation_xyz
x,y,z
-x,-y,z
x,-y,-z
-x,y,-z
-x,-y,-z
x,y,-z
-x,y,z
x,-y,z
loop_
_atom_site_type_symbol
_atom_site_label
_atom_site_fract_x
_atom_site_fract_y
_atom_site_fract_z
Si Si1 0.940547 0.681621 0.897600
Si Si2 0.694103 0.325283 0.900796
Si Si3 0.746144 0.818981 0.735706
Si Si4 0.658945 0.318151 0.604576
Si Si5 0.132462 0.180986 0.248512
Si Si6 0.582486 0.179678 0.097105
Si Si7 0.059113 0.816708 0.401886
Si Si8 0.559040 0.819648 0.707443
O O1 0.937341 0.500000 0.890363
O O2 0.890557 0.750427 0.843474
O O3 0.000000 0.736279 0.864207
O O4 0.932849 0.736068 0.000000
O O5 0.675817 0.500000 0.879593
O O6 0.735758 0.267816 0.828594
O O7 0.644622 0.211598 0.894411
O O8 0.720367 0.315601 0.000000
O O9 0.709228 0.758424 0.654515
O O10 0.807693 0.777057 0.721937
O O11 0.736043 0.000000 0.745702
O O12 0.659405 0.266666 0.500000
O O13 0.664238 0.500000 0.613992
O O14 0.602992 0.268470 0.649143
O O15 0.097799 0.255188 0.328242
O O16 0.125901 0.000000 0.240166
O O17 0.556157 0.243878 0.188938
O O18 0.571538 0.000000 0.093282
O O19 0.561545 0.249960 0.000000
O O20 0.078572 0.761514 0.500000
O O21 0.000000 0.754350 0.382724
O O22 0.059738 0.000000 0.397467
O O23 0.500000 0.792210 0.665598
O O24 0.574119 0.000000 0.707089
#
# Coordination Sequence:
#
# PCOD8198429 Si02
#       8
#     8   8   8   8   8   8   8   8
#     4   9  19  36  56  79 112 156 200 238 282 337
#     4  10  20  34  55  81 109 145 187 228 272 326
#     4  11  23  38  57  83 114 149 189 235 290 348
#     4  11  25  44  64  84 109 147 195 243 293 349
#     4  10  21  34  53  83 113 142 183 234 283 334
#     4   9  17  31  54  84 118 153 185 219 264 323
#     4   8  14  27  49  76 105 135 167 209 265 326
#     4  10  21  37  60  91 123 154 189 231 283 343
#
# _framework density 19.761858
#
# number of rings (size 3 to 8) (size 9 to 14) (size 15 to 20)
#    0.000    2.250    1.250    2.250    0.000    5.500 
#    0.000    6.875    0.000    0.375    0.000    4.375 
#    0.000    0.000    0.000    0.000    0.000    0.000 
#
# Total GULP energy -792994.043503 kJ/mol
# GULP energy per Si atom -12390.531930 kJ/mol
# Density = 1.971688 g / cm^3
# Si number density = 19.761858 Si / 1000 Ang^3
#
#
#
# Elastic Constant Matrix: (Units=GPa)
#
#
# Indices 1 2 3 4 5 6 
#
# 1 118.2850 27.9913 74.9464 0.0000 0.0000 0.0000
# 2 27.9913 34.0998 34.4766 0.0000 0.0000 0.0000
# 3 74.9464 34.4766 146.7302 0.0000 0.0000 0.0000
# 4 0.0000 0.0000 0.0000 25.6742 0.0000 0.0000
# 5 0.0000 0.0000 0.0000 0.0000 10.3497 0.0000
# 6 0.0000 0.0000 0.0000 0.0000 0.0000 17.8901
#
#
#
# Elastic Compliance Matrix: (Units=1/GPa)
#
#
# Indices 1 2 3 4 5 6 
#
# 1 0.013182 -0.005264 -0.005496 0.000000 0.000000 0.000000
# 2 -0.005264 0.040565 -0.006843 0.000000 0.000000 0.000000
# 3 -0.005496 -0.006843 0.011231 0.000000 0.000000 0.000000
# 4 0.000000 0.000000 0.000000 0.038950 0.000000 0.000000
# 5 0.000000 0.000000 0.000000 0.000000 0.096621 0.000000
# 6 0.000000 0.000000 0.000000 0.000000 0.000000 0.055897
#
#
# Mechanical properties :
#
#
# Convention : Reuss Voigt Hill
#
# Bulk Modulus (GPa) = 33.58878 63.77151 48.68014
# Shear Modulus (GPa) = 16.57962 21.56285 19.07124
#
# Velocity S-wave (km/s) = 2.89964 3.30682 3.10990
# Velocity P-wave (km/s) = 5.31453 6.84982 6.13043
#
# Compressibility (1/GPa) = 0.02977185
#
# Stress axis : x y z
#
# Youngs Moduli (GPa) = 75.85879 24.65185 89.04317
#
# Poissons Ratio (x) = 0.12976 0.48942
# Poissons Ratio (y) = 0.39930 0.60930
# Poissons Ratio (z) = 0.41695 0.16869
#
# Static dielectric constant tensor:
#      x y z
#    x 3.692260 0.000000 0.000000 
#    y 0.000000 3.363980 0.000000 
#    z 0.000000 0.000000 4.000730 
# 
# 
# High freq. dielectric constant tensor:
#      x y z
#    x 1.767320 0.000000 0.000000 
#    y 0.000000 1.747370 0.000000 
#    z 0.000000 0.000000 1.781920 
# 
# From -- ./inp_files/25572.got.cif
#   From: 2010.03.12/outbox.cif.g09.slc.cpg/sg47_13_cif.got.tgz:25572.got - 2010.04.14 03:12:58.
