data_PCOD8198671
_publ_section_title
;
Structure prediction by ZEFSAII (Michael W. Deem and Ramdas Pophale) SiO2 
 PCOD8198671
Probable space group: P M M M
;
_chemical_formula_sum "Si O2"
_cell_formula_units_Z 40
_cell_length_a 28.391484
_cell_length_b 9.387903
_cell_length_c 7.719592
_cell_angle_alpha 90.000000
_cell_angle_beta 90.000000
_cell_angle_gamma 90.000000
_cell_volume 2057.553016
_symmetry_space_group_name_H-M "P M M M"
_symmetry_group_IT_number 47
_symmetry_cell_setting 'orthorhombic'
loop_
_space_group_symop_operation_xyz
x,y,z
-x,-y,z
x,-y,-z
-x,y,-z
-x,-y,-z
x,y,-z
-x,y,z
x,-y,z
loop_
_atom_site_type_symbol
_atom_site_label
_atom_site_fract_x
_atom_site_fract_y
_atom_site_fract_z
Si Si1 0.052099 0.337171 0.297498
Si Si2 0.762063 0.833525 0.694346
Si Si3 0.861734 0.843363 0.804690
Si Si4 0.602860 0.336268 0.000000
Si Si5 0.714087 0.664405 0.000000
Si Si6 0.554953 0.163941 0.698255
O O1 0.060528 0.320213 0.500000
O O2 0.055853 0.500000 0.239855
O O3 0.092417 0.253560 0.199566
O O4 0.000000 0.279018 0.247230
O O5 0.742689 0.807190 0.500000
O O6 0.817167 0.786317 0.695797
O O7 0.757912 0.000000 0.746160
O O8 0.732495 0.739179 0.826480
O O9 0.876495 0.000000 0.737570
O O10 0.843144 0.849348 0.000000
O O11 0.658459 0.322158 0.000000
O O12 0.583941 0.263194 0.826345
O O13 0.586443 0.500000 0.000000
O O14 0.730504 0.500000 0.000000
O O15 0.567417 0.204476 0.500000
O O16 0.500000 0.187824 0.733682
O O17 0.568435 0.000000 0.734031
#
# Coordination Sequence:
#
# PCOD8198671 Si02
#       6
#     8   8   8   4   4   8
#     4   9  19  35  52  73 105 143 181 220 265 324
#     4  10  21  40  65  87 110 145 191 242 293 346
#     4  10  20  35  56  81 109 138 174 225 280 336
#     4  11  24  38  55  84 122 161 197 238 293 350
#     4  11  25  42  58  83 121 157 192 240 293 349
#     4   9  19  37  61  89 120 156 201 248 290 337
#
# _framework density 19.440566
#
# number of rings (size 3 to 8) (size 9 to 14) (size 15 to 20)
#    0.000    2.200    1.000    2.700    0.000    8.000 
#    0.000    8.000    0.000    0.000    0.000    0.000 
#    0.000    0.000    0.000    0.000    0.000    0.000 
#
# Total GULP energy -495937.171314 kJ/mol
# GULP energy per Si atom -12398.429283 kJ/mol
# Density = 1.939632 g / cm^3
# Si number density = 19.440566 Si / 1000 Ang^3
#
#
#
# Elastic Constant Matrix: (Units=GPa)
#
#
# Indices 1 2 3 4 5 6 
#
# 1 90.2013 62.7613 53.2113 0.0000 0.0000 0.0000
# 2 62.7613 105.9591 66.9226 0.0000 0.0000 0.0000
# 3 53.2113 66.9226 119.0934 0.0000 0.0000 0.0000
# 4 0.0000 0.0000 0.0000 23.0081 0.0000 0.0000
# 5 0.0000 0.0000 0.0000 0.0000 26.8732 0.0000
# 6 0.0000 0.0000 0.0000 0.0000 0.0000 36.8111
#
#
#
# Elastic Compliance Matrix: (Units=1/GPa)
#
#
# Indices 1 2 3 4 5 6 
#
# 1 0.019751 -0.009495 -0.003489 0.000000 0.000000 0.000000
# 2 -0.009495 0.019195 -0.006544 0.000000 0.000000 0.000000
# 3 -0.003489 -0.006544 0.013633 0.000000 0.000000 0.000000
# 4 0.000000 0.000000 0.000000 0.043463 0.000000 0.000000
# 5 0.000000 0.000000 0.000000 0.000000 0.037212 0.000000
# 6 0.000000 0.000000 0.000000 0.000000 0.000000 0.027166
#
#
# Mechanical properties :
#
#
# Convention : Reuss Voigt Hill
#
# Bulk Modulus (GPa) = 73.95017 75.67156 74.81086
# Shear Modulus (GPa) = 24.51180 26.16240 25.33710
#
# Velocity S-wave (km/s) = 3.55471 3.67244 3.61406
# Velocity P-wave (km/s) = 7.41415 7.54927 7.48202
#
# Compressibility (1/GPa) = 0.01352262
#
# Stress axis : x y z
#
# Youngs Moduli (GPa) = 50.62920 52.09767 73.35217
#
# Poissons Ratio (x) = 0.49468 0.25594
# Poissons Ratio (y) = 0.48074 0.47999
# Poissons Ratio (z) = 0.17666 0.34091
#
# Static dielectric constant tensor:
#      x y z
#    x 3.501300 0.000000 0.000000 
#    y 0.000000 3.550520 0.000000 
#    z 0.000000 0.000000 3.606670 
# 
# 
# High freq. dielectric constant tensor:
#      x y z
#    x 1.754530 0.000000 0.000000 
#    y 0.000000 1.747170 0.000000 
#    z 0.000000 0.000000 1.767890 
# 
# From -- ./inp_files/13059.got.cif
#   From: 2010.03.12/outbox.cif.g09.slc.cpg/sg47_7_cif.got.tgz:13059.got - 2010.04.14 03:12:58.
