data_PCOD8198796
_publ_section_title
;
Structure prediction by ZEFSAII (Michael W. Deem and Ramdas Pophale) SiO2 
 PCOD8198796
Probable space group: P M M M
;
_chemical_formula_sum "Si O2"
_cell_formula_units_Z 64
_cell_length_a 25.286409
_cell_length_b 9.080654
_cell_length_c 14.295786
_cell_angle_alpha 90.000000
_cell_angle_beta 90.000000
_cell_angle_gamma 90.000000
_cell_volume 3282.557367
_symmetry_space_group_name_H-M "P M M M"
_symmetry_group_IT_number 47
_symmetry_cell_setting 'orthorhombic'
loop_
_space_group_symop_operation_xyz
x,y,z
-x,-y,z
x,-y,-z
-x,y,-z
-x,-y,-z
x,y,-z
-x,y,z
x,-y,z
loop_
_atom_site_type_symbol
_atom_site_label
_atom_site_fract_x
_atom_site_fract_y
_atom_site_fract_z
Si Si1 0.437133 0.334652 0.601518
Si Si2 0.659235 0.830024 0.892114
Si Si3 0.441223 0.170768 0.219017
Si Si4 0.252548 0.326868 0.777595
Si Si5 0.851839 0.327981 0.892126
Si Si6 0.102018 0.328268 0.394366
Si Si7 0.059724 0.169454 0.222962
Si Si8 0.213308 0.828619 0.605597
O O1 0.417405 0.274574 0.500000
O O2 0.500000 0.331289 0.603256
O O3 0.416166 0.500000 0.615612
O O4 0.415454 0.237698 0.686663
O O5 0.598254 0.795241 0.866153
O O6 0.696796 0.722333 0.835433
O O7 0.673054 0.000000 0.869715
O O8 0.666716 0.793275 0.000000
O O9 0.500000 0.235324 0.195879
O O10 0.446278 0.000000 0.238463
O O11 0.255385 0.500000 0.759659
O O12 0.200117 0.281829 0.834772
O O13 0.254400 0.242436 0.678289
O O14 0.863792 0.500000 0.880593
O O15 0.901884 0.239712 0.853630
O O16 0.842644 0.285132 0.000000
O O17 0.080909 0.304379 0.500000
O O18 0.107601 0.500000 0.370328
O O19 0.061993 0.252977 0.322447
O O20 0.158569 0.255097 0.380059
O O21 0.000000 0.183968 0.184955
O O22 0.075592 0.000000 0.238378
O O23 0.234696 0.805754 0.500000
O O24 0.204845 0.000000 0.627861
#
# Coordination Sequence:
#
# PCOD8198796 Si02
#       8
#     8   8   8   8   8   8   8   8
#     4   8  14  26  46  73 105 141 180 221 268 325
#     4  10  22  39  58  82 113 150 191 236 289 343
#     4   9  18  33  54  81 112 147 189 235 282 335
#     4  11  22  38  62  89 116 147 187 234 282 337
#     4  10  22  40  61  84 109 143 188 236 290 348
#     4  10  20  35  57  85 116 152 193 233 278 336
#     4  11  24  39  56  82 116 153 194 240 289 342
#     4  10  20  35  59  90 121 152 186 226 276 335
#
# _framework density 19.496993
#
# number of rings (size 3 to 8) (size 9 to 14) (size 15 to 20)
#    0.000    2.125    1.250    2.250    0.000    5.500 
#    0.000    5.625    0.000    0.750    0.000    2.625 
#    0.000    0.000    0.000    0.000    0.000    0.000 
#
# Total GULP energy -793579.663005 kJ/mol
# GULP energy per Si atom -12399.682234 kJ/mol
# Density = 1.945262 g / cm^3
# Si number density = 19.496993 Si / 1000 Ang^3
#
#
#
# Elastic Constant Matrix: (Units=GPa)
#
#
# Indices 1 2 3 4 5 6 
#
# 1 79.5936 42.2268 44.1160 0.0000 0.0000 0.0000
# 2 42.2268 90.1580 51.8056 0.0000 0.0000 0.0000
# 3 44.1160 51.8056 115.9164 0.0000 0.0000 0.0000
# 4 0.0000 0.0000 0.0000 30.2319 0.0000 0.0000
# 5 0.0000 0.0000 0.0000 0.0000 27.9555 0.0000
# 6 0.0000 0.0000 0.0000 0.0000 0.0000 23.1864
#
#
#
# Elastic Compliance Matrix: (Units=1/GPa)
#
#
# Indices 1 2 3 4 5 6 
#
# 1 0.018102 -0.006082 -0.004172 0.000000 0.000000 0.000000
# 2 -0.006082 0.016967 -0.005269 0.000000 0.000000 0.000000
# 3 -0.004172 -0.005269 0.012569 0.000000 0.000000 0.000000
# 4 0.000000 0.000000 0.000000 0.033078 0.000000 0.000000
# 5 0.000000 0.000000 0.000000 0.000000 0.035771 0.000000
# 6 0.000000 0.000000 0.000000 0.000000 0.000000 0.043129
#
#
# Mechanical properties :
#
#
# Convention : Reuss Voigt Hill
#
# Bulk Modulus (GPa) = 60.25655 62.44055 61.34855
# Shear Modulus (GPa) = 25.48531 26.10941 25.79736
#
# Velocity S-wave (km/s) = 3.61936 3.66341 3.64145
# Velocity P-wave (km/s) = 6.95982 7.07032 7.01528
#
# Compressibility (1/GPa) = 0.01659571
#
# Stress axis : x y z
#
# Youngs Moduli (GPa) = 55.24135 58.93656 79.55984
#
# Poissons Ratio (x) = 0.35842 0.33188
# Poissons Ratio (y) = 0.33595 0.41917
# Poissons Ratio (z) = 0.23044 0.31051
#
# Static dielectric constant tensor:
#      x y z
#    x 3.358040 0.000000 0.000000 
#    y 0.000000 3.618890 0.000000 
#    z 0.000000 0.000000 3.840390 
# 
# 
# High freq. dielectric constant tensor:
#      x y z
#    x 1.738790 0.000000 0.000000 
#    y 0.000000 1.760950 0.000000 
#    z 0.000000 0.000000 1.768810 
# 
# From -- ./inp_files/25559.got.cif
#   From: 2010.03.12/outbox.cif.g09.slc.cpg/sg47_13_cif.got.tgz:25559.got - 2010.04.14 03:12:58.
