data_PCOD8198407
_publ_section_title
;
Structure prediction by ZEFSAII (Michael W. Deem and Ramdas Pophale) SiO2 
 PCOD8198407
Probable space group: P M M M
;
_chemical_formula_sum "Si O2"
_cell_formula_units_Z 48
_cell_length_a 8.710842
_cell_length_b 9.561640
_cell_length_c 29.249426
_cell_angle_alpha 90.000000
_cell_angle_beta 90.000000
_cell_angle_gamma 90.000000
_cell_volume 2436.182799
_symmetry_space_group_name_H-M "P M M M"
_symmetry_group_IT_number 47
_symmetry_cell_setting 'orthorhombic'
loop_
_space_group_symop_operation_xyz
x,y,z
-x,-y,z
x,-y,-z
-x,y,-z
-x,-y,-z
x,y,-z
-x,y,z
x,-y,z
loop_
_atom_site_type_symbol
_atom_site_label
_atom_site_fract_x
_atom_site_fract_y
_atom_site_fract_z
Si Si1 0.181274 0.000000 0.054248
Si Si2 0.680289 0.742913 0.894593
Si Si3 0.179384 0.500000 0.950100
Si Si4 0.817866 0.840522 0.713208
Si Si5 0.321078 0.158141 0.552838
Si Si6 0.180953 0.663425 0.198878
Si Si7 0.181539 0.341317 0.628917
O O1 0.268128 0.877925 0.079173
O O2 0.000000 0.000000 0.064434
O O3 0.212192 0.000000 0.000000
O O4 0.500000 0.718972 0.898488
O O5 0.773754 0.629418 0.921078
O O6 0.728954 0.738852 0.841873
O O7 0.000000 0.500000 0.957109
O O8 0.259393 0.500000 0.000000
O O9 0.766204 0.750323 0.756889
O O10 0.751760 0.757116 0.669335
O O11 0.000000 0.847901 0.710708
O O12 0.751753 0.000000 0.714934
O O13 0.283641 0.185525 0.500000
O O14 0.500000 0.178391 0.562746
O O15 0.227099 0.272314 0.581020
O O16 0.271010 0.000000 0.566255
O O17 0.227551 0.500000 0.204077
O O18 0.000000 0.676673 0.190221
O O19 0.247664 0.500000 0.632533
O O20 0.000000 0.348093 0.632650
#
# Coordination Sequence:
#
# PCOD8198407 Si02
#       7
#     4   8   4   8   8   8   8
#     4  11  25  45  67  89 117 157 203 245 288 351
#     4  12  25  40  61  91 126 158 192 243 302 352
#     4  11  23  41  65  91 119 157 205 245 284 347
#     4   9  18  33  56  85 112 147 196 244 288 339
#     4   9  19  36  56  78 108 149 197 245 294 352
#     4  10  20  36  59  84 114 153 196 237 284 348
#     4  10  20  34  54  83 119 153 191 241 294 348
#
# _framework density 19.702953999999998
#
# number of rings (size 3 to 8) (size 9 to 14) (size 15 to 20)
#    0.000    1.833    0.833    4.000    1.167    7.333 
#    0.000    3.333    0.000    3.000    0.000    0.000 
#    0.000    0.000    0.000    0.000    0.000    0.000 
#
# Total GULP energy -595045.346783 kJ/mol
# GULP energy per Si atom -12396.778058 kJ/mol
# Density = 1.965811 g / cm^3
# Si number density = 19.702954 Si / 1000 Ang^3
#
#
#
# Elastic Constant Matrix: (Units=GPa)
#
#
# Indices 1 2 3 4 5 6 
#
# 1 34.2536 9.2522 17.5658 0.0000 0.0000 0.0000
# 2 9.2522 142.6695 61.4835 0.0000 0.0000 0.0000
# 3 17.5658 61.4835 126.9974 0.0000 0.0000 0.0000
# 4 0.0000 0.0000 0.0000 15.8922 0.0000 0.0000
# 5 0.0000 0.0000 0.0000 0.0000-5437.4971 0.0000
# 6 0.0000 0.0000 0.0000 0.0000 0.0000 54.5165
#
#
#
# Elastic Compliance Matrix: (Units=1/GPa)
#
#
# Indices 1 2 3 4 5 6 
#
# 1 0.031428 -0.000208 -0.004246 0.000000 0.000000 0.000000
# 2 -0.000208 0.008859 -0.004260 0.000000 0.000000 0.000000
# 3 -0.004246 -0.004260 0.010524 0.000000 0.000000 0.000000
# 4 0.000000 0.000000 0.000000 0.062924 0.000000 0.000000
# 5 0.000000 0.000000 0.000000 0.000000 -0.000184 0.000000
# 6 0.000000 0.000000 0.000000 0.000000 0.000000 0.018343
#
#
# Mechanical properties :
#
#
# Convention : Reuss Voigt Hill
#
# Bulk Modulus (GPa) = 29.95665 53.39150 41.67408
# Shear Modulus (GPa) = 31.16257 -1059.04308 -513.94025
#
# Velocity S-wave (km/s) = 3.98127 -23.20930 -16.16820
# Velocity P-wave (km/s) = 6.03085 26.28824 18.09282
#
# Compressibility (1/GPa) = 0.03338157
#
# Stress axis : x y z
#
# Youngs Moduli (GPa) = 31.81899 112.88580 95.02228
#
# Poissons Ratio (x) = 0.02350 0.40348
# Poissons Ratio (y) = 0.00662 0.40478
# Poissons Ratio (z) = 0.13511 0.48088
#
# Static dielectric constant tensor:
#      x y z
#    x 3.317440 0.000000 0.000000 
#    y 0.000000 3.784450 0.000000 
#    z 0.000000 0.000000 3.834450 
# 
# 
# High freq. dielectric constant tensor:
#      x y z
#    x 1.740600 0.000000 0.000000 
#    y 0.000000 1.785020 0.000000 
#    z 0.000000 0.000000 1.783560 
# 
# From -- ./inp_files/34193.got.cif
#   From: 2010.03.12/outbox.cif.g09.slc.cpg/sg47_18_cif.got.tgz:34193.got - 2010.04.14 03:12:58.
