data_PCOD8198820
_publ_section_title
;
Structure prediction by ZEFSAII (Michael W. Deem and Ramdas Pophale) SiO2 
 PCOD8198820
Probable space group: P M M M
;
_chemical_formula_sum "Si O2"
_cell_formula_units_Z 52
_cell_length_a 8.782161
_cell_length_b 14.094884
_cell_length_c 22.838314
_cell_angle_alpha 90.000000
_cell_angle_beta 90.000000
_cell_angle_gamma 90.000000
_cell_volume 2827.007367
_symmetry_space_group_name_H-M "P M M M"
_symmetry_group_IT_number 47
_symmetry_cell_setting 'orthorhombic'
loop_
_space_group_symop_operation_xyz
x,y,z
-x,-y,z
x,-y,-z
-x,y,-z
-x,-y,-z
x,y,-z
-x,y,z
x,-y,z
loop_
_atom_site_type_symbol
_atom_site_label
_atom_site_fract_x
_atom_site_fract_y
_atom_site_fract_z
Si Si1 0.320131 0.392577 0.500000
Si Si2 0.676957 0.107112 0.647470
Si Si3 0.676792 0.391035 0.066922
Si Si4 0.173647 0.105296 0.769622
Si Si5 0.821909 0.711539 0.609161
Si Si6 0.176002 0.297197 0.172959
Si Si7 0.676621 0.610624 0.282323
O O1 0.260058 0.500000 0.500000
O O2 0.500000 0.388575 0.500000
O O3 0.261834 0.343039 0.558005
O O4 0.500000 0.128498 0.638408
O O5 0.715640 0.123931 0.715347
O O6 0.773094 0.178203 0.606932
O O7 0.718792 0.000000 0.628591
O O8 0.500000 0.372899 0.079644
O O9 0.718344 0.500000 0.080473
O O10 0.776810 0.322443 0.107162
O O11 0.716516 0.366365 0.000000
O O12 0.207359 0.184739 0.818448
O O13 0.000000 0.114027 0.746684
O O14 0.202661 0.000000 0.796359
O O15 0.776855 0.668429 0.671642
O O16 0.000000 0.702396 0.599304
O O17 0.275541 0.359674 0.217273
O O18 0.000000 0.321950 0.183194
O O19 0.500000 0.634830 0.292298
O O20 0.708440 0.500000 0.291177
#
# Coordination Sequence:
#
# PCOD8198820 Si02
#       7
#     4   8   8   8   8   8   8
#     4  11  25  45  66  85 110 149 193 234 278 333
#     4  10  20  35  58  86 114 147 187 229 275 331
#     4   9  19  36  55  74 102 145 190 228 273 332
#     4   9  18  33  52  77 111 147 181 221 275 334
#     4  12  24  39  60  86 115 148 185 231 282 332
#     4  11  21  32  52  83 112 141 179 228 282 331
#     4  11  23  37  54  78 111 149 185 226 277 331
#
# _framework density 18.394009
#
# number of rings (size 3 to 8) (size 9 to 14) (size 15 to 20)
#    0.000    1.615    1.538    4.385    0.000    7.692 
#    0.000    1.154    0.000    2.769    0.000    3.231 
#    0.000    0.000    0.000    0.000    0.000    0.000 
#
# Total GULP energy -644976.475221 kJ/mol
# GULP energy per Si atom -12403.393754 kJ/mol
# Density = 1.835214 g / cm^3
# Si number density = 18.394009 Si / 1000 Ang^3
#
#
#
# Elastic Constant Matrix: (Units=GPa)
#
#
# Indices 1 2 3 4 5 6 
#
# 1 55.8417 43.4582 20.4221 0.0000 0.0000 0.0000
# 2 43.4582 125.1467 47.5898 0.0000 0.0000 0.0000
# 3 20.4221 47.5898 81.1661 0.0000 0.0000 0.0000
# 4 0.0000 0.0000 0.0000 18.3596 0.0000 0.0000
# 5 0.0000 0.0000 0.0000 0.0000 75.4389 0.0000
# 6 0.0000 0.0000 0.0000 0.0000 0.0000 27.9722
#
#
#
# Elastic Compliance Matrix: (Units=1/GPa)
#
#
# Indices 1 2 3 4 5 6 
#
# 1 0.024685 -0.007992 -0.001525 0.000000 0.000000 0.000000
# 2 -0.007992 0.012871 -0.005536 0.000000 0.000000 0.000000
# 3 -0.001525 -0.005536 0.015950 0.000000 0.000000 0.000000
# 4 0.000000 0.000000 0.000000 0.054467 0.000000 0.000000
# 5 0.000000 0.000000 0.000000 0.000000 0.013256 0.000000
# 6 0.000000 0.000000 0.000000 0.000000 0.000000 0.035750
#
#
# Mechanical properties :
#
#
# Convention : Reuss Voigt Hill
#
# Bulk Modulus (GPa) = 42.73437 53.89940 48.31689
# Shear Modulus (GPa) = 25.65609 34.39976 30.02792
#
# Velocity S-wave (km/s) = 3.73876 4.32923 4.04478
# Velocity P-wave (km/s) = 6.47464 7.37265 6.93819
#
# Compressibility (1/GPa) = 0.02340037
#
# Stress axis : x y z
#
# Youngs Moduli (GPa) = 40.50973 77.69341 62.69649
#
# Poissons Ratio (x) = 0.62095 0.09561
# Poissons Ratio (y) = 0.32377 0.34707
# Poissons Ratio (z) = 0.06178 0.43009
#
# Static dielectric constant tensor:
#      x y z
#    x 3.444370 0.000000 0.000000 
#    y 0.000000 3.666820 0.000000 
#    z 0.000000 0.000000 3.274020 
# 
# 
# High freq. dielectric constant tensor:
#      x y z
#    x 1.722660 0.000000 0.000000 
#    y 0.000000 1.725190 0.000000 
#    z 0.000000 0.000000 1.690530 
# 
# From -- ./inp_files/10942.got.cif
#   From: 2010.03.12/outbox.cif.g09.slc.cpg/sg47_6_cif.got.tgz:10942.got - 2010.04.14 03:12:58.
