data_PCOD8198305
_publ_section_title
;
Structure prediction by ZEFSAII (Michael W. Deem and Ramdas Pophale) SiO2 
 PCOD8198305
Probable space group: P M M M
;
_chemical_formula_sum "Si O2"
_cell_formula_units_Z 44
_cell_length_a 9.285788
_cell_length_b 28.415245
_cell_length_c 9.012657
_cell_angle_alpha 90.000000
_cell_angle_beta 90.000000
_cell_angle_gamma 90.000000
_cell_volume 2378.061119
_symmetry_space_group_name_H-M "P M M M"
_symmetry_group_IT_number 47
_symmetry_cell_setting 'orthorhombic'
loop_
_space_group_symop_operation_xyz
x,y,z
-x,-y,z
x,-y,-z
-x,y,-z
-x,-y,-z
x,y,-z
-x,y,z
x,-y,z
loop_
_atom_site_type_symbol
_atom_site_label
_atom_site_fract_x
_atom_site_fract_y
_atom_site_fract_z
Si Si1 0.661699 0.139425 0.676918
Si Si2 0.332750 0.408707 0.674436
Si Si3 0.164570 0.674097 0.174932
Si Si4 0.836867 0.500000 0.323637
Si Si5 0.838260 0.948106 0.676481
Si Si6 0.833210 0.770167 0.670879
O O1 0.665508 0.138017 0.500000
O O2 0.500000 0.141309 0.738242
O O3 0.735850 0.092405 0.742916
O O4 0.744606 0.185614 0.733662
O O5 0.309269 0.402107 0.500000
O O6 0.500000 0.415332 0.713748
O O7 0.271937 0.363353 0.755696
O O8 0.246718 0.454088 0.734813
O O9 0.211430 0.725017 0.233879
O O10 0.000000 0.662864 0.223063
O O11 0.181890 0.673440 0.000000
O O12 0.837479 0.500000 0.500000
O O13 0.000000 0.500000 0.260985
O O14 0.837730 0.945465 0.500000
O O15 0.000000 0.939491 0.735174
O O16 0.783886 0.000000 0.727424
O O17 0.795232 0.759496 0.500000
O O18 0.000000 0.782775 0.690128
#
# Coordination Sequence:
#
# PCOD8198305 Si02
#       6
#     8   8   8   4   8   8
#     4   9  16  24  36  57  84 113 148 191 234 276
#     4  10  20  34  54  80 108 136 166 201 242 289
#     4  10  21  36  53  74 100 130 166 207 249 293
#     4   9  17  31  54  81 106 133 166 204 242 281
#     4   8  13  21  33  50  76 112 149 182 222 276
#     4   9  17  30  48  67  89 121 159 197 238 285
#
# _framework density 18.502466999999999
#
# number of rings (size 3 to 8) (size 9 to 14) (size 15 to 20)
#    0.000    2.818    0.000    2.455    0.000    6.545 
#    0.000    4.091    0.000    2.727    0.000    0.000 
#    0.000    0.727    0.000    8.364    0.000   10.727 
#
# Total GULP energy -545553.846318 kJ/mol
# GULP energy per Si atom -12398.951053 kJ/mol
# Density = 1.846035 g / cm^3
# Si number density = 18.502467 Si / 1000 Ang^3
#
#
#
# Elastic Constant Matrix: (Units=GPa)
#
#
# Indices 1 2 3 4 5 6 
#
# 1 133.7028 104.6328 31.4999 0.0000 0.0000 0.0000
# 2 104.6328 177.8101 32.5529 0.0000 0.0000 0.0000
# 3 31.4999 32.5529 25.8595 0.0000 0.0000 0.0000
# 4 0.0000 0.0000 0.0000 -3.4297 0.0000 0.0000
# 5 0.0000 0.0000 0.0000 0.0000 13.5037 0.0000
# 6 0.0000 0.0000 0.0000 0.0000 0.0000 24.6351
#
#
#
# Elastic Compliance Matrix: (Units=1/GPa)
#
#
# Indices 1 2 3 4 5 6 
#
# 1 0.015510 -0.007366 -0.009621 0.000000 0.000000 0.000000
# 2 -0.007366 0.010806 -0.004631 0.000000 0.000000 0.000000
# 3 -0.009621 -0.004631 0.056220 0.000000 0.000000 0.000000
# 4 0.000000 0.000000 0.000000 -0.291569 0.000000 0.000000
# 5 0.000000 0.000000 0.000000 0.000000 0.074054 0.000000
# 6 0.000000 0.000000 0.000000 0.000000 0.000000 0.040593
#
#
# Mechanical properties :
#
#
# Convention : Reuss Voigt Hill
#
# Bulk Modulus (GPa) = 25.44486 74.97149 50.20818
# Shear Modulus (GPa) = -131.40069 18.18760 -56.60654
#
# Velocity S-wave (km/s) = -8.43636 3.13866 -5.53719
# Velocity P-wave (km/s) = 9.00634 7.33093 3.69943
#
# Compressibility (1/GPa) = 0.03930067
#
# Stress axis : x y z
#
# Youngs Moduli (GPa) = 64.47421 92.54051 17.78737
#
# Poissons Ratio (x) = 0.68161 0.17113
# Poissons Ratio (y) = 0.47489 0.08237
# Poissons Ratio (z) = 0.62031 0.42855
#
# Static dielectric constant tensor:
#      x y z
#    x 3.535810 0.000000 0.000000 
#    y 0.000000 3.652930 0.000000 
#    z 0.000000 0.000000 2.837970 
# 
# 
# High freq. dielectric constant tensor:
#      x y z
#    x 1.720480 0.000000 0.000000 
#    y 0.000000 1.735560 0.000000 
#    z 0.000000 0.000000 1.657660 
# 
# From -- ./inp_files/2089.got.cif
#   From: 2010.03.12/outbox.cif.g09.slc.cpg/sg47_2_cif.got.tgz:2089.got - 2010.04.14 03:12:58.
