data_PCOD8198092
_publ_section_title
;
Structure prediction by ZEFSAII (Michael W. Deem and Ramdas Pophale) SiO2 
 PCOD8198092
Probable space group: P M M M
;
_chemical_formula_sum "Si O2"
_cell_formula_units_Z 44
_cell_length_a 28.625324
_cell_length_b 9.201092
_cell_length_c 9.063163
_cell_angle_alpha 90.000000
_cell_angle_beta 90.000000
_cell_angle_gamma 90.000000
_cell_volume 2387.094296
_symmetry_space_group_name_H-M "P M M M"
_symmetry_group_IT_number 47
_symmetry_cell_setting 'orthorhombic'
loop_
_space_group_symop_operation_xyz
x,y,z
-x,-y,z
x,-y,-z
-x,y,-z
-x,-y,-z
x,y,-z
-x,y,z
x,-y,z
loop_
_atom_site_type_symbol
_atom_site_label
_atom_site_fract_x
_atom_site_fract_y
_atom_site_fract_z
Si Si1 0.448912 0.835988 0.324634
Si Si2 0.000000 0.335857 0.175092
Si Si3 0.824851 0.667600 0.673984
Si Si4 0.359587 0.329255 0.670206
Si Si5 0.268456 0.672682 0.165927
Si Si6 0.091876 0.170288 0.172169
O O1 0.448294 0.828522 0.500000
O O2 0.500000 0.780605 0.268641
O O3 0.406998 0.737977 0.261226
O O4 0.440823 0.000000 0.270072
O O5 0.954384 0.250939 0.231406
O O6 0.000000 0.500000 0.238932
O O7 0.000000 0.338451 0.000000
O O8 0.821249 0.685849 0.500000
O O9 0.834612 0.500000 0.718254
O O10 0.776600 0.725026 0.743482
O O11 0.865277 0.768851 0.735552
O O12 0.352901 0.285542 0.500000
O O13 0.363720 0.500000 0.690305
O O14 0.315214 0.265286 0.757959
O O15 0.270596 0.500000 0.167102
O O16 0.265113 0.733818 0.000000
O O17 0.085872 0.000000 0.202069
O O18 0.100505 0.202724 0.000000
#
# Coordination Sequence:
#
# PCOD8198092 Si02
#       6
#     8   4   8   8   8   8
#     4   8  14  25  41  62  89 120 152 186 228 280
#     4   9  17  31  54  81 106 135 172 210 246 289
#     4  10  20  34  53  76 101 131 169 210 250 295
#     4   9  16  26  43  68  94 118 150 195 240 279
#     4   9  17  30  49  71  95 125 160 198 242 292
#     4  10  20  34  53  78 108 139 170 206 249 295
#
# _framework density 18.432451
#
# number of rings (size 3 to 8) (size 9 to 14) (size 15 to 20)
#    0.000    2.818    0.000    2.455    0.000    5.818 
#    0.000    3.182    0.000    7.091    0.000    3.818 
#    0.000    0.000    0.000    0.000    0.000    0.000 
#
# Total GULP energy -545502.900479 kJ/mol
# GULP energy per Si atom -12397.793193 kJ/mol
# Density = 1.839050 g / cm^3
# Si number density = 18.432451 Si / 1000 Ang^3
#
#
#
# Elastic Constant Matrix: (Units=GPa)
#
#
# Indices 1 2 3 4 5 6 
#
# 1 193.8872 62.5941 59.5209 0.0000 0.0000 0.0000
# 2 62.5941 66.1131 33.9425 0.0000 0.0000 0.0000
# 3 59.5209 33.9425 66.7250 0.0000 0.0000 0.0000
# 4 0.0000 0.0000 0.0000 15.9907 0.0000 0.0000
# 5 0.0000 0.0000 0.0000 0.0000 18.3850 0.0000
# 6 0.0000 0.0000 0.0000 0.0000 0.0000 11.2380
#
#
#
# Elastic Compliance Matrix: (Units=1/GPa)
#
#
# Indices 1 2 3 4 5 6 
#
# 1 0.008374 -0.005540 -0.004652 0.000000 0.000000 0.000000
# 2 -0.005540 0.024138 -0.007336 0.000000 0.000000 0.000000
# 3 -0.004652 -0.007336 0.022868 0.000000 0.000000 0.000000
# 4 0.000000 0.000000 0.000000 0.062536 0.000000 0.000000
# 5 0.000000 0.000000 0.000000 0.000000 0.054392 0.000000
# 6 0.000000 0.000000 0.000000 0.000000 0.000000 0.088984
#
#
# Mechanical properties :
#
#
# Convention : Reuss Voigt Hill
#
# Bulk Modulus (GPa) = 49.20505 70.98226 60.09365
# Shear Modulus (GPa) = 16.49490 20.50060 18.49775
#
# Velocity S-wave (km/s) = 2.99471 3.33859 3.17131
# Velocity P-wave (km/s) = 6.22177 7.31126 6.78841
#
# Compressibility (1/GPa) = 0.02032312
#
# Stress axis : x y z
#
# Youngs Moduli (GPa) = 119.41272 41.42925 43.72829
#
# Poissons Ratio (x) = 0.22953 0.20342
# Poissons Ratio (y) = 0.66158 0.32081
# Poissons Ratio (z) = 0.55549 0.30394
#
# Static dielectric constant tensor:
#      x y z
#    x 3.805920 0.000000 0.000000 
#    y 0.000000 3.232470 0.000000 
#    z 0.000000 0.000000 3.152680 
# 
# 
# High freq. dielectric constant tensor:
#      x y z
#    x 1.735820 0.000000 0.000000 
#    y 0.000000 1.690930 0.000000 
#    z 0.000000 0.000000 1.683270 
# 
# From -- ./inp_files/2100.got.cif
#   From: 2010.03.12/outbox.cif.g09.slc.cpg/sg47_2_cif.got.tgz:2100.got - 2010.04.14 03:12:58.
