data_PCOD8198315
_publ_section_title
;
Structure prediction by ZEFSAII (Michael W. Deem and Ramdas Pophale) SiO2 
 PCOD8198315
Probable space group: P M M M
;
_chemical_formula_sum "Si O2"
_cell_formula_units_Z 48
_cell_length_a 9.055001
_cell_length_b 9.180291
_cell_length_c 30.832849
_cell_angle_alpha 90.000000
_cell_angle_beta 90.000000
_cell_angle_gamma 90.000000
_cell_volume 2563.059018
_symmetry_space_group_name_H-M "P M M M"
_symmetry_group_IT_number 47
_symmetry_cell_setting 'orthorhombic'
loop_
_space_group_symop_operation_xyz
x,y,z
-x,-y,z
x,-y,-z
-x,y,-z
-x,-y,-z
x,y,-z
-x,y,z
x,-y,z
loop_
_atom_site_type_symbol
_atom_site_label
_atom_site_fract_x
_atom_site_fract_y
_atom_site_fract_z
Si Si1 0.672611 0.169554 0.078085
Si Si2 0.172449 0.169984 0.585033
Si Si3 0.169011 0.829974 0.834735
Si Si4 0.169384 0.669694 0.250601
Si Si5 0.175513 0.664616 0.500000
Si Si6 0.325895 0.666978 0.662145
Si Si7 0.171434 0.328645 0.000000
O O1 0.500000 0.202390 0.075467
O O2 0.731699 0.219523 0.124879
O O3 0.707286 0.000000 0.069826
O O4 0.754953 0.263005 0.042430
O O5 0.233688 0.252228 0.542522
O O6 0.259506 0.228792 0.626066
O O7 0.000000 0.201523 0.592080
O O8 0.204261 0.000000 0.578981
O O9 0.229751 0.750688 0.791945
O O10 0.000000 0.784724 0.844367
O O11 0.183815 0.000000 0.826122
O O12 0.188105 0.500000 0.241805
O O13 0.265023 0.720339 0.291603
O O14 0.000000 0.712580 0.259875
O O15 0.237721 0.500000 0.500000
O O16 0.000000 0.665505 0.500000
O O17 0.500000 0.683803 0.662340
O O18 0.277411 0.500000 0.653123
O O19 0.197607 0.500000 0.000000
O O20 0.000000 0.287214 0.000000
#
# Coordination Sequence:
#
# PCOD8198315 Si02
#       7
#     8   8   8   8   4   8   4
#     4  10  21  37  57  81 109 142 179 217 261 316
#     4  10  20  34  54  80 108 137 172 216 264 313
#     4   9  18  33  53  77 105 137 174 215 258 307
#     4   9  18  33  53  76 103 137 177 220 263 308
#     4   9  17  31  54  81 106 135 172 214 260 311
#     4  10  21  36  53  75 105 141 180 219 261 313
#     4  11  24  39  56  80 108 139 178 223 268 314
#
# _framework density 18.727623000000001
#
# number of rings (size 3 to 8) (size 9 to 14) (size 15 to 20)
#    0.000    2.333    0.000    2.250    0.000    7.667 
#    0.000    3.750    0.000    2.500    0.000    0.000 
#    0.000    0.000    0.000    0.000    0.000    0.000 
#
# Total GULP energy -595371.473412 kJ/mol
# GULP energy per Si atom -12403.572363 kJ/mol
# Density = 1.868500 g / cm^3
# Si number density = 18.727623 Si / 1000 Ang^3
#
#
#
# Elastic Constant Matrix: (Units=GPa)
#
#
# Indices 1 2 3 4 5 6 
#
# 1 81.0995 51.6540 70.8694 0.0000 0.0000 0.0000
# 2 51.6540 84.0672 81.8628 0.0000 0.0000 0.0000
# 3 70.8694 81.8628 179.1413 0.0000 0.0000 0.0000
# 4 0.0000 0.0000 0.0000 -69.2670 0.0000 0.0000
# 5 0.0000 0.0000 0.0000 0.0000 -43.4468 0.0000
# 6 0.0000 0.0000 0.0000 0.0000 0.0000 23.2962
#
#
#
# Elastic Compliance Matrix: (Units=1/GPa)
#
#
# Indices 1 2 3 4 5 6 
#
# 1 0.022170 -0.009156 -0.004587 0.000000 0.000000 0.000000
# 2 -0.009156 0.025214 -0.007900 0.000000 0.000000 0.000000
# 3 -0.004587 -0.007900 0.011007 0.000000 0.000000 0.000000
# 4 0.000000 0.000000 0.000000 -0.014437 0.000000 0.000000
# 5 0.000000 0.000000 0.000000 0.000000 -0.023017 0.000000
# 6 0.000000 0.000000 0.000000 0.000000 0.000000 0.042926
#
#
# Mechanical properties :
#
#
# Convention : Reuss Voigt Hill
#
# Bulk Modulus (GPa) = 66.19951 83.67561 74.93756
# Shear Modulus (GPa) = 44.57023 -8.55542 18.00741
#
# Velocity S-wave (km/s) = 4.88373 -2.13969 3.10424
# Velocity P-wave (km/s) = 8.19918 6.21876 7.27666
#
# Compressibility (1/GPa) = 0.01510585
#
# Stress axis : x y z
#
# Youngs Moduli (GPa) = 45.10568 39.66112 90.85328
#
# Poissons Ratio (x) = 0.36313 0.41672
# Poissons Ratio (y) = 0.41298 0.71773
# Poissons Ratio (z) = 0.20689 0.31332
#
# Static dielectric constant tensor:
#      x y z
#    x 3.347940 0.000000 0.000000 
#    y 0.000000 3.440770 0.000000 
#    z 0.000000 0.000000 3.629360 
# 
# 
# High freq. dielectric constant tensor:
#      x y z
#    x 1.715480 0.000000 0.000000 
#    y 0.000000 1.725100 0.000000 
#    z 0.000000 0.000000 1.742100 
# 
# From -- ./inp_files/2686.got.cif
#   From: 2010.03.12/outbox.cif.g09.slc.cpg/sg47_2_cif.got.tgz:2686.got - 2010.04.14 03:12:58.
