data_PCOD8198516
_publ_section_title
;
Structure prediction by ZEFSAII (Michael W. Deem and Ramdas Pophale) SiO2 
 PCOD8198516
Probable space group: P M M M
;
_chemical_formula_sum "Si O2"
_cell_formula_units_Z 64
_cell_length_a 14.548906
_cell_length_b 24.790126
_cell_length_c 9.080048
_cell_angle_alpha 90.000000
_cell_angle_beta 90.000000
_cell_angle_gamma 90.000000
_cell_volume 3274.893765
_symmetry_space_group_name_H-M "P M M M"
_symmetry_group_IT_number 47
_symmetry_cell_setting 'orthorhombic'
loop_
_space_group_symop_operation_xyz
x,y,z
-x,-y,z
x,-y,-z
-x,y,-z
-x,-y,-z
x,y,-z
-x,y,z
x,-y,z
loop_
_atom_site_type_symbol
_atom_site_label
_atom_site_fract_x
_atom_site_fract_y
_atom_site_fract_z
Si Si1 0.397613 0.198880 0.332384
Si Si2 0.603992 0.439419 0.673621
Si Si3 0.754059 0.373069 0.168392
Si Si4 0.103132 0.437181 0.663021
Si Si5 0.603343 0.087806 0.827087
Si Si6 0.218015 0.940188 0.669760
Si Si7 0.894146 0.153930 0.172947
Si Si8 0.239914 0.749671 0.169753
O O1 0.374986 0.181319 0.500000
O O2 0.500000 0.223342 0.322889
O O3 0.386932 0.149104 0.222863
O O4 0.326956 0.243073 0.275847
O O5 0.608577 0.433213 0.500000
O O6 0.500000 0.431288 0.729689
O O7 0.638297 0.500000 0.718100
O O8 0.665169 0.392154 0.742002
O O9 0.840697 0.408700 0.210165
O O10 0.787069 0.311988 0.198894
O O11 0.728692 0.382000 0.000000
O O12 0.144678 0.425323 0.500000
O O13 0.105173 0.500000 0.695580
O O14 0.000000 0.414998 0.670055
O O15 0.500000 0.066134 0.791333
O O16 0.680496 0.054652 0.740856
O O17 0.623427 0.083888 0.000000
O O18 0.228187 0.923212 0.500000
O O19 0.153900 0.896552 0.748477
O O20 0.173380 0.000000 0.684180
O O21 0.842831 0.209825 0.214620
O O22 0.000000 0.158553 0.225356
O O23 0.888513 0.142937 0.000000
O O24 0.267693 0.759471 0.000000
#
# Coordination Sequence:
#
# PCOD8198516 Si02
#       8
#     8   8   8   8   8   8   8   8
#     4  10  20  34  56  85 114 146 186 231 277 327
#     4   9  19  37  59  81 110 154 204 247 289 341
#     4  11  23  35  53  85 120 150 186 236 290 344
#     4   9  19  37  59  81 108 145 188 233 282 339
#     4  10  20  35  58  87 119 155 192 229 273 331
#     4  11  24  40  60  89 123 154 188 237 291 343
#     4  10  22  42  66  86 107 145 197 244 288 346
#     4  10  22  39  57  81 115 154 191 231 283 341
#
# _framework density 19.542618999999998
#
# number of rings (size 3 to 8) (size 9 to 14) (size 15 to 20)
#    0.000    2.000    1.250    2.625    0.000    7.750 
#    0.000    7.500    0.000    0.000    0.000    0.000 
#    0.000    0.000    0.000    0.000    0.000    0.000 
#
# Total GULP energy -793443.365707 kJ/mol
# GULP energy per Si atom -12397.552589 kJ/mol
# Density = 1.949814 g / cm^3
# Si number density = 19.542619 Si / 1000 Ang^3
#
#
#
# Elastic Constant Matrix: (Units=GPa)
#
#
# Indices 1 2 3 4 5 6 
#
# 1 122.4511 59.4097 49.3295 0.0000 0.0000 0.0000
# 2 59.4097 94.4381 43.6038 0.0000 0.0000 0.0000
# 3 49.3295 43.6038 69.0078 0.0000 0.0000 0.0000
# 4 0.0000 0.0000 0.0000 23.3698 0.0000 0.0000
# 5 0.0000 0.0000 0.0000 0.0000 19.7021 0.0000
# 6 0.0000 0.0000 0.0000 0.0000 0.0000 -0.3949
#
#
#
# Elastic Compliance Matrix: (Units=1/GPa)
#
#
# Indices 1 2 3 4 5 6 
#
# 1 0.013286 -0.005610 -0.005953 0.000000 0.000000 0.000000
# 2 -0.005610 0.017319 -0.006933 0.000000 0.000000 0.000000
# 3 -0.005953 -0.006933 0.023128 0.000000 0.000000 0.000000
# 4 0.000000 0.000000 0.000000 0.042790 0.000000 0.000000
# 5 0.000000 0.000000 0.000000 0.000000 0.050756 0.000000
# 6 0.000000 0.000000 0.000000 0.000000 0.000000 -2.531984
#
#
# Mechanical properties :
#
#
# Convention : Reuss Voigt Hill
#
# Bulk Modulus (GPa) = 59.73400 65.62031 62.67716
# Shear Modulus (GPa) = -2.13481 17.43899 7.65209
#
# Velocity S-wave (km/s) = -1.04631 2.99048 1.98093
# Velocity P-wave (km/s) = 5.40118 6.75092 6.11341
#
# Compressibility (1/GPa) = 0.01674088
#
# Stress axis : x y z
#
# Youngs Moduli (GPa) = 75.26532 57.73949 43.23831
#
# Poissons Ratio (x) = 0.32390 0.25740
# Poissons Ratio (y) = 0.42221 0.29979
# Poissons Ratio (z) = 0.44806 0.40033
#
# Static dielectric constant tensor:
#      x y z
#    x 3.706200 0.000000 0.000000 
#    y 0.000000 3.464210 0.000000 
#    z 0.000000 0.000000 3.538110 
# 
# 
# High freq. dielectric constant tensor:
#      x y z
#    x 1.763310 0.000000 0.000000 
#    y 0.000000 1.755500 0.000000 
#    z 0.000000 0.000000 1.761470 
# 
# From -- ./inp_files/7942.got.cif
#   From: 2010.03.12/outbox.cif.g09.slc.cpg/sg47_4_cif.got.tgz:7942.got - 2010.04.14 03:12:58.
