data_PCOD8198041
_publ_section_title
;
Structure prediction by ZEFSAII (Michael W. Deem and Ramdas Pophale) SiO2 
 PCOD8198041
Probable space group: P M M M
;
_chemical_formula_sum "Si O2"
_cell_formula_units_Z 64
_cell_length_a 8.872619
_cell_length_b 18.543227
_cell_length_c 20.388384
_cell_angle_alpha 90.000000
_cell_angle_beta 90.000000
_cell_angle_gamma 90.000000
_cell_volume 3354.439414
_symmetry_space_group_name_H-M "P M M M"
_symmetry_group_IT_number 47
_symmetry_cell_setting 'orthorhombic'
loop_
_space_group_symop_operation_xyz
x,y,z
-x,-y,z
x,-y,-z
-x,y,-z
-x,-y,-z
x,y,-z
-x,y,z
x,-y,z
loop_
_atom_site_type_symbol
_atom_site_label
_atom_site_fract_x
_atom_site_fract_y
_atom_site_fract_z
Si Si1 0.820991 0.580721 0.927362
Si Si2 0.320925 0.080667 0.072683
Si Si3 0.825172 0.661154 0.424403
Si Si4 0.326042 0.584431 0.691311
Si Si5 0.826169 0.173602 0.424482
Si Si6 0.178484 0.671896 0.194135
Si Si7 0.678073 0.919205 0.316166
Si Si8 0.679360 0.827317 0.806743
O O1 0.759278 0.500000 0.913459
O O2 0.757668 0.634855 0.872352
O O3 0.000000 0.579150 0.924218
O O4 0.767905 0.606270 0.000000
O O5 0.500000 0.079167 0.076009
O O6 0.258238 0.136556 0.126299
O O7 0.260461 0.000000 0.087865
O O8 0.267272 0.105134 0.000000
O O9 0.786858 0.645346 0.500000
O O10 0.721342 0.609603 0.381083
O O11 0.787557 0.743899 0.406748
O O12 0.000000 0.644974 0.410246
O O13 0.500000 0.604186 0.703328
O O14 0.296776 0.500000 0.697491
O O15 0.222703 0.623680 0.744224
O O16 0.788563 0.158306 0.500000
O O17 0.725278 0.120322 0.382387
O O18 0.000000 0.157788 0.409453
O O19 0.251647 0.749240 0.201260
O O20 0.000000 0.679969 0.192234
O O21 0.500000 0.922787 0.313760
O O22 0.738734 0.875888 0.253228
O O23 0.745848 0.000000 0.314832
O O24 0.500000 0.821078 0.806903
#
# Coordination Sequence:
#
# PCOD8198041 Si02
#       8
#     8   8   8   8   8   8   8   8
#     4   8  15  30  52  76 101 131 169 211 254 303
#     4   8  14  27  50  78 105 137 179 221 260 309
#     4   9  19  37  60  84 110 141 177 215 255 306
#     4  11  24  39  55  78 109 142 176 218 266 313
#     4   9  19  36  56  78 104 133 166 206 253 304
#     4  11  22  35  54  79 106 138 177 219 262 314
#     4  10  21  35  51  73 101 134 173 215 257 303
#     4  10  20  34  52  75 105 138 172 216 267 312
#
# _framework density 19.079194000000001
#
# number of rings (size 3 to 8) (size 9 to 14) (size 15 to 20)
#    0.000    2.500    0.000    3.750    0.000    7.750 
#    0.000    3.750    0.000    2.250    0.000    5.250 
#    0.000    0.000    0.000    0.000    0.000    0.000 
#
# Total GULP energy -793582.052973 kJ/mol
# GULP energy per Si atom -12399.719578 kJ/mol
# Density = 1.903577 g / cm^3
# Si number density = 19.079194 Si / 1000 Ang^3
#
#
#
# Elastic Constant Matrix: (Units=GPa)
#
#
# Indices 1 2 3 4 5 6 
#
# 1 21.0789 25.7229 21.3158 0.0000 0.0000 0.0000
# 2 25.7229 113.2138 62.2434 0.0000 0.0000 0.0000
# 3 21.3158 62.2434 118.2155 0.0000 0.0000 0.0000
# 4 0.0000 0.0000 0.0000 41.9374 0.0000 0.0000
# 5 0.0000 0.0000 0.0000 0.0000 18.2930 0.0000
# 6 0.0000 0.0000 0.0000 0.0000 0.0000 16.2327
#
#
#
# Elastic Compliance Matrix: (Units=1/GPa)
#
#
# Indices 1 2 3 4 5 6 
#
# 1 0.068391 -0.012327 -0.005841 0.000000 0.000000 0.000000
# 2 -0.012327 0.014654 -0.005493 0.000000 0.000000 0.000000
# 3 -0.005841 -0.005493 0.012404 0.000000 0.000000 0.000000
# 4 0.000000 0.000000 0.000000 0.023845 0.000000 0.000000
# 5 0.000000 0.000000 0.000000 0.000000 0.054666 0.000000
# 6 0.000000 0.000000 0.000000 0.000000 0.000000 0.061604
#
#
# Mechanical properties :
#
#
# Convention : Reuss Voigt Hill
#
# Bulk Modulus (GPa) = 20.77865 52.34136 36.56000
# Shear Modulus (GPa) = 16.72646 24.84103 20.78374
#
# Velocity S-wave (km/s) = 2.96410 3.61223 3.30410
# Velocity P-wave (km/s) = 4.75698 6.70007 5.81033
#
# Compressibility (1/GPa) = 0.04812633
#
# Stress axis : x y z
#
# Youngs Moduli (GPa) = 14.62188 68.24304 80.61692
#
# Poissons Ratio (x) = 0.84126 0.47088
# Poissons Ratio (y) = 0.18025 0.44280
# Poissons Ratio (z) = 0.08541 0.37483
#
# Static dielectric constant tensor:
#      x y z
#    x 3.133500 0.000000 0.000000 
#    y 0.000000 3.590800 0.000000 
#    z 0.000000 0.000000 3.753070 
# 
# 
# High freq. dielectric constant tensor:
#      x y z
#    x 1.708200 0.000000 0.000000 
#    y 0.000000 1.746200 0.000000 
#    z 0.000000 0.000000 1.758170 
# 
# From -- ./inp_files/29955.got.cif
#   From: 2010.03.12/outbox.cif.g09.slc.cpg/sg47_15_cif.got.tgz:29955.got - 2010.04.14 03:12:58.
