data_PCOD8198318
_publ_section_title
;
Structure prediction by ZEFSAII (Michael W. Deem and Ramdas Pophale) SiO2 
 PCOD8198318
Probable space group: P M M M
;
_chemical_formula_sum "Si O2"
_cell_formula_units_Z 48
_cell_length_a 9.239391
_cell_length_b 30.981147
_cell_length_c 8.942506
_cell_angle_alpha 90.000000
_cell_angle_beta 90.000000
_cell_angle_gamma 90.000000
_cell_volume 2559.764896
_symmetry_space_group_name_H-M "P M M M"
_symmetry_group_IT_number 47
_symmetry_cell_setting 'orthorhombic'
loop_
_space_group_symop_operation_xyz
x,y,z
-x,-y,z
x,-y,-z
-x,y,-z
-x,-y,-z
x,y,-z
-x,y,z
x,-y,z
loop_
_atom_site_type_symbol
_atom_site_label
_atom_site_fract_x
_atom_site_fract_y
_atom_site_fract_z
Si Si1 0.163304 0.000000 0.677863
Si Si2 0.828104 0.665500 0.831725
Si Si3 0.668228 0.083437 0.326806
Si Si4 0.329922 0.828713 0.828300
Si Si5 0.168735 0.421377 0.675420
Si Si6 0.669203 0.500000 0.175157
Si Si7 0.168433 0.751444 0.325761
O O1 0.243704 0.957323 0.737170
O O2 0.168696 0.000000 0.500000
O O3 0.000000 0.000000 0.738950
O O4 0.774771 0.624352 0.737722
O O5 0.768351 0.709122 0.756505
O O6 0.000000 0.666800 0.830790
O O7 0.767089 0.662215 0.000000
O O8 0.703975 0.092573 0.500000
O O9 0.500000 0.073092 0.304087
O O10 0.718090 0.124675 0.232047
O O11 0.500000 0.822287 0.807635
O O12 0.251263 0.793026 0.731160
O O13 0.282148 0.824552 0.000000
O O14 0.197560 0.422791 0.500000
O O15 0.260507 0.457967 0.754155
O O16 0.000000 0.428651 0.712551
O O17 0.500000 0.500000 0.211593
O O18 0.700926 0.500000 0.000000
O O19 0.197043 0.745223 0.500000
O O20 0.000000 0.757795 0.289890
#
# Coordination Sequence:
#
# PCOD8198318 Si02
#       7
#     4   8   8   8   8   4   8
#     4   9  17  29  48  75 102 126 160 209 258 303
#     4   9  17  31  53  80 109 140 173 212 259 309
#     4   9  17  31  51  72  96 130 170 209 252 304
#     4  10  21  36  53  75 104 138 176 217 260 307
#     4  10  20  35  57  83 108 137 177 221 262 310
#     4  11  24  39  54  76 108 143 178 219 268 318
#     4  10  20  34  54  80 108 138 173 214 260 309
#
# _framework density 18.751723999999999
#
# number of rings (size 3 to 8) (size 9 to 14) (size 15 to 20)
#    0.000    2.333    0.000    2.750    0.000    8.333 
#    0.000    2.917    0.000    7.500    0.000    0.000 
#    0.000    0.000    0.000    0.000    0.000    0.000 
#
# Total GULP energy -595325.707190 kJ/mol
# GULP energy per Si atom -12402.618900 kJ/mol
# Density = 1.870904 g / cm^3
# Si number density = 18.751724 Si / 1000 Ang^3
#
#
#
# Elastic Constant Matrix: (Units=GPa)
#
#
# Indices 1 2 3 4 5 6 
#
# 1 56.0338 60.2741 38.7445 0.0000 0.0000 0.0000
# 2 60.2741 163.8711 54.1165 0.0000 0.0000 0.0000
# 3 38.7445 54.1165 83.0689 0.0000 0.0000 0.0000
# 4 0.0000 0.0000 0.0000 -76.2380 0.0000 0.0000
# 5 0.0000 0.0000 0.0000 0.0000 22.6431 0.0000
# 6 0.0000 0.0000 0.0000 0.0000 0.0000 44.5012
#
#
#
# Elastic Compliance Matrix: (Units=1/GPa)
#
#
# Indices 1 2 3 4 5 6 
#
# 1 0.035186 -0.009584 -0.010168 0.000000 0.000000 0.000000
# 2 -0.009584 0.010386 -0.002296 0.000000 0.000000 0.000000
# 3 -0.010168 -0.002296 0.018276 0.000000 0.000000 0.000000
# 4 0.000000 0.000000 0.000000 -0.013117 0.000000 0.000000
# 5 0.000000 0.000000 0.000000 0.000000 0.044164 0.000000
# 6 0.000000 0.000000 0.000000 0.000000 0.000000 0.022471
#
#
# Mechanical properties :
#
#
# Convention : Reuss Voigt Hill
#
# Bulk Modulus (GPa) = 50.62526 67.69378 59.15952
# Shear Modulus (GPa) = 29.75386 8.17051 18.96218
#
# Velocity S-wave (km/s) = 3.98770 2.08966 3.18342
# Velocity P-wave (km/s) = 6.94684 6.48079 6.71786
#
# Compressibility (1/GPa) = 0.01975299
#
# Stress axis : x y z
#
# Youngs Moduli (GPa) = 28.42020 96.28606 54.71648
#
# Poissons Ratio (x) = 0.92283 0.55633
# Poissons Ratio (y) = 0.27239 0.12561
# Poissons Ratio (z) = 0.28896 0.22104
#
# Static dielectric constant tensor:
#      x y z
#    x 3.237530 0.000000 0.000000 
#    y 0.000000 3.673970 0.000000 
#    z 0.000000 0.000000 3.507120 
# 
# 
# High freq. dielectric constant tensor:
#      x y z
#    x 1.701780 0.000000 0.000000 
#    y 0.000000 1.746520 0.000000 
#    z 0.000000 0.000000 1.730940 
# 
# From -- ./inp_files/2780.got.cif
#   From: 2010.03.12/outbox.cif.g09.slc.cpg/sg47_2_cif.got.tgz:2780.got - 2010.04.14 03:12:58.
