data_PCOD8198460
_publ_section_title
;
Structure prediction by ZEFSAII (Michael W. Deem and Ramdas Pophale) SiO2 
 PCOD8198460
Probable space group: P M M M
;
_chemical_formula_sum "Si O2"
_cell_formula_units_Z 44
_cell_length_a 9.730145
_cell_length_b 30.083416
_cell_length_c 7.980587
_cell_angle_alpha 90.000000
_cell_angle_beta 90.000000
_cell_angle_gamma 90.000000
_cell_volume 2336.045502
_symmetry_space_group_name_H-M "P M M M"
_symmetry_group_IT_number 47
_symmetry_cell_setting 'orthorhombic'
loop_
_space_group_symop_operation_xyz
x,y,z
-x,-y,z
x,-y,-z
-x,y,-z
-x,-y,-z
x,y,-z
-x,y,z
x,-y,z
loop_
_atom_site_type_symbol
_atom_site_label
_atom_site_fract_x
_atom_site_fract_y
_atom_site_fract_z
Si Si1 0.337051 0.549597 0.500000
Si Si2 0.343533 0.857450 0.699522
Si Si3 0.336762 0.047006 0.312190
Si Si4 0.658858 0.391877 0.188032
Si Si5 0.157735 0.315998 0.691053
Si Si6 0.153405 0.221504 0.192561
O O1 0.273776 0.500000 0.500000
O O2 0.500000 0.546953 0.500000
O O3 0.286477 0.573920 0.329663
O O4 0.331687 0.856865 0.500000
O O5 0.500000 0.848728 0.756096
O O6 0.289898 0.905942 0.769847
O O7 0.251344 0.819836 0.779125
O O8 0.277920 0.045120 0.500000
O O9 0.500000 0.049095 0.319329
O O10 0.291237 0.000000 0.221117
O O11 0.500000 0.380020 0.222747
O O12 0.745807 0.346714 0.195914
O O13 0.676429 0.412157 0.000000
O O14 0.174547 0.331270 0.500000
O O15 0.205331 0.264744 0.706725
O O16 0.000000 0.320764 0.751972
O O17 0.000000 0.208268 0.252273
O O18 0.154208 0.235151 0.000000
#
# Coordination Sequence:
#
# PCOD8198460 Si02
#       6
#     4   8   8   8   8   8
#     4   9  18  34  55  81 115 149 181 221 264 307
#     4   9  17  29  47  72  97 121 154 198 248 298
#     4   7  10  19  38  64  91 116 145 187 239 292
#     4  10  20  34  55  83 112 143 179 219 264 310
#     4  10  20  35  56  78 100 132 173 215 262 313
#     4  10  21  35  49  67  94 130 169 205 245 298
#
# _framework density 18.835249999999998
#
# number of rings (size 3 to 8) (size 9 to 14) (size 15 to 20)
#    0.000    2.818    0.909    2.727    0.000    3.636 
#    0.000    1.818    0.000    2.182    0.000    7.636 
#    0.000    0.000    0.000    0.000    0.000    0.000 
#
# Total GULP energy -545113.495926 kJ/mol
# GULP energy per Si atom -12388.943089 kJ/mol
# Density = 1.879238 g / cm^3
# Si number density = 18.835250 Si / 1000 Ang^3
#
#
#
# Elastic Constant Matrix: (Units=GPa)
#
#
# Indices 1 2 3 4 5 6 
#
# 1 50.6852 52.5278 23.6036 0.0000 0.0000 0.0000
# 2 52.5278 148.5445 42.7433 0.0000 0.0000 0.0000
# 3 23.6036 42.7433 76.2618 0.0000 0.0000 0.0000
# 4 0.0000 0.0000 0.0000 13.0253 0.0000 0.0000
# 5 0.0000 0.0000 0.0000 0.0000 18.8727 0.0000
# 6 0.0000 0.0000 0.0000 0.0000 0.0000 -7.2077
#
#
#
# Elastic Compliance Matrix: (Units=1/GPa)
#
#
# Indices 1 2 3 4 5 6 
#
# 1 0.032275 -0.010180 -0.004283 0.000000 0.000000 0.000000
# 2 -0.010180 0.011238 -0.003148 0.000000 0.000000 0.000000
# 3 -0.004283 -0.003148 0.016203 0.000000 0.000000 0.000000
# 4 0.000000 0.000000 0.000000 0.076773 0.000000 0.000000
# 5 0.000000 0.000000 0.000000 0.000000 0.052987 0.000000
# 6 0.000000 0.000000 0.000000 0.000000 0.000000 -0.138740
#
#
# Mechanical properties :
#
#
# Convention : Reuss Voigt Hill
#
# Bulk Modulus (GPa) = 40.82898 57.02674 48.92786
# Shear Modulus (GPa) = 53.12283 15.37919 34.25101
#
# Velocity S-wave (km/s) = 5.31650 2.86057 4.26896
# Velocity P-wave (km/s) = 7.70784 6.42283 7.09449
#
# Compressibility (1/GPa) = 0.02449241
#
# Stress axis : x y z
#
# Youngs Moduli (GPa) = 30.98388 88.98660 61.71834
#
# Poissons Ratio (x) = 0.90592 0.26436
# Poissons Ratio (y) = 0.31543 0.19426
# Poissons Ratio (z) = 0.13272 0.28009
#
# Static dielectric constant tensor:
#      x y z
#    x 3.148770 0.000000 0.000000 
#    y 0.000000 3.780730 0.000000 
#    z 0.000000 0.000000 3.346040 
# 
# 
# High freq. dielectric constant tensor:
#      x y z
#    x 1.687980 0.000000 0.000000 
#    y 0.000000 1.741910 0.000000 
#    z 0.000000 0.000000 1.720000 
# 
# From -- ./inp_files/2279.got.cif
#   From: 2010.03.12/outbox.cif.g09.slc.cpg/sg47_2_cif.got.tgz:2279.got - 2010.04.14 03:12:58.
