data_PCOD8198862
_publ_section_title
;
Structure prediction by ZEFSAII (Michael W. Deem and Ramdas Pophale) SiO2 
 PCOD8198862
Probable space group: P M M M
;
_chemical_formula_sum "Si O2"
_cell_formula_units_Z 32
_cell_length_a 9.786449
_cell_length_b 11.575410
_cell_length_c 15.833953
_cell_angle_alpha 90.000000
_cell_angle_beta 90.000000
_cell_angle_gamma 90.000000
_cell_volume 1793.704391
_symmetry_space_group_name_H-M "P M M M"
_symmetry_group_IT_number 47
_symmetry_cell_setting 'orthorhombic'
loop_
_space_group_symop_operation_xyz
x,y,z
-x,-y,z
x,-y,-z
-x,y,-z
-x,-y,-z
x,y,-z
-x,y,z
x,-y,z
loop_
_atom_site_type_symbol
_atom_site_label
_atom_site_fract_x
_atom_site_fract_y
_atom_site_fract_z
Si Si1 0.843929 0.863712 0.500000
Si Si2 0.500000 0.373131 0.901773
Si Si3 0.660280 0.864697 0.342326
Si Si4 0.000000 0.362760 0.901400
Si Si5 0.847777 0.000000 0.098841
Si Si6 0.253253 0.765956 0.168577
O O1 0.756125 0.823855 0.419254
O O2 0.000000 0.812139 0.500000
O O3 0.855599 0.000000 0.500000
O O4 0.500000 0.500000 0.857532
O O5 0.371411 0.299778 0.877549
O O6 0.500000 0.393763 0.000000
O O7 0.500000 0.842491 0.362754
O O8 0.710794 0.783903 0.266410
O O9 0.683297 0.000000 0.321108
O O10 0.124098 0.314312 0.847258
O O11 0.000000 0.500000 0.899660
O O12 0.000000 0.319637 0.000000
O O13 0.763054 0.889935 0.126694
O O14 0.000000 0.000000 0.140394
O O15 0.864049 0.000000 0.000000
#
# Coordination Sequence:
#
# PCOD8198862 Si02
#       6
#     4   4   8   4   4   8
#     4   9  19  33  57  85 116 153 190 227 276 344
#     4  11  24  41  59  82 115 157 208 257 290 330
#     4  10  20  36  54  84 122 155 185 227 289 360
#     4  11  24  41  59  80 111 159 214 257 292 334
#     4  11  22  35  53  82 119 156 193 239 304 363
#     4  12  22  37  59  86 117 156 196 244 298 354
#
# _framework density 17.840174000000001
#
# number of rings (size 3 to 8) (size 9 to 14) (size 15 to 20)
#    0.000    1.250    3.750    3.375    1.750    4.000 
#    0.000    1.250    0.000    0.000    0.000    5.250 
#    0.000    0.000    0.000    0.000    0.000    0.000 
#
# Total GULP energy -396695.417071 kJ/mol
# GULP energy per Si atom -12396.731783 kJ/mol
# Density = 1.779957 g / cm^3
# Si number density = 17.840174 Si / 1000 Ang^3
#
#
#
# Elastic Constant Matrix: (Units=GPa)
#
#
# Indices 1 2 3 4 5 6 
#
# 1 168.7461 57.5649 60.9221 0.0000 0.0000 0.0000
# 2 57.5649 104.8555 34.8470 0.0000 0.0000 0.0000
# 3 60.9221 34.8470 105.1155 0.0000 0.0000 0.0000
# 4 0.0000 0.0000 0.0000 39.8726 0.0000 0.0000
# 5 0.0000 0.0000 0.0000 0.0000 35.8582 0.0000
# 6 0.0000 0.0000 0.0000 0.0000 0.0000 58.9537
#
#
#
# Elastic Compliance Matrix: (Units=1/GPa)
#
#
# Indices 1 2 3 4 5 6 
#
# 1 0.008441 -0.003381 -0.003771 0.000000 0.000000 0.000000
# 2 -0.003381 0.012072 -0.002043 0.000000 0.000000 0.000000
# 3 -0.003771 -0.002043 0.012376 0.000000 0.000000 0.000000
# 4 0.000000 0.000000 0.000000 0.025080 0.000000 0.000000
# 5 0.000000 0.000000 0.000000 0.000000 0.027888 0.000000
# 6 0.000000 0.000000 0.000000 0.000000 0.000000 0.016962
#
#
# Mechanical properties :
#
#
# Convention : Reuss Voigt Hill
#
# Bulk Modulus (GPa) = 68.96714 76.15389 72.56052
# Shear Modulus (GPa) = 39.66954 41.96243 40.81598
#
# Velocity S-wave (km/s) = 4.72063 4.85514 4.78836
# Velocity P-wave (km/s) = 8.27374 8.61448 8.44583
#
# Compressibility (1/GPa) = 0.01449966
#
# Stress axis : x y z
#
# Youngs Moduli (GPa) = 118.47100 82.83841 80.79963
#
# Poissons Ratio (x) = 0.28005 0.30473
# Poissons Ratio (y) = 0.40051 0.16504
# Poissons Ratio (z) = 0.44680 0.16920
#
# Static dielectric constant tensor:
#      x y z
#    x 3.546340 0.000000 0.000000 
#    y 0.000000 3.294920 0.000000 
#    z 0.000000 0.000000 3.367280 
# 
# 
# High freq. dielectric constant tensor:
#      x y z
#    x 1.713240 0.000000 0.000000 
#    y 0.000000 1.670930 0.000000 
#    z 0.000000 0.000000 1.686730 
# 
# From -- ./inp_files/17108.got.cif
#   From: 2010.03.12/outbox.cif.g09.slc.cpg/sg47_9_cif.got.tgz:17108.got - 2010.04.14 03:12:58.
