data_PCOD8198414
_publ_section_title
;
Structure prediction by ZEFSAII (Michael W. Deem and Ramdas Pophale) SiO2 
 PCOD8198414
Probable space group: P M M M
;
_chemical_formula_sum "Si O2"
_cell_formula_units_Z 52
_cell_length_a 9.087458
_cell_length_b 23.935404
_cell_length_c 12.976372
_cell_angle_alpha 90.000000
_cell_angle_beta 90.000000
_cell_angle_gamma 90.000000
_cell_volume 2822.516348
_symmetry_space_group_name_H-M "P M M M"
_symmetry_group_IT_number 47
_symmetry_cell_setting 'orthorhombic'
loop_
_space_group_symop_operation_xyz
x,y,z
-x,-y,z
x,-y,-z
-x,y,-z
-x,-y,-z
x,y,-z
-x,y,z
x,-y,z
loop_
_atom_site_type_symbol
_atom_site_label
_atom_site_fract_x
_atom_site_fract_y
_atom_site_fract_z
Si Si1 0.825164 0.562663 0.885593
Si Si2 0.825699 0.358014 0.294201
Si Si3 0.169605 0.768824 0.701443
Si Si4 0.674370 0.064560 0.000000
Si Si5 0.334836 0.773663 0.500000
Si Si6 0.171051 0.875817 0.812771
Si Si7 0.333626 0.359161 0.500000
Si Si8 0.174708 0.062677 0.611682
O O1 0.771043 0.500000 0.858777
O O2 0.763097 0.605607 0.800821
O O3 0.000000 0.564637 0.884638
O O4 0.768503 0.579730 0.000000
O O5 0.780235 0.293877 0.270354
O O6 0.750141 0.380847 0.398180
O O7 0.000000 0.364417 0.307538
O O8 0.255034 0.794409 0.603522
O O9 0.194392 0.808731 0.801408
O O10 0.000000 0.769487 0.668209
O O11 0.732820 0.097779 0.901946
O O12 0.500000 0.066724 0.000000
O O13 0.729468 0.000000 0.000000
O O14 0.500000 0.796978 0.500000
O O15 0.330431 0.707085 0.500000
O O16 0.232379 0.900377 0.705512
O O17 0.000000 0.890347 0.833450
O O18 0.500000 0.382364 0.500000
O O19 0.231000 0.085627 0.500000
O O20 0.000000 0.062814 0.612087
O O21 0.234097 0.000000 0.627677
#
# Coordination Sequence:
#
# PCOD8198414 Si02
#       8
#     8   8   8   4   4   8   4   8
#     4   8  14  26  46  72  98 126 165 211 257 306
#     4   9  16  29  48  73 102 133 164 205 255 299
#     4   9  18  30  47  76 107 132 162 207 257 298
#     4  11  25  43  59  73  97 135 174 213 254 294
#     4   9  17  29  47  70  99 142 178 200 235 297
#     4  10  20  34  55  79 101 130 167 207 248 301
#     4   9  17  29  46  68  97 135 175 208 239 292
#     4   8  14  25  44  72 100 121 146 187 237 283
#
# _framework density 18.423278
#
# number of rings (size 3 to 8) (size 9 to 14) (size 15 to 20)
#    0.000    3.000    0.000    2.077    1.077    3.692 
#    1.385    0.385    0.000    3.231    0.000    3.231 
#    0.000    0.000    0.000    0.000    0.000    0.000 
#
# Total GULP energy -644473.820537 kJ/mol
# GULP energy per Si atom -12393.727318 kJ/mol
# Density = 1.838135 g / cm^3
# Si number density = 18.423278 Si / 1000 Ang^3
#
#
#
# Elastic Constant Matrix: (Units=GPa)
#
#
# Indices 1 2 3 4 5 6 
#
# 1 48.4829 26.9897 41.1753 0.0000 0.0000 0.0000
# 2 26.9897 92.2725 80.4908 0.0000 0.0000 0.0000
# 3 41.1753 80.4908 158.2245 0.0000 0.0000 0.0000
# 4 0.0000 0.0000 0.0000 34.6342 0.0000 0.0000
# 5 0.0000 0.0000 0.0000 0.0000 8.0711 0.0000
# 6 0.0000 0.0000 0.0000 0.0000 0.0000 11.7778
#
#
#
# Elastic Compliance Matrix: (Units=1/GPa)
#
#
# Indices 1 2 3 4 5 6 
#
# 1 0.026986 -0.003177 -0.005406 0.000000 0.000000 0.000000
# 2 -0.003177 0.019857 -0.009275 0.000000 0.000000 0.000000
# 3 -0.005406 -0.009275 0.012445 0.000000 0.000000 0.000000
# 4 0.000000 0.000000 0.000000 0.028873 0.000000 0.000000
# 5 0.000000 0.000000 0.000000 0.000000 0.123899 0.000000
# 6 0.000000 0.000000 0.000000 0.000000 0.000000 0.084906
#
#
# Mechanical properties :
#
#
# Convention : Reuss Voigt Hill
#
# Bulk Modulus (GPa) = 42.42387 66.25461 54.33924
# Shear Modulus (GPa) = 14.68254 20.91823 17.80039
#
# Velocity S-wave (km/s) = 2.82610 3.37326 3.11173
# Velocity P-wave (km/s) = 5.80745 7.15628 6.51686
#
# Compressibility (1/GPa) = 0.02357163
#
# Stress axis : x y z
#
# Youngs Moduli (GPa) = 37.05618 50.35884 80.35179
#
# Poissons Ratio (x) = 0.16001 0.43440
# Poissons Ratio (y) = 0.11774 0.74525
# Poissons Ratio (z) = 0.20034 0.46707
#
# Static dielectric constant tensor:
#      x y z
#    x 3.043210 0.000000 0.000000 
#    y 0.000000 3.501510 0.000000 
#    z 0.000000 0.000000 3.910170 
# 
# 
# High freq. dielectric constant tensor:
#      x y z
#    x 1.672940 0.000000 0.000000 
#    y 0.000000 1.708590 0.000000 
#    z 0.000000 0.000000 1.715070 
# 
# From -- ./inp_files/15585.got.cif
#   From: 2010.03.12/outbox.cif.g09.slc.cpg/sg47_8_cif.got.tgz:15585.got - 2010.04.14 03:12:58.
