data_PCOD8198142
_publ_section_title
;
Structure prediction by ZEFSAII (Michael W. Deem and Ramdas Pophale) SiO2 
 PCOD8198142
Probable space group: P M M M
;
_chemical_formula_sum "Si O2"
_cell_formula_units_Z 48
_cell_length_a 8.977777
_cell_length_b 9.022958
_cell_length_c 31.090143
_cell_angle_alpha 90.000000
_cell_angle_beta 90.000000
_cell_angle_gamma 90.000000
_cell_volume 2518.491382
_symmetry_space_group_name_H-M "P M M M"
_symmetry_group_IT_number 47
_symmetry_cell_setting 'orthorhombic'
loop_
_space_group_symop_operation_xyz
x,y,z
-x,-y,z
x,-y,-z
-x,y,-z
-x,-y,-z
x,y,-z
-x,y,z
x,-y,z
loop_
_atom_site_type_symbol
_atom_site_label
_atom_site_fract_x
_atom_site_fract_y
_atom_site_fract_z
Si Si1 0.832122 0.823815 0.249801
Si Si2 0.674875 0.170779 0.663855
Si Si3 0.669326 0.176066 0.835120
Si Si4 0.825660 0.672230 0.914166
Si Si5 0.667960 0.676163 0.000000
Si Si6 0.828124 0.325887 0.414368
Si Si7 0.823083 0.833103 0.500000
O O1 0.753307 0.767932 0.293176
O O2 0.741870 0.762377 0.208836
O O3 0.000000 0.761027 0.248313
O O4 0.832011 0.000000 0.248842
O O5 0.500000 0.189480 0.670125
O O6 0.729253 0.269932 0.624721
O O7 0.718352 0.000000 0.655039
O O8 0.500000 0.233370 0.837659
O O9 0.762429 0.237592 0.874515
O O10 0.676168 0.000000 0.836450
O O11 0.787832 0.500000 0.907504
O O12 0.750974 0.735195 0.957586
O O13 0.000000 0.700536 0.917877
O O14 0.671482 0.500000 0.000000
O O15 0.500000 0.737717 0.000000
O O16 0.808874 0.500000 0.419781
O O17 0.765011 0.250238 0.457589
O O18 0.000000 0.282205 0.406078
O O19 0.000000 0.831260 0.500000
O O20 0.759996 0.000000 0.500000
#
# Coordination Sequence:
#
# PCOD8198142 Si02
#       7
#     8   8   8   8   4   8   4
#     4   9  17  31  53  78 103 134 172 213 257 306
#     4  10  20  34  53  77 104 135 173 215 256 302
#     4  10  20  34  53  78 108 140 173 212 260 312
#     4  10  20  34  53  77 104 135 173 216 260 309
#     4   9  17  31  52  75 100 133 172 214 262 315
#     4  10  20  34  53  78 108 140 173 212 260 311
#     4   9  17  31  54  81 106 135 174 218 260 305
#
# _framework density 19.059027
#
# number of rings (size 3 to 8) (size 9 to 14) (size 15 to 20)
#    0.000    2.333    0.000    3.000    0.000    8.000 
#    0.000    1.667    0.000   10.000    0.000    0.000 
#    0.000    0.000    0.000    0.000    0.000    0.000 
#
# Total GULP energy -595320.230111 kJ/mol
# GULP energy per Si atom -12402.504794 kJ/mol
# Density = 1.901565 g / cm^3
# Si number density = 19.059027 Si / 1000 Ang^3
#
#
#
# Elastic Constant Matrix: (Units=GPa)
#
#
# Indices 1 2 3 4 5 6 
#
# 1 92.0850 23.2111 50.1061 0.0000 0.0000 0.0000
# 2 23.2111 42.7303 33.9637 0.0000 0.0000 0.0000
# 3 50.1061 33.9637 165.3241 0.0000 0.0000 0.0000
# 4 0.0000 0.0000 0.0000 257.7594 0.0000 0.0000
# 5 0.0000 0.0000 0.0000 0.0000 17.4131 0.0000
# 6 0.0000 0.0000 0.0000 0.0000 0.0000 23.0191
#
#
#
# Elastic Compliance Matrix: (Units=1/GPa)
#
#
# Indices 1 2 3 4 5 6 
#
# 1 0.013844 -0.005002 -0.003168 0.000000 0.000000 0.000000
# 2 -0.005002 0.029777 -0.004601 0.000000 0.000000 0.000000
# 3 -0.003168 -0.004601 0.007954 0.000000 0.000000 0.000000
# 4 0.000000 0.000000 0.000000 0.003880 0.000000 0.000000
# 5 0.000000 0.000000 0.000000 0.000000 0.057428 0.000000
# 6 0.000000 0.000000 0.000000 0.000000 0.000000 0.043442
#
#
# Mechanical properties :
#
#
# Convention : Reuss Voigt Hill
#
# Bulk Modulus (GPa) = 38.41369 57.18902 47.80135
# Shear Modulus (GPa) = 26.24042 72.49557 49.36800
#
# Velocity S-wave (km/s) = 3.71455 6.17414 5.09499
# Velocity P-wave (km/s) = 6.21257 8.99433 7.72962
#
# Compressibility (1/GPa) = 0.02603239
#
# Stress axis : x y z
#
# Youngs Moduli (GPa) = 72.23194 33.58305 125.71891
#
# Poissons Ratio (x) = 0.16798 0.39832
# Poissons Ratio (y) = 0.36130 0.57847
# Poissons Ratio (z) = 0.22885 0.15453
#
# Static dielectric constant tensor:
#      x y z
#    x 3.555910 0.000000 0.000000 
#    y 0.000000 3.181430 0.000000 
#    z 0.000000 0.000000 3.696440 
# 
# 
# High freq. dielectric constant tensor:
#      x y z
#    x 1.743560 0.000000 0.000000 
#    y 0.000000 1.707500 0.000000 
#    z 0.000000 0.000000 1.759960 
# 
# From -- ./inp_files/13936.got.cif
#   From: 2010.03.12/outbox.cif.g09.slc.cpg/sg47_7_cif.got.tgz:13936.got - 2010.04.14 03:12:58.
