data_PCOD8198682
_publ_section_title
;
Structure prediction by ZEFSAII (Michael W. Deem and Ramdas Pophale) SiO2 
 PCOD8198682
Probable space group: P M M M
;
_chemical_formula_sum "Si O2"
_cell_formula_units_Z 56
_cell_length_a 8.954893
_cell_length_b 20.275293
_cell_length_c 15.332369
_cell_angle_alpha 90.000000
_cell_angle_beta 90.000000
_cell_angle_gamma 90.000000
_cell_volume 2783.792130
_symmetry_space_group_name_H-M "P M M M"
_symmetry_group_IT_number 47
_symmetry_cell_setting 'orthorhombic'
loop_
_space_group_symop_operation_xyz
x,y,z
-x,-y,z
x,-y,-z
-x,y,-z
-x,-y,-z
x,y,-z
-x,y,z
x,-y,z
loop_
_atom_site_type_symbol
_atom_site_label
_atom_site_fract_x
_atom_site_fract_y
_atom_site_fract_z
Si Si1 0.172692 0.128748 0.901315
Si Si2 0.675749 0.820095 0.401919
Si Si3 0.677422 0.500000 0.899598
Si Si4 0.826341 0.927010 0.278797
Si Si5 0.676474 0.671909 0.349043
Si Si6 0.337461 0.743583 0.900930
Si Si7 0.175956 0.628334 0.173377
Si Si8 0.676619 0.425488 0.500000
O O1 0.203882 0.074865 0.826310
O O2 0.259231 0.191934 0.862356
O O3 0.000000 0.148082 0.905620
O O4 0.223559 0.106241 0.000000
O O5 0.731934 0.836659 0.500000
O O6 0.500000 0.827584 0.396353
O O7 0.742913 0.871088 0.333053
O O8 0.721191 0.744722 0.381349
O O9 0.500000 0.500000 0.895144
O O10 0.739860 0.561431 0.847301
O O11 0.732584 0.500000 0.000000
O O12 0.000000 0.916415 0.297268
O O13 0.774686 0.000000 0.309489
O O14 0.500000 0.666682 0.331298
O O15 0.772307 0.658136 0.264266
O O16 0.729750 0.615803 0.416405
O O17 0.500000 0.731269 0.854500
O O18 0.227895 0.681346 0.897568
O O19 0.368481 0.759446 0.000000
O O20 0.000000 0.616663 0.170131
O O21 0.745250 0.500000 0.500000
O O22 0.500000 0.430506 0.500000
#
# Coordination Sequence:
#
# PCOD8198682 Si02
#       8
#     8   8   4   8   8   8   8   4
#     4   9  18  34  57  84 115 151 190 235 293 359
#     4  10  21  39  62  87 117 154 202 254 301 356
#     4  11  25  45  65  84 111 154 207 253 294 345
#     4  10  22  38  56  83 118 154 197 248 302 363
#     4  10  20  38  63  90 119 153 196 241 288 348
#     4  10  20  35  56  82 111 146 191 239 285 337
#     4  12  25  38  56  85 120 153 190 237 293 352
#     4   9  18  34  61  93 118 147 189 235 284 342
#
# _framework density 20.116446
#
# number of rings (size 3 to 8) (size 9 to 14) (size 15 to 20)
#    0.000    1.857    0.714    3.214    1.000    7.714 
#    0.000    3.214    0.000    0.429    0.000    3.000 
#    0.000    0.000    0.000    0.000    0.000    0.000 
#
# Total GULP energy -694067.875956 kJ/mol
# GULP energy per Si atom -12394.069214 kJ/mol
# Density = 2.007066 g / cm^3
# Si number density = 20.116446 Si / 1000 Ang^3
#
#
#
# Elastic Constant Matrix: (Units=GPa)
#
#
# Indices 1 2 3 4 5 6 
#
# 1 66.9950 36.6750 34.4505 0.0000 0.0000 0.0000
# 2 36.6750 143.5107 54.0720 0.0000 0.0000 0.0000
# 3 34.4505 54.0720 102.9919 0.0000 0.0000 0.0000
# 4 0.0000 0.0000 0.0000 32.3264 0.0000 0.0000
# 5 0.0000 0.0000 0.0000 0.0000 22.7863 0.0000
# 6 0.0000 0.0000 0.0000 0.0000 0.0000 122.7318
#
#
#
# Elastic Compliance Matrix: (Units=1/GPa)
#
#
# Indices 1 2 3 4 5 6 
#
# 1 0.019058 -0.003077 -0.004759 0.000000 0.000000 0.000000
# 2 -0.003077 0.009183 -0.003792 0.000000 0.000000 0.000000
# 3 -0.004759 -0.003792 0.013292 0.000000 0.000000 0.000000
# 4 0.000000 0.000000 0.000000 0.030934 0.000000 0.000000
# 5 0.000000 0.000000 0.000000 0.000000 0.043886 0.000000
# 6 0.000000 0.000000 0.000000 0.000000 0.000000 0.008148
#
#
# Mechanical properties :
#
#
# Convention : Reuss Voigt Hill
#
# Bulk Modulus (GPa) = 54.71424 62.65475 58.68449
# Shear Modulus (GPa) = 32.49877 48.12226 40.31051
#
# Velocity S-wave (km/s) = 4.02373 4.89630 4.48130
# Velocity P-wave (km/s) = 6.98892 7.94850 7.48411
#
# Compressibility (1/GPa) = 0.01827678
#
# Stress axis : x y z
#
# Youngs Moduli (GPa) = 52.47014 108.89354 75.23116
#
# Poissons Ratio (x) = 0.33509 0.35806
# Poissons Ratio (y) = 0.16146 0.28528
# Poissons Ratio (z) = 0.24973 0.41292
#
# Static dielectric constant tensor:
#      x y z
#    x 3.732000 0.000000 0.000000 
#    y 0.000000 4.166930 0.000000 
#    z 0.000000 0.000000 3.774490 
# 
# 
# High freq. dielectric constant tensor:
#      x y z
#    x 1.769620 0.000000 0.000000 
#    y 0.000000 1.790340 0.000000 
#    z 0.000000 0.000000 1.793370 
# 
# From -- ./inp_files/21688.got.cif
#   From: 2010.03.12/outbox.cif.g09.slc.cpg/sg47_11_cif.got.tgz:21688.got - 2010.04.14 03:12:58.
