data_PCOD8198655
_publ_section_title
;
Structure prediction by ZEFSAII (Michael W. Deem and Ramdas Pophale) SiO2 
 PCOD8198655
Probable space group: P M M M
;
_chemical_formula_sum "Si O2"
_cell_formula_units_Z 44
_cell_length_a 7.906031
_cell_length_b 8.986162
_cell_length_c 31.812210
_cell_angle_alpha 90.000000
_cell_angle_beta 90.000000
_cell_angle_gamma 90.000000
_cell_volume 2260.094494
_symmetry_space_group_name_H-M "P M M M"
_symmetry_group_IT_number 47
_symmetry_cell_setting 'orthorhombic'
loop_
_space_group_symop_operation_xyz
x,y,z
-x,-y,z
x,-y,-z
-x,y,-z
-x,-y,-z
x,y,-z
-x,y,z
x,-y,z
loop_
_atom_site_type_symbol
_atom_site_label
_atom_site_fract_x
_atom_site_fract_y
_atom_site_fract_z
Si Si1 0.500000 0.676745 0.219039
Si Si2 0.500000 0.677916 0.686556
Si Si3 0.188709 0.327899 0.163517
Si Si4 0.691946 0.323218 0.454551
Si Si5 0.814706 0.677010 0.366915
Si Si6 0.306286 0.169487 0.916591
Si Si7 0.804482 0.324928 0.000000
O O1 0.500000 0.500000 0.220957
O O2 0.500000 0.741780 0.266150
O O3 0.670024 0.734152 0.195760
O O4 0.500000 0.500000 0.686471
O O5 0.332380 0.740370 0.663241
O O6 0.225729 0.500000 0.153446
O O7 0.193044 0.239926 0.119879
O O8 0.000000 0.307612 0.182961
O O9 0.764241 0.266876 0.500000
O O10 0.500000 0.268522 0.449478
O O11 0.698533 0.500000 0.454014
O O12 0.795350 0.260593 0.414636
O O13 0.800109 0.500000 0.367595
O O14 0.000000 0.726704 0.350161
O O15 0.500000 0.179835 0.902109
O O16 0.249030 0.000000 0.923877
O O17 0.284455 0.258587 0.959363
O O18 0.776632 0.500000 0.000000
O O19 0.000000 0.280434 0.000000
#
# Coordination Sequence:
#
# PCOD8198655 Si02
#       7
#     4   4   8   8   8   8   4
#     4   9  18  32  49  67  90 118 151 199 249 298
#     4   9  16  26  37  51  73  98 127 171 230 286
#     4  10  20  35  56  79 102 133 172 209 253 308
#     4   8  12  18  27  37  53  81 117 158 207 266
#     4   9  15  21  30  44  63  89 122 163 216 278
#     4  11  23  38  57  82 111 143 179 216 257 302
#     4  11  24  39  56  82 114 149 186 218 253 299
#
# _framework density 19.468212999999999
#
# number of rings (size 3 to 8) (size 9 to 14) (size 15 to 20)
#    0.000    2.455    1.818    2.182    0.000    6.545 
#    0.000    5.455    0.000    0.000    0.000    0.000 
#    0.000    0.000    0.000    0.000    0.000    0.000 
#
# Total GULP energy -545368.519044 kJ/mol
# GULP energy per Si atom -12394.739069 kJ/mol
# Density = 1.942390 g / cm^3
# Si number density = 19.468213 Si / 1000 Ang^3
#
#
#
# Elastic Constant Matrix: (Units=GPa)
#
#
# Indices 1 2 3 4 5 6 
#
# 1 139.9799 19.6417 70.6957 0.0000 0.0000 0.0000
# 2 19.6417 32.9523 15.6915 0.0000 0.0000 0.0000
# 3 70.6957 15.6915 152.9920 0.0000 0.0000 0.0000
# 4 0.0000 0.0000 0.0000 -4.0507 0.0000 0.0000
# 5 0.0000 0.0000 0.0000 0.0000 19.3438 0.0000
# 6 0.0000 0.0000 0.0000 0.0000 0.0000 11.7748
#
#
#
# Elastic Compliance Matrix: (Units=1/GPa)
#
#
# Indices 1 2 3 4 5 6 
#
# 1 0.009764 -0.003860 -0.004116 0.000000 0.000000 0.000000
# 2 -0.003860 0.033431 -0.001645 0.000000 0.000000 0.000000
# 3 -0.004116 -0.001645 0.008607 0.000000 0.000000 0.000000
# 4 0.000000 0.000000 0.000000 -0.246871 0.000000 0.000000
# 5 0.000000 0.000000 0.000000 0.000000 0.051696 0.000000
# 6 0.000000 0.000000 0.000000 0.000000 0.000000 0.084927
#
#
# Mechanical properties :
#
#
# Convention : Reuss Voigt Hill
#
# Bulk Modulus (GPa) = 30.71267 59.77578 45.24423
# Shear Modulus (GPa) = -176.37096 20.07327 -78.14884
#
# Velocity S-wave (km/s) = -9.52843 3.21453 -6.34263
# Velocity P-wave (km/s) = 10.25888 6.67447 5.50891
#
# Compressibility (1/GPa) = 0.03255985
#
# Stress axis : x y z
#
# Youngs Moduli (GPa) = 102.41381 29.91219 116.18456
#
# Poissons Ratio (x) = 0.11547 0.47822
# Poissons Ratio (y) = 0.39533 0.19114
# Poissons Ratio (z) = 0.42154 0.04921
#
# Static dielectric constant tensor:
#      x y z
#    x 3.732090 0.000000 0.000000 
#    y 0.000000 2.910800 0.000000 
#    z 0.000000 0.000000 3.781230 
# 
# 
# High freq. dielectric constant tensor:
#      x y z
#    x 1.769250 0.000000 0.000000 
#    y 0.000000 1.684160 0.000000 
#    z 0.000000 0.000000 1.761470 
# 
# From -- ./inp_files/33969.got.cif
#   From: 2010.03.12/outbox.cif.g09.slc.cpg/sg47_17_cif.got.tgz:33969.got - 2010.04.14 03:12:58.
