data_PCOD8198934
_publ_section_title
;
Structure prediction by ZEFSAII (Michael W. Deem and Ramdas Pophale) SiO2 
 PCOD8198934
Probable space group: P M M M
;
_chemical_formula_sum "Si O2"
_cell_formula_units_Z 48
_cell_length_a 17.532388
_cell_length_b 8.898345
_cell_length_c 15.392868
_cell_angle_alpha 90.000000
_cell_angle_beta 90.000000
_cell_angle_gamma 90.000000
_cell_volume 2401.429593
_symmetry_space_group_name_H-M "P M M M"
_symmetry_group_IT_number 47
_symmetry_cell_setting 'orthorhombic'
loop_
_space_group_symop_operation_xyz
x,y,z
-x,-y,z
x,-y,-z
-x,y,-z
-x,-y,-z
x,y,-z
-x,y,z
x,-y,z
loop_
_atom_site_type_symbol
_atom_site_label
_atom_site_fract_x
_atom_site_fract_y
_atom_site_fract_z
Si Si1 0.687757 0.828046 0.597958
Si Si2 0.155481 0.827334 0.683589
Si Si3 0.343239 0.173178 0.902836
Si Si4 0.910186 0.830942 0.000000
Si Si5 0.413163 0.673216 0.257950
Si Si6 0.000000 0.178451 0.596588
Si Si7 0.813410 0.322960 0.861542
O O1 0.669303 0.774516 0.500000
O O2 0.778585 0.812810 0.611517
O O3 0.641502 0.727900 0.665509
O O4 0.662235 0.000000 0.611664
O O5 0.075815 0.765855 0.645698
O O6 0.179666 0.721662 0.761927
O O7 0.147284 0.000000 0.715040
O O8 0.401177 0.238293 0.831919
O O9 0.264429 0.261812 0.901177
O O10 0.327237 0.000000 0.879813
O O11 0.378411 0.189479 0.000000
O O12 0.883791 0.745996 0.913744
O O13 0.000000 0.833093 0.000000
O O14 0.876913 0.000000 0.000000
O O15 0.500000 0.697114 0.288119
O O16 0.394315 0.500000 0.239808
O O17 0.000000 0.247765 0.500000
O O18 0.000000 0.000000 0.590661
O O19 0.814677 0.500000 0.871581
#
# Coordination Sequence:
#
# PCOD8198934 Si02
#       7
#     8   8   8   4   8   4   8
#     4  10  21  38  63  92 122 163 214 263 310 369
#     4  10  20  36  60  89 123 162 206 253 303 363
#     4  11  23  41  67  94 122 159 205 255 305 367
#     4  11  25  43  63  87 120 163 214 261 307 363
#     4  11  25  43  63  91 128 167 206 254 315 379
#     4   9  18  34  59  90 121 156 201 251 300 353
#     4  12  24  38  60  89 123 162 203 250 308 368
#
# _framework density 19.988092999999999
#
# number of rings (size 3 to 8) (size 9 to 14) (size 15 to 20)
#    0.000    1.333    2.500    3.250    1.167    6.000 
#    0.000    3.333    0.000    2.000    0.000    0.000 
#    0.000    0.000    0.000    0.000    0.000    0.000 
#
# Total GULP energy -595380.244532 kJ/mol
# GULP energy per Si atom -12403.755094 kJ/mol
# Density = 1.994260 g / cm^3
# Si number density = 19.988093 Si / 1000 Ang^3
#
#
#
# Elastic Constant Matrix: (Units=GPa)
#
#
# Indices 1 2 3 4 5 6 
#
# 1 96.7029 40.0920 35.6653 0.0000 0.0000 0.0000
# 2 40.0920 128.3870 49.0539 0.0000 0.0000 0.0000
# 3 35.6653 49.0539 126.7342 0.0000 0.0000 0.0000
# 4 0.0000 0.0000 0.0000 -0.9152 0.0000 0.0000
# 5 0.0000 0.0000 0.0000 0.0000 20.7132 0.0000
# 6 0.0000 0.0000 0.0000 0.0000 0.0000 14.4184
#
#
#
# Elastic Compliance Matrix: (Units=1/GPa)
#
#
# Indices 1 2 3 4 5 6 
#
# 1 0.012446 -0.002991 -0.002345 0.000000 0.000000 0.000000
# 2 -0.002991 0.009859 -0.002975 0.000000 0.000000 0.000000
# 3 -0.002345 -0.002975 0.009702 0.000000 0.000000 0.000000
# 4 0.000000 0.000000 0.000000 -1.092658 0.000000 0.000000
# 5 0.000000 0.000000 0.000000 0.000000 0.048278 0.000000
# 6 0.000000 0.000000 0.000000 0.000000 0.000000 0.069356
#
#
# Mechanical properties :
#
#
# Convention : Reuss Voigt Hill
#
# Bulk Modulus (GPa) = 64.99109 66.82738 65.90924
# Shear Modulus (GPa) = -5.42730 21.97748 8.27509
#
# Velocity S-wave (km/s) = -1.64959 3.31951 2.03691
# Velocity P-wave (km/s) = 5.38120 6.94251 6.21111
#
# Compressibility (1/GPa) = 0.01538672
#
# Stress axis : x y z
#
# Youngs Moduli (GPa) = 80.34953 101.42671 103.07386
#
# Poissons Ratio (x) = 0.30332 0.24170
# Poissons Ratio (y) = 0.24029 0.30660
# Poissons Ratio (z) = 0.18841 0.30170
#
# Static dielectric constant tensor:
#      x y z
#    x 3.629440 0.000000 0.000000 
#    y 0.000000 3.624740 0.000000 
#    z 0.000000 0.000000 3.904860 
# 
# 
# High freq. dielectric constant tensor:
#      x y z
#    x 1.780230 0.000000 0.000000 
#    y 0.000000 1.772760 0.000000 
#    z 0.000000 0.000000 1.790590 
# 
# From -- ./inp_files/24512.got.cif
#   From: 2010.03.12/outbox.cif.g09.slc.cpg/sg47_13_cif.got.tgz:24512.got - 2010.04.14 03:12:58.
