data_PCOD8198548
_publ_section_title
;
Structure prediction by ZEFSAII (Michael W. Deem and Ramdas Pophale) SiO2 
 PCOD8198548
Probable space group: P M M M
;
_chemical_formula_sum "Si O2"
_cell_formula_units_Z 64
_cell_length_a 14.600706
_cell_length_b 8.945691
_cell_length_c 24.805394
_cell_angle_alpha 90.000000
_cell_angle_beta 90.000000
_cell_angle_gamma 90.000000
_cell_volume 3239.916954
_symmetry_space_group_name_H-M "P M M M"
_symmetry_group_IT_number 47
_symmetry_cell_setting 'orthorhombic'
loop_
_space_group_symop_operation_xyz
x,y,z
-x,-y,z
x,-y,-z
-x,y,-z
-x,-y,-z
x,y,-z
-x,y,z
x,-y,z
loop_
_atom_site_type_symbol
_atom_site_label
_atom_site_fract_x
_atom_site_fract_y
_atom_site_fract_z
Si Si1 0.397700 0.333672 0.562948
Si Si2 0.744873 0.826013 0.370279
Si Si3 0.393870 0.323329 0.156219
Si Si4 0.283850 0.827232 0.251061
Si Si5 0.104233 0.323904 0.560552
Si Si6 0.100219 0.832394 0.806148
Si Si7 0.897120 0.325920 0.915178
Si Si8 0.283827 0.827990 0.059767
O O1 0.398018 0.304069 0.500000
O O2 0.500000 0.320965 0.586118
O O3 0.358201 0.500000 0.575393
O O4 0.337537 0.205792 0.589353
O O5 0.711071 0.765521 0.312020
O O6 0.836364 0.749790 0.392474
O O7 0.765583 0.000000 0.366076
O O8 0.500000 0.274377 0.154289
O O9 0.383119 0.500000 0.154992
O O10 0.349721 0.264379 0.211510
O O11 0.342946 0.259863 0.103681
O O12 0.177307 0.803368 0.237659
O O13 0.313478 0.000000 0.246718
O O14 0.137309 0.276995 0.500000
O O15 0.112580 0.500000 0.566545
O O16 0.000000 0.271309 0.568847
O O17 0.112274 0.709707 0.852224
O O18 0.000000 0.814665 0.778793
O O19 0.110594 0.000000 0.830866
O O20 0.878332 0.500000 0.924727
O O21 0.819854 0.232615 0.945915
O O22 0.000000 0.283513 0.935568
O O23 0.280911 0.000000 0.078019
O O24 0.328356 0.811328 0.000000
#
# Coordination Sequence:
#
# PCOD8198548 Si02
#       8
#     8   8   8   8   8   8   8   8
#     4   9  19  37  59  80 105 143 190 237 287 345
#     4  11  23  35  53  86 122 152 188 238 293 347
#     4  11  25  44  66  90 115 147 191 245 301 351
#     4  10  22  39  58  83 117 157 194 231 283 347
#     4   9  19  37  59  82 113 158 208 251 293 346
#     4   9  17  32  56  81 107 146 192 230 270 329
#     4  10  20  34  56  88 123 156 191 234 282 329
#     4  11  24  41  63  91 122 157 196 237 284 345
#
# _framework density 19.753592999999999
#
# number of rings (size 3 to 8) (size 9 to 14) (size 15 to 20)
#    0.000    2.000    1.250    2.625    0.000    7.750 
#    0.000    7.500    0.000    1.500    0.000    0.000 
#    0.000    0.000    0.000    0.000    0.000    0.000 
#
# Total GULP energy -793402.005676 kJ/mol
# GULP energy per Si atom -12396.906339 kJ/mol
# Density = 1.970863 g / cm^3
# Si number density = 19.753593 Si / 1000 Ang^3
#
#
#
# Elastic Constant Matrix: (Units=GPa)
#
#
# Indices 1 2 3 4 5 6 
#
# 1 122.5639 46.3210 59.3502 0.0000 0.0000 0.0000
# 2 46.3210 72.9939 46.2236 0.0000 0.0000 0.0000
# 3 59.3502 46.2236 104.8447 0.0000 0.0000 0.0000
# 4 0.0000 0.0000 0.0000 9.0191 0.0000 0.0000
# 5 0.0000 0.0000 0.0000 0.0000 4.1731 0.0000
# 6 0.0000 0.0000 0.0000 0.0000 0.0000 20.4562
#
#
#
# Elastic Compliance Matrix: (Units=1/GPa)
#
#
# Indices 1 2 3 4 5 6 
#
# 1 0.012308 -0.004715 -0.004889 0.000000 0.000000 0.000000
# 2 -0.004715 0.020812 -0.006507 0.000000 0.000000 0.000000
# 3 -0.004889 -0.006507 0.015174 0.000000 0.000000 0.000000
# 4 0.000000 0.000000 0.000000 0.110875 0.000000 0.000000
# 5 0.000000 0.000000 0.000000 0.000000 0.239630 0.000000
# 6 0.000000 0.000000 0.000000 0.000000 0.000000 0.048885
#
#
# Mechanical properties :
#
#
# Convention : Reuss Voigt Hill
#
# Bulk Modulus (GPa) = 62.21275 67.13245 64.67260
# Shear Modulus (GPa) = 10.30369 16.63020 13.46695
#
# Velocity S-wave (km/s) = 2.28636 2.90467 2.61386
# Velocity P-wave (km/s) = 6.20747 6.73113 6.47460
#
# Compressibility (1/GPa) = 0.01607388
#
# Stress axis : x y z
#
# Youngs Moduli (GPa) = 81.24658 48.04900 65.90246
#
# Poissons Ratio (x) = 0.22654 0.32218
# Poissons Ratio (y) = 0.38306 0.42880
# Poissons Ratio (z) = 0.39719 0.31264
#
# Static dielectric constant tensor:
#      x y z
#    x 3.768740 0.000000 0.000000 
#    y 0.000000 3.544720 0.000000 
#    z 0.000000 0.000000 3.564780 
# 
# 
# High freq. dielectric constant tensor:
#      x y z
#    x 1.777290 0.000000 0.000000 
#    y 0.000000 1.765750 0.000000 
#    z 0.000000 0.000000 1.764510 
# 
# From -- ./inp_files/32802.got.cif
#   From: 2010.03.12/outbox.cif.g09.slc.cpg/sg47_17_cif.got.tgz:32802.got - 2010.04.14 03:12:58.
