data_PCOD8198771
_publ_section_title
;
Structure prediction by ZEFSAII (Michael W. Deem and Ramdas Pophale) SiO2 
 PCOD8198771
Probable space group: P M M M
;
_chemical_formula_sum "Si O2"
_cell_formula_units_Z 48
_cell_length_a 31.993519
_cell_length_b 8.062647
_cell_length_c 9.105448
_cell_angle_alpha 90.000000
_cell_angle_beta 90.000000
_cell_angle_gamma 90.000000
_cell_volume 2348.772620
_symmetry_space_group_name_H-M "P M M M"
_symmetry_group_IT_number 47
_symmetry_cell_setting 'orthorhombic'
loop_
_space_group_symop_operation_xyz
x,y,z
-x,-y,z
x,-y,-z
-x,y,-z
-x,-y,-z
x,y,-z
-x,y,z
x,-y,z
loop_
_atom_site_type_symbol
_atom_site_label
_atom_site_fract_x
_atom_site_fract_y
_atom_site_fract_z
Si Si1 0.411678 0.691320 0.831358
Si Si2 0.500000 0.186429 0.174225
Si Si3 0.666224 0.189922 0.333523
Si Si4 0.821998 0.810841 0.332400
Si Si5 0.046827 0.000000 0.825485
Si Si6 0.100121 0.313819 0.828997
Si Si7 0.256039 0.689769 0.166643
O O1 0.399950 0.500000 0.817042
O O2 0.458413 0.721038 0.769138
O O3 0.379835 0.796139 0.734029
O O4 0.408317 0.751605 0.000000
O O5 0.500000 0.000000 0.235438
O O6 0.500000 0.190428 0.000000
O O7 0.665751 0.257233 0.500000
O O8 0.698508 0.296509 0.238810
O O9 0.680624 0.000000 0.329309
O O10 0.817292 0.752354 0.500000
O O11 0.855928 0.695700 0.253898
O O12 0.777257 0.797548 0.255444
O O13 0.837373 0.000000 0.321887
O O14 0.069170 0.830528 0.769556
O O15 0.000000 0.000000 0.760423
O O16 0.045444 0.000000 0.000000
O O17 0.081369 0.500000 0.802812
O O18 0.109135 0.284271 0.000000
O O19 0.241516 0.500000 0.170725
O O20 0.258412 0.755729 0.000000
#
# Coordination Sequence:
#
# PCOD8198771 Si02
#       7
#     8   4   8   8   4   8   8
#     4  10  20  35  57  84 112 143 182 228 277 331
#     4   9  17  31  54  83 112 143 180 224 274 327
#     4  11  24  40  57  80 111 147 187 230 279 336
#     4  11  23  38  58  85 117 154 195 239 290 347
#     4   9  18  34  57  87 123 159 197 249 305 350
#     4  10  20  35  58  87 118 156 201 246 297 356
#     4  11  24  40  59  85 114 146 188 235 284 341
#
# _framework density 20.436205000000001
#
# number of rings (size 3 to 8) (size 9 to 14) (size 15 to 20)
#    0.000    1.667    0.833    3.750    0.000   12.333 
#    0.000    2.083    0.000    3.500    0.000    1.167 
#    0.000    0.000    0.000    0.000    0.000    0.000 
#
# Total GULP energy -595357.186187 kJ/mol
# GULP energy per Si atom -12403.274712 kJ/mol
# Density = 2.038969 g / cm^3
# Si number density = 20.436205 Si / 1000 Ang^3
#
#
#
# Elastic Constant Matrix: (Units=GPa)
#
#
# Indices 1 2 3 4 5 6 
#
# 1 133.2051 35.5043 50.5621 0.0000 0.0000 0.0000
# 2 35.5043 92.7744 34.5304 0.0000 0.0000 0.0000
# 3 50.5621 34.5304 106.4298 0.0000 0.0000 0.0000
# 4 0.0000 0.0000 0.0000 21.1214 0.0000 0.0000
# 5 0.0000 0.0000 0.0000 0.0000 1.3172 0.0000
# 6 0.0000 0.0000 0.0000 0.0000 0.0000 32.0579
#
#
#
# Elastic Compliance Matrix: (Units=1/GPa)
#
#
# Indices 1 2 3 4 5 6 
#
# 1 0.009550 -0.002236 -0.003811 0.000000 0.000000 0.000000
# 2 -0.002236 0.012783 -0.003085 0.000000 0.000000 0.000000
# 3 -0.003811 -0.003085 0.012207 0.000000 0.000000 0.000000
# 4 0.000000 0.000000 0.000000 0.047345 0.000000 0.000000
# 5 0.000000 0.000000 0.000000 0.000000 0.759165 0.000000
# 6 0.000000 0.000000 0.000000 0.000000 0.000000 0.031194
#
#
# Mechanical properties :
#
#
# Convention : Reuss Voigt Hill
#
# Bulk Modulus (GPa) = 61.44323 63.73365 62.58844
# Shear Modulus (GPa) = 5.58077 25.02013 15.30045
#
# Velocity S-wave (km/s) = 1.65431 3.50280 2.73919
# Velocity P-wave (km/s) = 5.81207 6.90028 6.37942
#
# Compressibility (1/GPa) = 0.01627519
#
# Stress axis : x y z
#
# Youngs Moduli (GPa) = 104.71222 78.23007 81.91689
#
# Poissons Ratio (x) = 0.17493 0.31222
# Poissons Ratio (y) = 0.23415 0.25271
# Poissons Ratio (z) = 0.39911 0.24134
#
# Static dielectric constant tensor:
#      x y z
#    x 3.672610 0.000000 0.000000 
#    y 0.000000 3.719550 0.000000 
#    z 0.000000 0.000000 3.541120 
# 
# 
# High freq. dielectric constant tensor:
#      x y z
#    x 1.799090 0.000000 0.000000 
#    y 0.000000 1.807180 0.000000 
#    z 0.000000 0.000000 1.777250 
# 
# From -- ./inp_files/13925.got.cif
#   From: 2010.03.12/outbox.cif.g09.slc.cpg/sg47_7_cif.got.tgz:13925.got - 2010.04.14 03:12:58.
