data_PCOD8198382
_publ_section_title
;
Structure prediction by ZEFSAII (Michael W. Deem and Ramdas Pophale) SiO2 
 PCOD8198382
Probable space group: P M M M
;
_chemical_formula_sum "Si O2"
_cell_formula_units_Z 64
_cell_length_a 9.097238
_cell_length_b 25.364149
_cell_length_c 14.283519
_cell_angle_alpha 90.000000
_cell_angle_beta 90.000000
_cell_angle_gamma 90.000000
_cell_volume 3295.832025
_symmetry_space_group_name_H-M "P M M M"
_symmetry_group_IT_number 47
_symmetry_cell_setting 'orthorhombic'
loop_
_space_group_symop_operation_xyz
x,y,z
-x,-y,z
x,-y,-z
-x,y,-z
-x,-y,-z
x,y,-z
-x,y,z
x,-y,z
loop_
_atom_site_type_symbol
_atom_site_label
_atom_site_fract_x
_atom_site_fract_y
_atom_site_fract_z
Si Si1 0.172469 0.439521 0.783222
Si Si2 0.828066 0.782667 0.605874
Si Si3 0.669115 0.353920 0.107401
Si Si4 0.335063 0.437386 0.397762
Si Si5 0.168017 0.941133 0.231160
Si Si6 0.325718 0.250944 0.218598
Si Si7 0.669600 0.892531 0.394355
Si Si8 0.171726 0.842304 0.891944
O O1 0.222221 0.500000 0.797693
O O2 0.238523 0.405636 0.867191
O O3 0.229773 0.416319 0.684041
O O4 0.000000 0.433888 0.784022
O O5 0.798124 0.762948 0.500000
O O6 0.743639 0.744501 0.677671
O O7 0.766776 0.840926 0.621249
O O8 0.000000 0.783248 0.629400
O O9 0.500000 0.366819 0.127875
O O10 0.723315 0.303768 0.165814
O O11 0.697273 0.340005 0.000000
O O12 0.281911 0.416510 0.500000
O O13 0.500000 0.417096 0.377547
O O14 0.332116 0.500000 0.399203
O O15 0.272029 0.935773 0.321932
O O16 0.210062 0.899639 0.150310
O O17 0.000000 0.932631 0.263403
O O18 0.191211 0.000000 0.190390
O O19 0.500000 0.245599 0.225236
O O20 0.264010 0.200890 0.163530
O O21 0.688247 0.914263 0.500000
O O22 0.500000 0.878740 0.373583
O O23 0.000000 0.829086 0.881250
O O24 0.220361 0.842332 0.000000
#
# Coordination Sequence:
#
# PCOD8198382 Si02
#       8
#     8   8   8   8   8   8   8   8
#     4  10  21  36  56  85 119 153 190 235 287 339
#     4  10  20  35  58  87 118 151 186 225 274 337
#     4  10  23  42  61  83 112 149 193 237 283 336
#     4   8  14  27  50  79 110 147 190 230 269 321
#     4  10  21  36  54  79 113 152 193 237 284 338
#     4  11  22  38  62  89 116 145 183 234 285 335
#     4  10  20  34  54  81 112 148 189 232 281 336
#     4  10  21  37  58  83 110 146 191 234 284 344
#
# _framework density 19.418464
#
# number of rings (size 3 to 8) (size 9 to 14) (size 15 to 20)
#    0.000    2.125    1.250    2.250    0.000    5.500 
#    0.000    5.625    0.000    0.750    0.000    1.750 
#    0.000    0.000    0.000    0.000    0.000    0.000 
#
# Total GULP energy -793653.915518 kJ/mol
# GULP energy per Si atom -12400.842430 kJ/mol
# Density = 1.937427 g / cm^3
# Si number density = 19.418464 Si / 1000 Ang^3
#
#
#
# Elastic Constant Matrix: (Units=GPa)
#
#
# Indices 1 2 3 4 5 6 
#
# 1 81.4484 47.7416 52.6230 0.0000 0.0000 0.0000
# 2 47.7416 95.3056 56.3757 0.0000 0.0000 0.0000
# 3 52.6230 56.3757 124.5753 0.0000 0.0000 0.0000
# 4 0.0000 0.0000 0.0000 27.8646 0.0000 0.0000
# 5 0.0000 0.0000 0.0000 0.0000 31.4481 0.0000
# 6 0.0000 0.0000 0.0000 0.0000 0.0000 26.4149
#
#
#
# Elastic Compliance Matrix: (Units=1/GPa)
#
#
# Indices 1 2 3 4 5 6 
#
# 1 0.019602 -0.006720 -0.005239 0.000000 0.000000 0.000000
# 2 -0.006720 0.016632 -0.004688 0.000000 0.000000 0.000000
# 3 -0.005239 -0.004688 0.012362 0.000000 0.000000 0.000000
# 4 0.000000 0.000000 0.000000 0.035888 0.000000 0.000000
# 5 0.000000 0.000000 0.000000 0.000000 0.031798 0.000000
# 6 0.000000 0.000000 0.000000 0.000000 0.000000 0.037857
#
#
# Mechanical properties :
#
#
# Convention : Reuss Voigt Hill
#
# Bulk Modulus (GPa) = 65.35391 68.31220 66.83306
# Shear Modulus (GPa) = 25.96954 26.78480 26.37717
#
# Velocity S-wave (km/s) = 3.66096 3.71799 3.68959
# Velocity P-wave (km/s) = 7.18323 7.32711 7.25553
#
# Compressibility (1/GPa) = 0.01530130
#
# Stress axis : x y z
#
# Youngs Moduli (GPa) = 51.01639 60.12546 80.89426
#
# Poissons Ratio (x) = 0.40405 0.42380
# Poissons Ratio (y) = 0.34283 0.37923
# Poissons Ratio (z) = 0.26727 0.28187
#
# Static dielectric constant tensor:
#      x y z
#    x 3.538120 0.000000 0.000000 
#    y 0.000000 3.342100 0.000000 
#    z 0.000000 0.000000 3.814450 
# 
# 
# High freq. dielectric constant tensor:
#      x y z
#    x 1.755960 0.000000 0.000000 
#    y 0.000000 1.735670 0.000000 
#    z 0.000000 0.000000 1.766180 
# 
# From -- ./inp_files/21932.got.cif
#   From: 2010.03.12/outbox.cif.g09.slc.cpg/sg47_11_cif.got.tgz:21932.got - 2010.04.14 03:12:58.
