data_PCOD8198619
_publ_section_title
;
Structure prediction by ZEFSAII (Michael W. Deem and Ramdas Pophale) SiO2 
 PCOD8198619
Probable space group: P M M M
;
_chemical_formula_sum "Si O2"
_cell_formula_units_Z 36
_cell_length_a 13.603970
_cell_length_b 9.074466
_cell_length_c 15.962448
_cell_angle_alpha 90.000000
_cell_angle_beta 90.000000
_cell_angle_gamma 90.000000
_cell_volume 1970.544464
_symmetry_space_group_name_H-M "P M M M"
_symmetry_group_IT_number 47
_symmetry_cell_setting 'orthorhombic'
loop_
_space_group_symop_operation_xyz
x,y,z
-x,-y,z
x,-y,-z
-x,y,-z
-x,-y,-z
x,y,-z
-x,y,z
x,-y,z
loop_
_atom_site_type_symbol
_atom_site_label
_atom_site_fract_x
_atom_site_fract_y
_atom_site_fract_z
Si Si1 0.114443 0.174429 0.500000
Si Si2 0.889909 0.328514 0.170377
Si Si3 0.716081 0.828608 0.092388
Si Si4 0.612456 0.173049 0.259422
Si Si5 0.213837 0.327472 0.343327
O O1 0.166224 0.242122 0.419638
O O2 0.000000 0.218298 0.500000
O O3 0.129163 0.000000 0.500000
O O4 0.885609 0.500000 0.150786
O O5 0.820588 0.249707 0.103622
O O6 0.855192 0.295204 0.264380
O O7 0.000000 0.266765 0.160159
O O8 0.639042 0.779354 0.163925
O O9 0.737202 0.000000 0.100075
O O10 0.673738 0.788629 0.000000
O O11 0.500000 0.215733 0.275896
O O12 0.677504 0.263910 0.325362
O O13 0.631117 0.000000 0.272925
O O14 0.222047 0.500000 0.364131
#
# Coordination Sequence:
#
# PCOD8198619 Si02
#       5
#     4   8   8   8   8
#     4  11  23  37  56  83 112 139 167 202 246 297
#     4   9  18  32  49  69  96 133 172 207 249 302
#     4   9  18  31  47  71 101 131 168 213 257 303
#     4   9  18  34  55  76 101 135 172 212 260 309
#     4  10  20  35  55  78 105 135 170 212 254 301
#
# _framework density 18.269062999999999
#
# number of rings (size 3 to 8) (size 9 to 14) (size 15 to 20)
#    0.000    2.556    0.000    1.667    0.000    4.889 
#    0.000    5.000    0.000    3.333    0.000    6.222 
#    0.000    0.000    0.000    0.000    0.000    0.000 
#
# Total GULP energy -446397.114643 kJ/mol
# GULP energy per Si atom -12399.919851 kJ/mol
# Density = 1.822748 g / cm^3
# Si number density = 18.269063 Si / 1000 Ang^3
#
#
#
# Elastic Constant Matrix: (Units=GPa)
#
#
# Indices 1 2 3 4 5 6 
#
# 1 130.7837 48.2725 50.2194 0.0000 0.0000 0.0000
# 2 48.2725 60.5407 46.9077 0.0000 0.0000 0.0000
# 3 50.2194 46.9077 101.2552 0.0000 0.0000 0.0000
# 4 0.0000 0.0000 0.0000 27.5430 0.0000 0.0000
# 5 0.0000 0.0000 0.0000 0.0000 16.6413 0.0000
# 6 0.0000 0.0000 0.0000 0.0000 0.0000 27.6248
#
#
#
# Elastic Compliance Matrix: (Units=1/GPa)
#
#
# Indices 1 2 3 4 5 6 
#
# 1 0.011141 -0.007179 -0.002200 0.000000 0.000000 0.000000
# 2 -0.007179 0.030392 -0.010519 0.000000 0.000000 0.000000
# 3 -0.002200 -0.010519 0.015840 0.000000 0.000000 0.000000
# 4 0.000000 0.000000 0.000000 0.036307 0.000000 0.000000
# 5 0.000000 0.000000 0.000000 0.000000 0.060092 0.000000
# 6 0.000000 0.000000 0.000000 0.000000 0.000000 0.036199
#
#
# Mechanical properties :
#
#
# Convention : Reuss Voigt Hill
#
# Bulk Modulus (GPa) = 56.89004 64.81987 60.85495
# Shear Modulus (GPa) = 21.22017 24.17380 22.69698
#
# Velocity S-wave (km/s) = 3.41183 3.64154 3.52855
# Velocity P-wave (km/s) = 6.83582 7.29649 7.06991
#
# Compressibility (1/GPa) = 0.01757777
#
# Stress axis : x y z
#
# Youngs Moduli (GPa) = 89.76244 32.90336 63.13048
#
# Poissons Ratio (x) = 0.23620 0.13887
# Poissons Ratio (y) = 0.64436 0.66408
# Poissons Ratio (z) = 0.19746 0.34612
#
# Static dielectric constant tensor:
#      x y z
#    x 3.468960 0.000000 0.000000 
#    y 0.000000 3.365660 0.000000 
#    z 0.000000 0.000000 3.426190 
# 
# 
# High freq. dielectric constant tensor:
#      x y z
#    x 1.706630 0.000000 0.000000 
#    y 0.000000 1.706470 0.000000 
#    z 0.000000 0.000000 1.705790 
# 
# From -- ./inp_files/5484.got.cif
#   From: 2010.03.12/outbox.cif.g09.slc.cpg/sg47_3_cif.got.tgz:5484.got - 2010.04.14 03:12:58.
