data_PCOD8198944
_publ_section_title
;
Structure prediction by ZEFSAII (Michael W. Deem and Ramdas Pophale) SiO2 
 PCOD8198944
Probable space group: P M M M
;
_chemical_formula_sum "Si O2"
_cell_formula_units_Z 32
_cell_length_a 9.075200
_cell_length_b 21.725997
_cell_length_c 7.919849
_cell_angle_alpha 90.000000
_cell_angle_beta 90.000000
_cell_angle_gamma 90.000000
_cell_volume 1561.538950
_symmetry_space_group_name_H-M "P M M M"
_symmetry_group_IT_number 47
_symmetry_cell_setting 'orthorhombic'
loop_
_space_group_symop_operation_xyz
x,y,z
-x,-y,z
x,-y,-z
-x,y,-z
-x,-y,-z
x,y,-z
-x,y,z
x,-y,z
loop_
_atom_site_type_symbol
_atom_site_label
_atom_site_fract_x
_atom_site_fract_y
_atom_site_fract_z
Si Si1 0.173440 0.000000 0.809187
Si Si2 0.669351 0.572678 0.000000
Si Si3 0.171632 0.637145 0.691078
Si Si4 0.664595 0.118348 0.306383
Si Si5 0.668571 0.751338 0.192333
O O1 0.229998 0.939239 0.718097
O O2 0.000000 0.000000 0.796742
O O3 0.230826 0.000000 0.000000
O O4 0.743712 0.596122 0.827793
O O5 0.683116 0.500000 0.000000
O O6 0.500000 0.594844 0.000000
O O7 0.198056 0.611975 0.500000
O O8 0.229292 0.707265 0.696340
O O9 0.000000 0.636197 0.736872
O O10 0.663686 0.137675 0.500000
O O11 0.500000 0.100382 0.244923
O O12 0.723469 0.178003 0.205448
O O13 0.500000 0.747352 0.257026
O O14 0.681431 0.728735 0.000000
#
# Coordination Sequence:
#
# PCOD8198944 Si02
#       5
#     4   4   8   8   8
#     4  11  24  39  54  76 108 149 196 247 306 368
#     4  11  25  45  69  97 129 168 215 264 311 363
#     4  11  24  41  64  96 133 172 211 256 315 378
#     4  10  21  37  58  84 113 149 195 247 303 364
#     4  10  20  36  61  91 121 158 204 253 306 365
#
# _framework density 20.492605000000001
#
# number of rings (size 3 to 8) (size 9 to 14) (size 15 to 20)
#    0.000    1.500    1.250    3.375    0.000    9.500 
#    0.000    2.500    0.000    0.000    0.000    0.000 
#    0.000    0.000    0.000    0.000    0.000    0.000 
#
# Total GULP energy -396881.317043 kJ/mol
# GULP energy per Si atom -12402.541158 kJ/mol
# Density = 2.044596 g / cm^3
# Si number density = 20.492605 Si / 1000 Ang^3
#
#
#
# Elastic Constant Matrix: (Units=GPa)
#
#
# Indices 1 2 3 4 5 6 
#
# 1 113.6661 56.6336 58.5646 0.0000 0.0000 0.0000
# 2 56.6336 102.8308 39.9670 0.0000 0.0000 0.0000
# 3 58.5646 39.9670 112.1298 0.0000 0.0000 0.0000
# 4 0.0000 0.0000 0.0000 26.8656 0.0000 0.0000
# 5 0.0000 0.0000 0.0000 0.0000 30.8810 0.0000
# 6 0.0000 0.0000 0.0000 0.0000 0.0000 -1.8944
#
#
#
# Elastic Compliance Matrix: (Units=1/GPa)
#
#
# Indices 1 2 3 4 5 6 
#
# 1 0.014568 -0.005881 -0.005513 0.000000 0.000000 0.000000
# 2 -0.005881 0.013662 -0.001798 0.000000 0.000000 0.000000
# 3 -0.005513 -0.001798 0.012438 0.000000 0.000000 0.000000
# 4 0.000000 0.000000 0.000000 0.037222 0.000000 0.000000
# 5 0.000000 0.000000 0.000000 0.000000 0.032382 0.000000
# 6 0.000000 0.000000 0.000000 0.000000 0.000000 -0.527871
#
#
# Mechanical properties :
#
#
# Convention : Reuss Voigt Hill
#
# Bulk Modulus (GPa) = 70.00099 70.99523 70.49811
# Shear Modulus (GPa) = -12.93822 22.73453 4.89816
#
# Velocity S-wave (km/s) = -2.51541 3.33438 1.54771
# Velocity P-wave (km/s) = 5.07906 7.03873 6.13761
#
# Compressibility (1/GPa) = 0.01428551
#
# Stress axis : x y z
#
# Youngs Moduli (GPa) = 68.64332 73.19343 80.39567
#
# Poissons Ratio (x) = 0.43043 0.44320
# Poissons Ratio (y) = 0.40367 0.14458
# Poissons Ratio (z) = 0.37841 0.13163
#
# Static dielectric constant tensor:
#      x y z
#    x 3.670800 0.000000 0.000000 
#    y 0.000000 3.633740 0.000000 
#    z 0.000000 0.000000 3.840980 
# 
# 
# High freq. dielectric constant tensor:
#      x y z
#    x 1.794620 0.000000 0.000000 
#    y 0.000000 1.804290 0.000000 
#    z 0.000000 0.000000 1.812730 
# 
# From -- ./inp_files/1293.got.cif
#   From: 2010.03.12/outbox.cif.g09.slc.cpg/sg47_1_cif.got.tgz:1293.got - 2010.04.14 03:12:58.
