data_PCOD8198795
_publ_section_title
;
Structure prediction by ZEFSAII (Michael W. Deem and Ramdas Pophale) SiO2 
 PCOD8198795
Probable space group: P M M M
;
_chemical_formula_sum "Si O2"
_cell_formula_units_Z 64
_cell_length_a 14.407190
_cell_length_b 8.853222
_cell_length_c 25.576333
_cell_angle_alpha 90.000000
_cell_angle_beta 90.000000
_cell_angle_gamma 90.000000
_cell_volume 3262.262590
_symmetry_space_group_name_H-M "P M M M"
_symmetry_group_IT_number 47
_symmetry_cell_setting 'orthorhombic'
loop_
_space_group_symop_operation_xyz
x,y,z
-x,-y,z
x,-y,-z
-x,y,-z
-x,-y,-z
x,y,-z
-x,y,z
x,-y,z
loop_
_atom_site_type_symbol
_atom_site_label
_atom_site_fract_x
_atom_site_fract_y
_atom_site_fract_z
Si Si1 0.721967 0.677883 0.749868
Si Si2 0.104547 0.175540 0.210532
Si Si3 0.394613 0.678825 0.149824
Si Si4 0.895310 0.323022 0.900705
Si Si5 0.704057 0.820433 0.442100
Si Si6 0.097696 0.831980 0.561967
Si Si7 0.719714 0.173480 0.059118
Si Si8 0.393525 0.824184 0.660591
O O1 0.737970 0.500000 0.751344
O O2 0.821598 0.761470 0.747767
O O3 0.663924 0.735013 0.800226
O O4 0.667186 0.721178 0.698052
O O5 0.121843 0.267339 0.157774
O O6 0.000000 0.202814 0.231743
O O7 0.122130 0.000000 0.199375
O O8 0.500000 0.738374 0.155618
O O9 0.392577 0.500000 0.146349
O O10 0.351320 0.742188 0.096814
O O11 0.875546 0.500000 0.902035
O O12 0.823346 0.241429 0.938728
O O13 0.000000 0.285167 0.919314
O O14 0.676358 0.757666 0.500000
O O15 0.804540 0.752676 0.422249
O O16 0.627067 0.776151 0.399474
O O17 0.714738 0.000000 0.445977
O O18 0.099713 0.843504 0.500000
O O19 0.000000 0.749303 0.579555
O O20 0.094880 0.000000 0.586226
O O21 0.724434 0.000000 0.076098
O O22 0.683014 0.192093 0.000000
O O23 0.500000 0.788783 0.672248
O O24 0.370011 0.000000 0.669799
#
# Coordination Sequence:
#
# PCOD8198795 Si02
#       8
#     8   8   8   8   8   8   8   8
#     4  11  22  38  61  85 111 146 188 231 276 334
#     4  10  20  35  59  90 120 148 180 222 274 331
#     4  10  22  40  61  83 105 138 188 240 290 343
#     4  10  20  35  57  85 116 152 192 229 271 329
#     4   8  14  26  45  70 102 141 185 232 282 338
#     4   7   9  15  31  57  89 125 164 207 258 315
#     4  11  24  39  56  82 116 152 190 235 288 342
#     4  10  21  35  52  78 111 146 187 239 296 344
#
# _framework density 19.618285
#
# number of rings (size 3 to 8) (size 9 to 14) (size 15 to 20)
#    0.000    2.375    1.250    3.000    0.000    4.750 
#    0.000    4.375    0.000    2.625    0.000    0.875 
#    0.000    0.000    0.000    4.250    0.000    4.125 
#
# Total GULP energy -793198.528690 kJ/mol
# GULP energy per Si atom -12393.727011 kJ/mol
# Density = 1.957363 g / cm^3
# Si number density = 19.618285 Si / 1000 Ang^3
#
#
#
# Elastic Constant Matrix: (Units=GPa)
#
#
# Indices 1 2 3 4 5 6 
#
# 1 112.9412 20.2529 39.0714 0.0000 0.0000 0.0000
# 2 20.2529 12.2673 11.3129 0.0000 0.0000 0.0000
# 3 39.0714 11.3129 82.7232 0.0000 0.0000 0.0000
# 4 0.0000 0.0000 0.0000 10.6955 0.0000 0.0000
# 5 0.0000 0.0000 0.0000 0.0000 28.5409 0.0000
# 6 0.0000 0.0000 0.0000 0.0000 0.0000 24.4790
#
#
#
# Elastic Compliance Matrix: (Units=1/GPa)
#
#
# Indices 1 2 3 4 5 6 
#
# 1 0.013559 -0.018858 -0.003825 0.000000 0.000000 0.000000
# 2 -0.018858 0.119510 -0.007437 0.000000 0.000000 0.000000
# 3 -0.003825 -0.007437 0.014912 0.000000 0.000000 0.000000
# 4 0.000000 0.000000 0.000000 0.093498 0.000000 0.000000
# 5 0.000000 0.000000 0.000000 0.000000 0.035037 0.000000
# 6 0.000000 0.000000 0.000000 0.000000 0.000000 0.040851
#
#
# Mechanical properties :
#
#
# Convention : Reuss Voigt Hill
#
# Bulk Modulus (GPa) = 11.39715 38.80065 25.09890
# Shear Modulus (GPa) = 12.28939 21.89604 17.09272
#
# Velocity S-wave (km/s) = 2.50556 3.34444 2.95492
# Velocity P-wave (km/s) = 3.76730 5.89359 4.94606
#
# Compressibility (1/GPa) = 0.08774127
#
# Stress axis : x y z
#
# Youngs Moduli (GPa) = 73.75082 8.36750 67.05904
#
# Poissons Ratio (x) = 0.15780 0.25652
# Poissons Ratio (y) = 1.39080 0.49870
# Poissons Ratio (z) = 0.28211 0.06223
#
# Static dielectric constant tensor:
#      x y z
#    x 4.052900 0.000000 0.000000 
#    y 0.000000 3.281930 0.000000 
#    z 0.000000 0.000000 3.375260 
# 
# 
# High freq. dielectric constant tensor:
#      x y z
#    x 1.782670 0.000000 0.000000 
#    y 0.000000 1.732320 0.000000 
#    z 0.000000 0.000000 1.743880 
# 
# From -- ./inp_files/32769.got.cif
#   From: 2010.03.12/outbox.cif.g09.slc.cpg/sg47_17_cif.got.tgz:32769.got - 2010.04.14 03:12:58.
