data_PCOD8198117
_publ_section_title
;
Structure prediction by ZEFSAII (Michael W. Deem and Ramdas Pophale) SiO2 
 PCOD8198117
Probable space group: P M M M
;
_chemical_formula_sum "Si O2"
_cell_formula_units_Z 44
_cell_length_a 29.159253
_cell_length_b 8.694144
_cell_length_c 9.119829
_cell_angle_alpha 90.000000
_cell_angle_beta 90.000000
_cell_angle_gamma 90.000000
_cell_volume 2312.011119
_symmetry_space_group_name_H-M "P M M M"
_symmetry_group_IT_number 47
_symmetry_cell_setting 'orthorhombic'
loop_
_space_group_symop_operation_xyz
x,y,z
-x,-y,z
x,-y,-z
-x,y,-z
-x,-y,-z
x,y,-z
-x,y,z
x,-y,z
loop_
_atom_site_type_symbol
_atom_site_label
_atom_site_fract_x
_atom_site_fract_y
_atom_site_fract_z
Si Si1 0.951452 0.827454 0.674317
Si Si2 0.500000 0.318276 0.333002
Si Si3 0.586345 0.817879 0.831445
Si Si4 0.234627 0.183531 0.165039
Si Si5 0.676705 0.816915 0.334639
Si Si6 0.146641 0.184217 0.334629
O O1 0.948909 0.833058 0.500000
O O2 0.902995 0.751214 0.725807
O O3 0.000000 0.744127 0.722524
O O4 0.953609 0.000000 0.736856
O O5 0.500000 0.500000 0.328289
O O6 0.500000 0.257172 0.500000
O O7 0.544481 0.257891 0.251533
O O8 0.633006 0.758190 0.756570
O O9 0.581634 0.000000 0.818582
O O10 0.586441 0.764695 0.000000
O O11 0.277393 0.247708 0.258255
O O12 0.187336 0.248117 0.233028
O O13 0.234605 0.000000 0.168168
O O14 0.239059 0.245551 0.000000
O O15 0.673922 0.752277 0.500000
O O16 0.677843 0.000000 0.335885
O O17 0.156087 0.241677 0.500000
O O18 0.145015 0.000000 0.331954
#
# Coordination Sequence:
#
# PCOD8198117 Si02
#       6
#     8   4   8   8   8   8
#     4   7   9  13  21  32  44  60  89 132 178 223
#     4  11  24  39  54  74 100 129 160 191 222 258
#     4  10  20  34  53  76  99 123 153 188 227 271
#     4   9  15  21  29  43  65  90 115 147 190 240
#     4   9  16  26  41  60  81 105 133 166 205 250
#     4   8  12  17  25  36  50  71 101 137 180 232
#
# _framework density 19.03105
#
# number of rings (size 3 to 8) (size 9 to 14) (size 15 to 20)
#    0.000    3.182    0.000    3.818    0.000    7.273 
#    0.000    0.000    0.000    0.545    0.000    3.818 
#    0.000    0.000    0.000    0.000    0.000    0.000 
#
# Total GULP energy -545079.709878 kJ/mol
# GULP energy per Si atom -12388.175225 kJ/mol
# Density = 1.898773 g / cm^3
# Si number density = 19.031050 Si / 1000 Ang^3
#
#
#
# Elastic Constant Matrix: (Units=GPa)
#
#
# Indices 1 2 3 4 5 6 
#
# 1 234.2160 15.1052 103.5862 0.0000 0.0000 0.0000
# 2 15.1052 6.1042 13.7860 0.0000 0.0000 0.0000
# 3 103.5862 13.7860 152.1322 0.0000 0.0000 0.0000
# 4 0.0000 0.0000 0.0000 7.7271 0.0000 0.0000
# 5 0.0000 0.0000 0.0000 0.0000 25.3257 0.0000
# 6 0.0000 0.0000 0.0000 0.0000 0.0000 -4.6285
#
#
#
# Elastic Compliance Matrix: (Units=1/GPa)
#
#
# Indices 1 2 3 4 5 6 
#
# 1 0.006371 -0.007505 -0.003658 0.000000 0.000000 0.000000
# 2 -0.007505 0.214815 -0.014356 0.000000 0.000000 0.000000
# 3 -0.003658 -0.014356 0.010365 0.000000 0.000000 0.000000
# 4 0.000000 0.000000 0.000000 0.129415 0.000000 0.000000
# 5 0.000000 0.000000 0.000000 0.000000 0.039486 0.000000
# 6 0.000000 0.000000 0.000000 0.000000 0.000000 -0.216052
#
#
# Mechanical properties :
#
#
# Convention : Reuss Voigt Hill
#
# Bulk Modulus (GPa) = 5.53975 73.04525 39.29250
# Shear Modulus (GPa) = 16.91420 23.01654 19.96537
#
# Velocity S-wave (km/s) = 2.98446 3.48144 3.24249
# Velocity P-wave (km/s) = 3.84619 7.39095 5.89149
#
# Compressibility (1/GPa) = 0.18051346
#
# Stress axis : x y z
#
# Youngs Moduli (GPa) = 156.94929 4.65516 96.47776
#
# Poissons Ratio (x) = 0.03494 0.35294
# Poissons Ratio (y) = 1.17785 1.38508
# Poissons Ratio (z) = 0.57416 0.06683
#
# Static dielectric constant tensor:
#      x y z
#    x 4.164780 0.000000 0.000000 
#    y 0.000000 2.628340 0.000000 
#    z 0.000000 0.000000 3.497240 
# 
# 
# High freq. dielectric constant tensor:
#      x y z
#    x 1.774630 0.000000 0.000000 
#    y 0.000000 1.645650 0.000000 
#    z 0.000000 0.000000 1.726480 
# 
# From -- ./inp_files/13572.got.cif
#   From: 2010.03.12/outbox.cif.g09.slc.cpg/sg47_7_cif.got.tgz:13572.got - 2010.04.14 03:12:58.
