data_PCOD8198659
_publ_section_title
;
Structure prediction by ZEFSAII (Michael W. Deem and Ramdas Pophale) SiO2 
 PCOD8198659
Probable space group: P M M M
;
_chemical_formula_sum "Si O2"
_cell_formula_units_Z 56
_cell_length_a 20.934761
_cell_length_b 9.537723
_cell_length_c 14.220504
_cell_angle_alpha 90.000000
_cell_angle_beta 90.000000
_cell_angle_gamma 90.000000
_cell_volume 2839.407344
_symmetry_space_group_name_H-M "P M M M"
_symmetry_group_IT_number 47
_symmetry_cell_setting 'orthorhombic'
loop_
_space_group_symop_operation_xyz
x,y,z
-x,-y,z
x,-y,-z
-x,y,-z
-x,-y,-z
x,y,-z
-x,y,z
x,-y,z
loop_
_atom_site_type_symbol
_atom_site_label
_atom_site_fract_x
_atom_site_fract_y
_atom_site_fract_z
Si Si1 0.574025 0.153282 0.102320
Si Si2 0.817944 0.162065 0.609937
Si Si3 0.687149 0.839293 0.295696
Si Si4 0.748796 0.158357 0.894716
Si Si5 0.928316 0.662413 0.295683
Si Si6 0.427367 0.335687 0.722626
Si Si7 0.869904 0.661278 0.895796
O O1 0.500000 0.132188 0.088127
O O2 0.584180 0.283594 0.171633
O O3 0.601084 0.000000 0.139336
O O4 0.605207 0.186682 0.000000
O O5 0.809868 0.186894 0.500000
O O6 0.753055 0.216195 0.659371
O O7 0.878783 0.247231 0.645367
O O8 0.829657 0.000000 0.635081
O O9 0.691716 0.819753 0.181032
O O10 0.627018 0.749040 0.336178
O O11 0.676003 0.000000 0.325385
O O12 0.807321 0.255069 0.865516
O O13 0.774534 0.000000 0.888145
O O14 0.724065 0.193529 0.000000
O O15 0.914853 0.500000 0.318118
O O16 0.923009 0.690498 0.183339
O O17 0.000000 0.704554 0.325959
O O18 0.500000 0.301394 0.687865
O O19 0.413821 0.500000 0.715765
O O20 0.849759 0.500000 0.897095
O O21 0.894857 0.706995 0.000000
#
# Coordination Sequence:
#
# PCOD8198659 Si02
#       7
#     8   8   8   8   8   8   8
#     4   8  14  26  44  65  93 134 181 222 260 308
#     4  10  22  41  63  86 111 140 181 233 285 336
#     4  10  20  35  56  80 106 140 181 225 276 333
#     4   9  17  30  50  76 105 138 180 229 276 321
#     4  10  21  36  56  85 120 155 190 229 273 324
#     4  10  21  34  49  74 107 140 175 220 274 330
#     4   9  17  30  50  77 111 151 191 228 267 313
#
# _framework density 19.722425000000001
#
# number of rings (size 3 to 8) (size 9 to 14) (size 15 to 20)
#    0.000    2.571    1.429    0.857    0.000    4.000 
#    0.000    5.714    0.000    0.429    0.000    6.000 
#    0.000    0.000    0.000    0.000    0.000    0.000 
#
# Total GULP energy -693894.455418 kJ/mol
# GULP energy per Si atom -12390.972418 kJ/mol
# Density = 1.967754 g / cm^3
# Si number density = 19.722425 Si / 1000 Ang^3
#
#
#
# Elastic Constant Matrix: (Units=GPa)
#
#
# Indices 1 2 3 4 5 6 
#
# 1 151.2470 67.8913 41.7138 0.0000 0.0000 0.0000
# 2 67.8913 77.8450 28.2767 0.0000 0.0000 0.0000
# 3 41.7138 28.2767 58.6395 0.0000 0.0000 0.0000
# 4 0.0000 0.0000 0.0000 20.3029 0.0000 0.0000
# 5 0.0000 0.0000 0.0000 0.0000 6.5291 0.0000
# 6 0.0000 0.0000 0.0000 0.0000 0.0000 34.4687
#
#
#
# Elastic Compliance Matrix: (Units=1/GPa)
#
#
# Indices 1 2 3 4 5 6 
#
# 1 0.011625 -0.008650 -0.004098 0.000000 0.000000 0.000000
# 2 -0.008650 0.022010 -0.004460 0.000000 0.000000 0.000000
# 3 -0.004098 -0.004460 0.022120 0.000000 0.000000 0.000000
# 4 0.000000 0.000000 0.000000 0.049254 0.000000 0.000000
# 5 0.000000 0.000000 0.000000 0.000000 0.153161 0.000000
# 6 0.000000 0.000000 0.000000 0.000000 0.000000 0.029012
#
#
# Mechanical properties :
#
#
# Convention : Reuss Voigt Hill
#
# Bulk Modulus (GPa) = 46.86615 62.61056 54.73835
# Shear Modulus (GPa) = 15.21095 22.25010 18.73053
#
# Velocity S-wave (km/s) = 2.78015 3.36246 3.08507
# Velocity P-wave (km/s) = 5.84124 6.84760 6.36434
#
# Compressibility (1/GPa) = 0.02133736
#
# Stress axis : x y z
#
# Youngs Moduli (GPa) = 86.02449 45.43425 45.20860
#
# Poissons Ratio (x) = 0.39298 0.18528
# Poissons Ratio (y) = 0.74407 0.20165
# Poissons Ratio (z) = 0.35256 0.20266
#
# Static dielectric constant tensor:
#      x y z
#    x 3.759060 0.000000 0.000000 
#    y 0.000000 3.499830 0.000000 
#    z 0.000000 0.000000 3.520800 
# 
# 
# High freq. dielectric constant tensor:
#      x y z
#    x 1.777440 0.000000 0.000000 
#    y 0.000000 1.756990 0.000000 
#    z 0.000000 0.000000 1.744570 
# 
# From -- ./inp_files/25117.got.cif
#   From: 2010.03.12/outbox.cif.g09.slc.cpg/sg47_13_cif.got.tgz:25117.got - 2010.04.14 03:12:58.
