data_PCOD8198495
_publ_section_title
;
Structure prediction by ZEFSAII (Michael W. Deem and Ramdas Pophale) SiO2 
 PCOD8198495
Probable space group: P M M M
;
_chemical_formula_sum "Si O2"
_cell_formula_units_Z 52
_cell_length_a 20.234068
_cell_length_b 14.264896
_cell_length_c 8.906428
_cell_angle_alpha 90.000000
_cell_angle_beta 90.000000
_cell_angle_gamma 90.000000
_cell_volume 2570.723551
_symmetry_space_group_name_H-M "P M M M"
_symmetry_group_IT_number 47
_symmetry_cell_setting 'orthorhombic'
loop_
_space_group_symop_operation_xyz
x,y,z
-x,-y,z
x,-y,-z
-x,y,-z
-x,-y,-z
x,y,-z
-x,y,z
x,-y,z
loop_
_atom_site_type_symbol
_atom_site_label
_atom_site_fract_x
_atom_site_fract_y
_atom_site_fract_z
Si Si1 0.896507 0.105147 0.173827
Si Si2 0.927081 0.287628 0.672710
Si Si3 0.686572 0.712010 0.671981
Si Si4 0.236882 0.102165 0.332819
Si Si5 0.805675 0.390940 0.174365
Si Si6 0.421615 0.000000 0.668706
Si Si7 0.576542 0.807966 0.175490
O O1 0.935133 0.180410 0.273409
O O2 0.819022 0.114509 0.208031
O O3 0.921548 0.000000 0.212828
O O4 0.908710 0.127787 0.000000
O O5 0.904932 0.290323 0.500000
O O6 0.871256 0.340290 0.766497
O O7 0.000000 0.334426 0.693125
O O8 0.676505 0.681550 0.500000
O O9 0.710354 0.818081 0.690449
O O10 0.738618 0.641157 0.745088
O O11 0.616085 0.717711 0.756594
O O12 0.204985 0.110122 0.500000
O O13 0.271592 0.000000 0.313371
O O14 0.815097 0.500000 0.206184
O O15 0.798518 0.367640 0.000000
O O16 0.398579 0.094093 0.753463
O O17 0.500000 0.000000 0.661783
O O18 0.391539 0.000000 0.500000
O O19 0.500000 0.789258 0.211490
O O20 0.590510 0.813948 0.000000
#
# Coordination Sequence:
#
# PCOD8198495 Si02
#       7
#     8   8   8   8   8   4   8
#     4  10  20  34  55  84 119 159 201 244 289 340
#     4  11  24  41  62  89 121 158 199 243 294 352
#     4  11  22  36  61  91 119 156 199 244 296 354
#     4   9  18  32  51  79 116 154 194 239 288 345
#     4  11  25  45  68  92 118 149 190 243 304 368
#     4   9  17  31  51  77 115 163 212 255 294 343
#     4  10  21  36  54  81 121 165 207 250 296 349
#
# _framework density 20.227768000000001
#
# number of rings (size 3 to 8) (size 9 to 14) (size 15 to 20)
#    0.000    1.769    1.538    2.538    1.077    6.462 
#    0.000    3.077    0.000    0.462    0.000    3.231 
#    0.000    0.000    0.000    0.000    0.000    0.000 
#
# Total GULP energy -644666.172430 kJ/mol
# GULP energy per Si atom -12397.426393 kJ/mol
# Density = 2.018173 g / cm^3
# Si number density = 20.227768 Si / 1000 Ang^3
#
#
#
# Elastic Constant Matrix: (Units=GPa)
#
#
# Indices 1 2 3 4 5 6 
#
# 1 85.9437 40.9052 51.2838 0.0000 0.0000 0.0000
# 2 40.9052 79.0745 51.4169 0.0000 0.0000 0.0000
# 3 51.2838 51.4169 123.1428 0.0000 0.0000 0.0000
# 4 0.0000 0.0000 0.0000 25.2389 0.0000 0.0000
# 5 0.0000 0.0000 0.0000 0.0000 27.3807 0.0000
# 6 0.0000 0.0000 0.0000 0.0000 0.0000 9.3379
#
#
#
# Elastic Compliance Matrix: (Units=1/GPa)
#
#
# Indices 1 2 3 4 5 6 
#
# 1 0.017244 -0.005835 -0.004745 0.000000 0.000000 0.000000
# 2 -0.005835 0.019334 -0.005643 0.000000 0.000000 0.000000
# 3 -0.004745 -0.005643 0.012453 0.000000 0.000000 0.000000
# 4 0.000000 0.000000 0.000000 0.039621 0.000000 0.000000
# 5 0.000000 0.000000 0.000000 0.000000 0.036522 0.000000
# 6 0.000000 0.000000 0.000000 0.000000 0.000000 0.107091
#
#
# Mechanical properties :
#
#
# Convention : Reuss Voigt Hill
#
# Bulk Modulus (GPa) = 60.29416 63.93031 62.11224
# Shear Modulus (GPa) = 18.50215 22.02850 20.26533
#
# Velocity S-wave (km/s) = 3.02767 3.30361 3.16865
# Velocity P-wave (km/s) = 6.48804 6.79895 6.64531
#
# Compressibility (1/GPa) = 0.01658535
#
# Stress axis : x y z
#
# Youngs Moduli (GPa) = 57.99059 51.72310 80.30318
#
# Poissons Ratio (x) = 0.30180 0.38105
# Poissons Ratio (y) = 0.33837 0.45312
# Poissons Ratio (z) = 0.27517 0.29185
#
# Static dielectric constant tensor:
#      x y z
#    x 3.617150 0.000000 0.000000 
#    y 0.000000 3.577960 0.000000 
#    z 0.000000 0.000000 3.825820 
# 
# 
# High freq. dielectric constant tensor:
#      x y z
#    x 1.793560 0.000000 0.000000 
#    y 0.000000 1.764830 0.000000 
#    z 0.000000 0.000000 1.800490 
# 
# From -- ./inp_files/11082.got.cif
#   From: 2010.03.12/outbox.cif.g09.slc.cpg/sg47_6_cif.got.tgz:11082.got - 2010.04.14 03:12:58.
