data_PCOD8198095
_publ_section_title
;
Structure prediction by ZEFSAII (Michael W. Deem and Ramdas Pophale) SiO2 
 PCOD8198095
Probable space group: P M M M
;
_chemical_formula_sum "Si O2"
_cell_formula_units_Z 36
_cell_length_a 9.139777
_cell_length_b 23.000074
_cell_length_c 9.040500
_cell_angle_alpha 90.000000
_cell_angle_beta 90.000000
_cell_angle_gamma 90.000000
_cell_volume 1900.453656
_symmetry_space_group_name_H-M "P M M M"
_symmetry_group_IT_number 47
_symmetry_cell_setting 'orthorhombic'
loop_
_space_group_symop_operation_xyz
x,y,z
-x,-y,z
x,-y,-z
-x,y,-z
-x,-y,-z
x,y,-z
-x,y,z
x,-y,z
loop_
_atom_site_type_symbol
_atom_site_label
_atom_site_fract_x
_atom_site_fract_y
_atom_site_fract_z
Si Si1 0.172153 0.333534 0.669868
Si Si2 0.668790 0.567191 0.169600
Si Si3 0.325359 0.000000 0.167028
Si Si4 0.669737 0.229230 0.826996
Si Si5 0.325828 0.886438 0.666789
O O1 0.216545 0.323184 0.500000
O O2 0.230885 0.395890 0.721330
O O3 0.241514 0.284026 0.770343
O O4 0.000000 0.332544 0.692156
O O5 0.500000 0.582978 0.198202
O O6 0.698537 0.500000 0.205022
O O7 0.709519 0.581303 0.000000
O O8 0.263724 0.942957 0.249275
O O9 0.500000 0.000000 0.168802
O O10 0.265945 0.000000 0.000000
O O11 0.500000 0.239415 0.789582
O O12 0.730603 0.171440 0.747851
O O13 0.695617 0.221380 0.000000
O O14 0.265176 0.886626 0.500000
O O15 0.500000 0.888098 0.668680
#
# Coordination Sequence:
#
# PCOD8198095 Si02
#       5
#     8   8   4   8   8
#     4  11  24  38  52  75 107 140 174 213 257 305
#     4   9  19  37  60  84 108 135 170 211 254 303
#     4   9  15  23  37  61  96 133 168 209 256 305
#     4  10  20  34  53  76 101 132 173 218 262 310
#     4   9  16  26  42  66  97 132 168 208 258 312
#
# _framework density 18.942844999999998
#
# number of rings (size 3 to 8) (size 9 to 14) (size 15 to 20)
#    0.000    2.333    0.000    3.667    0.000   11.111 
#    0.000    3.333    0.000    0.000    0.000    0.778 
#    0.000    6.222    0.000    0.000    0.000    0.000 
#
# Total GULP energy -446492.926447 kJ/mol
# GULP energy per Si atom -12402.581290 kJ/mol
# Density = 1.889973 g / cm^3
# Si number density = 18.942845 Si / 1000 Ang^3
#
#
#
# Elastic Constant Matrix: (Units=GPa)
#
#
# Indices 1 2 3 4 5 6 
#
# 1 40.1743 34.5387 38.4815 0.0000 0.0000 0.0000
# 2 34.5387 128.6371 62.6272 0.0000 0.0000 0.0000
# 3 38.4815 62.6272 123.4177 0.0000 0.0000 0.0000
# 4 0.0000 0.0000 0.0000 39.1282 0.0000 0.0000
# 5 0.0000 0.0000 0.0000 0.0000 22.2584 0.0000
# 6 0.0000 0.0000 0.0000 0.0000 0.0000 -2.8581
#
#
#
# Elastic Compliance Matrix: (Units=1/GPa)
#
#
# Indices 1 2 3 4 5 6 
#
# 1 0.038686 -0.005996 -0.009020 0.000000 0.000000 0.000000
# 2 -0.005996 0.011254 -0.003841 0.000000 0.000000 0.000000
# 3 -0.009020 -0.003841 0.012864 0.000000 0.000000 0.000000
# 4 0.000000 0.000000 0.000000 0.025557 0.000000 0.000000
# 5 0.000000 0.000000 0.000000 0.000000 0.044927 0.000000
# 6 0.000000 0.000000 0.000000 0.000000 0.000000 -0.349887
#
#
# Mechanical properties :
#
#
# Convention : Reuss Voigt Hill
#
# Bulk Modulus (GPa) = 39.85583 62.61376 51.23479
# Shear Modulus (GPa) = -29.32167 22.14449 -3.58859
#
# Velocity S-wave (km/s) = -3.93861 3.42280 -1.37788
# Velocity P-wave (km/s) = 0.63421 6.98187 4.95725
#
# Compressibility (1/GPa) = 0.02509043
#
# Stress axis : x y z
#
# Youngs Moduli (GPa) = 25.84919 88.85950 77.73612
#
# Poissons Ratio (x) = 0.53278 0.70116
# Poissons Ratio (y) = 0.15499 0.29859
# Poissons Ratio (z) = 0.23315 0.34132
#
# Static dielectric constant tensor:
#      x y z
#    x 3.030190 0.000000 0.000000 
#    y 0.000000 3.616990 0.000000 
#    z 0.000000 0.000000 3.621870 
# 
# 
# High freq. dielectric constant tensor:
#      x y z
#    x 1.687260 0.000000 0.000000 
#    y 0.000000 1.754030 0.000000 
#    z 0.000000 0.000000 1.749500 
# 
# From -- ./inp_files/1411.got.cif
#   From: 2010.03.12/outbox.cif.g09.slc.cpg/sg47_1_cif.got.tgz:1411.got - 2010.04.14 03:12:58.
