data_PCOD8198694
_publ_section_title
;
Structure prediction by ZEFSAII (Michael W. Deem and Ramdas Pophale) SiO2 
 PCOD8198694
Probable space group: P M M M
;
_chemical_formula_sum "Si O2"
_cell_formula_units_Z 40
_cell_length_a 15.819051
_cell_length_b 13.958382
_cell_length_c 8.820040
_cell_angle_alpha 90.000000
_cell_angle_beta 90.000000
_cell_angle_gamma 90.000000
_cell_volume 1947.538539
_symmetry_space_group_name_H-M "P M M M"
_symmetry_group_IT_number 47
_symmetry_cell_setting 'orthorhombic'
loop_
_space_group_symop_operation_xyz
x,y,z
-x,-y,z
x,-y,-z
-x,y,-z
-x,-y,-z
x,y,-z
-x,y,z
x,-y,z
loop_
_atom_site_type_symbol
_atom_site_label
_atom_site_fract_x
_atom_site_fract_y
_atom_site_fract_z
Si Si1 0.171677 0.613342 0.174551
Si Si2 0.500000 0.607235 0.680352
Si Si3 0.667572 0.711419 0.320488
Si Si4 0.911258 0.886134 0.830216
Si Si5 0.000000 0.385737 0.673768
Si Si6 0.271156 0.891568 0.818955
O O1 0.173885 0.500000 0.195237
O O2 0.251281 0.655508 0.261253
O O3 0.084154 0.655301 0.244030
O O4 0.176245 0.644281 0.000000
O O5 0.500000 0.500000 0.746307
O O6 0.500000 0.605672 0.500000
O O7 0.416452 0.659929 0.741280
O O8 0.670094 0.713293 0.500000
O O9 0.662365 0.819960 0.257058
O O10 0.821715 0.854297 0.757637
O O11 0.000000 0.854085 0.745976
O O12 0.907300 0.000000 0.836908
O O13 0.915078 0.845279 0.000000
O O14 0.000000 0.500000 0.686845
O O15 0.000000 0.352027 0.500000
O O16 0.290747 0.000000 0.765379
O O17 0.274611 0.885501 0.000000
#
# Coordination Sequence:
#
# PCOD8198694 Si02
#       6
#     8   4   8   8   4   8
#     4  10  20  35  56  83 116 152 190 233 285 349
#     4   9  20  40  64  87 110 140 185 239 296 359
#     4  11  22  37  59  85 112 146 189 242 298 353
#     4   7  10  20  42  70  97 131 179 227 266 308
#     4   9  17  31  53  81 114 153 194 235 281 335
#     4   9  18  34  55  79 112 152 192 237 287 340
#
# _framework density 20.538746
#
# number of rings (size 3 to 8) (size 9 to 14) (size 15 to 20)
#    0.000    2.800    0.000    3.900    0.000    3.600 
#    1.800    2.500    0.000    6.600    0.000    2.800 
#    0.000    0.000    0.000    0.000    0.000    0.000 
#
# Total GULP energy -495640.174037 kJ/mol
# GULP energy per Si atom -12391.004351 kJ/mol
# Density = 2.049200 g / cm^3
# Si number density = 20.538746 Si / 1000 Ang^3
#
#
#
# Elastic Constant Matrix: (Units=GPa)
#
#
# Indices 1 2 3 4 5 6 
#
# 1 165.8296 77.5385 41.1870 0.0000 0.0000 0.0000
# 2 77.5385 81.4118 31.2253 0.0000 0.0000 0.0000
# 3 41.1870 31.2253 64.2173 0.0000 0.0000 0.0000
# 4 0.0000 0.0000 0.0000 25.9659 0.0000 0.0000
# 5 0.0000 0.0000 0.0000 0.0000 18.8198 0.0000
# 6 0.0000 0.0000 0.0000 0.0000 0.0000 34.0281
#
#
#
# Elastic Compliance Matrix: (Units=1/GPa)
#
#
# Indices 1 2 3 4 5 6 
#
# 1 0.011177 -0.009706 -0.002449 0.000000 0.000000 0.000000
# 2 -0.009706 0.023527 -0.005215 0.000000 0.000000 0.000000
# 3 -0.002449 -0.005215 0.019679 0.000000 0.000000 0.000000
# 4 0.000000 0.000000 0.000000 0.038512 0.000000 0.000000
# 5 0.000000 0.000000 0.000000 0.000000 0.053135 0.000000
# 6 0.000000 0.000000 0.000000 0.000000 0.000000 0.029387
#
#
# Mechanical properties :
#
#
# Convention : Reuss Voigt Hill
#
# Bulk Modulus (GPa) = 50.90855 67.92892 59.41874
# Shear Modulus (GPa) = 23.07282 26.52997 24.80140
#
# Velocity S-wave (km/s) = 3.35532 3.59793 3.47874
# Velocity P-wave (km/s) = 6.31279 7.09968 6.71777
#
# Compressibility (1/GPa) = 0.01964307
#
# Stress axis : x y z
#
# Youngs Moduli (GPa) = 89.47171 42.50375 50.81628
#
# Poissons Ratio (x) = 0.41253 0.12445
# Poissons Ratio (y) = 0.86838 0.26501
# Poissons Ratio (z) = 0.21913 0.22166
#
# Static dielectric constant tensor:
#      x y z
#    x 4.209630 0.000000 0.000000 
#    y 0.000000 3.773030 0.000000 
#    z 0.000000 0.000000 3.348840 
# 
# 
# High freq. dielectric constant tensor:
#      x y z
#    x 1.803760 0.000000 0.000000 
#    y 0.000000 1.811850 0.000000 
#    z 0.000000 0.000000 1.763130 
# 
# From -- ./inp_files/5784.got.cif
#   From: 2010.03.12/outbox.cif.g09.slc.cpg/sg47_3_cif.got.tgz:5784.got - 2010.04.14 03:12:58.
