data_PCOD8198851
_publ_section_title
;
Structure prediction by ZEFSAII (Michael W. Deem and Ramdas Pophale) SiO2 
 PCOD8198851
Probable space group: P M M M
;
_chemical_formula_sum "Si O2"
_cell_formula_units_Z 48
_cell_length_a 15.282858
_cell_length_b 17.623342
_cell_length_c 8.861778
_cell_angle_alpha 90.000000
_cell_angle_beta 90.000000
_cell_angle_gamma 90.000000
_cell_volume 2386.787272
_symmetry_space_group_name_H-M "P M M M"
_symmetry_group_IT_number 47
_symmetry_cell_setting 'orthorhombic'
loop_
_space_group_symop_operation_xyz
x,y,z
-x,-y,z
x,-y,-z
-x,y,-z
-x,-y,-z
x,y,-z
-x,y,z
x,-y,z
loop_
_atom_site_type_symbol
_atom_site_label
_atom_site_fract_x
_atom_site_fract_y
_atom_site_fract_z
Si Si1 0.357894 0.300843 0.173821
Si Si2 0.500000 0.417190 0.178045
Si Si3 0.100968 0.500000 0.677947
Si Si4 0.098256 0.199463 0.673626
Si Si5 0.840846 0.346165 0.174242
Si Si6 0.233748 0.913682 0.173250
Si Si7 0.400902 0.854741 0.676748
O O1 0.413379 0.372843 0.229452
O O2 0.257754 0.319941 0.197242
O O3 0.384684 0.231779 0.278918
O O4 0.379108 0.280199 0.000000
O O5 0.500000 0.500000 0.255817
O O6 0.500000 0.426984 0.000000
O O7 0.113240 0.500000 0.500000
O O8 0.146625 0.425824 0.744090
O O9 0.000000 0.500000 0.725622
O O10 0.123667 0.211274 0.500000
O O11 0.099144 0.281123 0.753851
O O12 0.166050 0.140330 0.742906
O O13 0.000000 0.166608 0.691158
O O14 0.865964 0.355922 0.000000
O O15 0.331766 0.907941 0.237960
O O16 0.201443 0.000000 0.190825
O O17 0.236004 0.887645 0.000000
O O18 0.385406 0.864205 0.500000
O O19 0.500000 0.878956 0.720565
#
# Coordination Sequence:
#
# PCOD8198851 Si02
#       7
#     8   4   4   8   8   8   8
#     4  10  20  35  59  88 118 158 205 252 303 364
#     4   9  18  32  55  85 118 157 200 247 299 356
#     4  11  25  43  61  84 119 164 210 258 316 375
#     4  11  24  42  66  95 127 165 208 255 313 382
#     4  11  23  38  62  94 125 160 208 261 313 371
#     4  11  25  44  66  94 127 164 209 261 315 373
#     4  11  23  39  63  93 126 164 206 253 309 374
#
# _framework density 20.110716
#
# number of rings (size 3 to 8) (size 9 to 14) (size 15 to 20)
#    0.000    1.333    2.500    2.750    1.167    7.667 
#    0.000    3.333    0.000    0.500    0.000    0.000 
#    0.000    0.000    0.000    0.000    0.000    0.000 
#
# Total GULP energy -595358.497210 kJ/mol
# GULP energy per Si atom -12403.302025 kJ/mol
# Density = 2.006494 g / cm^3
# Si number density = 20.110716 Si / 1000 Ang^3
#
#
#
# Elastic Constant Matrix: (Units=GPa)
#
#
# Indices 1 2 3 4 5 6 
#
# 1 103.2107 26.6911 46.9095 0.0000 0.0000 0.0000
# 2 26.6911 94.6879 26.9410 0.0000 0.0000 0.0000
# 3 46.9095 26.9410 90.0487 0.0000 0.0000 0.0000
# 4 0.0000 0.0000 0.0000 -43.0388 0.0000 0.0000
# 5 0.0000 0.0000 0.0000 0.0000 25.4284 0.0000
# 6 0.0000 0.0000 0.0000 0.0000 0.0000 21.2985
#
#
#
# Elastic Compliance Matrix: (Units=1/GPa)
#
#
# Indices 1 2 3 4 5 6 
#
# 1 0.013000 -0.001899 -0.006204 0.000000 0.000000 0.000000
# 2 -0.001899 0.011821 -0.002547 0.000000 0.000000 0.000000
# 3 -0.006204 -0.002547 0.015099 0.000000 0.000000 0.000000
# 4 0.000000 0.000000 0.000000 -0.023235 0.000000 0.000000
# 5 0.000000 0.000000 0.000000 0.000000 0.039326 0.000000
# 6 0.000000 0.000000 0.000000 0.000000 0.000000 0.046952
#
#
# Mechanical properties :
#
#
# Convention : Reuss Voigt Hill
#
# Bulk Modulus (GPa) = 53.70813 54.33671 54.02242
# Shear Modulus (GPa) = 38.32300 13.23131 25.77716
#
# Velocity S-wave (km/s) = 4.37005 2.56778 3.58405
# Velocity P-wave (km/s) = 7.22685 5.98906 6.63687
#
# Compressibility (1/GPa) = 0.01861916
#
# Stress axis : x y z
#
# Youngs Moduli (GPa) = 76.92480 84.59409 66.22977
#
# Poissons Ratio (x) = 0.16067 0.41087
# Poissons Ratio (y) = 0.14610 0.16870
# Poissons Ratio (z) = 0.47722 0.21548
#
# Static dielectric constant tensor:
#      x y z
#    x 4.029890 0.000000 0.000000 
#    y 0.000000 3.743460 0.000000 
#    z 0.000000 0.000000 3.687720 
# 
# 
# High freq. dielectric constant tensor:
#      x y z
#    x 1.799130 0.000000 0.000000 
#    y 0.000000 1.789030 0.000000 
#    z 0.000000 0.000000 1.785400 
# 
# From -- ./inp_files/6484.got.cif
#   From: 2010.03.12/outbox.cif.g09.slc.cpg/sg47_4_cif.got.tgz:6484.got - 2010.04.14 03:12:58.
