data_PCOD8198719
_publ_section_title
;
Structure prediction by ZEFSAII (Michael W. Deem and Ramdas Pophale) SiO2 
 PCOD8198719
Probable space group: P M M M
;
_chemical_formula_sum "Si O2"
_cell_formula_units_Z 36
_cell_length_a 7.744371
_cell_length_b 13.567443
_cell_length_c 17.481875
_cell_angle_alpha 90.000000
_cell_angle_beta 90.000000
_cell_angle_gamma 90.000000
_cell_volume 1836.843544
_symmetry_space_group_name_H-M "P M M M"
_symmetry_group_IT_number 47
_symmetry_cell_setting 'orthorhombic'
loop_
_space_group_symop_operation_xyz
x,y,z
-x,-y,z
x,-y,-z
-x,y,-z
-x,-y,-z
x,y,-z
-x,y,z
x,-y,z
loop_
_atom_site_type_symbol
_atom_site_label
_atom_site_fract_x
_atom_site_fract_y
_atom_site_fract_z
Si Si1 0.295998 0.393146 0.345805
Si Si2 0.304338 0.304238 0.186268
Si Si3 0.198221 0.109563 0.740033
Si Si4 0.294948 0.195395 0.584777
Si Si5 0.000000 0.385789 0.090218
O O1 0.500000 0.398121 0.352502
O O2 0.215831 0.500000 0.367824
O O3 0.244274 0.368165 0.258923
O O4 0.226625 0.307482 0.401646
O O5 0.500000 0.329959 0.160243
O O6 0.303172 0.188967 0.210386
O O7 0.172141 0.330318 0.119076
O O8 0.215880 0.124347 0.648558
O O9 0.000000 0.120137 0.763193
O O10 0.267036 0.000000 0.759794
O O11 0.236085 0.161517 0.500000
O O12 0.500000 0.192171 0.593058
O O13 0.000000 0.500000 0.115809
O O14 0.000000 0.375868 0.000000
#
# Coordination Sequence:
#
# PCOD8198719 Si02
#       5
#     8   8   8   8   4
#     4   8  14  26  47  73  99 137 189 234 275 327
#     4  10  20  37  60  86 118 153 191 235 282 332
#     4  10  20  35  57  82 106 142 196 248 294 344
#     4   9  18  30  44  69 107 147 188 238 293 346
#     4  11  24  40  61  93 128 157 185 219 267 329
#
# _framework density 19.598839000000002
#
# number of rings (size 3 to 8) (size 9 to 14) (size 15 to 20)
#    0.000    2.556    1.111    2.667    0.000    4.889 
#    0.000    5.556    0.000    1.333    0.000    4.667 
#    0.000    0.000    0.000    0.000    0.000    0.000 
#
# Total GULP energy -446204.086682 kJ/mol
# GULP energy per Si atom -12394.557963 kJ/mol
# Density = 1.955423 g / cm^3
# Si number density = 19.598839 Si / 1000 Ang^3
#
#
#
# Elastic Constant Matrix: (Units=GPa)
#
#
# Indices 1 2 3 4 5 6 
#
# 1 67.2712 17.1511 30.2365 0.0000 0.0000 0.0000
# 2 17.1511 104.9936 24.6431 0.0000 0.0000 0.0000
# 3 30.2365 24.6431 71.9646 0.0000 0.0000 0.0000
# 4 0.0000 0.0000 0.0000 10.3649 0.0000 0.0000
# 5 0.0000 0.0000 0.0000 0.0000 26.3727 0.0000
# 6 0.0000 0.0000 0.0000 0.0000 0.0000 20.1344
#
#
#
# Elastic Compliance Matrix: (Units=1/GPa)
#
#
# Indices 1 2 3 4 5 6 
#
# 1 0.018488 -0.001302 -0.007322 0.000000 0.000000 0.000000
# 2 -0.001302 0.010448 -0.003031 0.000000 0.000000 0.000000
# 3 -0.007322 -0.003031 0.018010 0.000000 0.000000 0.000000
# 4 0.000000 0.000000 0.000000 0.096479 0.000000 0.000000
# 5 0.000000 0.000000 0.000000 0.000000 0.037918 0.000000
# 6 0.000000 0.000000 0.000000 0.000000 0.000000 0.049666
#
#
# Mechanical properties :
#
#
# Convention : Reuss Voigt Hill
#
# Bulk Modulus (GPa) = 42.30637 43.14342 42.72489
# Shear Modulus (GPa) = 19.06946 22.85429 20.96188
#
# Velocity S-wave (km/s) = 3.12266 3.41853 3.27394
# Velocity P-wave (km/s) = 5.88510 6.13538 6.01154
#
# Compressibility (1/GPa) = 0.02363710
#
# Stress axis : x y z
#
# Youngs Moduli (GPa) = 54.08858 95.70829 55.52417
#
# Poissons Ratio (x) = 0.12457 0.40656
# Poissons Ratio (y) = 0.07040 0.16830
# Poissons Ratio (z) = 0.39605 0.29010
#
# Static dielectric constant tensor:
#      x y z
#    x 3.401720 0.000000 0.000000 
#    y 0.000000 3.856920 0.000000 
#    z 0.000000 0.000000 3.252160 
# 
# 
# High freq. dielectric constant tensor:
#      x y z
#    x 1.754190 0.000000 0.000000 
#    y 0.000000 1.769950 0.000000 
#    z 0.000000 0.000000 1.724070 
# 
# From -- ./inp_files/20546.got.cif
#   From: 2010.03.12/outbox.cif.g09.slc.cpg/sg47_11_cif.got.tgz:20546.got - 2010.04.14 03:12:58.
