data_PCOD8198533
_publ_section_title
;
Structure prediction by ZEFSAII (Michael W. Deem and Ramdas Pophale) SiO2 
 PCOD8198533
Probable space group: P M M M
;
_chemical_formula_sum "Si O2"
_cell_formula_units_Z 64
_cell_length_a 25.274284
_cell_length_b 14.263491
_cell_length_c 8.953009
_cell_angle_alpha 90.000000
_cell_angle_beta 90.000000
_cell_angle_gamma 90.000000
_cell_volume 3227.555468
_symmetry_space_group_name_H-M "P M M M"
_symmetry_group_IT_number 47
_symmetry_cell_setting 'orthorhombic'
loop_
_space_group_symop_operation_xyz
x,y,z
-x,-y,z
x,-y,-z
-x,y,-z
-x,-y,-z
x,y,-z
-x,y,z
x,-y,z
loop_
_atom_site_type_symbol
_atom_site_label
_atom_site_fract_x
_atom_site_fract_y
_atom_site_fract_z
Si Si1 0.849521 0.107301 0.174682
Si Si2 0.938645 0.213222 0.326002
Si Si3 0.559717 0.783163 0.328540
Si Si4 0.937199 0.602539 0.167755
Si Si5 0.247387 0.204543 0.327028
Si Si6 0.347233 0.890155 0.174223
Si Si7 0.295246 0.603799 0.330386
Si Si8 0.403902 0.393771 0.825983
O O1 0.906570 0.132349 0.242249
O O2 0.804882 0.172494 0.243817
O O3 0.836229 0.000000 0.212714
O O4 0.851437 0.125332 0.000000
O O5 0.928632 0.202863 0.500000
O O6 0.916835 0.315477 0.276370
O O7 0.000000 0.200284 0.283441
O O8 0.578760 0.784848 0.500000
O O9 0.500000 0.821701 0.313995
O O10 0.597559 0.848409 0.230859
O O11 0.560117 0.676583 0.268668
O O12 0.916108 0.500000 0.221113
O O13 0.000000 0.600573 0.170079
O O14 0.917017 0.623428 0.000000
O O15 0.242590 0.177624 0.500000
O O16 0.298908 0.154863 0.262190
O O17 0.251104 0.316932 0.303075
O O18 0.347449 0.000000 0.205923
O O19 0.340684 0.867466 0.000000
O O20 0.317156 0.611699 0.500000
O O21 0.270664 0.500000 0.302531
O O22 0.342945 0.622424 0.217045
O O23 0.421587 0.500000 0.788974
O O24 0.410628 0.371428 0.000000
#
# Coordination Sequence:
#
# PCOD8198533 Si02
#       8
#     8   8   8   8   8   8   8   8
#     4  11  25  43  62  85 115 154 200 250 301 351
#     4  10  21  37  59  88 121 157 197 244 299 356
#     4  11  24  40  58  83 116 155 199 247 298 351
#     4   8  14  27  50  80 114 153 195 236 279 332
#     4  11  22  38  64  93 120 153 192 238 292 347
#     4  11  24  41  62  87 115 150 193 243 300 358
#     4   9  18  34  58  88 121 155 190 229 280 346
#     4  10  20  34  56  86 118 154 195 239 289 347
#
# _framework density 19.829248
#
# number of rings (size 3 to 8) (size 9 to 14) (size 15 to 20)
#    0.000    1.875    1.250    3.000    0.000    7.500 
#    0.000    5.625    0.000    2.250    0.000    0.000 
#    0.000    0.000    0.000    0.000    0.000    0.000 
#
# Total GULP energy -793646.225068 kJ/mol
# GULP energy per Si atom -12400.722267 kJ/mol
# Density = 1.978412 g / cm^3
# Si number density = 19.829248 Si / 1000 Ang^3
#
#
#
# Elastic Constant Matrix: (Units=GPa)
#
#
# Indices 1 2 3 4 5 6 
#
# 1 84.5776 47.9356 38.2759 0.0000 0.0000 0.0000
# 2 47.9356 99.5363 47.8426 0.0000 0.0000 0.0000
# 3 38.2759 47.8426 81.6982 0.0000 0.0000 0.0000
# 4 0.0000 0.0000 0.0000 31.6819 0.0000 0.0000
# 5 0.0000 0.0000 0.0000 0.0000 27.7881 0.0000
# 6 0.0000 0.0000 0.0000 0.0000 0.0000 23.0975
#
#
#
# Elastic Compliance Matrix: (Units=1/GPa)
#
#
# Indices 1 2 3 4 5 6 
#
# 1 0.017380 -0.006202 -0.004511 0.000000 0.000000 0.000000
# 2 -0.006202 0.016195 -0.006578 0.000000 0.000000 0.000000
# 3 -0.004511 -0.006578 0.018206 0.000000 0.000000 0.000000
# 4 0.000000 0.000000 0.000000 0.031564 0.000000 0.000000
# 5 0.000000 0.000000 0.000000 0.000000 0.035987 0.000000
# 6 0.000000 0.000000 0.000000 0.000000 0.000000 0.043295
#
#
# Mechanical properties :
#
#
# Convention : Reuss Voigt Hill
#
# Bulk Modulus (GPa) = 58.14299 59.32448 58.73373
# Shear Modulus (GPa) = 24.63774 25.29736 24.96755
#
# Velocity S-wave (km/s) = 3.52873 3.57565 3.55227
# Velocity P-wave (km/s) = 6.78145 6.85782 6.81974
#
# Compressibility (1/GPa) = 0.01719898
#
# Stress axis : x y z
#
# Youngs Moduli (GPa) = 57.53819 61.74658 54.92769
#
# Poissons Ratio (x) = 0.38294 0.24776
# Poissons Ratio (y) = 0.35684 0.36134
# Poissons Ratio (z) = 0.25954 0.40619
#
# Static dielectric constant tensor:
#      x y z
#    x 3.363090 0.000000 0.000000 
#    y 0.000000 3.941670 0.000000 
#    z 0.000000 0.000000 3.721990 
# 
# 
# High freq. dielectric constant tensor:
#      x y z
#    x 1.749630 0.000000 0.000000 
#    y 0.000000 1.785720 0.000000 
#    z 0.000000 0.000000 1.782860 
# 
# From -- ./inp_files/12667.got.cif
#   From: 2010.03.12/outbox.cif.g09.slc.cpg/sg47_7_cif.got.tgz:12667.got - 2010.04.14 03:12:58.
