data_PCOD8198000
_publ_section_title
;
Structure prediction by ZEFSAII (Michael W. Deem and Ramdas Pophale) SiO2 
 PCOD8198000
Probable space group: P M M M
;
_chemical_formula_sum "Si O2"
_cell_formula_units_Z 44
_cell_length_a 9.313350
_cell_length_b 14.978805
_cell_length_c 16.952107
_cell_angle_alpha 90.000000
_cell_angle_beta 90.000000
_cell_angle_gamma 90.000000
_cell_volume 2364.867300
_symmetry_space_group_name_H-M "P M M M"
_symmetry_group_IT_number 47
_symmetry_cell_setting 'orthorhombic'
loop_
_space_group_symop_operation_xyz
x,y,z
-x,-y,z
x,-y,-z
-x,y,-z
-x,-y,-z
x,y,-z
-x,y,z
x,-y,z
loop_
_atom_site_type_symbol
_atom_site_label
_atom_site_fract_x
_atom_site_fract_y
_atom_site_fract_z
Si Si1 0.847139 0.901554 0.000000
Si Si2 0.168888 0.500000 0.088985
Si Si3 0.166258 0.274707 0.358264
Si Si4 0.666597 0.842789 0.856029
Si Si5 0.829294 0.398349 0.500000
Si Si6 0.333198 0.899312 0.680889
Si Si7 0.833666 0.673838 0.817602
O O1 0.751250 0.891888 0.923401
O O2 0.000000 0.845023 0.000000
O O3 0.903435 0.000000 0.000000
O O4 0.217771 0.583285 0.141472
O O5 0.000000 0.500000 0.079322
O O6 0.236751 0.500000 0.000000
O O7 0.225550 0.343122 0.423972
O O8 0.246008 0.178743 0.363671
O O9 0.191054 0.326844 0.276381
O O10 0.000000 0.252555 0.372356
O O11 0.500000 0.840640 0.877171
O O12 0.696226 0.892883 0.774032
O O13 0.727151 0.743674 0.855819
O O14 0.766560 0.500000 0.500000
O O15 0.000000 0.404474 0.500000
O O16 0.500000 0.883490 0.662063
O O17 0.287013 0.000000 0.653799
O O18 0.000000 0.696109 0.836489
#
# Coordination Sequence:
#
# PCOD8198000 Si02
#       7
#     4   4   8   8   4   8   8
#     4  11  23  35  49  72 101 132 169 215 262 307
#     4   9  18  30  47  72 100 134 172 214 262 312
#     4   9  18  32  52  80 107 135 174 218 263 312
#     4  10  20  34  52  73 100 134 173 214 261 313
#     4   9  18  32  54  81 110 140 173 219 268 313
#     4   9  18  34  55  76 102 139 177 212 257 315
#     4   9  18  32  51  74 101 134 174 216 260 313
#
# _framework density 18.605695000000001
#
# number of rings (size 3 to 8) (size 9 to 14) (size 15 to 20)
#    0.000    2.636    0.000    1.364    2.545    2.545 
#    0.000    1.364    0.000    4.364    0.000    0.000 
#    0.000    0.000    0.000    0.000    0.000    0.000 
#
# Total GULP energy -545261.138999 kJ/mol
# GULP energy per Si atom -12392.298614 kJ/mol
# Density = 1.856335 g / cm^3
# Si number density = 18.605695 Si / 1000 Ang^3
#
#
#
# Elastic Constant Matrix: (Units=GPa)
#
#
# Indices 1 2 3 4 5 6 
#
# 1 71.2010 47.3395 34.2570 0.0000 0.0000 0.0000
# 2 47.3395 158.7845 68.2320 0.0000 0.0000 0.0000
# 3 34.2570 68.2320 92.4532 0.0000 0.0000 0.0000
# 4 0.0000 0.0000 0.0000 27.4287 0.0000 0.0000
# 5 0.0000 0.0000 0.0000 0.0000 19.7762 0.0000
# 6 0.0000 0.0000 0.0000 0.0000 0.0000-1272.1002
#
#
#
# Elastic Compliance Matrix: (Units=1/GPa)
#
#
# Indices 1 2 3 4 5 6 
#
# 1 0.018511 -0.003766 -0.004080 0.000000 0.000000 0.000000
# 2 -0.003766 0.009989 -0.005977 0.000000 0.000000 0.000000
# 3 -0.004080 -0.005977 0.016739 0.000000 0.000000 0.000000
# 4 0.000000 0.000000 0.000000 0.036458 0.000000 0.000000
# 5 0.000000 0.000000 0.000000 0.000000 0.050566 0.000000
# 6 0.000000 0.000000 0.000000 0.000000 0.000000 -0.000786
#
#
# Mechanical properties :
#
#
# Convention : Reuss Voigt Hill
#
# Bulk Modulus (GPa) = 56.83559 69.12176 62.97868
# Shear Modulus (GPa) = 30.30554 -233.47172 -101.58309
#
# Velocity S-wave (km/s) = 4.04026 -11.21412 -7.39705
# Velocity P-wave (km/s) = 7.23731 11.42120 6.24760
#
# Compressibility (1/GPa) = 0.01759461
#
# Stress axis : x y z
#
# Youngs Moduli (GPa) = 54.02058 100.11246 59.74131
#
# Poissons Ratio (x) = 0.37700 0.24374
# Poissons Ratio (y) = 0.20343 0.35705
# Poissons Ratio (z) = 0.22040 0.59833
#
# Static dielectric constant tensor:
#      x y z
#    x 3.271370 0.000000 0.000000 
#    y 0.000000 3.609260 0.000000 
#    z 0.000000 0.000000 3.056440 
# 
# 
# High freq. dielectric constant tensor:
#      x y z
#    x 1.702550 0.000000 0.000000 
#    y 0.000000 1.727020 0.000000 
#    z 0.000000 0.000000 1.716510 
# 
# From -- ./inp_files/6253.got.cif
#   From: 2010.03.12/outbox.cif.g09.slc.cpg/sg47_4_cif.got.tgz:6253.got - 2010.04.14 03:12:58.
