data_PCOD8198883
_publ_section_title
;
Structure prediction by ZEFSAII (Michael W. Deem and Ramdas Pophale) SiO2 
 PCOD8198883
Probable space group: P M M M
;
_chemical_formula_sum "Si O2"
_cell_formula_units_Z 40
_cell_length_a 7.805645
_cell_length_b 21.015281
_cell_length_c 12.753997
_cell_angle_alpha 90.000000
_cell_angle_beta 90.000000
_cell_angle_gamma 90.000000
_cell_volume 2092.137903
_symmetry_space_group_name_H-M "P M M M"
_symmetry_group_IT_number 47
_symmetry_cell_setting 'orthorhombic'
loop_
_space_group_symop_operation_xyz
x,y,z
-x,-y,z
x,-y,-z
-x,y,-z
-x,-y,-z
x,y,-z
-x,y,z
x,-y,z
loop_
_atom_site_type_symbol
_atom_site_label
_atom_site_fract_x
_atom_site_fract_y
_atom_site_fract_z
Si Si1 0.192847 0.925001 0.500000
Si Si2 0.302107 0.000000 0.881992
Si Si3 0.196574 0.747739 0.784631
Si Si4 0.500000 0.320551 0.884184
Si Si5 0.500000 0.427010 0.714154
Si Si6 0.799660 0.110200 0.724438
Si Si7 0.809220 0.640651 0.380218
O O1 0.284737 0.902406 0.608879
O O2 0.000000 0.897617 0.500000
O O3 0.194551 0.000000 0.500000
O O4 0.257274 0.937583 0.815402
O O5 0.500000 0.000000 0.902494
O O6 0.215099 0.000000 0.000000
O O7 0.328707 0.721507 0.870229
O O8 0.250895 0.819402 0.759708
O O9 0.222939 0.706231 0.680422
O O10 0.000000 0.743559 0.825865
O O11 0.500000 0.383722 0.815963
O O12 0.500000 0.347464 0.000000
O O13 0.500000 0.500000 0.748647
O O14 0.671158 0.413205 0.647664
O O15 0.000000 0.100846 0.710726
O O16 0.788779 0.659847 0.500000
O O17 0.000000 0.613553 0.356064
#
# Coordination Sequence:
#
# PCOD8198883 Si02
#       7
#     4   4   8   4   4   8   8
#     4   9  16  30  54  80 106 136 170 219 277 333
#     4  11  25  40  53  70 104 147 186 237 288 333
#     4   9  20  36  57  84 112 144 182 227 278 335
#     4  10  22  40  61  81 109 144 182 235 281 323
#     4  10  21  37  56  81 114 148 187 230 267 315
#     4  10  20  36  58  82 106 138 183 228 279 341
#     4   9  18  33  54  83 118 152 184 219 266 326
#
# _framework density 19.119198999999998
#
# number of rings (size 3 to 8) (size 9 to 14) (size 15 to 20)
#    0.000    2.400    1.000    0.600    2.800    3.400 
#    0.000    4.000    0.000    0.000    0.000    5.600 
#    0.000    0.000    0.000    0.000    0.000    0.000 
#
# Total GULP energy -495777.239085 kJ/mol
# GULP energy per Si atom -12394.430977 kJ/mol
# Density = 1.907568 g / cm^3
# Si number density = 19.119199 Si / 1000 Ang^3
#
#
#
# Elastic Constant Matrix: (Units=GPa)
#
#
# Indices 1 2 3 4 5 6 
#
# 1 85.8258 46.5716 36.4459 0.0000 0.0000 0.0000
# 2 46.5716 127.3620 46.1951 0.0000 0.0000 0.0000
# 3 36.4459 46.1951 130.5600 0.0000 0.0000 0.0000
# 4 0.0000 0.0000 0.0000 7.8835 0.0000 0.0000
# 5 0.0000 0.0000 0.0000 0.0000 14.3296 0.0000
# 6 0.0000 0.0000 0.0000 0.0000 0.0000 7.0166
#
#
#
# Elastic Compliance Matrix: (Units=1/GPa)
#
#
# Indices 1 2 3 4 5 6 
#
# 1 0.015282 -0.004636 -0.002626 0.000000 0.000000 0.000000
# 2 -0.004636 0.010414 -0.002391 0.000000 0.000000 0.000000
# 3 -0.002626 -0.002391 0.009238 0.000000 0.000000 0.000000
# 4 0.000000 0.000000 0.000000 0.126848 0.000000 0.000000
# 5 0.000000 0.000000 0.000000 0.000000 0.069785 0.000000
# 6 0.000000 0.000000 0.000000 0.000000 0.000000 0.142520
#
#
# Mechanical properties :
#
#
# Convention : Reuss Voigt Hill
#
# Bulk Modulus (GPa) = 63.98003 66.90811 65.44407
# Shear Modulus (GPa) = 12.54386 20.14827 16.34607
#
# Velocity S-wave (km/s) = 2.56420 3.24979 2.92713
# Velocity P-wave (km/s) = 6.50409 7.01090 6.76225
#
# Compressibility (1/GPa) = 0.01562988
#
# Stress axis : x y z
#
# Youngs Moduli (GPa) = 65.43644 96.02619 108.24686
#
# Poissons Ratio (x) = 0.44515 0.28423
# Poissons Ratio (y) = 0.30334 0.25877
# Poissons Ratio (z) = 0.17182 0.22956
#
# Static dielectric constant tensor:
#      x y z
#    x 3.673810 0.000000 0.000000 
#    y 0.000000 3.304690 0.000000 
#    z 0.000000 0.000000 3.702600 
# 
# 
# High freq. dielectric constant tensor:
#      x y z
#    x 1.743540 0.000000 0.000000 
#    y 0.000000 1.733010 0.000000 
#    z 0.000000 0.000000 1.743230 
# 
# From -- ./inp_files/15176.got.cif
#   From: 2010.03.12/outbox.cif.g09.slc.cpg/sg47_8_cif.got.tgz:15176.got - 2010.04.14 03:12:58.
