data_PCOD8198833
_publ_section_title
;
Structure prediction by ZEFSAII (Michael W. Deem and Ramdas Pophale) SiO2 
 PCOD8198833
Probable space group: P M M M
;
_chemical_formula_sum "Si O2"
_cell_formula_units_Z 48
_cell_length_a 9.038409
_cell_length_b 32.419056
_cell_length_c 8.051652
_cell_angle_alpha 90.000000
_cell_angle_beta 90.000000
_cell_angle_gamma 90.000000
_cell_volume 2359.268398
_symmetry_space_group_name_H-M "P M M M"
_symmetry_group_IT_number 47
_symmetry_cell_setting 'orthorhombic'
loop_
_space_group_symop_operation_xyz
x,y,z
-x,-y,z
x,-y,-z
-x,y,-z
-x,-y,-z
x,y,-z
-x,y,z
x,-y,z
loop_
_atom_site_type_symbol
_atom_site_label
_atom_site_fract_x
_atom_site_fract_y
_atom_site_fract_z
Si Si1 0.827813 0.900943 0.186461
Si Si2 0.164757 0.580448 0.305305
Si Si3 0.171555 0.257038 0.195250
Si Si4 0.330905 0.176826 0.690098
Si Si5 0.334134 0.338666 0.196286
Si Si6 0.175727 0.046175 0.500000
Si Si7 0.664104 0.500000 0.194179
O O1 0.741930 0.857928 0.195381
O O2 0.768330 0.931669 0.330472
O O3 0.000000 0.891619 0.216473
O O4 0.802629 0.919521 0.000000
O O5 0.151788 0.578995 0.500000
O O6 0.253105 0.620458 0.252292
O O7 0.248492 0.540223 0.246282
O O8 0.000000 0.581528 0.226222
O O9 0.245508 0.219438 0.290496
O O10 0.246045 0.298898 0.262619
O O11 0.000000 0.258859 0.241611
O O12 0.197044 0.251240 0.000000
O O13 0.319385 0.162237 0.500000
O O14 0.500000 0.183075 0.745993
O O15 0.500000 0.338087 0.270333
O O16 0.339423 0.337682 0.000000
O O17 0.000000 0.044604 0.500000
O O18 0.241766 0.000000 0.500000
O O19 0.500000 0.500000 0.276148
O O20 0.645978 0.500000 0.000000
#
# Coordination Sequence:
#
# PCOD8198833 Si02
#       7
#     8   8   8   8   8   4   4
#     4  10  20  35  58  86 116 154 198 243 297 357
#     4  11  24  40  59  85 116 149 187 231 281 338
#     4  10  21  37  58  84 113 148 191 237 288 345
#     4  11  23  37  55  81 114 153 196 242 294 350
#     4  10  21  38  60  85 114 150 192 236 284 341
#     4   9  18  34  57  87 123 157 193 245 301 352
#     4  11  24  41  62  88 114 143 184 231 282 340
#
# _framework density 20.345289999999999
#
# number of rings (size 3 to 8) (size 9 to 14) (size 15 to 20)
#    0.000    1.667    0.833    3.500    0.000   11.333 
#    0.000    1.667    0.000    1.000    0.000    1.167 
#    0.000    0.000    0.000    0.000    0.000    0.000 
#
# Total GULP energy -595293.657549 kJ/mol
# GULP energy per Si atom -12401.951199 kJ/mol
# Density = 2.029898 g / cm^3
# Si number density = 20.345290 Si / 1000 Ang^3
#
#
#
# Elastic Constant Matrix: (Units=GPa)
#
#
# Indices 1 2 3 4 5 6 
#
# 1 147.8875 68.6436 38.1096 0.0000 0.0000 0.0000
# 2 68.6436 167.5102 45.1272 0.0000 0.0000 0.0000
# 3 38.1096 45.1272 87.3117 0.0000 0.0000 0.0000
# 4 0.0000 0.0000 0.0000 74.2907 0.0000 0.0000
# 5 0.0000 0.0000 0.0000 0.0000 22.6778 0.0000
# 6 0.0000 0.0000 0.0000 0.0000 0.0000 51.0347
#
#
#
# Elastic Compliance Matrix: (Units=1/GPa)
#
#
# Indices 1 2 3 4 5 6 
#
# 1 0.008723 -0.002961 -0.002277 0.000000 0.000000 0.000000
# 2 -0.002961 0.007941 -0.002812 0.000000 0.000000 0.000000
# 3 -0.002277 -0.002812 0.013900 0.000000 0.000000 0.000000
# 4 0.000000 0.000000 0.000000 0.013461 0.000000 0.000000
# 5 0.000000 0.000000 0.000000 0.000000 0.044096 0.000000
# 6 0.000000 0.000000 0.000000 0.000000 0.000000 0.019595
#
#
# Mechanical properties :
#
#
# Convention : Reuss Voigt Hill
#
# Bulk Modulus (GPa) = 69.13497 78.49669 73.81583
# Shear Modulus (GPa) = 38.86925 46.32257 42.59591
#
# Velocity S-wave (km/s) = 4.37564 4.77678 4.58061
# Velocity P-wave (km/s) = 7.71900 8.31201 8.02099
#
# Compressibility (1/GPa) = 0.01446446
#
# Stress axis : x y z
#
# Youngs Moduli (GPa) = 114.63770 125.93313 71.94107
#
# Poissons Ratio (x) = 0.37292 0.16381
# Poissons Ratio (y) = 0.33947 0.20227
# Poissons Ratio (z) = 0.26102 0.35408
#
# Static dielectric constant tensor:
#      x y z
#    x 4.029830 0.000000 0.000000 
#    y 0.000000 -16.279140 0.000000 
#    z 0.000000 0.000000 3.730190 
# 
# 
# High freq. dielectric constant tensor:
#      x y z
#    x 1.798630 0.000000 0.000000 
#    y 0.000000 1.799180 0.000000 
#    z 0.000000 0.000000 1.796130 
# 
# From -- ./inp_files/2708.got.cif
#   From: 2010.03.12/outbox.cif.g09.slc.cpg/sg47_2_cif.got.tgz:2708.got - 2010.04.14 03:12:58.
