data_PCOD8198541
_publ_section_title
;
Structure prediction by ZEFSAII (Michael W. Deem and Ramdas Pophale) SiO2 
 PCOD8198541
Probable space group: P M M M
;
_chemical_formula_sum "Si O2"
_cell_formula_units_Z 64
_cell_length_a 9.127503
_cell_length_b 25.256522
_cell_length_c 14.266819
_cell_angle_alpha 90.000000
_cell_angle_beta 90.000000
_cell_angle_gamma 90.000000
_cell_volume 3288.915237
_symmetry_space_group_name_H-M "P M M M"
_symmetry_group_IT_number 47
_symmetry_cell_setting 'orthorhombic'
loop_
_space_group_symop_operation_xyz
x,y,z
-x,-y,z
x,-y,-z
-x,y,-z
-x,-y,-z
x,y,-z
-x,y,z
x,-y,z
loop_
_atom_site_type_symbol
_atom_site_label
_atom_site_fract_x
_atom_site_fract_y
_atom_site_fract_z
Si Si1 0.171769 0.439094 0.783165
Si Si2 0.829931 0.787577 0.605728
Si Si3 0.668767 0.353592 0.107390
Si Si4 0.335654 0.437121 0.397558
Si Si5 0.168632 0.940228 0.222852
Si Si6 0.328078 0.252032 0.224425
Si Si7 0.671002 0.898377 0.394019
Si Si8 0.329086 0.851946 0.891708
O O1 0.219198 0.500000 0.797638
O O2 0.238814 0.405516 0.867480
O O3 0.230314 0.415937 0.684100
O O4 0.000000 0.432487 0.783523
O O5 0.808620 0.765979 0.500000
O O6 0.761943 0.745677 0.678368
O O7 0.741576 0.841338 0.620585
O O8 0.000000 0.797789 0.627680
O O9 0.500000 0.366771 0.126776
O O10 0.721301 0.303412 0.167003
O O11 0.696881 0.339057 0.000000
O O12 0.282993 0.416228 0.500000
O O13 0.500000 0.416683 0.377150
O O14 0.332970 0.500000 0.398831
O O15 0.251704 0.938212 0.322598
O O16 0.239420 0.901693 0.146624
O O17 0.000000 0.924219 0.238172
O O18 0.182533 0.000000 0.184525
O O19 0.500000 0.252659 0.246267
O O20 0.283659 0.200470 0.164762
O O21 0.695196 0.919132 0.500000
O O22 0.500000 0.893826 0.369581
O O23 0.500000 0.864264 0.878836
O O24 0.288839 0.842883 0.000000
#
# Coordination Sequence:
#
# PCOD8198541 Si02
#       8
#     8   8   8   8   8   8   8   8
#     4  10  21  36  55  82 117 155 193 235 285 341
#     4  10  20  34  56  87 121 154 186 223 273 336
#     4  10  22  40  61  85 113 147 190 240 290 339
#     4   8  14  27  50  79 109 143 185 230 274 325
#     4  11  24  39  55  80 116 154 192 237 287 341
#     4  10  20  37  62  89 115 144 183 234 285 335
#     4  10  20  35  57  84 113 148 191 236 282 336
#     4  10  21  38  61  86 110 142 186 235 289 346
#
# _framework density 19.459302000000001
#
# number of rings (size 3 to 8) (size 9 to 14) (size 15 to 20)
#    0.000    2.125    1.250    2.250    0.000    6.750 
#    0.000    5.625    0.000    3.000    0.000    0.000 
#    0.000    0.000    0.000    0.000    0.000    0.000 
#
# Total GULP energy -793677.164889 kJ/mol
# GULP energy per Si atom -12401.205701 kJ/mol
# Density = 1.941501 g / cm^3
# Si number density = 19.459302 Si / 1000 Ang^3
#
#
#
# Elastic Constant Matrix: (Units=GPa)
#
#
# Indices 1 2 3 4 5 6 
#
# 1 93.1404 49.3904 54.6180 0.0000 0.0000 0.0000
# 2 49.3904 88.2893 52.0960 0.0000 0.0000 0.0000
# 3 54.6180 52.0960 119.2353 0.0000 0.0000 0.0000
# 4 0.0000 0.0000 0.0000 28.5034 0.0000 0.0000
# 5 0.0000 0.0000 0.0000 0.0000 24.6311 0.0000
# 6 0.0000 0.0000 0.0000 0.0000 0.0000 23.8276
#
#
#
# Elastic Compliance Matrix: (Units=1/GPa)
#
#
# Indices 1 2 3 4 5 6 
#
# 1 0.017189 -0.006696 -0.004948 0.000000 0.000000 0.000000
# 2 -0.006696 0.017869 -0.004740 0.000000 0.000000 0.000000
# 3 -0.004948 -0.004740 0.012724 0.000000 0.000000 0.000000
# 4 0.000000 0.000000 0.000000 0.035084 0.000000 0.000000
# 5 0.000000 0.000000 0.000000 0.000000 0.040599 0.000000
# 6 0.000000 0.000000 0.000000 0.000000 0.000000 0.041968
#
#
# Mechanical properties :
#
#
# Convention : Reuss Voigt Hill
#
# Bulk Modulus (GPa) = 66.60460 68.09709 67.35085
# Shear Modulus (GPa) = 24.60553 25.02978 24.81766
#
# Velocity S-wave (km/s) = 3.55978 3.59034 3.57510
# Velocity P-wave (km/s) = 7.15528 7.22897 7.19222
#
# Compressibility (1/GPa) = 0.01501398
#
# Stress axis : x y z
#
# Youngs Moduli (GPa) = 58.17743 55.96208 78.58940
#
# Poissons Ratio (x) = 0.37472 0.38886
# Poissons Ratio (y) = 0.38956 0.37252
# Poissons Ratio (z) = 0.28786 0.26527
#
# Static dielectric constant tensor:
#      x y z
#    x 3.539490 0.000000 0.000000 
#    y 0.000000 3.317410 0.000000 
#    z 0.000000 0.000000 3.784360 
# 
# 
# High freq. dielectric constant tensor:
#      x y z
#    x 1.756660 0.000000 0.000000 
#    y 0.000000 1.737000 0.000000 
#    z 0.000000 0.000000 1.768820 
# 
# From -- ./inp_files/12728.got.cif
#   From: 2010.03.12/outbox.cif.g09.slc.cpg/sg47_7_cif.got.tgz:12728.got - 2010.04.14 03:12:58.
