data_PCOD8198929
_publ_section_title
;
Structure prediction by ZEFSAII (Michael W. Deem and Ramdas Pophale) SiO2 
 PCOD8198929
Probable space group: P M M M
;
_chemical_formula_sum "Si O2"
_cell_formula_units_Z 32
_cell_length_a 12.160057
_cell_length_b 15.347436
_cell_length_c 8.667214
_cell_angle_alpha 90.000000
_cell_angle_beta 90.000000
_cell_angle_gamma 90.000000
_cell_volume 1617.524850
_symmetry_space_group_name_H-M "P M M M"
_symmetry_group_IT_number 47
_symmetry_cell_setting 'orthorhombic'
loop_
_space_group_symop_operation_xyz
x,y,z
-x,-y,z
x,-y,-z
-x,y,-z
-x,-y,-z
x,y,-z
-x,y,z
x,-y,z
loop_
_atom_site_type_symbol
_atom_site_label
_atom_site_fract_x
_atom_site_fract_y
_atom_site_fract_z
Si Si1 0.500000 0.904199 0.817540
Si Si2 0.000000 0.600342 0.169293
Si Si3 0.626398 0.500000 0.817627
Si Si4 0.124713 0.000000 0.816950
Si Si5 0.267555 0.164804 0.816922
Si Si6 0.774645 0.350824 0.319189
O O1 0.608304 0.854112 0.763438
O O2 0.500000 0.000000 0.742465
O O3 0.500000 0.913927 0.000000
O O4 0.104602 0.622695 0.269937
O O5 0.000000 0.500000 0.133232
O O6 0.000000 0.648149 0.000000
O O7 0.500000 0.500000 0.761559
O O8 0.683966 0.587842 0.759149
O O9 0.634637 0.500000 0.000000
O O10 0.188305 0.086470 0.760097
O O11 0.000000 0.000000 0.751166
O O12 0.123502 0.000000 0.000000
O O13 0.236419 0.251384 0.728858
O O14 0.257908 0.178403 0.000000
O O15 0.760821 0.362051 0.500000
#
# Coordination Sequence:
#
# PCOD8198929 Si02
#       6
#     4   4   4   4   8   8
#     4   9  16  32  59  88 115 152 211 271 306 344
#     4  11  23  43  71  94 118 159 214 262 303 361
#     4  11  25  46  69  92 121 163 217 265 304 359
#     4   9  18  33  56  88 119 155 209 264 309 355
#     4  10  20  36  60  88 120 161 211 260 305 361
#     4  12  26  42  63  94 132 166 201 251 319 382
#
# _framework density 19.783311000000001
#
# number of rings (size 3 to 8) (size 9 to 14) (size 15 to 20)
#    0.000    1.500    2.500    3.000    3.500    1.500 
#    0.000    0.625    0.000    1.500    0.000    0.000 
#    0.000    0.000    0.000    0.000    0.000    0.000 
#
# Total GULP energy -396792.802295 kJ/mol
# GULP energy per Si atom -12399.775072 kJ/mol
# Density = 1.973828 g / cm^3
# Si number density = 19.783311 Si / 1000 Ang^3
#
#
#
# Elastic Constant Matrix: (Units=GPa)
#
#
# Indices 1 2 3 4 5 6 
#
# 1 189.6884 75.7348 42.9379 0.0000 0.0000 0.0000
# 2 75.7348 145.1108 35.0428 0.0000 0.0000 0.0000
# 3 42.9379 35.0428 69.4772 0.0000 0.0000 0.0000
# 4 0.0000 0.0000 0.0000 -31.5472 0.0000 0.0000
# 5 0.0000 0.0000 0.0000 0.0000 -8.7460 0.0000
# 6 0.0000 0.0000 0.0000 0.0000 0.0000 45.2661
#
#
#
# Elastic Compliance Matrix: (Units=1/GPa)
#
#
# Indices 1 2 3 4 5 6 
#
# 1 0.007132 -0.003027 -0.002881 0.000000 0.000000 0.000000
# 2 -0.003027 0.009131 -0.002735 0.000000 0.000000 0.000000
# 3 -0.002881 -0.002735 0.017554 0.000000 0.000000 0.000000
# 4 0.000000 0.000000 0.000000 -0.031699 0.000000 0.000000
# 5 0.000000 0.000000 0.000000 0.000000 -0.114338 0.000000
# 6 0.000000 0.000000 0.000000 0.000000 0.000000 0.022092
#
#
# Mechanical properties :
#
#
# Convention : Reuss Voigt Hill
#
# Bulk Modulus (GPa) = 60.49253 79.07859 69.78556
# Shear Modulus (GPa) = -74.26024 17.69864 -28.28080
#
# Velocity S-wave (km/s) = -6.13338 2.99427 -3.78501
# Velocity P-wave (km/s) = 4.41744 7.21203 4.03110
#
# Compressibility (1/GPa) = 0.01653097
#
# Stress axis : x y z
#
# Youngs Moduli (GPa) = 140.20407 109.51153 56.96862
#
# Poissons Ratio (x) = 0.33146 0.16415
# Poissons Ratio (y) = 0.42435 0.15582
# Poissons Ratio (z) = 0.40398 0.29953
#
# Static dielectric constant tensor:
#      x y z
#    x 4.178650 0.000000 0.000000 
#    y 0.000000 3.569980 0.000000 
#    z 0.000000 0.000000 3.371250 
# 
# 
# High freq. dielectric constant tensor:
#      x y z
#    x 1.790120 0.000000 0.000000 
#    y 0.000000 1.783960 0.000000 
#    z 0.000000 0.000000 1.745280 
# 
# From -- ./inp_files/3466.got.cif
#   From: 2010.03.12/outbox.cif.g09.slc.cpg/sg47_2_cif.got.tgz:3466.got - 2010.04.14 03:12:58.
