data_PCOD8198916
_publ_section_title
;
Structure prediction by ZEFSAII (Michael W. Deem and Ramdas Pophale) SiO2 
 PCOD8198916
Probable space group: P M M M
;
_chemical_formula_sum "Si O2"
_cell_formula_units_Z 64
_cell_length_a 9.152777
_cell_length_b 25.530872
_cell_length_c 14.542697
_cell_angle_alpha 90.000000
_cell_angle_beta 90.000000
_cell_angle_gamma 90.000000
_cell_volume 3398.313847
_symmetry_space_group_name_H-M "P M M M"
_symmetry_group_IT_number 47
_symmetry_cell_setting 'orthorhombic'
loop_
_space_group_symop_operation_xyz
x,y,z
-x,-y,z
x,-y,-z
-x,y,-z
-x,-y,-z
x,y,-z
-x,y,z
x,-y,z
loop_
_atom_site_type_symbol
_atom_site_label
_atom_site_fract_x
_atom_site_fract_y
_atom_site_fract_z
Si Si1 0.674024 0.749722 0.208590
Si Si2 0.673148 0.286125 0.599296
Si Si3 0.163376 0.937842 0.402970
Si Si4 0.668178 0.851469 0.106166
Si Si5 0.327633 0.645686 0.106552
Si Si6 0.167494 0.559276 0.223319
Si Si7 0.825771 0.940352 0.205075
Si Si8 0.330200 0.406110 0.603963
O O1 0.500000 0.750184 0.203716
O O2 0.731757 0.747699 0.314418
O O3 0.735073 0.802724 0.163047
O O4 0.731034 0.699025 0.153420
O O5 0.734838 0.265754 0.500000
O O6 0.500000 0.283133 0.596371
O O7 0.719467 0.345991 0.614372
O O8 0.243451 0.920464 0.500000
O O9 0.235929 0.920575 0.305861
O O10 0.000000 0.915015 0.406578
O O11 0.155168 0.000000 0.399076
O O12 0.500000 0.861443 0.131880
O O13 0.757399 0.903922 0.127478
O O14 0.686613 0.837362 0.000000
O O15 0.500000 0.639886 0.120952
O O16 0.252682 0.596030 0.152891
O O17 0.284430 0.647453 0.000000
O O18 0.180458 0.500000 0.186479
O O19 0.234950 0.560544 0.325556
O O20 0.000000 0.577455 0.228360
O O21 0.000000 0.936147 0.203448
O O22 0.777042 0.000000 0.184821
O O23 0.301197 0.425888 0.500000
O O24 0.500000 0.412556 0.629414
#
# Coordination Sequence:
#
# PCOD8198916 Si02
#       8
#     8   8   8   8   8   8   8   8
#     4   9  16  31  55  79 104 132 165 210 261 313
#     4   8  13  24  49  82 107 128 160 205 256 307
#     4   7  10  20  42  70  95 121 158 201 242 288
#     4  10  21  35  51  74 104 138 174 213 262 315
#     4  10  20  36  60  83  99 126 176 232 276 314
#     4  11  24  38  51  73 110 150 180 212 263 326
#     4   9  18  33  53  76 102 135 175 216 257 302
#     4   9  17  32  56  83 107 135 177 224 263 305
#
# _framework density 18.832868999999999
#
# number of rings (size 3 to 8) (size 9 to 14) (size 15 to 20)
#    0.000    2.875    1.250    2.625    0.000    4.250 
#    0.000    5.000    0.000    2.625    0.000    1.750 
#    0.000    0.000    0.000    0.000    0.000    0.000 
#
# Total GULP energy -792999.035766 kJ/mol
# GULP energy per Si atom -12390.609934 kJ/mol
# Density = 1.879000 g / cm^3
# Si number density = 18.832869 Si / 1000 Ang^3
#
#
#
# Elastic Constant Matrix: (Units=GPa)
#
#
# Indices 1 2 3 4 5 6 
#
# 1 32.8976 27.8949 31.8481 0.0000 0.0000 0.0000
# 2 27.8949 99.7071 59.8271 0.0000 0.0000 0.0000
# 3 31.8481 59.8271 131.0365 0.0000 0.0000 0.0000
# 4 0.0000 0.0000 0.0000 27.2888 0.0000 0.0000
# 5 0.0000 0.0000 0.0000 0.0000 15.8226 0.0000
# 6 0.0000 0.0000 0.0000 0.0000 0.0000 -2.7127
#
#
#
# Elastic Compliance Matrix: (Units=1/GPa)
#
#
# Indices 1 2 3 4 5 6 
#
# 1 0.044065 -0.008129 -0.006999 0.000000 0.000000 0.000000
# 2 -0.008129 0.015313 -0.005016 0.000000 0.000000 0.000000
# 3 -0.006999 -0.005016 0.011623 0.000000 0.000000 0.000000
# 4 0.000000 0.000000 0.000000 0.036645 0.000000 0.000000
# 5 0.000000 0.000000 0.000000 0.000000 0.063201 0.000000
# 6 0.000000 0.000000 0.000000 0.000000 0.000000 -0.368636
#
#
# Mechanical properties :
#
#
# Convention : Reuss Voigt Hill
#
# Bulk Modulus (GPa) = 32.55781 55.86462 44.21122
# Shear Modulus (GPa) = -33.95243 17.68448 -8.13397
#
# Velocity S-wave (km/s) = -4.25058 3.06767 -2.08048
# Velocity P-wave (km/s) = 2.60089 6.50194 4.21371
#
# Compressibility (1/GPa) = 0.03071460
#
# Stress axis : x y z
#
# Youngs Moduli (GPa) = 22.69361 65.30320 86.03965
#
# Poissons Ratio (x) = 0.53083 0.60216
# Poissons Ratio (y) = 0.18447 0.43156
# Poissons Ratio (z) = 0.15882 0.32755
#
# Static dielectric constant tensor:
#      x y z
#    x 2.969000 0.000000 0.000000 
#    y 0.000000 3.281220 0.000000 
#    z 0.000000 0.000000 3.954150 
# 
# 
# High freq. dielectric constant tensor:
#      x y z
#    x 1.678290 0.000000 0.000000 
#    y 0.000000 1.713300 0.000000 
#    z 0.000000 0.000000 1.753600 
# 
# From -- ./inp_files/21884.got.cif
#   From: 2010.03.12/outbox.cif.g09.slc.cpg/sg47_11_cif.got.tgz:21884.got - 2010.04.14 03:12:58.
