data_PCOD8198908
_publ_section_title
;
Structure prediction by ZEFSAII (Michael W. Deem and Ramdas Pophale) SiO2 
 PCOD8198908
Probable space group: P M M M
;
_chemical_formula_sum "Si O2"
_cell_formula_units_Z 44
_cell_length_a 9.318688
_cell_length_b 7.933023
_cell_length_c 29.890979
_cell_angle_alpha 90.000000
_cell_angle_beta 90.000000
_cell_angle_gamma 90.000000
_cell_volume 2209.701570
_symmetry_space_group_name_H-M "P M M M"
_symmetry_group_IT_number 47
_symmetry_cell_setting 'orthorhombic'
loop_
_space_group_symop_operation_xyz
x,y,z
-x,-y,z
x,-y,-z
-x,y,-z
-x,-y,-z
x,y,-z
-x,y,z
x,-y,z
loop_
_atom_site_type_symbol
_atom_site_label
_atom_site_fract_x
_atom_site_fract_y
_atom_site_fract_z
Si Si1 0.839214 0.693669 0.808010
Si Si2 0.840479 0.804991 0.641389
Si Si3 0.665293 0.500000 0.947167
Si Si4 0.167130 0.809145 0.904409
Si Si5 0.833456 0.697129 0.452104
Si Si6 0.661411 0.200213 0.276330
O O1 0.827498 0.500000 0.822536
O O2 0.799396 0.802231 0.851507
O O3 0.730179 0.732460 0.768763
O O4 0.000000 0.737913 0.791354
O O5 0.765346 0.779375 0.592552
O O6 0.744422 0.723528 0.680544
O O7 0.000000 0.721409 0.642281
O O8 0.854589 0.000000 0.651534
O O9 0.500000 0.500000 0.931228
O O10 0.738965 0.328643 0.930070
O O11 0.677793 0.500000 0.000000
O O12 0.000000 0.767930 0.913201
O O13 0.204348 0.000000 0.920726
O O14 0.766972 0.761481 0.500000
O O15 0.809165 0.500000 0.448565
O O16 0.000000 0.745323 0.452669
O O17 0.500000 0.268674 0.278718
O O18 0.665360 0.000000 0.276497
#
# Coordination Sequence:
#
# PCOD8198908 Si02
#       6
#     8   8   4   8   8   8
#     4  10  20  36  59  85 113 145 185 234 285 339
#     4   9  17  29  46  68  94 125 164 211 261 315
#     4  11  25  43  63  91 131 173 209 251 300 357
#     4  10  21  40  67  95 123 159 205 257 309 358
#     4   8  14  25  42  65  91 117 150 199 258 316
#     4  10  21  35  50  72 105 143 180 219 268 327
#
# _framework density 19.912192000000001
#
# number of rings (size 3 to 8) (size 9 to 14) (size 15 to 20)
#    0.000    2.455    0.909    1.909    0.000    5.455 
#    0.000    5.455    0.000    0.545    0.000    3.818 
#    0.000    0.000    0.000    0.000    0.000    0.000 
#
# Total GULP energy -545312.170683 kJ/mol
# GULP energy per Si atom -12393.458425 kJ/mol
# Density = 1.986687 g / cm^3
# Si number density = 19.912192 Si / 1000 Ang^3
#
#
#
# Elastic Constant Matrix: (Units=GPa)
#
#
# Indices 1 2 3 4 5 6 
#
# 1 99.2130 46.2526 66.9965 0.0000 0.0000 0.0000
# 2 46.2526 72.2704 43.8342 0.0000 0.0000 0.0000
# 3 66.9965 43.8342 121.0259 0.0000 0.0000 0.0000
# 4 0.0000 0.0000 0.0000 28.3602 0.0000 0.0000
# 5 0.0000 0.0000 0.0000 0.0000 2.7354 0.0000
# 6 0.0000 0.0000 0.0000 0.0000 0.0000 19.8082
#
#
#
# Elastic Compliance Matrix: (Units=1/GPa)
#
#
# Indices 1 2 3 4 5 6 
#
# 1 0.018673 -0.007280 -0.007700 0.000000 0.000000 0.000000
# 2 -0.007280 0.020571 -0.003420 0.000000 0.000000 0.000000
# 3 -0.007700 -0.003420 0.013764 0.000000 0.000000 0.000000
# 4 0.000000 0.000000 0.000000 0.035261 0.000000 0.000000
# 5 0.000000 0.000000 0.000000 0.000000 0.365572 0.000000
# 6 0.000000 0.000000 0.000000 0.000000 0.000000 0.050484
#
#
# Mechanical properties :
#
#
# Convention : Reuss Voigt Hill
#
# Bulk Modulus (GPa) = 61.70358 67.40845 64.55601
# Shear Modulus (GPa) = 9.14866 19.20918 14.17892
#
# Velocity S-wave (km/s) = 2.14580 3.10932 2.67136
# Velocity P-wave (km/s) = 6.09872 6.84228 6.48118
#
# Compressibility (1/GPa) = 0.01620652
#
# Stress axis : x y z
#
# Youngs Moduli (GPa) = 53.55309 48.61252 72.65326
#
# Poissons Ratio (x) = 0.35392 0.55943
# Poissons Ratio (y) = 0.38988 0.24850
# Poissons Ratio (z) = 0.41236 0.16627
#
# Static dielectric constant tensor:
#      x y z
#    x 3.568570 0.000000 0.000000 
#    y 0.000000 3.550960 0.000000 
#    z 0.000000 0.000000 3.818110 
# 
# 
# High freq. dielectric constant tensor:
#      x y z
#    x 1.740820 0.000000 0.000000 
#    y 0.000000 1.769950 0.000000 
#    z 0.000000 0.000000 1.790620 
# 
# From -- ./inp_files/13663.got.cif
#   From: 2010.03.12/outbox.cif.g09.slc.cpg/sg47_7_cif.got.tgz:13663.got - 2010.04.14 03:12:58.
