data_PCOD8198825
_publ_section_title
;
Structure prediction by ZEFSAII (Michael W. Deem and Ramdas Pophale) SiO2 
 PCOD8198825
Probable space group: P M M M
;
_chemical_formula_sum "Si O2"
_cell_formula_units_Z 44
_cell_length_a 9.431460
_cell_length_b 29.405620
_cell_length_c 8.062296
_cell_angle_alpha 90.000000
_cell_angle_beta 90.000000
_cell_angle_gamma 90.000000
_cell_volume 2235.980474
_symmetry_space_group_name_H-M "P M M M"
_symmetry_group_IT_number 47
_symmetry_cell_setting 'orthorhombic'
loop_
_space_group_symop_operation_xyz
x,y,z
-x,-y,z
x,-y,-z
-x,y,-z
-x,-y,-z
x,y,-z
-x,y,z
x,-y,z
loop_
_atom_site_type_symbol
_atom_site_label
_atom_site_fract_x
_atom_site_fract_y
_atom_site_fract_z
Si Si1 0.342553 0.632072 0.688682
Si Si2 0.837579 0.191628 0.310319
Si Si3 0.335330 0.109732 0.813096
Si Si4 0.835834 0.449249 0.807786
Si Si5 0.667996 0.949246 0.500000
Si Si6 0.337397 0.272597 0.810467
O O1 0.344162 0.648217 0.500000
O O2 0.500000 0.618940 0.750679
O O3 0.246347 0.587859 0.702999
O O4 0.285240 0.675175 0.792703
O O5 0.829630 0.175319 0.500000
O O6 0.753959 0.155848 0.197252
O O7 0.764582 0.240715 0.296572
O O8 0.000000 0.194848 0.249506
O O9 0.500000 0.121722 0.782651
O O10 0.280593 0.075242 0.670006
O O11 0.314522 0.089289 0.000000
O O12 0.784020 0.500000 0.758941
O O13 0.000000 0.444302 0.765166
O O14 0.806843 0.440227 0.000000
O O15 0.500000 0.951726 0.500000
O O16 0.733063 0.000000 0.500000
O O17 0.500000 0.268314 0.747138
O O18 0.324929 0.257381 0.000000
#
# Coordination Sequence:
#
# PCOD8198825 Si02
#       6
#     8   8   8   8   4   8
#     4  10  21  36  54  78 107 138 173 216 267 322
#     4  11  23  37  55  81 113 149 188 230 278 332
#     4  10  20  35  58  86 115 152 194 234 284 341
#     4   9  19  36  56  77 102 135 175 217 263 317
#     4   9  18  34  57  87 121 153 189 239 290 333
#     4  10  21  37  57  80 106 140 182 225 273 330
#
# _framework density 19.678169
#
# number of rings (size 3 to 8) (size 9 to 14) (size 15 to 20)
#    0.000    2.091    0.909    2.727    0.000    8.000 
#    0.000    4.545    0.000    1.091    0.000    1.273 
#    0.000    0.000    0.000    0.000    0.000    0.000 
#
# Total GULP energy -545603.894966 kJ/mol
# GULP energy per Si atom -12400.088522 kJ/mol
# Density = 1.963338 g / cm^3
# Si number density = 19.678169 Si / 1000 Ang^3
#
#
#
# Elastic Constant Matrix: (Units=GPa)
#
#
# Indices 1 2 3 4 5 6 
#
# 1 73.1586 52.6660 32.8391 0.0000 0.0000 0.0000
# 2 52.6660 127.5731 41.9502 0.0000 0.0000 0.0000
# 3 32.8391 41.9502 90.6026 0.0000 0.0000 0.0000
# 4 0.0000 0.0000 0.0000 30.8285 0.0000 0.0000
# 5 0.0000 0.0000 0.0000 0.0000 22.9098 0.0000
# 6 0.0000 0.0000 0.0000 0.0000 0.0000 1.1317
#
#
#
# Elastic Compliance Matrix: (Units=1/GPa)
#
#
# Indices 1 2 3 4 5 6 
#
# 1 0.020712 -0.007174 -0.004185 0.000000 0.000000 0.000000
# 2 -0.007174 0.011732 -0.002831 0.000000 0.000000 0.000000
# 3 -0.004185 -0.002831 0.013865 0.000000 0.000000 0.000000
# 4 0.000000 0.000000 0.000000 0.032437 0.000000 0.000000
# 5 0.000000 0.000000 0.000000 0.000000 0.043649 0.000000
# 6 0.000000 0.000000 0.000000 0.000000 0.000000 0.883635
#
#
# Mechanical properties :
#
#
# Convention : Reuss Voigt Hill
#
# Bulk Modulus (GPa) = 55.78304 60.69388 58.23846
# Shear Modulus (GPa) = 4.80589 21.89927 13.35258
#
# Velocity S-wave (km/s) = 1.56446 3.33959 2.60772
# Velocity P-wave (km/s) = 5.62784 6.76614 6.22308
#
# Compressibility (1/GPa) = 0.01792660
#
# Stress axis : x y z
#
# Youngs Moduli (GPa) = 48.28015 85.24031 72.12275
#
# Poissons Ratio (x) = 0.61155 0.30186
# Poissons Ratio (y) = 0.34638 0.20421
# Poissons Ratio (z) = 0.20207 0.24136
#
# Static dielectric constant tensor:
#      x y z
#    x 3.413050 0.000000 0.000000 
#    y 0.000000 3.529230 0.000000 
#    z 0.000000 0.000000 3.599210 
# 
# 
# High freq. dielectric constant tensor:
#      x y z
#    x 1.745030 0.000000 0.000000 
#    y 0.000000 1.763620 0.000000 
#    z 0.000000 0.000000 1.773650 
# 
# From -- ./inp_files/2134.got.cif
#   From: 2010.03.12/outbox.cif.g09.slc.cpg/sg47_2_cif.got.tgz:2134.got - 2010.04.14 03:12:58.
