data_PCOD8198386
_publ_section_title
;
Structure prediction by ZEFSAII (Michael W. Deem and Ramdas Pophale) SiO2 
 PCOD8198386
Probable space group: P M M M
;
_chemical_formula_sum "Si O2"
_cell_formula_units_Z 44
_cell_length_a 14.455160
_cell_length_b 8.656395
_cell_length_c 17.957942
_cell_angle_alpha 90.000000
_cell_angle_beta 90.000000
_cell_angle_gamma 90.000000
_cell_volume 2247.069646
_symmetry_space_group_name_H-M "P M M M"
_symmetry_group_IT_number 47
_symmetry_cell_setting 'orthorhombic'
loop_
_space_group_symop_operation_xyz
x,y,z
-x,-y,z
x,-y,-z
-x,y,-z
-x,-y,-z
x,y,-z
-x,y,z
x,-y,z
loop_
_atom_site_type_symbol
_atom_site_label
_atom_site_fract_x
_atom_site_fract_y
_atom_site_fract_z
Si Si1 0.600238 0.816695 0.643177
Si Si2 0.207466 0.181289 0.584208
Si Si3 0.205973 0.818737 0.860732
Si Si4 0.896888 0.318478 0.000000
Si Si5 0.399626 0.183280 0.810415
Si Si6 0.107818 0.679278 0.279106
O O1 0.500000 0.758497 0.611759
O O2 0.686380 0.759458 0.593702
O O3 0.613437 0.751961 0.726880
O O4 0.599346 0.000000 0.644511
O O5 0.176192 0.216356 0.500000
O O6 0.140105 0.274169 0.638466
O O7 0.200122 0.000000 0.602677
O O8 0.155405 0.731475 0.926308
O O9 0.313352 0.761390 0.860711
O O10 0.160970 0.781102 0.781445
O O11 0.198454 0.000000 0.875471
O O12 0.903886 0.500000 0.000000
O O13 0.000000 0.246147 0.000000
O O14 0.500000 0.238961 0.842591
O O15 0.397738 0.000000 0.806596
O O16 0.128874 0.500000 0.264787
O O17 0.000000 0.715633 0.271751
#
# Coordination Sequence:
#
# PCOD8198386 Si02
#       6
#     8   8   8   4   8   8
#     4   8  13  25  48  79 113 144 176 220 275 331
#     4  10  20  34  54  82 112 142 185 240 286 324
#     4  11  21  37  64  92 115 143 185 234 276 320
#     4  11  25  43  60  83 120 158 187 223 278 337
#     4   8  14  27  52  85 116 144 177 221 273 327
#     4  11  24  40  57  77 106 148 191 230 283 347
#
# _framework density 19.581057999999999
#
# number of rings (size 3 to 8) (size 9 to 14) (size 15 to 20)
#    0.000    2.273    1.818    3.000    0.000    5.455 
#    0.000    4.091    0.000    6.545    0.000    1.273 
#    0.000    0.000    0.000    0.000    0.000    0.000 
#
# Total GULP energy -545355.948822 kJ/mol
# GULP energy per Si atom -12394.453382 kJ/mol
# Density = 1.953649 g / cm^3
# Si number density = 19.581058 Si / 1000 Ang^3
#
#
#
# Elastic Constant Matrix: (Units=GPa)
#
#
# Indices 1 2 3 4 5 6 
#
# 1 139.1776 28.0464 50.6001 0.0000 0.0000 0.0000
# 2 28.0464 31.9634 13.7051 0.0000 0.0000 0.0000
# 3 50.6001 13.7051 92.2070 0.0000 0.0000 0.0000
# 4 0.0000 0.0000 0.0000 11.0655 0.0000 0.0000
# 5 0.0000 0.0000 0.0000 0.0000 27.1440 0.0000
# 6 0.0000 0.0000 0.0000 0.0000 0.0000 -10.9141
#
#
#
# Elastic Compliance Matrix: (Units=1/GPa)
#
#
# Indices 1 2 3 4 5 6 
#
# 1 0.010274 -0.007047 -0.004591 0.000000 0.000000 0.000000
# 2 -0.007047 0.038248 -0.001818 0.000000 0.000000 0.000000
# 3 -0.004591 -0.001818 0.013635 0.000000 0.000000 0.000000
# 4 0.000000 0.000000 0.000000 0.090371 0.000000 0.000000
# 5 0.000000 0.000000 0.000000 0.000000 0.036841 0.000000
# 6 0.000000 0.000000 0.000000 0.000000 0.000000 -0.091625
#
#
# Mechanical properties :
#
#
# Convention : Reuss Voigt Hill
#
# Bulk Modulus (GPa) = 28.37181 49.78348 39.07765
# Shear Modulus (GPa) = 36.65594 16.85884 26.75739
#
# Velocity S-wave (km/s) = 4.33137 2.93742 3.70062
# Velocity P-wave (km/s) = 6.28770 6.08146 6.18544
#
# Compressibility (1/GPa) = 0.03524625
#
# Stress axis : x y z
#
# Youngs Moduli (GPa) = 97.33227 26.14492 73.34271
#
# Poissons Ratio (x) = 0.18423 0.33669
# Poissons Ratio (y) = 0.68586 0.13334
# Poissons Ratio (z) = 0.44682 0.04753
#
# Static dielectric constant tensor:
#      x y z
#    x 4.163330 0.000000 0.000000 
#    y 0.000000 3.183210 0.000000 
#    z 0.000000 0.000000 3.465310 
# 
# 
# High freq. dielectric constant tensor:
#      x y z
#    x 1.785540 0.000000 0.000000 
#    y 0.000000 1.722910 0.000000 
#    z 0.000000 0.000000 1.747410 
# 
# From -- ./inp_files/27865.got.cif
#   From: 2010.03.12/outbox.cif.g09.slc.cpg/sg47_14_cif.got.tgz:27865.got - 2010.04.14 03:12:58.
