data_PCOD8198532
_publ_section_title
;
Structure prediction by ZEFSAII (Michael W. Deem and Ramdas Pophale) SiO2 
 PCOD8198532
Probable space group: P M M M
;
_chemical_formula_sum "Si O2"
_cell_formula_units_Z 64
_cell_length_a 25.442514
_cell_length_b 14.330345
_cell_length_c 8.856839
_cell_angle_alpha 90.000000
_cell_angle_beta 90.000000
_cell_angle_gamma 90.000000
_cell_volume 3229.203529
_symmetry_space_group_name_H-M "P M M M"
_symmetry_group_IT_number 47
_symmetry_cell_setting 'orthorhombic'
loop_
_space_group_symop_operation_xyz
x,y,z
-x,-y,z
x,-y,-z
-x,y,-z
-x,-y,-z
x,y,-z
-x,y,z
x,-y,z
loop_
_atom_site_type_symbol
_atom_site_label
_atom_site_fract_x
_atom_site_fract_y
_atom_site_fract_z
Si Si1 0.846625 0.893944 0.174691
Si Si2 0.940552 0.200865 0.319852
Si Si3 0.559361 0.784003 0.326852
Si Si4 0.062347 0.598503 0.331583
Si Si5 0.248744 0.205963 0.325485
Si Si6 0.347758 0.891207 0.176471
Si Si7 0.296482 0.603316 0.328426
Si Si8 0.405145 0.394488 0.824235
O O1 0.902243 0.877448 0.255565
O O2 0.802062 0.826394 0.236274
O O3 0.829034 0.000000 0.204929
O O4 0.854415 0.873325 0.000000
O O5 0.937927 0.201858 0.500000
O O6 0.920763 0.302999 0.255589
O O7 0.000000 0.178403 0.266290
O O8 0.578208 0.788834 0.500000
O O9 0.500000 0.821768 0.310159
O O10 0.596849 0.847622 0.225321
O O11 0.560021 0.676807 0.271690
O O12 0.086005 0.595113 0.500000
O O13 0.079495 0.500000 0.248815
O O14 0.000000 0.602418 0.342311
O O15 0.241237 0.180513 0.500000
O O16 0.300944 0.156032 0.267542
O O17 0.252775 0.317655 0.299744
O O18 0.348651 0.000000 0.215257
O O19 0.338876 0.873070 0.000000
O O20 0.318010 0.611741 0.500000
O O21 0.271911 0.500000 0.301030
O O22 0.344146 0.621159 0.214565
O O23 0.422549 0.500000 0.783615
O O24 0.413305 0.373688 0.000000
#
# Coordination Sequence:
#
# PCOD8198532 Si02
#       8
#     8   8   8   8   8   8   8   8
#     4  11  25  42  58  79 111 152 195 240 291 343
#     4   9  18  34  58  87 116 148 189 236 285 338
#     4  11  24  40  58  83 116 155 199 246 293 342
#     4   7  10  20  43  76 110 141 175 217 265 319
#     4  11  22  38  64  92 116 147 188 235 285 338
#     4  11  24  41  62  87 115 149 189 237 297 359
#     4   9  18  34  58  88 120 151 184 225 278 343
#     4  10  20  34  56  86 118 154 194 236 286 345
#
# _framework density 19.819127000000002
#
# number of rings (size 3 to 8) (size 9 to 14) (size 15 to 20)
#    0.000    2.125    1.250    3.375    0.000    6.750 
#    0.000    4.375    0.000    4.125    0.000    1.750 
#    0.000    0.000    0.000    0.000    0.000    0.000 
#
# Total GULP energy -793283.942926 kJ/mol
# GULP energy per Si atom -12395.061608 kJ/mol
# Density = 1.977402 g / cm^3
# Si number density = 19.819127 Si / 1000 Ang^3
#
#
#
# Elastic Constant Matrix: (Units=GPa)
#
#
# Indices 1 2 3 4 5 6 
#
# 1 86.1346 38.6804 16.8624 0.0000 0.0000 0.0000
# 2 38.6804 100.4612 29.1508 0.0000 0.0000 0.0000
# 3 16.8624 29.1508 38.4152 0.0000 0.0000 0.0000
# 4 0.0000 0.0000 0.0000 26.9996 0.0000 0.0000
# 5 0.0000 0.0000 0.0000 0.0000 -16.9720 0.0000
# 6 0.0000 0.0000 0.0000 0.0000 0.0000 23.9818
#
#
#
# Elastic Compliance Matrix: (Units=1/GPa)
#
#
# Indices 1 2 3 4 5 6 
#
# 1 0.014249 -0.004708 -0.002682 0.000000 0.000000 0.000000
# 2 -0.004708 0.014320 -0.008800 0.000000 0.000000 0.000000
# 3 -0.002682 -0.008800 0.033887 0.000000 0.000000 0.000000
# 4 0.000000 0.000000 0.000000 0.037038 0.000000 0.000000
# 5 0.000000 0.000000 0.000000 0.000000 -0.058920 0.000000
# 6 0.000000 0.000000 0.000000 0.000000 0.000000 0.041698
#
#
# Mechanical properties :
#
#
# Convention : Reuss Voigt Hill
#
# Bulk Modulus (GPa) = 33.24973 43.82202 38.53588
# Shear Modulus (GPa) = 40.10367 16.15637 28.13002
#
# Velocity S-wave (km/s) = 4.50319 2.85825 3.77150
# Velocity P-wave (km/s) = 6.62204 5.74907 6.20093
#
# Compressibility (1/GPa) = 0.03007543
#
# Stress axis : x y z
#
# Youngs Moduli (GPa) = 70.18019 69.83066 29.51027
#
# Poissons Ratio (x) = 0.32877 0.07915
# Poissons Ratio (y) = 0.33041 0.25970
# Poissons Ratio (z) = 0.18822 0.61452
#
# Static dielectric constant tensor:
#      x y z
#    x 3.336960 0.000000 0.000000 
#    y 0.000000 4.077030 0.000000 
#    z 0.000000 0.000000 3.501540 
# 
# 
# High freq. dielectric constant tensor:
#      x y z
#    x 1.749410 0.000000 0.000000 
#    y 0.000000 1.791210 0.000000 
#    z 0.000000 0.000000 1.758790 
# 
# From -- ./inp_files/7855.got.cif
#   From: 2010.03.12/outbox.cif.g09.slc.cpg/sg47_4_cif.got.tgz:7855.got - 2010.04.14 03:12:58.
