data_PCOD8198007
_publ_section_title
;
Structure prediction by ZEFSAII (Michael W. Deem and Ramdas Pophale) SiO2 
 PCOD8198007
Probable space group: P M M M
;
_chemical_formula_sum "Si O2"
_cell_formula_units_Z 36
_cell_length_a 9.237269
_cell_length_b 7.925111
_cell_length_c 25.221503
_cell_angle_alpha 90.000000
_cell_angle_beta 90.000000
_cell_angle_gamma 90.000000
_cell_volume 1846.374987
_symmetry_space_group_name_H-M "P M M M"
_symmetry_group_IT_number 47
_symmetry_cell_setting 'orthorhombic'
loop_
_space_group_symop_operation_xyz
x,y,z
-x,-y,z
x,-y,-z
-x,y,-z
-x,-y,-z
x,y,-z
-x,y,z
x,-y,z
loop_
_atom_site_type_symbol
_atom_site_label
_atom_site_fract_x
_atom_site_fract_y
_atom_site_fract_z
Si Si1 0.832370 0.309852 0.869649
Si Si2 0.832215 0.697475 0.556728
Si Si3 0.667256 0.199403 0.768131
Si Si4 0.161018 0.195007 0.332343
Si Si5 0.828329 0.000000 0.940864
O O1 0.812107 0.500000 0.892812
O O2 0.742666 0.295804 0.816013
O O3 0.774510 0.170295 0.911385
O O4 0.000000 0.274228 0.856370
O O5 0.765063 0.762258 0.500000
O O6 0.808815 0.500000 0.560492
O O7 0.763321 0.778112 0.609826
O O8 0.000000 0.746976 0.556292
O O9 0.500000 0.248948 0.767055
O O10 0.737733 0.270150 0.713712
O O11 0.689810 0.000000 0.775189
O O12 0.000000 0.279598 0.330466
O O13 0.144530 0.000000 0.321079
O O14 0.000000 0.000000 0.944224
O O15 0.761472 0.000000 0.000000
#
# Coordination Sequence:
#
# PCOD8198007 Si02
#       5
#     8   8   8   8   4
#     4  10  20  34  56  84 111 143 181 218 260 312
#     4   8  14  25  41  62  89 120 155 199 252 309
#     4  10  20  34  52  73 102 140 177 217 267 317
#     4   9  17  28  45  70  97 125 161 209 260 312
#     4   9  18  34  57  85 117 147 174 215 264 305
#
# _framework density 19.497665999999999
#
# number of rings (size 3 to 8) (size 9 to 14) (size 15 to 20)
#    0.000    2.778    1.111    1.333    0.000    3.111 
#    0.000    6.667    0.000    2.000    0.000    6.222 
#    0.000    0.000    0.000    0.000    0.000    0.000 
#
# Total GULP energy -446073.237257 kJ/mol
# GULP energy per Si atom -12390.923257 kJ/mol
# Density = 1.945329 g / cm^3
# Si number density = 19.497666 Si / 1000 Ang^3
#
#
#
# Elastic Constant Matrix: (Units=GPa)
#
#
# Indices 1 2 3 4 5 6 
#
# 1 57.7760 26.0577 49.8565 0.0000 0.0000 0.0000
# 2 26.0577 76.0735 57.7802 0.0000 0.0000 0.0000
# 3 49.8565 57.7802 184.9590 0.0000 0.0000 0.0000
# 4 0.0000 0.0000 0.0000 18.6209 0.0000 0.0000
# 5 0.0000 0.0000 0.0000 0.0000 1.3684 0.0000
# 6 0.0000 0.0000 0.0000 0.0000 0.0000 12.9803
#
#
#
# Elastic Compliance Matrix: (Units=1/GPa)
#
#
# Indices 1 2 3 4 5 6 
#
# 1 0.023561 -0.004257 -0.005021 0.000000 0.000000 0.000000
# 2 -0.004257 0.018003 -0.004477 0.000000 0.000000 0.000000
# 3 -0.005021 -0.004477 0.008159 0.000000 0.000000 0.000000
# 4 0.000000 0.000000 0.000000 0.053703 0.000000 0.000000
# 5 0.000000 0.000000 0.000000 0.000000 0.730790 0.000000
# 6 0.000000 0.000000 0.000000 0.000000 0.000000 0.077040
#
#
# Mechanical properties :
#
#
# Convention : Reuss Voigt Hill
#
# Bulk Modulus (GPa) = 45.01709 65.13304 55.07507
# Shear Modulus (GPa) = 5.28447 18.93486 12.10966
#
# Velocity S-wave (km/s) = 1.64809 3.11968 2.49486
# Velocity P-wave (km/s) = 5.17302 6.81576 6.05041
#
# Compressibility (1/GPa) = 0.02221378
#
# Stress axis : x y z
#
# Youngs Moduli (GPa) = 42.44304 55.54483 122.56975
#
# Poissons Ratio (x) = 0.23643 0.61545
# Poissons Ratio (y) = 0.18066 0.54872
# Poissons Ratio (z) = 0.21312 0.24866
#
# Static dielectric constant tensor:
#      x y z
#    x 3.200050 0.000000 0.000000 
#    y 0.000000 3.444800 0.000000 
#    z 0.000000 0.000000 3.902400 
# 
# 
# High freq. dielectric constant tensor:
#      x y z
#    x 1.702650 0.000000 0.000000 
#    y 0.000000 1.750420 0.000000 
#    z 0.000000 0.000000 1.772070 
# 
# From -- ./inp_files/1419.got.cif
#   From: 2010.03.12/outbox.cif.g09.slc.cpg/sg47_1_cif.got.tgz:1419.got - 2010.04.14 03:12:58.
