data_PCOD8198598
_publ_section_title
;
Structure prediction by ZEFSAII (Michael W. Deem and Ramdas Pophale) SiO2 
 PCOD8198598
Probable space group: P M M M
;
_chemical_formula_sum "Si O2"
_cell_formula_units_Z 52
_cell_length_a 14.463050
_cell_length_b 23.294732
_cell_length_c 9.169280
_cell_angle_alpha 90.000000
_cell_angle_beta 90.000000
_cell_angle_gamma 90.000000
_cell_volume 3089.248474
_symmetry_space_group_name_H-M "P M M M"
_symmetry_group_IT_number 47
_symmetry_cell_setting 'orthorhombic'
loop_
_space_group_symop_operation_xyz
x,y,z
-x,-y,z
x,-y,-z
-x,y,-z
-x,-y,-z
x,y,-z
-x,y,z
x,-y,z
loop_
_atom_site_type_symbol
_atom_site_label
_atom_site_fract_x
_atom_site_fract_y
_atom_site_fract_z
Si Si1 0.707443 0.274641 0.826393
Si Si2 0.104667 0.896634 0.830714
Si Si3 0.609974 0.500000 0.335390
Si Si4 0.392116 0.612085 0.170106
Si Si5 0.723018 0.064895 0.667244
Si Si6 0.099871 0.765269 0.172876
Si Si7 0.392738 0.840017 0.171614
O O1 0.660917 0.332512 0.765908
O O2 0.813926 0.272458 0.769397
O O3 0.652765 0.218832 0.769247
O O4 0.702383 0.275301 0.000000
O O5 0.174332 0.933786 0.734933
O O6 0.116016 0.830817 0.780641
O O7 0.000000 0.917941 0.802717
O O8 0.130862 0.903676 0.000000
O O9 0.500000 0.500000 0.330159
O O10 0.647585 0.500000 0.500000
O O11 0.646995 0.443404 0.253971
O O12 0.500000 0.621932 0.199970
O O13 0.372478 0.602535 0.000000
O O14 0.728321 0.084582 0.500000
O O15 0.652770 0.105682 0.751698
O O16 0.685559 0.000000 0.680711
O O17 0.000000 0.743309 0.234795
O O18 0.096442 0.762377 0.000000
O O19 0.500000 0.838239 0.212090
O O20 0.376035 0.846554 0.000000
#
# Coordination Sequence:
#
# PCOD8198598 Si02
#       7
#     8   8   4   8   8   8   8
#     4   9  15  26  47  74 100 122 149 192 241 286
#     4   9  17  32  55  78  97 120 154 197 243 291
#     4   9  17  29  43  61  92 131 164 194 227 263
#     4   9  16  26  43  68  96 126 158 190 227 273
#     4  11  24  38  50  67  95 130 163 197 243 298
#     4   8  13  23  44  73  99 120 144 182 235 286
#     4  10  20  35  55  75  94 120 159 206 249 290
#
# _framework density 16.832573
#
# number of rings (size 3 to 8) (size 9 to 14) (size 15 to 20)
#    0.000    2.692    1.538    2.077    0.000    5.231 
#    0.000    3.846    0.000    1.846    0.000    0.538 
#    0.000    4.308    0.000    0.000    0.000    0.000 
#
# Total GULP energy -644603.985471 kJ/mol
# GULP energy per Si atom -12396.230490 kJ/mol
# Density = 1.679426 g / cm^3
# Si number density = 16.832573 Si / 1000 Ang^3
#
#
#
# Elastic Constant Matrix: (Units=GPa)
#
#
# Indices 1 2 3 4 5 6 
#
# 1 111.9512 63.5635 36.3982 0.0000 0.0000 0.0000
# 2 63.5635 123.0545 38.6541 0.0000 0.0000 0.0000
# 3 36.3982 38.6541 45.4249 0.0000 0.0000 0.0000
# 4 0.0000 0.0000 0.0000 2.8954 0.0000 0.0000
# 5 0.0000 0.0000 0.0000 0.0000 10.3300 0.0000
# 6 0.0000 0.0000 0.0000 0.0000 0.0000 21.6768
#
#
#
# Elastic Compliance Matrix: (Units=1/GPa)
#
#
# Indices 1 2 3 4 5 6 
#
# 1 0.014083 -0.005091 -0.006953 0.000000 0.000000 0.000000
# 2 -0.005091 0.012931 -0.006925 0.000000 0.000000 0.000000
# 3 -0.006953 -0.006925 0.033478 0.000000 0.000000 0.000000
# 4 0.000000 0.000000 0.000000 0.345380 0.000000 0.000000
# 5 0.000000 0.000000 0.000000 0.000000 0.096806 0.000000
# 6 0.000000 0.000000 0.000000 0.000000 0.000000 0.046132
#
#
# Mechanical properties :
#
#
# Convention : Reuss Voigt Hill
#
# Bulk Modulus (GPa) = 44.33366 61.96247 53.14806
# Shear Modulus (GPa) = 8.41373 16.43474 12.42424
#
# Velocity S-wave (km/s) = 2.23815 3.12807 2.71976
# Velocity P-wave (km/s) = 5.75103 7.06664 6.44250
#
# Compressibility (1/GPa) = 0.02255622
#
# Stress axis : x y z
#
# Youngs Moduli (GPa) = 71.00552 77.33197 29.87020
#
# Poissons Ratio (x) = 0.39367 0.20768
# Poissons Ratio (y) = 0.36147 0.20684
# Poissons Ratio (z) = 0.49370 0.53550
#
# Static dielectric constant tensor:
#      x y z
#    x 3.389190 0.000000 0.000000 
#    y 0.000000 3.171320 0.000000 
#    z 0.000000 0.000000 2.854850 
# 
# 
# High freq. dielectric constant tensor:
#      x y z
#    x 1.645000 0.000000 0.000000 
#    y 0.000000 1.638580 0.000000 
#    z 0.000000 0.000000 1.614870 
# 
# From -- ./inp_files/7663.got.cif
#   From: 2010.03.12/outbox.cif.g09.slc.cpg/sg47_4_cif.got.tgz:7663.got - 2010.04.14 03:12:58.
