data_PCOD8198622
_publ_section_title
;
Structure prediction by ZEFSAII (Michael W. Deem and Ramdas Pophale) SiO2 
 PCOD8198622
Probable space group: P M M M
;
_chemical_formula_sum "Si O2"
_cell_formula_units_Z 48
_cell_length_a 9.696544
_cell_length_b 9.205154
_cell_length_c 29.410395
_cell_angle_alpha 90.000000
_cell_angle_beta 90.000000
_cell_angle_gamma 90.000000
_cell_volume 2625.118354
_symmetry_space_group_name_H-M "P M M M"
_symmetry_group_IT_number 47
_symmetry_cell_setting 'orthorhombic'
loop_
_space_group_symop_operation_xyz
x,y,z
-x,-y,z
x,-y,-z
-x,y,-z
-x,-y,-z
x,y,-z
-x,y,z
x,-y,z
loop_
_atom_site_type_symbol
_atom_site_label
_atom_site_fract_x
_atom_site_fract_y
_atom_site_fract_z
Si Si1 0.658161 0.328218 0.362557
Si Si2 0.157169 0.327632 0.279644
Si Si3 0.729472 0.172322 0.897629
Si Si4 0.000000 0.170768 0.948969
Si Si5 0.339485 0.330788 0.805519
Si Si6 0.500000 0.661066 0.947015
Si Si7 0.663668 0.163129 0.450232
O O1 0.500000 0.277536 0.353064
O O2 0.664346 0.500000 0.365365
O O3 0.758872 0.267994 0.323213
O O4 0.717358 0.266766 0.410110
O O5 0.152388 0.500000 0.281581
O O6 0.242706 0.277229 0.235572
O O7 0.000000 0.265508 0.278619
O O8 0.706663 0.234981 0.847794
O O9 0.629055 0.245123 0.933091
O O10 0.874452 0.221030 0.917880
O O11 0.707724 0.000000 0.896115
O O12 0.000000 0.000000 0.955860
O O13 0.000000 0.241500 0.000000
O O14 0.500000 0.302766 0.793406
O O15 0.315018 0.500000 0.816412
O O16 0.500000 0.500000 0.923691
O O17 0.500000 0.639602 0.000000
O O18 0.717689 0.216287 0.500000
O O19 0.500000 0.166013 0.450732
O O20 0.716742 0.000000 0.440911
#
# Coordination Sequence:
#
# PCOD8198622 Si02
#       7
#     8   8   8   4   8   4   8
#     4   9  16  27  46  72  99 126 164 213 258 299
#     4   9  18  32  51  74  99 134 175 212 256 313
#     4  11  22  37  59  84 111 144 180 218 263 315
#     4   9  20  38  57  79 109 145 181 215 256 309
#     4  10  20  35  55  78 107 138 172 216 263 311
#     4  11  23  39  59  85 115 143 177 221 264 309
#     4   8  14  25  42  66  97 131 165 202 249 304
#
# _framework density 18.284890000000001
#
# number of rings (size 3 to 8) (size 9 to 14) (size 15 to 20)
#    0.000    2.500    0.833    2.250    1.167    3.667 
#    0.000    3.750    0.000    7.000    0.000    3.500 
#    0.000    0.000    0.000    0.000    0.000    0.000 
#
# Total GULP energy -594913.613127 kJ/mol
# GULP energy per Si atom -12394.033607 kJ/mol
# Density = 1.824327 g / cm^3
# Si number density = 18.284890 Si / 1000 Ang^3
#
#
#
# Elastic Constant Matrix: (Units=GPa)
#
#
# Indices 1 2 3 4 5 6 
#
# 1 133.6337 39.4210 70.6853 0.0000 0.0000 0.0000
# 2 39.4210 54.5983 45.3790 0.0000 0.0000 0.0000
# 3 70.6853 45.3790 142.8335 0.0000 0.0000 0.0000
# 4 0.0000 0.0000 0.0000 -9.2297 0.0000 0.0000
# 5 0.0000 0.0000 0.0000 0.0000 26.6134 0.0000
# 6 0.0000 0.0000 0.0000 0.0000 0.0000 15.7085
#
#
#
# Elastic Compliance Matrix: (Units=1/GPa)
#
#
# Indices 1 2 3 4 5 6 
#
# 1 0.010930 -0.004615 -0.003943 0.000000 0.000000 0.000000
# 2 -0.004615 0.026835 -0.006242 0.000000 0.000000 0.000000
# 3 -0.003943 -0.006242 0.010936 0.000000 0.000000 0.000000
# 4 0.000000 0.000000 0.000000 -0.108346 0.000000 0.000000
# 5 0.000000 0.000000 0.000000 0.000000 0.037575 0.000000
# 6 0.000000 0.000000 0.000000 0.000000 0.000000 0.063660
#
#
# Mechanical properties :
#
#
# Convention : Reuss Voigt Hill
#
# Bulk Modulus (GPa) = 52.35101 71.33734 61.84418
# Shear Modulus (GPa) = 64.46916 18.32379 41.39647
#
# Velocity S-wave (km/s) = 5.94430 3.16907 4.76328
# Velocity P-wave (km/s) = 8.70666 7.24498 8.00923
#
# Compressibility (1/GPa) = 0.01910183
#
# Stress axis : x y z
#
# Youngs Moduli (GPa) = 91.49106 37.26415 91.44427
#
# Poissons Ratio (x) = 0.17196 0.36056
# Poissons Ratio (y) = 0.42219 0.57081
# Poissons Ratio (z) = 0.36075 0.23261
#
# Static dielectric constant tensor:
#      x y z
#    x 3.190290 0.000000 0.000000 
#    y 0.000000 3.210010 0.000000 
#    z 0.000000 0.000000 3.675560 
# 
# 
# High freq. dielectric constant tensor:
#      x y z
#    x 1.696620 0.000000 0.000000 
#    y 0.000000 1.681800 0.000000 
#    z 0.000000 0.000000 1.724750 
# 
# From -- ./inp_files/2711.got.cif
#   From: 2010.03.12/outbox.cif.g09.slc.cpg/sg47_2_cif.got.tgz:2711.got - 2010.04.14 03:12:58.
