data_PCOD8198953
_publ_section_title
;
Structure prediction by ZEFSAII (Michael W. Deem and Ramdas Pophale) SiO2 
 PCOD8198953
Probable space group: P M M M
;
_chemical_formula_sum "Si O2"
_cell_formula_units_Z 52
_cell_length_a 7.938385
_cell_length_b 23.094343
_cell_length_c 14.119399
_cell_angle_alpha 90.000000
_cell_angle_beta 90.000000
_cell_angle_gamma 90.000000
_cell_volume 2588.534637
_symmetry_space_group_name_H-M "P M M M"
_symmetry_group_IT_number 47
_symmetry_cell_setting 'orthorhombic'
loop_
_space_group_symop_operation_xyz
x,y,z
-x,-y,z
x,-y,-z
-x,y,-z
-x,-y,-z
x,y,-z
-x,y,z
x,-y,z
loop_
_atom_site_type_symbol
_atom_site_label
_atom_site_fract_x
_atom_site_fract_y
_atom_site_fract_z
Si Si1 0.000000 0.933122 0.611836
Si Si2 0.301464 0.564210 0.230093
Si Si3 0.198690 0.665536 0.105191
Si Si4 0.301116 0.647396 0.606972
Si Si5 0.806290 0.747632 0.729986
Si Si6 0.804011 0.066230 0.893124
Si Si7 0.687250 0.125959 0.713531
O O1 0.170005 0.904004 0.650282
O O2 0.000000 0.925849 0.500000
O O3 0.000000 0.000000 0.643495
O O4 0.500000 0.559037 0.232784
O O5 0.220718 0.500000 0.223566
O O6 0.247906 0.601285 0.138915
O O7 0.236897 0.595081 0.326342
O O8 0.269137 0.713909 0.178029
O O9 0.000000 0.670524 0.103232
O O10 0.273811 0.676005 0.000000
O O11 0.247351 0.632743 0.500000
O O12 0.500000 0.656337 0.616639
O O13 0.211020 0.706592 0.638596
O O14 0.701238 0.805071 0.711081
O O15 0.000000 0.765005 0.745820
O O16 0.699386 0.105943 0.822379
O O17 0.000000 0.072208 0.867710
O O18 0.746059 0.000000 0.881748
O O19 0.769390 0.087645 0.000000
O O20 0.500000 0.109563 0.675470
#
# Coordination Sequence:
#
# PCOD8198953 Si02
#       7
#     4   8   8   8   8   8   8
#     4  11  26  48  69  91 123 161 205 256 308 362
#     4   9  18  32  50  75 108 145 186 233 286 347
#     4   9  19  35  55  78 107 149 195 238 286 339
#     4   9  18  33  53  77 105 139 182 235 293 351
#     4  10  20  37  57  80 113 149 188 238 295 355
#     4   9  18  35  60  89 123 161 197 236 287 350
#     4  12  24  40  65  95 125 161 205 252 306 366
#
# _framework density 20.088584999999998
#
# number of rings (size 3 to 8) (size 9 to 14) (size 15 to 20)
#    0.000    2.231    1.538    1.385    0.000    5.231 
#    0.000    6.154    0.000    0.000    0.000    4.308 
#    0.000    0.000    0.000    0.000    0.000    0.000 
#
# Total GULP energy -644776.447245 kJ/mol
# GULP energy per Si atom -12399.547062 kJ/mol
# Density = 2.004286 g / cm^3
# Si number density = 20.088585 Si / 1000 Ang^3
#
#
#
# Elastic Constant Matrix: (Units=GPa)
#
#
# Indices 1 2 3 4 5 6 
#
# 1 76.9651 36.3359 29.1756 0.0000 0.0000 0.0000
# 2 36.3359 126.5945 44.8218 0.0000 0.0000 0.0000
# 3 29.1756 44.8218 109.5522 0.0000 0.0000 0.0000
# 4 0.0000 0.0000 0.0000 13.7977 0.0000 0.0000
# 5 0.0000 0.0000 0.0000 0.0000 20.9320 0.0000
# 6 0.0000 0.0000 0.0000 0.0000 0.0000 22.2348
#
#
#
# Elastic Compliance Matrix: (Units=1/GPa)
#
#
# Indices 1 2 3 4 5 6 
#
# 1 0.015700 -0.003538 -0.002733 0.000000 0.000000 0.000000
# 2 -0.003538 0.010035 -0.003163 0.000000 0.000000 0.000000
# 3 -0.002733 -0.003163 0.011150 0.000000 0.000000 0.000000
# 4 0.000000 0.000000 0.000000 0.072476 0.000000 0.000000
# 5 0.000000 0.000000 0.000000 0.000000 0.047774 0.000000
# 6 0.000000 0.000000 0.000000 0.000000 0.000000 0.044975
#
#
# Mechanical properties :
#
#
# Convention : Reuss Voigt Hill
#
# Bulk Modulus (GPa) = 55.51080 59.30871 57.40976
# Shear Modulus (GPa) = 22.02800 24.91146 23.46973
#
# Velocity S-wave (km/s) = 3.31500 3.52530 3.42177
# Velocity P-wave (km/s) = 6.50733 6.79397 6.65219
#
# Compressibility (1/GPa) = 0.01801451
#
# Stress axis : x y z
#
# Youngs Moduli (GPa) = 63.69598 99.65279 89.68426
#
# Poissons Ratio (x) = 0.35261 0.24514
# Poissons Ratio (y) = 0.22538 0.28370
# Poissons Ratio (z) = 0.17410 0.31523
#
# Static dielectric constant tensor:
#      x y z
#    x 3.496760 0.000000 0.000000 
#    y 0.000000 3.725800 0.000000 
#    z 0.000000 0.000000 3.822450 
# 
# 
# High freq. dielectric constant tensor:
#      x y z
#    x 1.773830 0.000000 0.000000 
#    y 0.000000 1.782290 0.000000 
#    z 0.000000 0.000000 1.783250 
# 
# From -- ./inp_files/21431.got.cif
#   From: 2010.03.12/outbox.cif.g09.slc.cpg/sg47_11_cif.got.tgz:21431.got - 2010.04.14 03:12:58.
