data_PCOD8198985
_publ_section_title
;
Structure prediction by ZEFSAII (Michael W. Deem and Ramdas Pophale) SiO2 
 PCOD8198985
Probable space group: P M M M
;
_chemical_formula_sum "Si O2"
_cell_formula_units_Z 56
_cell_length_a 22.390271
_cell_length_b 9.429278
_cell_length_c 14.197361
_cell_angle_alpha 90.000000
_cell_angle_beta 90.000000
_cell_angle_gamma 90.000000
_cell_volume 2997.404918
_symmetry_space_group_name_H-M "P M M M"
_symmetry_group_IT_number 47
_symmetry_cell_setting 'orthorhombic'
loop_
_space_group_symop_operation_xyz
x,y,z
-x,-y,z
x,-y,-z
-x,y,-z
-x,-y,-z
x,y,-z
-x,y,z
x,-y,z
loop_
_atom_site_type_symbol
_atom_site_label
_atom_site_fract_x
_atom_site_fract_y
_atom_site_fract_z
Si Si1 0.740494 0.660404 0.896440
Si Si2 0.000000 0.660609 0.388875
Si Si3 0.857299 0.836818 0.102948
Si Si4 0.668866 0.335172 0.287509
Si Si5 0.570489 0.164700 0.205595
Si Si6 0.565226 0.167573 0.000000
Si Si7 0.894541 0.163908 0.301788
Si Si8 0.231760 0.837422 0.609626
O O1 0.763816 0.500000 0.891659
O O2 0.796900 0.756292 0.875832
O O3 0.691776 0.689083 0.817981
O O4 0.712910 0.694159 0.000000
O O5 0.059079 0.738062 0.354375
O O6 0.000000 0.500000 0.350525
O O7 0.000000 0.663477 0.500000
O O8 0.902527 0.807513 0.189280
O O9 0.839014 0.000000 0.103254
O O10 0.884878 0.794204 0.000000
O O11 0.661578 0.500000 0.314607
O O12 0.604455 0.257520 0.285340
O O13 0.713480 0.263161 0.361613
O O14 0.500000 0.194432 0.214445
O O15 0.595040 0.210246 0.100354
O O16 0.584528 0.000000 0.224712
O O17 0.500000 0.238786 0.000000
O O18 0.557523 0.000000 0.000000
O O19 0.827836 0.205959 0.333816
O O20 0.907800 0.000000 0.326927
O O21 0.218377 0.814894 0.500000
O O22 0.249132 0.000000 0.631839
#
# Coordination Sequence:
#
# PCOD8198985 Si02
#       8
#     8   4   8   8   8   4   8   8
#     4   9  18  31  46  70 108 149 182 213 257 315
#     4  11  25  41  58  83 112 144 185 231 276 325
#     4   9  17  31  54  83 112 142 179 222 264 308
#     4  11  22  33  51  79 111 145 180 221 271 328
#     4   9  18  33  52  73 102 142 185 227 269 317
#     4   7  12  26  47  71  99 135 181 226 265 308
#     4  10  20  37  61  86 113 145 181 221 268 320
#     4  10  21  38  60  84 109 138 177 227 277 325
#
# _framework density 18.682829000000002
#
# number of rings (size 3 to 8) (size 9 to 14) (size 15 to 20)
#    0.000    2.429    1.429    1.929    1.000    3.429 
#    0.000    0.357    0.000    3.857    0.000    3.000 
#    0.000    0.000    0.000    0.000    0.000    0.000 
#
# Total GULP energy -693981.546687 kJ/mol
# GULP energy per Si atom -12392.527619 kJ/mol
# Density = 1.864031 g / cm^3
# Si number density = 18.682829 Si / 1000 Ang^3
#
#
#
# Elastic Constant Matrix: (Units=GPa)
#
#
# Indices 1 2 3 4 5 6 
#
# 1 71.9684 46.2691 38.6957 0.0000 0.0000 0.0000
# 2 46.2691 78.7134 43.8589 0.0000 0.0000 0.0000
# 3 38.6957 43.8589 79.8876 0.0000 0.0000 0.0000
# 4 0.0000 0.0000 0.0000 25.5677 0.0000 0.0000
# 5 0.0000 0.0000 0.0000 0.0000 25.6190 0.0000
# 6 0.0000 0.0000 0.0000 0.0000 0.0000 34.3365
#
#
#
# Elastic Compliance Matrix: (Units=1/GPa)
#
#
# Indices 1 2 3 4 5 6 
#
# 1 0.023945 -0.010968 -0.005577 0.000000 0.000000 0.000000
# 2 -0.010968 0.023327 -0.007494 0.000000 0.000000 0.000000
# 3 -0.005577 -0.007494 0.019333 0.000000 0.000000 0.000000
# 4 0.000000 0.000000 0.000000 0.039112 0.000000 0.000000
# 5 0.000000 0.000000 0.000000 0.000000 0.039034 0.000000
# 6 0.000000 0.000000 0.000000 0.000000 0.000000 0.029124
#
#
# Mechanical properties :
#
#
# Convention : Reuss Voigt Hill
#
# Bulk Modulus (GPa) = 53.97405 54.24630 54.11018
# Shear Modulus (GPa) = 21.91752 23.88767 22.90259
#
# Velocity S-wave (km/s) = 3.42882 3.57962 3.50503
# Velocity P-wave (km/s) = 6.68043 6.79583 6.73838
#
# Compressibility (1/GPa) = 0.01852742
#
# Stress axis : x y z
#
# Youngs Moduli (GPa) = 41.76266 42.86856 51.72410
#
# Poissons Ratio (x) = 0.47017 0.28846
# Poissons Ratio (y) = 0.45804 0.38763
# Poissons Ratio (z) = 0.23291 0.32127
#
# Static dielectric constant tensor:
#      x y z
#    x 3.137210 0.000000 0.000000 
#    y 0.000000 3.638260 0.000000 
#    z 0.000000 0.000000 3.628520 
# 
# 
# High freq. dielectric constant tensor:
#      x y z
#    x 1.702530 0.000000 0.000000 
#    y 0.000000 1.718850 0.000000 
#    z 0.000000 0.000000 1.725260 
# 
# From -- ./inp_files/25221.got.cif
#   From: 2010.03.12/outbox.cif.g09.slc.cpg/sg47_13_cif.got.tgz:25221.got - 2010.04.14 03:12:58.
