data_PCOD8198612
_publ_section_title
;
Structure prediction by ZEFSAII (Michael W. Deem and Ramdas Pophale) SiO2 
 PCOD8198612
Probable space group: P M M M
;
_chemical_formula_sum "Si O2"
_cell_formula_units_Z 44
_cell_length_a 10.713149
_cell_length_b 24.064531
_cell_length_c 9.012937
_cell_angle_alpha 90.000000
_cell_angle_beta 90.000000
_cell_angle_gamma 90.000000
_cell_volume 2323.597404
_symmetry_space_group_name_H-M "P M M M"
_symmetry_group_IT_number 47
_symmetry_cell_setting 'orthorhombic'
loop_
_space_group_symop_operation_xyz
x,y,z
-x,-y,z
x,-y,-z
-x,y,-z
-x,-y,-z
x,y,-z
-x,y,z
x,-y,z
loop_
_atom_site_type_symbol
_atom_site_label
_atom_site_fract_x
_atom_site_fract_y
_atom_site_fract_z
Si Si1 0.643795 0.559968 0.162328
Si Si2 0.000000 0.562613 0.323701
Si Si3 0.781016 0.357487 0.327215
Si Si4 0.143260 0.133898 0.324396
Si Si5 0.640975 0.065526 0.829419
Si Si6 0.144918 0.751098 0.169974
O O1 0.500000 0.551058 0.141366
O O2 0.700701 0.500000 0.215970
O O3 0.657322 0.609155 0.283372
O O4 0.701166 0.576014 0.000000
O O5 0.116523 0.598681 0.267643
O O6 0.000000 0.500000 0.256484
O O7 0.000000 0.559014 0.500000
O O8 0.792974 0.344373 0.500000
O O9 0.780677 0.299376 0.242203
O O10 0.152836 0.137639 0.500000
O O11 0.247321 0.090967 0.267763
O O12 0.179055 0.193151 0.256747
O O13 0.000000 0.116930 0.278107
O O14 0.500000 0.084701 0.780209
O O15 0.650809 0.000000 0.809534
O O16 0.662467 0.082663 0.000000
O O17 0.000000 0.737083 0.185804
O O18 0.185699 0.758725 0.000000
#
# Coordination Sequence:
#
# PCOD8198612 Si02
#       6
#     8   4   8   8   8   8
#     4   9  19  36  54  71  96 131 170 214 264 317
#     4   9  18  30  45  71 105 135 160 197 256 317
#     4  11  20  32  52  76 105 135 168 213 263 319
#     4  10  21  36  56  84 117 151 191 237 284 334
#     4   9  19  37  60  86 118 156 195 234 280 334
#     4  10  20  35  55  77 105 142 183 222 267 323
#
# _framework density 18.936154999999999
#
# number of rings (size 3 to 8) (size 9 to 14) (size 15 to 20)
#    0.000    2.273    0.909    3.273    0.000    4.364 
#    0.000    4.545    0.000    7.636    0.000    0.000 
#    0.000    0.000    0.000    0.000    0.000    0.000 
#
# Total GULP energy -545219.162498 kJ/mol
# GULP energy per Si atom -12391.344602 kJ/mol
# Density = 1.889306 g / cm^3
# Si number density = 18.936155 Si / 1000 Ang^3
#
#
#
# Elastic Constant Matrix: (Units=GPa)
#
#
# Indices 1 2 3 4 5 6 
#
# 1 77.5879 48.4714 41.7163 0.0000 0.0000 0.0000
# 2 48.4714 98.1702 48.5624 0.0000 0.0000 0.0000
# 3 41.7163 48.5624 87.6662 0.0000 0.0000 0.0000
# 4 0.0000 0.0000 0.0000 34.9397 0.0000 0.0000
# 5 0.0000 0.0000 0.0000 0.0000 27.7596 0.0000
# 6 0.0000 0.0000 0.0000 0.0000 0.0000 19.8289
#
#
#
# Elastic Compliance Matrix: (Units=1/GPa)
#
#
# Indices 1 2 3 4 5 6 
#
# 1 0.020529 -0.007306 -0.005722 0.000000 0.000000 0.000000
# 2 -0.007306 0.016631 -0.005736 0.000000 0.000000 0.000000
# 3 -0.005722 -0.005736 0.017307 0.000000 0.000000 0.000000
# 4 0.000000 0.000000 0.000000 0.028621 0.000000 0.000000
# 5 0.000000 0.000000 0.000000 0.000000 0.036024 0.000000
# 6 0.000000 0.000000 0.000000 0.000000 0.000000 0.050432
#
#
# Mechanical properties :
#
#
# Convention : Reuss Voigt Hill
#
# Bulk Modulus (GPa) = 59.03277 60.10271 59.56774
# Shear Modulus (GPa) = 23.50527 24.81724 24.16125
#
# Velocity S-wave (km/s) = 3.52702 3.62411 3.57589
# Velocity P-wave (km/s) = 6.91584 7.02288 6.96956
#
# Compressibility (1/GPa) = 0.01693974
#
# Stress axis : x y z
#
# Youngs Moduli (GPa) = 48.71106 60.12782 57.77905
#
# Poissons Ratio (x) = 0.43928 0.33061
# Poissons Ratio (y) = 0.35587 0.33144
# Poissons Ratio (z) = 0.27872 0.34491
#
# Static dielectric constant tensor:
#      x y z
#    x 3.456430 0.000000 0.000000 
#    y 0.000000 3.414840 0.000000 
#    z 0.000000 0.000000 3.415130 
# 
# 
# High freq. dielectric constant tensor:
#      x y z
#    x 1.722700 0.000000 0.000000 
#    y 0.000000 1.737070 0.000000 
#    z 0.000000 0.000000 1.733810 
# 
# From -- ./inp_files/4441.got.cif
#   From: 2010.03.12/outbox.cif.g09.slc.cpg/sg47_3_cif.got.tgz:4441.got - 2010.04.14 03:12:58.
