data_PCOD8198210
_publ_section_title
;
Structure prediction by ZEFSAII (Michael W. Deem and Ramdas Pophale) SiO2 
 PCOD8198210
Probable space group: P M M M
;
_chemical_formula_sum "Si O2"
_cell_formula_units_Z 44
_cell_length_a 7.569688
_cell_length_b 9.597477
_cell_length_c 31.949296
_cell_angle_alpha 90.000000
_cell_angle_beta 90.000000
_cell_angle_gamma 90.000000
_cell_volume 2321.113366
_symmetry_space_group_name_H-M "P M M M"
_symmetry_group_IT_number 47
_symmetry_cell_setting 'orthorhombic'
loop_
_space_group_symop_operation_xyz
x,y,z
-x,-y,z
x,-y,-z
-x,y,-z
-x,-y,-z
x,y,-z
-x,y,z
x,-y,z
loop_
_atom_site_type_symbol
_atom_site_label
_atom_site_fract_x
_atom_site_fract_y
_atom_site_fract_z
Si Si1 0.209612 0.843820 0.953986
Si Si2 0.804557 0.834462 0.332395
Si Si3 0.209689 0.844568 0.575264
Si Si4 0.210866 0.342667 0.500000
Si Si5 0.202450 0.661143 0.122174
Si Si6 0.500000 0.338721 0.812245
Si Si7 0.500000 0.833935 0.271531
O O1 0.280750 0.742631 0.917867
O O2 0.000000 0.839211 0.954264
O O3 0.276262 0.000000 0.944305
O O4 0.279470 0.796865 0.000000
O O5 0.736889 0.788508 0.378544
O O6 0.671443 0.781238 0.296917
O O7 0.000000 0.773008 0.322866
O O8 0.813282 0.000000 0.332447
O O9 0.284719 0.737592 0.540856
O O10 0.000000 0.852937 0.572435
O O11 0.287292 0.000000 0.567160
O O12 0.285188 0.500000 0.500000
O O13 0.000000 0.343754 0.500000
O O14 0.215955 0.500000 0.110372
O O15 0.323598 0.696902 0.161783
O O16 0.000000 0.703870 0.132761
O O17 0.500000 0.500000 0.798347
O O18 0.500000 0.238956 0.772827
O O19 0.500000 0.000000 0.265465
#
# Coordination Sequence:
#
# PCOD8198210 Si02
#       7
#     8   8   8   4   8   4   4
#     4   8  14  26  46  73 103 131 159 195 238 279
#     4   8  15  29  49  73  98 121 151 195 239 278
#     4   8  13  23  40  60  85 120 155 183 219 270
#     4   9  15  21  33  60  95 122 149 189 226 259
#     4   9  18  33  52  71  94 129 167 198 231 275
#     4  10  22  38  51  69  99 126 154 198 245 287
#     4  10  20  34  54  76  94 118 155 197 242 291
#
# _framework density 18.956420000000001
#
# number of rings (size 3 to 8) (size 9 to 14) (size 15 to 20)
#    0.000    3.364    0.000    1.909    0.000    2.909 
#    0.000    3.182    0.000    4.364    0.000    3.818 
#    0.000    0.000    0.000    0.000    0.000    0.000 
#
# Total GULP energy -545319.797920 kJ/mol
# GULP energy per Si atom -12393.631771 kJ/mol
# Density = 1.891327 g / cm^3
# Si number density = 18.956420 Si / 1000 Ang^3
#
#
#
# Elastic Constant Matrix: (Units=GPa)
#
#
# Indices 1 2 3 4 5 6 
#
# 1 73.7104 30.1936 58.0275 0.0000 0.0000 0.0000
# 2 30.1936 82.4162 81.7117 0.0000 0.0000 0.0000
# 3 58.0275 81.7117 179.4991 0.0000 0.0000 0.0000
# 4 0.0000 0.0000 0.0000 14.5372 0.0000 0.0000
# 5 0.0000 0.0000 0.0000 0.0000 -7.9934 0.0000
# 6 0.0000 0.0000 0.0000 0.0000 0.0000 8.1868
#
#
#
# Elastic Compliance Matrix: (Units=1/GPa)
#
#
# Indices 1 2 3 4 5 6 
#
# 1 0.018303 -0.001529 -0.005221 0.000000 0.000000 0.000000
# 2 -0.001529 0.022242 -0.009631 0.000000 0.000000 0.000000
# 3 -0.005221 -0.009631 0.011643 0.000000 0.000000 0.000000
# 4 0.000000 0.000000 0.000000 0.068789 0.000000 0.000000
# 5 0.000000 0.000000 0.000000 0.000000 -0.125103 0.000000
# 6 0.000000 0.000000 0.000000 0.000000 0.000000 0.122148
#
#
# Mechanical properties :
#
#
# Convention : Reuss Voigt Hill
#
# Bulk Modulus (GPa) = 51.47581 75.05458 63.26520
# Shear Modulus (GPa) = 31.79477 13.99233 22.89355
#
# Velocity S-wave (km/s) = 4.09987 2.71980 3.47896
# Velocity P-wave (km/s) = 7.04455 7.03863 7.04159
#
# Compressibility (1/GPa) = 0.01942660
#
# Stress axis : x y z
#
# Youngs Moduli (GPa) = 54.63591 44.95956 85.88931
#
# Poissons Ratio (x) = 0.06876 0.44840
# Poissons Ratio (y) = 0.08355 0.82718
# Poissons Ratio (z) = 0.28524 0.43299
#
# Static dielectric constant tensor:
#      x y z
#    x 3.497590 0.000000 0.000000 
#    y 0.000000 3.374560 0.000000 
#    z 0.000000 0.000000 3.635290 
# 
# 
# High freq. dielectric constant tensor:
#      x y z
#    x 1.723100 0.000000 0.000000 
#    y 0.000000 1.706280 0.000000 
#    z 0.000000 0.000000 1.736280 
# 
# From -- ./inp_files/33984.got.cif
#   From: 2010.03.12/outbox.cif.g09.slc.cpg/sg47_17_cif.got.tgz:33984.got - 2010.04.14 03:12:58.
