data_PCOD8198608
_publ_section_title
;
Structure prediction by ZEFSAII (Michael W. Deem and Ramdas Pophale) SiO2 
 PCOD8198608
Probable space group: P M M M
;
_chemical_formula_sum "Si O2"
_cell_formula_units_Z 60
_cell_length_a 12.985544
_cell_length_b 13.667005
_cell_length_c 19.345272
_cell_angle_alpha 90.000000
_cell_angle_beta 90.000000
_cell_angle_gamma 90.000000
_cell_volume 3433.273029
_symmetry_space_group_name_H-M "P M M M"
_symmetry_group_IT_number 47
_symmetry_cell_setting 'orthorhombic'
loop_
_space_group_symop_operation_xyz
x,y,z
-x,-y,z
x,-y,-z
-x,y,-z
-x,-y,-z
x,y,-z
-x,y,z
x,-y,z
loop_
_atom_site_type_symbol
_atom_site_label
_atom_site_fract_x
_atom_site_fract_y
_atom_site_fract_z
Si Si1 0.500000 0.609018 0.082141
Si Si2 0.716551 0.112538 0.307232
Si Si3 0.383364 0.234140 0.578544
Si Si4 0.880751 0.385267 0.838409
Si Si5 0.295654 0.281525 0.081796
Si Si6 0.116794 0.275580 0.300373
Si Si7 0.381930 0.888054 0.837796
Si Si8 0.212094 0.386695 0.420891
O O1 0.500000 0.500000 0.112523
O O2 0.604017 0.660150 0.109079
O O3 0.500000 0.608432 0.000000
O O4 0.654882 0.144421 0.375154
O O5 0.818788 0.176347 0.299150
O O6 0.641706 0.129432 0.242537
O O7 0.750039 0.000000 0.314647
O O8 0.370271 0.198488 0.500000
O O9 0.500000 0.260567 0.596708
O O10 0.320766 0.333647 0.592582
O O11 0.858345 0.500000 0.839046
O O12 0.809233 0.334256 0.895477
O O13 0.850632 0.344592 0.763215
O O14 0.000000 0.363170 0.856610
O O15 0.303981 0.174033 0.114962
O O16 0.294052 0.271662 0.000000
O O17 0.128515 0.337547 0.370814
O O18 0.000000 0.241544 0.293656
O O19 0.500000 0.857947 0.852183
O O20 0.362627 0.000000 0.858491
O O21 0.174740 0.372962 0.500000
O O22 0.226270 0.500000 0.402397
#
# Coordination Sequence:
#
# PCOD8198608 Si02
#       8
#     4   8   8   8   8   8   8   8
#     4   9  18  32  51  77 107 139 171 206 256 318
#     4  10  20  35  55  77 103 136 174 216 261 310
#     4   9  18  32  51  77 108 141 176 213 253 300
#     4  10  21  37  57  80 106 140 180 220 264 314
#     4  11  21  35  55  79 108 140 174 216 267 323
#     4  10  20  35  55  77 103 135 173 218 263 308
#     4  10  20  35  56  81 108 139 175 216 265 318
#     4   9  18  32  51  77 108 141 176 213 254 302
#
# _framework density 17.476035
#
# number of rings (size 3 to 8) (size 9 to 14) (size 15 to 20)
#    0.000    2.200    2.000    1.200    0.000    4.000 
#    0.000    4.000    0.000    0.400    0.000    4.667 
#    0.000    0.000    0.000    0.000    0.000    0.000 
#
# Total GULP energy -744095.561961 kJ/mol
# GULP energy per Si atom -12401.592699 kJ/mol
# Density = 1.743626 g / cm^3
# Si number density = 17.476035 Si / 1000 Ang^3
#
#
#
# Elastic Constant Matrix: (Units=GPa)
#
#
# Indices 1 2 3 4 5 6 
#
# 1 77.9350 41.5678 34.0563 0.0000 0.0000 0.0000
# 2 41.5678 116.8194 47.8502 0.0000 0.0000 0.0000
# 3 34.0563 47.8502 73.2838 0.0000 0.0000 0.0000
# 4 0.0000 0.0000 0.0000 26.7976 0.0000 0.0000
# 5 0.0000 0.0000 0.0000 0.0000 27.9536 0.0000
# 6 0.0000 0.0000 0.0000 0.0000 0.0000 23.5328
#
#
#
# Elastic Compliance Matrix: (Units=1/GPa)
#
#
# Indices 1 2 3 4 5 6 
#
# 1 0.017318 -0.003912 -0.005494 0.000000 0.000000 0.000000
# 2 -0.003912 0.012569 -0.006389 0.000000 0.000000 0.000000
# 3 -0.005494 -0.006389 0.020370 0.000000 0.000000 0.000000
# 4 0.000000 0.000000 0.000000 0.037317 0.000000 0.000000
# 5 0.000000 0.000000 0.000000 0.000000 0.035774 0.000000
# 6 0.000000 0.000000 0.000000 0.000000 0.000000 0.042494
#
#
# Mechanical properties :
#
#
# Convention : Reuss Voigt Hill
#
# Bulk Modulus (GPa) = 53.56699 57.22074 55.39386
# Shear Modulus (GPa) = 24.55135 25.29440 24.92287
#
# Velocity S-wave (km/s) = 3.75221 3.80857 3.78049
# Velocity P-wave (km/s) = 7.03494 7.22175 7.12896
#
# Compressibility (1/GPa) = 0.01866821
#
# Stress axis : x y z
#
# Youngs Moduli (GPa) = 57.74173 79.55923 49.09109
#
# Poissons Ratio (x) = 0.31125 0.26970
# Poissons Ratio (y) = 0.22589 0.31364
# Poissons Ratio (z) = 0.31722 0.50830
#
# Static dielectric constant tensor:
#      x y z
#    x 3.236070 0.000000 0.000000 
#    y 0.000000 3.260070 0.000000 
#    z 0.000000 0.000000 3.237090 
# 
# 
# High freq. dielectric constant tensor:
#      x y z
#    x 1.672830 0.000000 0.000000 
#    y 0.000000 1.678040 0.000000 
#    z 0.000000 0.000000 1.675650 
# 
# From -- ./inp_files/30563.got.cif
#   From: 2010.03.12/outbox.cif.g09.slc.cpg/sg47_16_cif.got.tgz:30563.got - 2010.04.14 03:12:58.
