data_PCOD8198629
_publ_section_title
;
Structure prediction by ZEFSAII (Michael W. Deem and Ramdas Pophale) SiO2 
 PCOD8198629
Probable space group: P M M M
;
_chemical_formula_sum "Si O2"
_cell_formula_units_Z 44
_cell_length_a 18.084711
_cell_length_b 13.753339
_cell_length_c 8.970723
_cell_angle_alpha 90.000000
_cell_angle_beta 90.000000
_cell_angle_gamma 90.000000
_cell_volume 2231.244523
_symmetry_space_group_name_H-M "P M M M"
_symmetry_group_IT_number 47
_symmetry_cell_setting 'orthorhombic'
loop_
_space_group_symop_operation_xyz
x,y,z
-x,-y,z
x,-y,-z
-x,y,-z
-x,-y,-z
x,y,-z
-x,y,z
x,-y,z
loop_
_atom_site_type_symbol
_atom_site_label
_atom_site_fract_x
_atom_site_fract_y
_atom_site_fract_z
Si Si1 0.419070 0.615206 0.332301
Si Si2 0.725260 0.388384 0.173976
Si Si3 0.915743 0.886621 0.830165
Si Si4 0.785402 0.785742 0.324808
Si Si5 0.352687 0.884416 0.170200
Si Si6 0.500000 0.883987 0.669579
O O1 0.395736 0.645184 0.500000
O O2 0.500000 0.660773 0.293227
O O3 0.425656 0.500000 0.320082
O O4 0.356578 0.651955 0.217578
O O5 0.735264 0.500000 0.222987
O O6 0.784578 0.324896 0.263991
O O7 0.737364 0.374299 0.000000
O O8 0.864835 0.828892 0.715828
O O9 0.000000 0.853636 0.803372
O O10 0.906940 0.000000 0.797148
O O11 0.891842 0.863876 0.000000
O O12 0.774334 0.787559 0.500000
O O13 0.720833 0.847780 0.249723
O O14 0.426076 0.842633 0.251343
O O15 0.352405 0.000000 0.178696
O O16 0.352831 0.848037 0.000000
O O17 0.500000 0.847141 0.500000
O O18 0.500000 0.000000 0.679049
#
# Coordination Sequence:
#
# PCOD8198629 Si02
#       6
#     8   8   8   8   8   4
#     4   8  14  27  48  72  99 132 171 221 283 342
#     4  10  21  37  56  77 104 142 190 240 287 337
#     4   9  19  38  64  92 122 154 184 218 267 330
#     4  12  24  36  55  84 116 149 186 231 281 334
#     4  10  20  35  55  78 108 147 189 232 277 329
#     4   9  17  31  51  75 106 143 184 231 283 335
#
# _framework density 19.719937000000002
#
# number of rings (size 3 to 8) (size 9 to 14) (size 15 to 20)
#    0.000    2.273    0.000    4.636    0.000    6.545 
#    1.636    2.727    0.000    0.545    0.000    3.818 
#    0.000    0.000    0.000    0.000    0.000    0.000 
#
# Total GULP energy -545660.406181 kJ/mol
# GULP energy per Si atom -12401.372868 kJ/mol
# Density = 1.967505 g / cm^3
# Si number density = 19.719937 Si / 1000 Ang^3
#
#
#
# Elastic Constant Matrix: (Units=GPa)
#
#
# Indices 1 2 3 4 5 6 
#
# 1 111.4391 40.6331 60.6795 0.0000 0.0000 0.0000
# 2 40.6331 39.0531 36.6835 0.0000 0.0000 0.0000
# 3 60.6795 36.6835 142.7324 0.0000 0.0000 0.0000
# 4 0.0000 0.0000 0.0000 24.8496 0.0000 0.0000
# 5 0.0000 0.0000 0.0000 0.0000 34.6631 0.0000
# 6 0.0000 0.0000 0.0000 0.0000 0.0000 29.7165
#
#
#
# Elastic Compliance Matrix: (Units=1/GPa)
#
#
# Indices 1 2 3 4 5 6 
#
# 1 0.015508 -0.013107 -0.003224 0.000000 0.000000 0.000000
# 2 -0.013107 0.044833 -0.005950 0.000000 0.000000 0.000000
# 3 -0.003224 -0.005950 0.009906 0.000000 0.000000 0.000000
# 4 0.000000 0.000000 0.000000 0.040242 0.000000 0.000000
# 5 0.000000 0.000000 0.000000 0.000000 0.028849 0.000000
# 6 0.000000 0.000000 0.000000 0.000000 0.000000 0.033651
#
#
# Mechanical properties :
#
#
# Convention : Reuss Voigt Hill
#
# Bulk Modulus (GPa) = 38.93493 63.24630 51.09062
# Shear Modulus (GPa) = 22.11271 28.19442 25.15356
#
# Velocity S-wave (km/s) = 3.35227 3.78529 3.57534
# Velocity P-wave (km/s) = 5.89665 7.15867 6.55808
#
# Compressibility (1/GPa) = 0.02568388
#
# Stress axis : x y z
#
# Youngs Moduli (GPa) = 64.48153 22.30514 100.94727
#
# Poissons Ratio (x) = 0.29235 0.32549
# Poissons Ratio (y) = 0.84516 0.60066
# Poissons Ratio (z) = 0.20791 0.13272
#
# Static dielectric constant tensor:
#      x y z
#    x 3.611220 0.000000 0.000000 
#    y 0.000000 3.608300 0.000000 
#    z 0.000000 0.000000 3.604530 
# 
# 
# High freq. dielectric constant tensor:
#      x y z
#    x 1.752570 0.000000 0.000000 
#    y 0.000000 1.771310 0.000000 
#    z 0.000000 0.000000 1.770640 
# 
# From -- ./inp_files/6137.got.cif
#   From: 2010.03.12/outbox.cif.g09.slc.cpg/sg47_4_cif.got.tgz:6137.got - 2010.04.14 03:12:58.
