data_PCOD8198454
_publ_section_title
;
Structure prediction by ZEFSAII (Michael W. Deem and Ramdas Pophale) SiO2 
 PCOD8198454
Probable space group: P M M M
;
_chemical_formula_sum "Si O2"
_cell_formula_units_Z 44
_cell_length_a 9.202539
_cell_length_b 28.065729
_cell_length_c 9.162176
_cell_angle_alpha 90.000000
_cell_angle_beta 90.000000
_cell_angle_gamma 90.000000
_cell_volume 2366.369854
_symmetry_space_group_name_H-M "P M M M"
_symmetry_group_IT_number 47
_symmetry_cell_setting 'orthorhombic'
loop_
_space_group_symop_operation_xyz
x,y,z
-x,-y,z
x,-y,-z
-x,y,-z
-x,-y,-z
x,y,-z
-x,y,z
x,-y,z
loop_
_atom_site_type_symbol
_atom_site_label
_atom_site_fract_x
_atom_site_fract_y
_atom_site_fract_z
Si Si1 0.171103 0.217989 0.333594
Si Si2 0.333287 0.135311 0.828499
Si Si3 0.166530 0.945257 0.331874
Si Si4 0.160502 0.676307 0.672935
Si Si5 0.169988 0.500000 0.828476
Si Si6 0.331673 0.415057 0.671950
O O1 0.223857 0.211111 0.500000
O O2 0.251953 0.181169 0.231759
O O3 0.209917 0.271144 0.275090
O O4 0.000000 0.209001 0.322897
O O5 0.500000 0.138689 0.781486
O O6 0.269494 0.086557 0.766445
O O7 0.312534 0.134374 0.000000
O O8 0.188481 0.930919 0.500000
O O9 0.000000 0.936559 0.286197
O O10 0.210000 0.000000 0.306334
O O11 0.149779 0.677755 0.500000
O O12 0.276100 0.636817 0.724068
O O13 0.000000 0.663807 0.736056
O O14 0.240990 0.453670 0.758867
O O15 0.000000 0.500000 0.791981
O O16 0.200212 0.500000 0.000000
O O17 0.306446 0.422771 0.500000
O O18 0.500000 0.419765 0.713125
#
# Coordination Sequence:
#
# PCOD8198454 Si02
#       6
#     8   8   8   8   4   8
#     4   9  18  34  57  82 105 133 174 220 261 305
#     4  11  24  37  49  73 110 146 178 213 255 306
#     4   9  19  37  60  83 104 129 168 217 264 312
#     4   8  15  30  53  80 107 134 168 213 261 306
#     4  11  24  39  54  74 102 139 182 221 258 306
#     4  10  20  34  55  83 110 136 170 212 260 315
#
# _framework density 18.593881
#
# number of rings (size 3 to 8) (size 9 to 14) (size 15 to 20)
#    0.000    2.455    0.000    3.818    0.000    8.727 
#    0.000    5.455    0.000    1.091    0.000    0.000 
#    0.000    0.000    0.000    0.000    0.000    0.000 
#
# Total GULP energy -545596.810534 kJ/mol
# GULP energy per Si atom -12399.927512 kJ/mol
# Density = 1.855156 g / cm^3
# Si number density = 18.593881 Si / 1000 Ang^3
#
#
#
# Elastic Constant Matrix: (Units=GPa)
#
#
# Indices 1 2 3 4 5 6 
#
# 1 104.4143 74.5252 49.1415 0.0000 0.0000 0.0000
# 2 74.5252 140.6128 47.6902 0.0000 0.0000 0.0000
# 3 49.1415 47.6902 51.3431 0.0000 0.0000 0.0000
# 4 0.0000 0.0000 0.0000 -13.3294 0.0000 0.0000
# 5 0.0000 0.0000 0.0000 0.0000 28.2913 0.0000
# 6 0.0000 0.0000 0.0000 0.0000 0.0000 -193.0979
#
#
#
# Elastic Compliance Matrix: (Units=1/GPa)
#
#
# Indices 1 2 3 4 5 6 
#
# 1 0.020525 -0.006154 -0.013929 0.000000 0.000000 0.000000
# 2 -0.006154 0.012228 -0.005467 0.000000 0.000000 0.000000
# 3 -0.013929 -0.005467 0.037887 0.000000 0.000000 0.000000
# 4 0.000000 0.000000 0.000000 -0.075022 0.000000 0.000000
# 5 0.000000 0.000000 0.000000 0.000000 0.035347 0.000000
# 6 0.000000 0.000000 0.000000 0.000000 0.000000 -0.005179
#
#
# Mechanical properties :
#
#
# Convention : Reuss Voigt Hill
#
# Bulk Modulus (GPa) = 51.17992 71.00932 61.09462
# Shear Modulus (GPa) = 59.95247 -27.29298 16.32975
#
# Velocity S-wave (km/s) = 5.68446 -3.83541 2.96671
# Velocity P-wave (km/s) = 8.40649 4.31958 6.68311
#
# Compressibility (1/GPa) = 0.01953891
#
# Stress axis : x y z
#
# Youngs Moduli (GPa) = 48.72041 81.77999 26.39457
#
# Poissons Ratio (x) = 0.50331 0.36764
# Poissons Ratio (y) = 0.29985 0.14431
# Poissons Ratio (z) = 0.67861 0.44712
#
# Static dielectric constant tensor:
#      x y z
#    x 3.480940 0.000000 0.000000 
#    y 0.000000 3.690280 0.000000 
#    z 0.000000 0.000000 3.181180 
# 
# 
# High freq. dielectric constant tensor:
#      x y z
#    x 1.723060 0.000000 0.000000 
#    y 0.000000 1.740120 0.000000 
#    z 0.000000 0.000000 1.695770 
# 
# From -- ./inp_files/2142.got.cif
#   From: 2010.03.12/outbox.cif.g09.slc.cpg/sg47_2_cif.got.tgz:2142.got - 2010.04.14 03:12:58.
