data_PCOD8198303
_publ_section_title
;
Structure prediction by ZEFSAII (Michael W. Deem and Ramdas Pophale) SiO2 
 PCOD8198303
Probable space group: P M M M
;
_chemical_formula_sum "Si O2"
_cell_formula_units_Z 64
_cell_length_a 23.312885
_cell_length_b 9.034667
_cell_length_c 15.755732
_cell_angle_alpha 90.000000
_cell_angle_beta 90.000000
_cell_angle_gamma 90.000000
_cell_volume 3318.537704
_symmetry_space_group_name_H-M "P M M M"
_symmetry_group_IT_number 47
_symmetry_cell_setting 'orthorhombic'
loop_
_space_group_symop_operation_xyz
x,y,z
-x,-y,z
x,-y,-z
-x,y,-z
-x,-y,-z
x,y,-z
-x,y,z
x,-y,z
loop_
_atom_site_type_symbol
_atom_site_label
_atom_site_fract_x
_atom_site_fract_y
_atom_site_fract_z
Si Si1 0.893035 0.171478 0.410356
Si Si2 0.825755 0.325179 0.180619
Si Si3 0.064405 0.825107 0.766013
Si Si4 0.564984 0.327244 0.268961
Si Si5 0.227250 0.828919 0.340288
Si Si6 0.622685 0.672541 0.903025
Si Si7 0.733950 0.161573 0.096494
Si Si8 0.351548 0.824898 0.403505
O O1 0.913527 0.243914 0.500000
O O2 0.926237 0.239003 0.329536
O O3 0.824598 0.194955 0.405918
O O4 0.908639 0.000000 0.412209
O O5 0.830545 0.500000 0.179409
O O6 0.889887 0.258141 0.175324
O O7 0.787016 0.269880 0.258757
O O8 0.791166 0.261888 0.100701
O O9 0.000000 0.788332 0.796453
O O10 0.076911 0.000000 0.769597
O O11 0.500000 0.280008 0.289106
O O12 0.575050 0.500000 0.284266
O O13 0.575443 0.289404 0.168844
O O14 0.605404 0.243299 0.335156
O O15 0.286505 0.775234 0.381934
O O16 0.230579 0.000000 0.312355
O O17 0.637039 0.500000 0.904560
O O18 0.678893 0.754225 0.866285
O O19 0.604151 0.721006 0.000000
O O20 0.741554 0.000000 0.141272
O O21 0.719853 0.134514 0.000000
O O22 0.365681 0.771776 0.500000
O O23 0.357177 0.000000 0.397761
#
# Coordination Sequence:
#
# PCOD8198303 Si02
#       8
#     8   8   8   8   8   8   8   8
#     4   8  13  23  43  71  98 122 154 200 249 295
#     4  11  21  32  50  75 104 136 168 206 251 300
#     4   9  18  32  49  69  95 131 174 214 251 294
#     4  10  22  38  54  75 105 142 182 219 258 310
#     4   9  17  31  51  74 100 129 164 208 259 313
#     4   9  18  34  57  84 112 139 168 207 256 311
#     4  10  20  34  54  80 108 134 160 195 244 303
#     4  10  21  36  55  78 102 133 177 229 279 319
#
# _framework density 19.285602000000001
#
# number of rings (size 3 to 8) (size 9 to 14) (size 15 to 20)
#    0.000    2.500    0.000    3.375    0.000    6.750 
#    0.000    3.750    0.000    9.375    0.000    8.750 
#    0.000    0.000    0.000    0.000    0.000    0.000 
#
# Total GULP energy -792978.055695 kJ/mol
# GULP energy per Si atom -12390.282120 kJ/mol
# Density = 1.924171 g / cm^3
# Si number density = 19.285602 Si / 1000 Ang^3
#
#
#
# Elastic Constant Matrix: (Units=GPa)
#
#
# Indices 1 2 3 4 5 6 
#
# 1 109.9042 42.3598 30.7128 0.0000 0.0000 0.0000
# 2 42.3598 68.7981 20.9925 0.0000 0.0000 0.0000
# 3 30.7128 20.9925 65.1502 0.0000 0.0000 0.0000
# 4 0.0000 0.0000 0.0000 21.3788 0.0000 0.0000
# 5 0.0000 0.0000 0.0000 0.0000 147.2171 0.0000
# 6 0.0000 0.0000 0.0000 0.0000 0.0000 27.1713
#
#
#
# Elastic Compliance Matrix: (Units=1/GPa)
#
#
# Indices 1 2 3 4 5 6 
#
# 1 0.012749 -0.006672 -0.003860 0.000000 0.000000 0.000000
# 2 -0.006672 0.019612 -0.003174 0.000000 0.000000 0.000000
# 3 -0.003860 -0.003174 0.018192 0.000000 0.000000 0.000000
# 4 0.000000 0.000000 0.000000 0.046775 0.000000 0.000000
# 5 0.000000 0.000000 0.000000 0.000000 0.006793 0.000000
# 6 0.000000 0.000000 0.000000 0.000000 0.000000 0.036804
#
#
# Mechanical properties :
#
#
# Convention : Reuss Voigt Hill
#
# Bulk Modulus (GPa) = 43.21503 47.99809 45.60656
# Shear Modulus (GPa) = 28.40106 49.13927 38.77016
#
# Velocity S-wave (km/s) = 3.84168 5.05322 4.48852
# Velocity P-wave (km/s) = 6.49112 7.68042 7.11068
#
# Compressibility (1/GPa) = 0.02314010
#
# Stress axis : x y z
#
# Youngs Moduli (GPa) = 78.43684 50.98994 54.97019
#
# Poissons Ratio (x) = 0.34020 0.21220
# Poissons Ratio (y) = 0.52332 0.17447
# Poissons Ratio (z) = 0.30279 0.16184
#
# Static dielectric constant tensor:
#      x y z
#    x 3.550940 0.000000 0.000000 
#    y 0.000000 3.441890 0.000000 
#    z 0.000000 0.000000 3.684120 
# 
# 
# High freq. dielectric constant tensor:
#      x y z
#    x 1.747290 0.000000 0.000000 
#    y 0.000000 1.724250 0.000000 
#    z 0.000000 0.000000 1.746020 
# 
# From -- ./inp_files/25589.got.cif
#   From: 2010.03.12/outbox.cif.g09.slc.cpg/sg47_13_cif.got.tgz:25589.got - 2010.04.14 03:12:58.
