data_PCOD8198583
_publ_section_title
;
Structure prediction by ZEFSAII (Michael W. Deem and Ramdas Pophale) SiO2 
 PCOD8198583
Probable space group: P M M M
;
_chemical_formula_sum "Si O2"
_cell_formula_units_Z 48
_cell_length_a 8.903255
_cell_length_b 21.076626
_cell_length_c 13.159423
_cell_angle_alpha 90.000000
_cell_angle_beta 90.000000
_cell_angle_gamma 90.000000
_cell_volume 2469.373303
_symmetry_space_group_name_H-M "P M M M"
_symmetry_group_IT_number 47
_symmetry_cell_setting 'orthorhombic'
loop_
_space_group_symop_operation_xyz
x,y,z
-x,-y,z
x,-y,-z
-x,y,-z
-x,-y,-z
x,y,-z
-x,y,z
x,-y,z
loop_
_atom_site_type_symbol
_atom_site_label
_atom_site_fract_x
_atom_site_fract_y
_atom_site_fract_z
Si Si1 0.176951 0.251739 0.801839
Si Si2 0.323646 0.795454 0.383122
Si Si3 0.322373 0.066679 0.385143
Si Si4 0.828208 0.000000 0.877909
Si Si5 0.668598 0.126719 0.880338
Si Si6 0.332517 0.375161 0.880409
Si Si7 0.169552 0.500000 0.878667
O O1 0.232053 0.254434 0.684477
O O2 0.242802 0.190859 0.858334
O O3 0.232665 0.314528 0.856506
O O4 0.000000 0.249021 0.808006
O O5 0.272979 0.789541 0.500000
O O6 0.500000 0.782451 0.373373
O O7 0.278623 0.865442 0.334978
O O8 0.260327 0.068986 0.500000
O O9 0.500000 0.064005 0.389999
O O10 0.261305 0.000000 0.333856
O O11 0.747064 0.063512 0.833772
O O12 0.000000 0.000000 0.840438
O O13 0.821357 0.000000 0.000000
O O14 0.500000 0.131058 0.834341
O O15 0.660616 0.118043 0.000000
O O16 0.500000 0.368097 0.833781
O O17 0.254038 0.437995 0.835173
O O18 0.344362 0.382497 0.000000
O O19 0.000000 0.500000 0.836599
O O20 0.168985 0.500000 0.000000
#
# Coordination Sequence:
#
# PCOD8198583 Si02
#       7
#     8   8   8   4   8   8   4
#     4  12  24  35  50  75 107 142 177 220 272 321
#     4   9  18  34  54  73  97 131 173 222 272 325
#     4   7  10  20  42  69  90 110 145 198 258 314
#     4   9  17  31  51  73  98 129 166 213 269 321
#     4  10  20  35  54  74  98 132 176 221 263 314
#     4  10  20  35  56  82 113 147 182 219 256 302
#     4   9  17  31  53  83 118 151 178 205 247 307
#
# _framework density 19.438129
#
# number of rings (size 3 to 8) (size 9 to 14) (size 15 to 20)
#    0.000    2.500    0.000    5.000    0.000    6.333 
#    1.500    0.000    0.000    0.000    0.000    2.917 
#    0.000    4.667    0.000    0.000    0.000    0.000 
#
# Total GULP energy -594891.243377 kJ/mol
# GULP energy per Si atom -12393.567570 kJ/mol
# Density = 1.939389 g / cm^3
# Si number density = 19.438129 Si / 1000 Ang^3
#
#
#
# Elastic Constant Matrix: (Units=GPa)
#
#
# Indices 1 2 3 4 5 6 
#
# 1 144.4557 63.1455 15.9216 0.0000 0.0000 0.0000
# 2 63.1455 135.6531 15.9275 0.0000 0.0000 0.0000
# 3 15.9216 15.9275 14.6055 0.0000 0.0000 0.0000
# 4 0.0000 0.0000 0.0000 15.8852 0.0000 0.0000
# 5 0.0000 0.0000 0.0000 0.0000 16.2600 0.0000
# 6 0.0000 0.0000 0.0000 0.0000 0.0000 30.6900
#
#
#
# Elastic Compliance Matrix: (Units=1/GPa)
#
#
# Indices 1 2 3 4 5 6 
#
# 1 0.009143 -0.003539 -0.006107 0.000000 0.000000 0.000000
# 2 -0.003539 0.009824 -0.006856 0.000000 0.000000 0.000000
# 3 -0.006107 -0.006856 0.082601 0.000000 0.000000 0.000000
# 4 0.000000 0.000000 0.000000 0.062952 0.000000 0.000000
# 5 0.000000 0.000000 0.000000 0.000000 0.061501 0.000000
# 6 0.000000 0.000000 0.000000 0.000000 0.000000 0.032584
#
#
# Mechanical properties :
#
#
# Convention : Reuss Voigt Hill
#
# Bulk Modulus (GPa) = 14.58489 53.85596 34.22042
# Shear Modulus (GPa) = 15.90022 25.88171 20.89097
#
# Velocity S-wave (km/s) = 2.86316 3.65292 3.28188
# Velocity P-wave (km/s) = 4.29532 6.74969 5.65721
#
# Compressibility (1/GPa) = 0.06856413
#
# Stress axis : x y z
#
# Youngs Moduli (GPa) = 109.37885 101.79245 12.10642
#
# Poissons Ratio (x) = 0.36021 0.07394
# Poissons Ratio (y) = 0.38706 0.08300
# Poissons Ratio (z) = 0.66801 0.69784
#
# Static dielectric constant tensor:
#      x y z
#    x 3.498180 0.000000 0.000000 
#    y 0.000000 3.672710 0.000000 
#    z 0.000000 0.000000 3.598720 
# 
# 
# High freq. dielectric constant tensor:
#      x y z
#    x 1.744170 0.000000 0.000000 
#    y 0.000000 1.751280 0.000000 
#    z 0.000000 0.000000 1.740940 
# 
# From -- ./inp_files/21050.got.cif
#   From: 2010.03.12/outbox.cif.g09.slc.cpg/sg47_11_cif.got.tgz:21050.got - 2010.04.14 03:12:58.
