data_PCOD8198588
_publ_section_title
;
Structure prediction by ZEFSAII (Michael W. Deem and Ramdas Pophale) SiO2 
 PCOD8198588
Probable space group: P M M M
;
_chemical_formula_sum "Si O2"
_cell_formula_units_Z 38
_cell_length_a 15.299876
_cell_length_b 12.568354
_cell_length_c 11.381540
_cell_angle_alpha 90.000000
_cell_angle_beta 90.000000
_cell_angle_gamma 90.000000
_cell_volume 2188.604786
_symmetry_space_group_name_H-M "P M M M"
_symmetry_group_IT_number 47
_symmetry_cell_setting 'orthorhombic'
loop_
_space_group_symop_operation_xyz
x,y,z
-x,-y,z
x,-y,-z
-x,y,-z
-x,-y,-z
x,y,-z
-x,y,z
x,-y,z
loop_
_atom_site_type_symbol
_atom_site_label
_atom_site_fract_x
_atom_site_fract_y
_atom_site_fract_z
Si Si1 0.594589 0.122889 0.371697
Si Si2 0.000000 0.381932 0.214182
Si Si3 0.171042 0.380773 0.636334
Si Si4 0.895488 0.000000 0.639839
Si Si5 0.816751 0.875398 0.000000
Si Si6 0.768002 0.823746 0.253615
Si Si7 0.000000 0.221342 0.000000
O O1 0.619861 0.172613 0.500000
O O2 0.500000 0.171010 0.329278
O O3 0.671205 0.135189 0.277891
O O4 0.580657 0.000000 0.390360
O O5 0.919339 0.365072 0.298523
O O6 0.000000 0.500000 0.157346
O O7 0.000000 0.295050 0.113622
O O8 0.155843 0.357018 0.500000
O O9 0.208954 0.500000 0.655416
O O10 0.234911 0.294349 0.692458
O O11 0.846425 0.896220 0.692137
O O12 0.883958 0.000000 0.500000
O O13 0.000000 0.000000 0.673063
O O14 0.776273 0.818784 0.886386
O O15 0.919793 0.858561 0.000000
O O16 0.795229 0.000000 0.000000
#
# Coordination Sequence:
#
# PCOD8198588 Si02
#       7
#     8   4   8   4   4   8   2
#     4   9  17  32  57  86 111 137 175 228 288 343
#     4  10  20  35  54  76 101 138 192 241 274 320
#     4  10  21  36  55  79 108 142 183 235 288 332
#     4  11  24  35  52  80 109 143 183 228 279 335
#     4  12  25  37  52  74 110 154 193 226 270 323
#     4  12  22  38  56  78 113 149 188 226 277 332
#     4  12  22  38  52  70 106 156 196 228 266 318
#
# _framework density 17.362660000000002
#
# number of rings (size 3 to 8) (size 9 to 14) (size 15 to 20)
#    0.000    1.368    4.211    3.158    2.947    1.263 
#    0.000    1.053    0.000    2.526    0.000    2.947 
#    0.000    1.684    0.000    0.000    0.000    0.000 
#
# Total GULP energy -470922.216203 kJ/mol
# GULP energy per Si atom -12392.689900 kJ/mol
# Density = 1.732314 g / cm^3
# Si number density = 17.362660 Si / 1000 Ang^3
#
#
#
# Elastic Constant Matrix: (Units=GPa)
#
#
# Indices 1 2 3 4 5 6 
#
# 1 114.4620 15.9261 43.5307 0.0000 0.0000 0.0000
# 2 15.9261 82.5486 36.4240 0.0000 0.0000 0.0000
# 3 43.5307 36.4240 127.5123 0.0000 0.0000 0.0000
# 4 0.0000 0.0000 0.0000 73.0085 0.0000 0.0000
# 5 0.0000 0.0000 0.0000 0.0000 -53.4796 0.0000
# 6 0.0000 0.0000 0.0000 0.0000 0.0000 13.3534
#
#
#
# Elastic Compliance Matrix: (Units=1/GPa)
#
#
# Indices 1 2 3 4 5 6 
#
# 1 0.010057 -0.000487 -0.003294 0.000000 0.000000 0.000000
# 2 -0.000487 0.013885 -0.003800 0.000000 0.000000 0.000000
# 3 -0.003294 -0.003800 0.010052 0.000000 0.000000 0.000000
# 4 0.000000 0.000000 0.000000 0.013697 0.000000 0.000000
# 5 0.000000 0.000000 0.000000 0.000000 -0.018699 0.000000
# 6 0.000000 0.000000 0.000000 0.000000 0.000000 0.074887
#
#
# Mechanical properties :
#
#
# Convention : Reuss Voigt Hill
#
# Bulk Modulus (GPa) = 53.10057 57.36495 55.23276
# Shear Modulus (GPa) = 39.89799 21.81925 30.85862
#
# Velocity S-wave (km/s) = 4.79886 3.54881 4.22037
# Velocity P-wave (km/s) = 7.83295 7.06421 7.45849
#
# Compressibility (1/GPa) = 0.01883219
#
# Stress axis : x y z
#
# Youngs Moduli (GPa) = 99.43227 72.02165 99.47787
#
# Poissons Ratio (x) = 0.03506 0.32771
# Poissons Ratio (y) = 0.04840 0.37802
# Poissons Ratio (z) = 0.32756 0.27368
#
# Static dielectric constant tensor:
#      x y z
#    x 3.011450 0.000000 0.000000 
#    y 0.000000 3.343980 0.000000 
#    z 0.000000 0.000000 3.349390 
# 
# 
# High freq. dielectric constant tensor:
#      x y z
#    x 1.656100 0.000000 0.000000 
#    y 0.000000 1.661080 0.000000 
#    z 0.000000 0.000000 1.675900 
# 
# From -- ./inp_files/17291.got.cif
#   From: 2010.03.12/outbox.cif.g09.slc.cpg/sg47_9_cif.got.tgz:17291.got - 2010.04.14 03:12:58.
