data_PCOD8198452
_publ_section_title
;
Structure prediction by ZEFSAII (Michael W. Deem and Ramdas Pophale) SiO2 
 PCOD8198452
Probable space group: P M M M
;
_chemical_formula_sum "Si O2"
_cell_formula_units_Z 48
_cell_length_a 9.231522
_cell_length_b 30.908893
_cell_length_c 9.126133
_cell_angle_alpha 90.000000
_cell_angle_beta 90.000000
_cell_angle_gamma 90.000000
_cell_volume 2604.015433
_symmetry_space_group_name_H-M "P M M M"
_symmetry_group_IT_number 47
_symmetry_cell_setting 'orthorhombic'
loop_
_space_group_symop_operation_xyz
x,y,z
-x,-y,z
x,-y,-z
-x,y,-z
-x,-y,-z
x,y,-z
-x,y,z
x,-y,z
loop_
_atom_site_type_symbol
_atom_site_label
_atom_site_fract_x
_atom_site_fract_y
_atom_site_fract_z
Si Si1 0.839917 0.660016 0.173570
Si Si2 0.667710 0.577295 0.172871
Si Si3 0.332280 0.083537 0.171246
Si Si4 0.830779 0.500000 0.672539
Si Si5 0.829003 0.244035 0.833974
Si Si6 0.332663 0.169644 0.670836
Si Si7 0.163617 0.000000 0.825557
O O1 0.724856 0.624181 0.225502
O O2 0.788545 0.707737 0.223684
O O3 0.000000 0.649230 0.238142
O O4 0.851662 0.660651 0.000000
O O5 0.500000 0.573341 0.215712
O O6 0.758544 0.542004 0.258662
O O7 0.690887 0.570418 0.000000
O O8 0.500000 0.074870 0.206134
O O9 0.274505 0.126345 0.251434
O O10 0.243818 0.042709 0.233840
O O11 0.304584 0.090251 0.000000
O O12 0.803366 0.500000 0.500000
O O13 0.000000 0.500000 0.711571
O O14 0.754336 0.210751 0.726153
O O15 0.000000 0.237350 0.827900
O O16 0.772664 0.236892 0.000000
O O17 0.305922 0.164131 0.500000
O O18 0.500000 0.176960 0.710003
O O19 0.000000 0.000000 0.766527
O O20 0.169748 0.000000 0.000000
#
# Coordination Sequence:
#
# PCOD8198452 Si02
#       7
#     8   8   8   4   8   8   4
#     4   8  15  30  52  77 104 133 167 208 252 299
#     4  10  20  34  55  83 109 133 166 209 257 307
#     4   9  17  31  51  72  95 127 165 203 247 299
#     4  11  24  39  54  74 102 139 180 215 250 298
#     4   9  18  33  54  79 104 132 169 211 254 301
#     4  10  21  35  50  72 103 137 173 211 251 298
#     4   9  17  29  48  75 100 120 152 203 254 297
#
# _framework density 18.433070000000001
#
# number of rings (size 3 to 8) (size 9 to 14) (size 15 to 20)
#    0.000    2.667    0.000    2.750    0.000    6.333 
#    0.000    4.583    0.000    3.500    0.000    0.000 
#    0.000    0.000    0.000    0.000    0.000    0.000 
#
# Total GULP energy -595182.663460 kJ/mol
# GULP energy per Si atom -12399.638822 kJ/mol
# Density = 1.839112 g / cm^3
# Si number density = 18.433070 Si / 1000 Ang^3
#
#
#
# Elastic Constant Matrix: (Units=GPa)
#
#
# Indices 1 2 3 4 5 6 
#
# 1 101.3825 85.3783 40.0115 0.0000 0.0000 0.0000
# 2 85.3783 181.1866 51.0843 0.0000 0.0000 0.0000
# 3 40.0115 51.0843 46.0291 0.0000 0.0000 0.0000
# 4 0.0000 0.0000 0.0000 -2.8637 0.0000 0.0000
# 5 0.0000 0.0000 0.0000 0.0000 21.9739 0.0000
# 6 0.0000 0.0000 0.0000 0.0000 0.0000 38.1940
#
#
#
# Elastic Compliance Matrix: (Units=1/GPa)
#
#
# Indices 1 2 3 4 5 6 
#
# 1 0.018826 -0.006196 -0.009489 0.000000 0.000000 0.000000
# 2 -0.006196 0.010072 -0.005792 0.000000 0.000000 0.000000
# 3 -0.009489 -0.005792 0.036401 0.000000 0.000000 0.000000
# 4 0.000000 0.000000 0.000000 -0.349198 0.000000 0.000000
# 5 0.000000 0.000000 0.000000 0.000000 0.045508 0.000000
# 6 0.000000 0.000000 0.000000 0.000000 0.000000 0.026182
#
#
# Mechanical properties :
#
#
# Convention : Reuss Voigt Hill
#
# Bulk Modulus (GPa) = 44.74964 75.72739 60.23851
# Shear Modulus (GPa) = -30.90134 21.60244 -4.64945
#
# Velocity S-wave (km/s) = -4.09884 3.42707 -1.58991
# Velocity P-wave (km/s) = 1.38885 7.53866 5.42034
#
# Compressibility (1/GPa) = 0.02234655
#
# Stress axis : x y z
#
# Youngs Moduli (GPa) = 53.11704 99.28630 27.47140
#
# Poissons Ratio (x) = 0.61519 0.26066
# Poissons Ratio (y) = 0.32912 0.15911
# Poissons Ratio (z) = 0.50400 0.57506
#
# Static dielectric constant tensor:
#      x y z
#    x 3.423100 0.000000 0.000000 
#    y 0.000000 3.726960 0.000000 
#    z 0.000000 0.000000 3.079760 
# 
# 
# High freq. dielectric constant tensor:
#      x y z
#    x 1.713120 0.000000 0.000000 
#    y 0.000000 1.732290 0.000000 
#    z 0.000000 0.000000 1.681270 
# 
# From -- ./inp_files/2756.got.cif
#   From: 2010.03.12/outbox.cif.g09.slc.cpg/sg47_2_cif.got.tgz:2756.got - 2010.04.14 03:12:58.
