data_PCOD8198819
_publ_section_title
;
Structure prediction by ZEFSAII (Michael W. Deem and Ramdas Pophale) SiO2 
 PCOD8198819
Probable space group: P M M M
;
_chemical_formula_sum "Si O2"
_cell_formula_units_Z 48
_cell_length_a 13.478722
_cell_length_b 9.171580
_cell_length_c 18.546124
_cell_angle_alpha 90.000000
_cell_angle_beta 90.000000
_cell_angle_gamma 90.000000
_cell_volume 2292.693680
_symmetry_space_group_name_H-M "P M M M"
_symmetry_group_IT_number 47
_symmetry_cell_setting 'orthorhombic'
loop_
_space_group_symop_operation_xyz
x,y,z
-x,-y,z
x,-y,-z
-x,y,-z
-x,-y,-z
x,y,-z
-x,y,z
x,-y,z
loop_
_atom_site_type_symbol
_atom_site_label
_atom_site_fract_x
_atom_site_fract_y
_atom_site_fract_z
Si Si1 0.887817 0.829000 0.783919
Si Si2 0.618647 0.334316 0.000000
Si Si3 0.226492 0.827672 0.358775
Si Si4 0.381823 0.165533 0.139636
Si Si5 0.615868 0.668680 0.716715
Si Si6 0.883086 0.667164 0.920827
Si Si7 0.111368 0.173147 0.500000
O O1 0.836395 0.778824 0.710560
O O2 0.835397 0.762100 0.855686
O O3 0.000000 0.771248 0.778707
O O4 0.883324 0.000000 0.792453
O O5 0.660860 0.253596 0.070982
O O6 0.658089 0.500000 0.000000
O O7 0.500000 0.331911 0.000000
O O8 0.330312 0.740985 0.352475
O O9 0.169371 0.772041 0.429488
O O10 0.246433 0.000000 0.361884
O O11 0.500000 0.164632 0.134933
O O12 0.347162 0.244900 0.212475
O O13 0.340593 0.000000 0.140128
O O14 0.500000 0.688933 0.703697
O O15 0.644414 0.500000 0.725629
O O16 0.862216 0.500000 0.902463
O O17 0.000000 0.698863 0.925040
O O18 0.836566 0.706528 0.000000
O O19 0.000000 0.238401 0.500000
O O20 0.104781 0.000000 0.500000
#
# Coordination Sequence:
#
# PCOD8198819 Si02
#       7
#     8   4   8   8   8   8   4
#     4   9  17  29  48  77 110 141 175 218 269 326
#     4   9  15  23  39  67 103 141 182 229 284 345
#     4  10  20  35  58  86 114 145 184 227 275 334
#     4   9  16  27  46  72 101 136 182 236 289 338
#     4  10  21  37  56  78 107 146 190 236 288 342
#     4   8  14  25  42  66  98 138 182 223 264 314
#     4   9  18  36  64  95 124 152 181 219 272 335
#
# _framework density 20.936071999999999
#
# number of rings (size 3 to 8) (size 9 to 14) (size 15 to 20)
#    0.000    2.833    0.000    2.250    0.000    7.000 
#    0.000    2.500    1.833    4.500    0.000    0.000 
#    0.000    0.000    0.000    0.000    0.000    0.000 
#
# Total GULP energy -595208.048919 kJ/mol
# GULP energy per Si atom -12400.167686 kJ/mol
# Density = 2.088842 g / cm^3
# Si number density = 20.936072 Si / 1000 Ang^3
#
#
#
# Elastic Constant Matrix: (Units=GPa)
#
#
# Indices 1 2 3 4 5 6 
#
# 1 49.7956 35.8532 61.7333 0.0000 0.0000 0.0000
# 2 35.8532 98.1860 68.4955 0.0000 0.0000 0.0000
# 3 61.7333 68.4955 182.1419 0.0000 0.0000 0.0000
# 4 0.0000 0.0000 0.0000 19.9675 0.0000 0.0000
# 5 0.0000 0.0000 0.0000 0.0000 37.4890 0.0000
# 6 0.0000 0.0000 0.0000 0.0000 0.0000 19.8531
#
#
#
# Elastic Compliance Matrix: (Units=1/GPa)
#
#
# Indices 1 2 3 4 5 6 
#
# 1 0.037499 -0.006543 -0.010249 0.000000 0.000000 0.000000
# 2 -0.006543 0.014949 -0.003404 0.000000 0.000000 0.000000
# 3 -0.010249 -0.003404 0.010244 0.000000 0.000000 0.000000
# 4 0.000000 0.000000 0.000000 0.050081 0.000000 0.000000
# 5 0.000000 0.000000 0.000000 0.000000 0.026674 0.000000
# 6 0.000000 0.000000 0.000000 0.000000 0.000000 0.050370
#
#
# Mechanical properties :
#
#
# Convention : Reuss Voigt Hill
#
# Bulk Modulus (GPa) = 44.84369 73.58751 59.21560
# Shear Modulus (GPa) = 21.03994 26.39801 23.71898
#
# Velocity S-wave (km/s) = 3.17355 3.55475 3.36955
# Velocity P-wave (km/s) = 5.90715 7.21618 6.59423
#
# Compressibility (1/GPa) = 0.02229968
#
# Stress axis : x y z
#
# Youngs Moduli (GPa) = 26.66714 66.89596 97.61881
#
# Poissons Ratio (x) = 0.43772 1.00049
# Poissons Ratio (y) = 0.17449 0.33227
# Poissons Ratio (z) = 0.27331 0.22770
#
# Static dielectric constant tensor:
#      x y z
#    x 3.847830 0.000000 0.000000 
#    y 0.000000 3.606480 0.000000 
#    z 0.000000 0.000000 4.015000 
# 
# 
# High freq. dielectric constant tensor:
#      x y z
#    x 1.830830 0.000000 0.000000 
#    y 0.000000 1.801130 0.000000 
#    z 0.000000 0.000000 1.811700 
# 
# From -- ./inp_files/28003.got.cif
#   From: 2010.03.12/outbox.cif.g09.slc.cpg/sg47_15_cif.got.tgz:28003.got - 2010.04.14 03:12:58.
