data_PCOD8198293
_publ_section_title
;
Structure prediction by ZEFSAII (Michael W. Deem and Ramdas Pophale) SiO2 
 PCOD8198293
Probable space group: P M M M
;
_chemical_formula_sum "Si O2"
_cell_formula_units_Z 40
_cell_length_a 9.091474
_cell_length_b 27.775557
_cell_length_c 7.713031
_cell_angle_alpha 90.000000
_cell_angle_beta 90.000000
_cell_angle_gamma 90.000000
_cell_volume 1947.700406
_symmetry_space_group_name_H-M "P M M M"
_symmetry_group_IT_number 47
_symmetry_cell_setting 'orthorhombic'
loop_
_space_group_symop_operation_xyz
x,y,z
-x,-y,z
x,-y,-z
-x,y,-z
-x,-y,-z
x,y,-z
-x,y,z
x,-y,z
loop_
_atom_site_type_symbol
_atom_site_label
_atom_site_fract_x
_atom_site_fract_y
_atom_site_fract_z
Si Si1 0.662946 0.595168 0.201412
Si Si2 0.665035 0.780225 0.794402
Si Si3 0.166009 0.500000 0.704212
Si Si4 0.825734 0.053569 0.500000
Si Si5 0.172997 0.123363 0.198399
Si Si6 0.834153 0.312956 0.792830
O O1 0.500000 0.591389 0.286392
O O2 0.751234 0.546508 0.227895
O O3 0.751546 0.640022 0.283150
O O4 0.644633 0.605145 0.000000
O O5 0.500000 0.780312 0.718400
O O6 0.747000 0.828586 0.735990
O O7 0.751823 0.734221 0.719883
O O8 0.661423 0.777185 0.000000
O O9 0.165378 0.500000 0.500000
O O10 0.000000 0.500000 0.778096
O O11 0.773707 0.080655 0.674926
O O12 0.000000 0.050179 0.500000
O O13 0.756475 0.000000 0.500000
O O14 0.000000 0.132773 0.214498
O O15 0.215631 0.109950 0.000000
O O16 0.000000 0.313142 0.720624
O O17 0.835270 0.313169 0.000000
#
# Coordination Sequence:
#
# PCOD8198293 Si02
#       6
#     8   8   4   4   8   8
#     4  10  20  34  54  80 106 133 170 215 262 314
#     4   9  16  27  46  73 104 136 169 207 253 306
#     4  11  24  39  54  72  98 135 176 217 264 316
#     4   9  18  32  51  77 107 137 175 224 269 310
#     4   9  17  30  50  75 103 137 176 217 264 317
#     4   9  16  27  47  76 107 136 167 207 256 309
#
# _framework density 20.537039
#
# number of rings (size 3 to 8) (size 9 to 14) (size 15 to 20)
#    0.000    2.600    0.000    2.400    0.000    8.400 
#    0.000    2.500    2.200    1.200    0.000    2.800 
#    0.000    0.000    0.000    0.000    0.000    0.000 
#
# Total GULP energy -495939.884809 kJ/mol
# GULP energy per Si atom -12398.497120 kJ/mol
# Density = 2.049030 g / cm^3
# Si number density = 20.537039 Si / 1000 Ang^3
#
#
#
# Elastic Constant Matrix: (Units=GPa)
#
#
# Indices 1 2 3 4 5 6 
#
# 1 153.8903 91.2081 22.1076 0.0000 0.0000 0.0000
# 2 91.2081 217.2187 39.7838 0.0000 0.0000 0.0000
# 3 22.1076 39.7838 49.6765 0.0000 0.0000 0.0000
# 4 0.0000 0.0000 0.0000 -23.6496 0.0000 0.0000
# 5 0.0000 0.0000 0.0000 0.0000 5.7276 0.0000
# 6 0.0000 0.0000 0.0000 0.0000 0.0000 11.8402
#
#
#
# Elastic Compliance Matrix: (Units=1/GPa)
#
#
# Indices 1 2 3 4 5 6 
#
# 1 0.008703 -0.003451 -0.001109 0.000000 0.000000 0.000000
# 2 -0.003451 0.006764 -0.003881 0.000000 0.000000 0.000000
# 3 -0.001109 -0.003881 0.023732 0.000000 0.000000 0.000000
# 4 0.000000 0.000000 0.000000 -0.042284 0.000000 0.000000
# 5 0.000000 0.000000 0.000000 0.000000 0.174594 0.000000
# 6 0.000000 0.000000 0.000000 0.000000 0.000000 0.084458
#
#
# Mechanical properties :
#
#
# Convention : Reuss Voigt Hill
#
# Bulk Modulus (GPa) = 44.81076 80.77604 62.79340
# Shear Modulus (GPa) = 17.83881 16.62935 17.23408
#
# Velocity S-wave (km/s) = 2.95043 2.84865 2.89999
# Velocity P-wave (km/s) = 5.78563 7.08781 6.46957
#
# Compressibility (1/GPa) = 0.02231607
#
# Stress axis : x y z
#
# Youngs Moduli (GPa) = 114.90424 147.85228 42.13751
#
# Poissons Ratio (x) = 0.51025 0.04674
# Poissons Ratio (y) = 0.39655 0.16353
# Poissons Ratio (z) = 0.12745 0.57378
#
# Static dielectric constant tensor:
#      x y z
#    x 3.910390 0.000000 0.000000 
#    y 0.000000 3.886270 0.000000 
#    z 0.000000 0.000000 3.389010 
# 
# 
# High freq. dielectric constant tensor:
#      x y z
#    x 1.801350 0.000000 0.000000 
#    y 0.000000 1.807660 0.000000 
#    z 0.000000 0.000000 1.774090 
# 
# From -- ./inp_files/1844.got.cif
#   From: 2010.03.12/outbox.cif.g09.slc.cpg/sg47_1_cif.got.tgz:1844.got - 2010.04.14 03:12:58.
