data_PCOD8198272
_publ_section_title
;
Structure prediction by ZEFSAII (Michael W. Deem and Ramdas Pophale) SiO2 
 PCOD8198272
Probable space group: P M M M
;
_chemical_formula_sum "Si O2"
_cell_formula_units_Z 52
_cell_length_a 8.875398
_cell_length_b 15.779465
_cell_length_c 19.627410
_cell_angle_alpha 90.000000
_cell_angle_beta 90.000000
_cell_angle_gamma 90.000000
_cell_volume 2748.799773
_symmetry_space_group_name_H-M "P M M M"
_symmetry_group_IT_number 47
_symmetry_cell_setting 'orthorhombic'
loop_
_space_group_symop_operation_xyz
x,y,z
-x,-y,z
x,-y,-z
-x,y,-z
-x,-y,-z
x,y,-z
-x,y,z
x,-y,z
loop_
_atom_site_type_symbol
_atom_site_label
_atom_site_fract_x
_atom_site_fract_y
_atom_site_fract_z
Si Si1 0.674661 0.094451 0.206225
Si Si2 0.837357 0.000000 0.579962
Si Si3 0.176570 0.152820 0.922959
Si Si4 0.179838 0.181703 0.575117
Si Si5 0.325936 0.668732 0.076813
Si Si6 0.822081 0.248031 0.285827
Si Si7 0.824961 0.405989 0.800481
O O1 0.500000 0.117683 0.205063
O O2 0.736074 0.092313 0.128888
O O3 0.758917 0.165069 0.249564
O O4 0.701647 0.000000 0.237081
O O5 0.751898 0.088741 0.596965
O O6 0.865123 0.000000 0.500000
O O7 0.000000 0.000000 0.617712
O O8 0.226730 0.248693 0.909189
O O9 0.000000 0.146095 0.908939
O O10 0.216834 0.125018 0.000000
O O11 0.239968 0.210566 0.500000
O O12 0.227849 0.247733 0.634197
O O13 0.000000 0.172611 0.571621
O O14 0.500000 0.690724 0.090239
O O15 0.268178 0.598076 0.129233
O O16 0.302273 0.634705 0.000000
O O17 0.762694 0.335418 0.252530
O O18 0.000000 0.243084 0.279345
O O19 0.799732 0.500000 0.769300
O O20 0.000000 0.390359 0.816580
#
# Coordination Sequence:
#
# PCOD8198272 Si02
#       7
#     8   4   8   8   8   8   8
#     4  11  24  38  52  75 109 146 181 220 267 314
#     4   7  10  18  34  62  99 129 154 197 254 301
#     4  10  20  35  56  79 104 137 179 224 267 312
#     4   8  14  25  44  73 106 135 169 216 265 312
#     4  10  20  34  54  79 106 136 172 218 271 324
#     4  10  20  34  55  79 103 138 181 223 267 317
#     4  10  21  36  53  76 107 141 178 223 274 321
#
# _framework density 18.917346999999999
#
# number of rings (size 3 to 8) (size 9 to 14) (size 15 to 20)
#    0.000    2.385    1.538    2.308    1.077    4.000 
#    0.000    3.077    0.000    0.923    0.000    4.308 
#    0.000    0.000    0.000    2.769    0.000    3.077 
#
# Total GULP energy -644389.618800 kJ/mol
# GULP energy per Si atom -12392.108054 kJ/mol
# Density = 1.887429 g / cm^3
# Si number density = 18.917347 Si / 1000 Ang^3
#
#
#
# Elastic Constant Matrix: (Units=GPa)
#
#
# Indices 1 2 3 4 5 6 
#
# 1 21.1698 17.6869 19.9326 0.0000 0.0000 0.0000
# 2 17.6869 108.1160 64.3298 0.0000 0.0000 0.0000
# 3 19.9326 64.3298 122.5015 0.0000 0.0000 0.0000
# 4 0.0000 0.0000 0.0000 19.8284 0.0000 0.0000
# 5 0.0000 0.0000 0.0000 0.0000 7.4054 0.0000
# 6 0.0000 0.0000 0.0000 0.0000 0.0000 14.5939
#
#
#
# Elastic Compliance Matrix: (Units=1/GPa)
#
#
# Indices 1 2 3 4 5 6 
#
# 1 0.058054 -0.005638 -0.006485 0.000000 0.000000 0.000000
# 2 -0.005638 0.014000 -0.006435 0.000000 0.000000 0.000000
# 3 -0.006485 -0.006435 0.012597 0.000000 0.000000 0.000000
# 4 0.000000 0.000000 0.000000 0.050433 0.000000 0.000000
# 5 0.000000 0.000000 0.000000 0.000000 0.135037 0.000000
# 6 0.000000 0.000000 0.000000 0.000000 0.000000 0.068522
#
#
# Mechanical properties :
#
#
# Convention : Reuss Voigt Hill
#
# Bulk Modulus (GPa) = 21.03700 50.63177 35.83439
# Shear Modulus (GPa) = 12.76796 18.35472 15.56134
#
# Velocity S-wave (km/s) = 2.60077 3.11828 2.87121
# Velocity P-wave (km/s) = 4.49035 6.30775 5.47499
#
# Compressibility (1/GPa) = 0.04753529
#
# Stress axis : x y z
#
# Youngs Moduli (GPa) = 17.22533 71.42669 79.38110
#
# Poissons Ratio (x) = 0.40273 0.51481
# Poissons Ratio (y) = 0.09712 0.51079
# Poissons Ratio (z) = 0.11171 0.45960
#
# Static dielectric constant tensor:
#      x y z
#    x 3.186680 0.000000 0.000000 
#    y 0.000000 3.484870 0.000000 
#    z 0.000000 0.000000 3.727210 
# 
# 
# High freq. dielectric constant tensor:
#      x y z
#    x 1.707950 0.000000 0.000000 
#    y 0.000000 1.717470 0.000000 
#    z 0.000000 0.000000 1.733150 
# 
# From -- ./inp_files/29557.got.cif
#   From: 2010.03.12/outbox.cif.g09.slc.cpg/sg47_15_cif.got.tgz:29557.got - 2010.04.14 03:12:58.
