data_PCOD8198361
_publ_section_title
;
Structure prediction by ZEFSAII (Michael W. Deem and Ramdas Pophale) SiO2 
 PCOD8198361
Probable space group: P M M M
;
_chemical_formula_sum "Si O2"
_cell_formula_units_Z 44
_cell_length_a 9.107661
_cell_length_b 9.053381
_cell_length_c 28.770306
_cell_angle_alpha 90.000000
_cell_angle_beta 90.000000
_cell_angle_gamma 90.000000
_cell_volume 2372.259179
_symmetry_space_group_name_H-M "P M M M"
_symmetry_group_IT_number 47
_symmetry_cell_setting 'orthorhombic'
loop_
_space_group_symop_operation_xyz
x,y,z
-x,-y,z
x,-y,-z
-x,y,-z
-x,-y,-z
x,y,-z
-x,y,z
x,-y,z
loop_
_atom_site_type_symbol
_atom_site_label
_atom_site_fract_x
_atom_site_fract_y
_atom_site_fract_z
Si Si1 0.171947 0.828652 0.408266
Si Si2 0.175230 0.332314 0.850822
Si Si3 0.331520 0.673894 0.325168
Si Si4 0.334323 0.175523 0.500000
Si Si5 0.835897 0.675275 0.950841
Si Si6 0.330836 0.171451 0.230965
O O1 0.227760 0.736230 0.364888
O O2 0.251497 0.766279 0.454264
O O3 0.000000 0.803808 0.414848
O O4 0.210181 0.000000 0.399969
O O5 0.227707 0.500000 0.840409
O O6 0.237086 0.276113 0.901639
O O7 0.236450 0.222595 0.812580
O O8 0.000000 0.325171 0.851067
O O9 0.500000 0.719004 0.335533
O O10 0.311672 0.500000 0.322288
O O11 0.278114 0.741680 0.276547
O O12 0.500000 0.237574 0.500000
O O13 0.332224 0.000000 0.500000
O O14 0.844213 0.500000 0.948933
O O15 0.000000 0.740243 0.952671
O O16 0.755924 0.724213 0.000000
O O17 0.500000 0.205966 0.220194
O O18 0.302321 0.000000 0.240044
#
# Coordination Sequence:
#
# PCOD8198361 Si02
#       6
#     8   8   8   4   8   8
#     4  10  20  34  54  81 111 140 170 206 249 295
#     4   9  17  29  48  75 102 127 159 202 251 299
#     4  10  21  37  56  76  98 128 168 211 254 300
#     4   9  17  31  54  81 108 141 178 212 244 283
#     4   7  10  19  38  65  95 124 155 194 240 289
#     4  10  21  36  53  72  96 130 170 208 248 298
#
# _framework density 18.547722
#
# number of rings (size 3 to 8) (size 9 to 14) (size 15 to 20)
#    0.000    2.818    0.000    3.545    0.000    5.455 
#    0.000    0.455    0.000    3.818    0.000    6.364 
#    0.000    0.000    0.000    0.000    0.000    0.000 
#
# Total GULP energy -545258.532474 kJ/mol
# GULP energy per Si atom -12392.239374 kJ/mol
# Density = 1.850551 g / cm^3
# Si number density = 18.547722 Si / 1000 Ang^3
#
#
#
# Elastic Constant Matrix: (Units=GPa)
#
#
# Indices 1 2 3 4 5 6 
#
# 1 57.5902 28.1142 55.3562 0.0000 0.0000 0.0000
# 2 28.1142 55.4632 48.2444 0.0000 0.0000 0.0000
# 3 55.3562 48.2444 178.7811 0.0000 0.0000 0.0000
# 4 0.0000 0.0000 0.0000 28.6307 0.0000 0.0000
# 5 0.0000 0.0000 0.0000 0.0000 -11.1498 0.0000
# 6 0.0000 0.0000 0.0000 0.0000 0.0000 22.9236
#
#
#
# Elastic Compliance Matrix: (Units=1/GPa)
#
#
# Indices 1 2 3 4 5 6 
#
# 1 0.027503 -0.008538 -0.006212 0.000000 0.000000 0.000000
# 2 -0.008538 0.026211 -0.004429 0.000000 0.000000 0.000000
# 3 -0.006212 -0.004429 0.008712 0.000000 0.000000 0.000000
# 4 0.000000 0.000000 0.000000 0.034927 0.000000 0.000000
# 5 0.000000 0.000000 0.000000 0.000000 -0.089688 0.000000
# 6 0.000000 0.000000 0.000000 0.000000 0.000000 0.043623
#
#
# Mechanical properties :
#
#
# Convention : Reuss Voigt Hill
#
# Bulk Modulus (GPa) = 41.54979 61.69600 51.62290
# Shear Modulus (GPa) = 51.19334 18.75556 34.97445
#
# Velocity S-wave (km/s) = 5.25935 3.18340 4.34711
# Velocity P-wave (km/s) = 7.70268 6.84453 7.28625
#
# Compressibility (1/GPa) = 0.02406751
#
# Stress axis : x y z
#
# Youngs Moduli (GPa) = 36.35983 38.15235 114.78320
#
# Poissons Ratio (x) = 0.32574 0.71301
# Poissons Ratio (y) = 0.31044 0.50842
# Poissons Ratio (z) = 0.22586 0.16899
#
# Static dielectric constant tensor:
#      x y z
#    x 3.175110 0.000000 0.000000 
#    y 0.000000 3.100670 0.000000 
#    z 0.000000 0.000000 3.886310 
# 
# 
# High freq. dielectric constant tensor:
#      x y z
#    x 1.690850 0.000000 0.000000 
#    y 0.000000 1.687550 0.000000 
#    z 0.000000 0.000000 1.747100 
# 
# From -- ./inp_files/2059.got.cif
#   From: 2010.03.12/outbox.cif.g09.slc.cpg/sg47_2_cif.got.tgz:2059.got - 2010.04.14 03:12:58.
