data_PCOD8198165
_publ_section_title
;
Structure prediction by ZEFSAII (Michael W. Deem and Ramdas Pophale) SiO2 
 PCOD8198165
Probable space group: P M M M
;
_chemical_formula_sum "Si O2"
_cell_formula_units_Z 64
_cell_length_a 19.407850
_cell_length_b 19.365555
_cell_length_c 8.900979
_cell_angle_alpha 90.000000
_cell_angle_beta 90.000000
_cell_angle_gamma 90.000000
_cell_volume 3345.377652
_symmetry_space_group_name_H-M "P M M M"
_symmetry_group_IT_number 47
_symmetry_cell_setting 'orthorhombic'
loop_
_space_group_symop_operation_xyz
x,y,z
-x,-y,z
x,-y,-z
-x,y,-z
-x,-y,-z
x,y,-z
-x,y,z
x,-y,z
loop_
_atom_site_type_symbol
_atom_site_label
_atom_site_fract_x
_atom_site_fract_y
_atom_site_fract_z
Si Si1 0.806700 0.822824 0.322383
Si Si2 0.075202 0.423329 0.678728
Si Si3 0.198564 0.665291 0.321868
Si Si4 0.580845 0.076740 0.333657
Si Si5 0.334394 0.818323 0.826076
Si Si6 0.079010 0.920843 0.176960
Si Si7 0.680926 0.578628 0.175552
Si Si8 0.423025 0.309038 0.175848
O O1 0.810730 0.829961 0.500000
O O2 0.810885 0.743542 0.267522
O O3 0.732116 0.845805 0.264017
O O4 0.868625 0.868457 0.256522
O O5 0.077311 0.423183 0.500000
O O6 0.091284 0.500000 0.738822
O O7 0.131540 0.372215 0.745213
O O8 0.000000 0.399055 0.734917
O O9 0.203919 0.660672 0.500000
O O10 0.264122 0.626851 0.256075
O O11 0.600434 0.105736 0.500000
O O12 0.500000 0.075107 0.314387
O O13 0.609546 0.122681 0.198941
O O14 0.611227 0.000000 0.316289
O O15 0.368472 0.747504 0.760146
O O16 0.314953 0.810336 0.000000
O O17 0.000000 0.902974 0.223274
O O18 0.095746 0.000000 0.224433
O O19 0.088174 0.912437 0.000000
O O20 0.680508 0.500000 0.238898
O O21 0.606553 0.614022 0.206586
O O22 0.697914 0.578137 0.000000
O O23 0.500000 0.302992 0.248454
O O24 0.429614 0.294503 0.000000
#
# Coordination Sequence:
#
# PCOD8198165 Si02
#       8
#     8   8   8   8   8   8   8   8
#     4  11  23  36  55  84 115 148 188 232 280 331
#     4   8  14  26  46  72 100 132 172 215 258 306
#     4  10  20  34  53  77 108 145 183 226 273 327
#     4   9  19  36  56  79 110 145 178 219 275 336
#     4  11  21  35  56  79 109 148 187 235 283 330
#     4   9  20  41  66  89 115 150 191 232 277 331
#     4  10  20  34  54  79 107 142 182 228 285 343
#     4   9  18  33  53  78 106 138 180 230 284 338
#
# _framework density 19.130873000000001
#
# number of rings (size 3 to 8) (size 9 to 14) (size 15 to 20)
#    0.000    2.375    1.250    2.625    0.000    4.000 
#    0.000    3.750    0.000    1.500    0.000    2.625 
#    0.000    0.000    0.000    0.000    0.000    0.000 
#
# Total GULP energy -793193.834723 kJ/mol
# GULP energy per Si atom -12393.653668 kJ/mol
# Density = 1.908733 g / cm^3
# Si number density = 19.130873 Si / 1000 Ang^3
#
#
#
# Elastic Constant Matrix: (Units=GPa)
#
#
# Indices 1 2 3 4 5 6 
#
# 1 115.5918 68.5926 30.5781 0.0000 0.0000 0.0000
# 2 68.5926 126.8451 34.1470 0.0000 0.0000 0.0000
# 3 30.5781 34.1470 34.2081 0.0000 0.0000 0.0000
# 4 0.0000 0.0000 0.0000 18.7857 0.0000 0.0000
# 5 0.0000 0.0000 0.0000 0.0000 26.3228 0.0000
# 6 0.0000 0.0000 0.0000 0.0000 0.0000 33.7985
#
#
#
# Elastic Compliance Matrix: (Units=1/GPa)
#
#
# Indices 1 2 3 4 5 6 
#
# 1 0.013768 -0.005650 -0.006666 0.000000 0.000000 0.000000
# 2 -0.005650 0.013100 -0.008025 0.000000 0.000000 0.000000
# 3 -0.006666 -0.008025 0.043203 0.000000 0.000000 0.000000
# 4 0.000000 0.000000 0.000000 0.053232 0.000000 0.000000
# 5 0.000000 0.000000 0.000000 0.000000 0.037990 0.000000
# 6 0.000000 0.000000 0.000000 0.000000 0.000000 0.029587
#
#
# Mechanical properties :
#
#
# Convention : Reuss Voigt Hill
#
# Bulk Modulus (GPa) = 34.03010 60.36451 47.19730
# Shear Modulus (GPa) = 20.71609 25.33657 23.02633
#
# Velocity S-wave (km/s) = 3.29426 3.64315 3.47309
# Velocity P-wave (km/s) = 5.68297 7.02273 6.38807
#
# Compressibility (1/GPa) = 0.02938575
#
# Stress axis : x y z
#
# Youngs Moduli (GPa) = 72.63459 76.33856 23.14661
#
# Poissons Ratio (x) = 0.43134 0.15430
# Poissons Ratio (y) = 0.41041 0.18576
# Poissons Ratio (z) = 0.48421 0.61265
#
# Static dielectric constant tensor:
#      x y z
#    x 3.686260 0.000000 0.000000 
#    y 0.000000 3.713940 0.000000 
#    z 0.000000 0.000000 3.172010 
# 
# 
# High freq. dielectric constant tensor:
#      x y z
#    x 1.751960 0.000000 0.000000 
#    y 0.000000 1.750070 0.000000 
#    z 0.000000 0.000000 1.711820 
# 
# From -- ./inp_files/9944.got.cif
#   From: 2010.03.12/outbox.cif.g09.slc.cpg/sg47_5_cif.got.tgz:9944.got - 2010.04.14 03:12:58.
