data_PCOD8198714
_publ_section_title
;
Structure prediction by ZEFSAII (Michael W. Deem and Ramdas Pophale) SiO2 
 PCOD8198714
Probable space group: P M M M
;
_chemical_formula_sum "Si O2"
_cell_formula_units_Z 48
_cell_length_a 31.086724
_cell_length_b 9.269377
_cell_length_c 9.056243
_cell_angle_alpha 90.000000
_cell_angle_beta 90.000000
_cell_angle_gamma 90.000000
_cell_volume 2609.597757
_symmetry_space_group_name_H-M "P M M M"
_symmetry_group_IT_number 47
_symmetry_cell_setting 'orthorhombic'
loop_
_space_group_symop_operation_xyz
x,y,z
-x,-y,z
x,-y,-z
-x,y,-z
-x,-y,-z
x,y,-z
-x,y,z
x,-y,z
loop_
_atom_site_type_symbol
_atom_site_label
_atom_site_fract_x
_atom_site_fract_y
_atom_site_fract_z
Si Si1 0.000000 0.169673 0.673025
Si Si2 0.417592 0.834278 0.673767
Si Si3 0.668354 0.166649 0.172223
Si Si4 0.247805 0.668888 0.829005
Si Si5 0.500000 0.337112 0.675911
Si Si6 0.163441 0.328766 0.665995
Si Si7 0.077447 0.668807 0.173214
O O1 0.958341 0.239050 0.745665
O O2 0.000000 0.204546 0.500000
O O3 0.000000 0.000000 0.704533
O O4 0.412901 0.815744 0.500000
O O5 0.374024 0.774285 0.746521
O O6 0.457606 0.742985 0.736367
O O7 0.425558 0.000000 0.718437
O O8 0.709575 0.253291 0.231478
O O9 0.676026 0.000000 0.210198
O O10 0.661614 0.193794 0.000000
O O11 0.253996 0.500000 0.802924
O O12 0.207116 0.730877 0.739182
O O13 0.239788 0.705242 0.000000
O O14 0.500000 0.500000 0.735722
O O15 0.500000 0.331926 0.500000
O O16 0.159044 0.267296 0.500000
O O17 0.165261 0.500000 0.664450
O O18 0.123088 0.277998 0.763371
O O19 0.069501 0.500000 0.205503
O O20 0.076160 0.701142 0.000000
#
# Coordination Sequence:
#
# PCOD8198714 Si02
#       7
#     4   8   8   8   4   8   8
#     4  11  24  39  54  76 108 141 172 211 260 308
#     4   9  17  30  48  67  88 118 155 191 228 274
#     4   9  18  32  48  67  93 124 157 193 234 281
#     4   9  17  30  48  69  94 125 159 195 237 285
#     4   9  17  29  46  69  94 118 148 189 234 278
#     4   9  17  30  50  76 103 130 163 205 249 291
#     4  10  20  35  57  82 105 134 175 216 253 301
#
# _framework density 18.393639
#
# number of rings (size 3 to 8) (size 9 to 14) (size 15 to 20)
#    0.000    2.667    0.000    1.750    0.000    7.000 
#    0.000    1.250    0.000    5.500    0.000    0.000 
#    0.000    0.000    0.000    0.000    0.000    0.000 
#
# Total GULP energy -595250.154628 kJ/mol
# GULP energy per Si atom -12401.044888 kJ/mol
# Density = 1.835177 g / cm^3
# Si number density = 18.393639 Si / 1000 Ang^3
#
#
#
# Elastic Constant Matrix: (Units=GPa)
#
#
# Indices 1 2 3 4 5 6 
#
# 1 206.8388 73.2624 76.1792 0.0000 0.0000 0.0000
# 2 73.2624 64.2726 43.3758 0.0000 0.0000 0.0000
# 3 76.1792 43.3758 85.4101 0.0000 0.0000 0.0000
# 4 0.0000 0.0000 0.0000 18.6970 0.0000 0.0000
# 5 0.0000 0.0000 0.0000 0.0000 37.2026 0.0000
# 6 0.0000 0.0000 0.0000 0.0000 0.0000 2.2899
#
#
#
# Elastic Compliance Matrix: (Units=1/GPa)
#
#
# Indices 1 2 3 4 5 6 
#
# 1 0.009042 -0.007400 -0.004306 0.000000 0.000000 0.000000
# 2 -0.007400 0.029729 -0.008497 0.000000 0.000000 0.000000
# 3 -0.004306 -0.008497 0.019865 0.000000 0.000000 0.000000
# 4 0.000000 0.000000 0.000000 0.053485 0.000000 0.000000
# 5 0.000000 0.000000 0.000000 0.000000 0.026880 0.000000
# 6 0.000000 0.000000 0.000000 0.000000 0.000000 0.436708
#
#
# Mechanical properties :
#
#
# Convention : Reuss Voigt Hill
#
# Bulk Modulus (GPa) = 54.86324 82.46181 68.66253
# Shear Modulus (GPa) = 8.03610 22.55149 15.29380
#
# Velocity S-wave (km/s) = 2.09247 3.50530 2.88665
# Velocity P-wave (km/s) = 5.97745 7.83019 6.96569
#
# Compressibility (1/GPa) = 0.01822714
#
# Stress axis : x y z
#
# Youngs Moduli (GPa) = 110.59540 33.63737 50.34076
#
# Poissons Ratio (x) = 0.24893 0.21679
# Poissons Ratio (y) = 0.81845 0.42776
# Poissons Ratio (z) = 0.47627 0.28583
#
# Static dielectric constant tensor:
#      x y z
#    x 3.701550 0.000000 0.000000 
#    y 0.000000 3.204060 0.000000 
#    z 0.000000 0.000000 3.347630 
# 
# 
# High freq. dielectric constant tensor:
#      x y z
#    x 1.731100 0.000000 0.000000 
#    y 0.000000 1.686870 0.000000 
#    z 0.000000 0.000000 1.705240 
# 
# From -- ./inp_files/13942.got.cif
#   From: 2010.03.12/outbox.cif.g09.slc.cpg/sg47_7_cif.got.tgz:13942.got - 2010.04.14 03:12:58.
