data_PCOD8198254
_publ_section_title
;
Structure prediction by ZEFSAII (Michael W. Deem and Ramdas Pophale) SiO2 
 PCOD8198254
Probable space group: P M M M
;
_chemical_formula_sum "Si O2"
_cell_formula_units_Z 40
_cell_length_a 12.685730
_cell_length_b 18.483580
_cell_length_c 9.126982
_cell_angle_alpha 90.000000
_cell_angle_beta 90.000000
_cell_angle_gamma 90.000000
_cell_volume 2140.073796
_symmetry_space_group_name_H-M "P M M M"
_symmetry_group_IT_number 47
_symmetry_cell_setting 'orthorhombic'
loop_
_space_group_symop_operation_xyz
x,y,z
-x,-y,z
x,-y,-z
-x,y,-z
-x,-y,-z
x,y,-z
-x,y,z
x,-y,z
loop_
_atom_site_type_symbol
_atom_site_label
_atom_site_fract_x
_atom_site_fract_y
_atom_site_fract_z
Si Si1 0.796921 0.580822 0.673895
Si Si2 0.000000 0.334406 0.325273
Si Si3 0.798085 0.916494 0.330470
Si Si4 0.621054 0.163703 0.828016
Si Si5 0.000000 0.829314 0.325708
Si Si6 0.620387 0.310486 0.329859
O O1 0.804182 0.576223 0.500000
O O2 0.794553 0.500000 0.740897
O O3 0.897725 0.623923 0.735623
O O4 0.691195 0.622340 0.722600
O O5 0.000000 0.252494 0.264941
O O6 0.000000 0.332785 0.500000
O O7 0.776551 0.898424 0.500000
O O8 0.692826 0.898800 0.240276
O O9 0.895600 0.869791 0.267762
O O10 0.826914 0.000000 0.308150
O O11 0.500000 0.145759 0.788624
O O12 0.654827 0.240391 0.760441
O O13 0.639310 0.167221 0.000000
O O14 0.000000 0.831957 0.500000
O O15 0.639907 0.292552 0.500000
O O16 0.500000 0.332330 0.298642
#
# Coordination Sequence:
#
# PCOD8198254 Si02
#       6
#     8   4   8   8   4   8
#     4   9  16  25  40  67 101 130 157 195 244 293
#     4   9  15  23  39  64  96 131 160 190 234 289
#     4  10  20  34  54  79 105 132 164 205 252 301
#     4  10  21  36  53  73 100 135 172 210 252 298
#     4   9  17  31  52  77 104 133 166 204 248 297
#     4   9  17  30  49  71  95 126 165 207 248 292
#
# _framework density 18.690943999999998
#
# number of rings (size 3 to 8) (size 9 to 14) (size 15 to 20)
#    0.000    2.600    0.000    2.400    0.000    8.000 
#    0.000    4.500    0.000    1.800    0.000    2.800 
#    0.000    3.200    0.000    0.000    0.000    0.000 
#
# Total GULP energy -496057.877971 kJ/mol
# GULP energy per Si atom -12401.446949 kJ/mol
# Density = 1.864840 g / cm^3
# Si number density = 18.690944 Si / 1000 Ang^3
#
#
#
# Elastic Constant Matrix: (Units=GPa)
#
#
# Indices 1 2 3 4 5 6 
#
# 1 118.4859 67.1839 28.5035 0.0000 0.0000 0.0000
# 2 67.1839 127.6865 26.9913 0.0000 0.0000 0.0000
# 3 28.5035 26.9913 35.9390 0.0000 0.0000 0.0000
# 4 0.0000 0.0000 0.0000 6.0853 0.0000 0.0000
# 5 0.0000 0.0000 0.0000 0.0000 13.0314 0.0000
# 6 0.0000 0.0000 0.0000 0.0000 0.0000 36.3916
#
#
#
# Elastic Compliance Matrix: (Units=1/GPa)
#
#
# Indices 1 2 3 4 5 6 
#
# 1 0.013094 -0.005580 -0.006194 0.000000 0.000000 0.000000
# 2 -0.005580 0.011688 -0.004352 0.000000 0.000000 0.000000
# 3 -0.006194 -0.004352 0.036006 0.000000 0.000000 0.000000
# 4 0.000000 0.000000 0.000000 0.164330 0.000000 0.000000
# 5 0.000000 0.000000 0.000000 0.000000 0.076738 0.000000
# 6 0.000000 0.000000 0.000000 0.000000 0.000000 0.027479
#
#
# Mechanical properties :
#
#
# Convention : Reuss Voigt Hill
#
# Bulk Modulus (GPa) = 35.04465 58.60766 46.82615
# Shear Modulus (GPa) = 13.47348 21.73050 17.60199
#
# Velocity S-wave (km/s) = 2.68779 3.41342 3.07211
# Velocity P-wave (km/s) = 5.33128 6.85270 6.13930
#
# Compressibility (1/GPa) = 0.02853503
#
# Stress axis : x y z
#
# Youngs Moduli (GPa) = 76.37085 85.55933 27.77304
#
# Poissons Ratio (x) = 0.47744 0.17203
# Poissons Ratio (y) = 0.42617 0.12087
# Poissons Ratio (z) = 0.47304 0.37237
#
# Static dielectric constant tensor:
#      x y z
#    x 3.586800 0.000000 0.000000 
#    y 0.000000 3.548510 0.000000 
#    z 0.000000 0.000000 2.956870 
# 
# 
# High freq. dielectric constant tensor:
#      x y z
#    x 1.739680 0.000000 0.000000 
#    y 0.000000 1.732270 0.000000 
#    z 0.000000 0.000000 1.669800 
# 
# From -- ./inp_files/4123.got.cif
#   From: 2010.03.12/outbox.cif.g09.slc.cpg/sg47_3_cif.got.tgz:4123.got - 2010.04.14 03:12:58.
