data_PCOD8198728
_publ_section_title
;
Structure prediction by ZEFSAII (Michael W. Deem and Ramdas Pophale) SiO2 
 PCOD8198728
Probable space group: P M M M
;
_chemical_formula_sum "Si O2"
_cell_formula_units_Z 40
_cell_length_a 9.117764
_cell_length_b 8.999954
_cell_length_c 26.007899
_cell_angle_alpha 90.000000
_cell_angle_beta 90.000000
_cell_angle_gamma 90.000000
_cell_volume 2134.194059
_symmetry_space_group_name_H-M "P M M M"
_symmetry_group_IT_number 47
_symmetry_cell_setting 'orthorhombic'
loop_
_space_group_symop_operation_xyz
x,y,z
-x,-y,z
x,-y,-z
-x,y,-z
-x,-y,-z
x,y,-z
-x,y,z
x,-y,z
loop_
_atom_site_type_symbol
_atom_site_label
_atom_site_fract_x
_atom_site_fract_y
_atom_site_fract_z
Si Si1 0.329305 0.326615 0.700901
Si Si2 0.674245 0.832785 0.802771
Si Si3 0.665742 0.322672 0.500000
Si Si4 0.165503 0.323030 0.400267
Si Si5 0.827460 0.172609 0.000000
Si Si6 0.671693 0.673690 0.905561
O O1 0.500000 0.293619 0.691751
O O2 0.300951 0.500000 0.709930
O O3 0.266167 0.241696 0.750623
O O4 0.243258 0.265211 0.651410
O O5 0.500000 0.831210 0.801333
O O6 0.729073 0.738845 0.851556
O O7 0.735559 0.000000 0.807029
O O8 0.666899 0.500000 0.500000
O O9 0.500000 0.262093 0.500000
O O10 0.747896 0.260491 0.550384
O O11 0.167905 0.500000 0.401257
O O12 0.000000 0.262071 0.401940
O O13 0.760615 0.247110 0.050045
O O14 0.000000 0.199092 0.000000
O O15 0.785932 0.000000 0.000000
O O16 0.500000 0.705878 0.913736
O O17 0.705754 0.500000 0.906568
#
# Coordination Sequence:
#
# PCOD8198728 Si02
#       6
#     8   8   4   8   4   8
#     4   9  16  27  44  66  92 122 157 197 239 285
#     4   9  17  30  50  75 100 127 162 205 250 294
#     4   9  15  23  37  59  88 121 156 195 240 288
#     4   9  16  25  38  59  89 123 157 194 238 288
#     4  11  24  39  54  76 108 143 176 211 254 304
#     4  10  20  35  57  83 107 134 172 215 257 303
#
# _framework density 18.742438
#
# number of rings (size 3 to 8) (size 9 to 14) (size 15 to 20)
#    0.000    2.600    0.000    2.700    0.000    9.200 
#    0.000    1.000    0.000    4.200    0.000    0.700 
#    0.000    5.600    0.000    0.000    0.000    0.000 
#
# Total GULP energy -496024.380788 kJ/mol
# GULP energy per Si atom -12400.609520 kJ/mol
# Density = 1.869978 g / cm^3
# Si number density = 18.742438 Si / 1000 Ang^3
#
#
#
# Elastic Constant Matrix: (Units=GPa)
#
#
# Indices 1 2 3 4 5 6 
#
# 1 90.8018 44.1906 79.7672 0.0000 0.0000 0.0000
# 2 44.1906 86.1671 71.8353 0.0000 0.0000 0.0000
# 3 79.7672 71.8353 215.3674 0.0000 0.0000 0.0000
# 4 0.0000 0.0000 0.0000 -3.4828 0.0000 0.0000
# 5 0.0000 0.0000 0.0000 0.0000 -1.7380 0.0000
# 6 0.0000 0.0000 0.0000 0.0000 0.0000 14.0969
#
#
#
# Elastic Compliance Matrix: (Units=1/GPa)
#
#
# Indices 1 2 3 4 5 6 
#
# 1 0.017766 -0.005022 -0.004905 0.000000 0.000000 0.000000
# 2 -0.005022 0.017495 -0.003975 0.000000 0.000000 0.000000
# 3 -0.004905 -0.003975 0.007786 0.000000 0.000000 0.000000
# 4 0.000000 0.000000 0.000000 -0.287123 0.000000 0.000000
# 5 0.000000 0.000000 0.000000 0.000000 -0.575360 0.000000
# 6 0.000000 0.000000 0.000000 0.000000 0.000000 0.070938
#
#
# Mechanical properties :
#
#
# Convention : Reuss Voigt Hill
#
# Bulk Modulus (GPa) = 65.60791 87.10251 76.35521
# Shear Modulus (GPa) = -6.98703 14.87808 3.94553
#
# Velocity S-wave (km/s) = -1.93288 2.82053 1.45248
# Velocity P-wave (km/s) = 5.48631 7.56185 6.60610
#
# Compressibility (1/GPa) = 0.01524207
#
# Stress axis : x y z
#
# Youngs Moduli (GPa) = 56.28711 57.15887 128.43692
#
# Poissons Ratio (x) = 0.28706 0.62999
# Poissons Ratio (y) = 0.28268 0.51059
# Poissons Ratio (z) = 0.27609 0.22723
#
# Static dielectric constant tensor:
#      x y z
#    x 3.283820 0.000000 0.000000 
#    y 0.000000 3.211220 0.000000 
#    z 0.000000 0.000000 3.755550 
# 
# 
# High freq. dielectric constant tensor:
#      x y z
#    x 1.705020 0.000000 0.000000 
#    y 0.000000 1.697220 0.000000 
#    z 0.000000 0.000000 1.749330 
# 
# From -- ./inp_files/1875.got.cif
#   From: 2010.03.12/outbox.cif.g09.slc.cpg/sg47_1_cif.got.tgz:1875.got - 2010.04.14 03:12:58.
