data_PCOD8198918
_publ_section_title
;
Structure prediction by ZEFSAII (Michael W. Deem and Ramdas Pophale) SiO2 
 PCOD8198918
Probable space group: P M M M
;
_chemical_formula_sum "Si O2"
_cell_formula_units_Z 48
_cell_length_a 17.450401
_cell_length_b 9.099450
_cell_length_c 15.770283
_cell_angle_alpha 90.000000
_cell_angle_beta 90.000000
_cell_angle_gamma 90.000000
_cell_volume 2504.148278
_symmetry_space_group_name_H-M "P M M M"
_symmetry_group_IT_number 47
_symmetry_cell_setting 'orthorhombic'
loop_
_space_group_symop_operation_xyz
x,y,z
-x,-y,z
x,-y,-z
-x,y,-z
-x,-y,-z
x,y,-z
-x,y,z
x,-y,z
loop_
_atom_site_type_symbol
_atom_site_label
_atom_site_fract_x
_atom_site_fract_y
_atom_site_fract_z
Si Si1 0.586652 0.826444 0.500000
Si Si2 0.690609 0.175519 0.341815
Si Si3 0.089285 0.842583 0.000000
Si Si4 0.668327 0.331451 0.168096
Si Si5 0.155016 0.661522 0.147556
Si Si6 0.000000 0.161533 0.597031
Si Si7 0.413070 0.673908 0.000000
Si Si8 0.147738 0.672803 0.659788
O O1 0.500000 0.759881 0.500000
O O2 0.631956 0.775579 0.584301
O O3 0.581174 0.000000 0.500000
O O4 0.656223 0.234921 0.252806
O O5 0.772673 0.247527 0.364262
O O6 0.700324 0.000000 0.336571
O O7 0.113050 0.769389 0.086269
O O8 0.000000 0.856879 0.000000
O O9 0.129715 0.000000 0.000000
O O10 0.644203 0.500000 0.188759
O O11 0.754836 0.324155 0.137567
O O12 0.622158 0.264128 0.087968
O O13 0.127896 0.500000 0.121378
O O14 0.129478 0.697558 0.242114
O O15 0.923797 0.255357 0.613431
O O16 0.000000 0.125044 0.500000
O O17 0.000000 0.000000 0.643814
O O18 0.400669 0.500000 0.000000
O O19 0.500000 0.723789 0.000000
O O20 0.155335 0.500000 0.637181
#
# Coordination Sequence:
#
# PCOD8198918 Si02
#       8
#     4   8   4   8   8   4   4   8
#     4   9  20  38  59  84 117 156 193 231 282 349
#     4  10  20  36  60  86 113 150 196 240 290 347
#     4  11  24  35  47  75 108 137 176 228 281 319
#     4   9  18  35  56  80 110 144 186 231 279 338
#     4   9  19  36  56  75 101 144 188 224 270 331
#     4  11  25  41  59  86 119 152 189 231 282 341
#     4   9  17  30  53  83 114 149 186 230 288 350
#     4  10  22  40  61  86 115 150 192 238 288 337
#
# _framework density 19.168194
#
# number of rings (size 3 to 8) (size 9 to 14) (size 15 to 20)
#    0.000    2.333    0.000    3.000    2.333    6.667 
#    0.000    1.667    0.000    4.000    0.000    0.000 
#    0.000    0.000    0.000    0.000    0.000    0.000 
#
# Total GULP energy -594976.274929 kJ/mol
# GULP energy per Si atom -12395.339061 kJ/mol
# Density = 1.912457 g / cm^3
# Si number density = 19.168194 Si / 1000 Ang^3
#
#
#
# Elastic Constant Matrix: (Units=GPa)
#
#
# Indices 1 2 3 4 5 6 
#
# 1 106.3377 53.6555 77.8447 0.0000 0.0000 0.0000
# 2 53.6555 99.7653 56.1062 0.0000 0.0000 0.0000
# 3 77.8447 56.1062 123.6690 0.0000 0.0000 0.0000
# 4 0.0000 0.0000 0.0000 12.8274 0.0000 0.0000
# 5 0.0000 0.0000 0.0000 0.0000 24.4933 0.0000
# 6 0.0000 0.0000 0.0000 0.0000 0.0000 34.6988
#
#
#
# Elastic Compliance Matrix: (Units=1/GPa)
#
#
# Indices 1 2 3 4 5 6 
#
# 1 0.018935 -0.004673 -0.009799 0.000000 0.000000 0.000000
# 2 -0.004673 0.014610 -0.003687 0.000000 0.000000 0.000000
# 3 -0.009799 -0.003687 0.015927 0.000000 0.000000 0.000000
# 4 0.000000 0.000000 0.000000 0.077958 0.000000 0.000000
# 5 0.000000 0.000000 0.000000 0.000000 0.040827 0.000000
# 6 0.000000 0.000000 0.000000 0.000000 0.000000 0.028819
#
#
# Mechanical properties :
#
#
# Convention : Reuss Voigt Hill
#
# Bulk Modulus (GPa) = 76.01899 78.33165 77.17532
# Shear Modulus (GPa) = 21.02791 23.88162 22.45476
#
# Velocity S-wave (km/s) = 3.31572 3.53356 3.42637
# Velocity P-wave (km/s) = 7.37589 7.58961 7.48351
#
# Compressibility (1/GPa) = 0.01315461
#
# Stress axis : x y z
#
# Youngs Moduli (GPa) = 52.81182 68.44550 62.78727
#
# Poissons Ratio (x) = 0.31984 0.61525
# Poissons Ratio (y) = 0.24679 0.23149
# Poissons Ratio (z) = 0.51750 0.25235
#
# Static dielectric constant tensor:
#      x y z
#    x 3.482390 0.000000 0.000000 
#    y 0.000000 3.574570 0.000000 
#    z 0.000000 0.000000 3.610630 
# 
# 
# High freq. dielectric constant tensor:
#      x y z
#    x 1.744400 0.000000 0.000000 
#    y 0.000000 1.736480 0.000000 
#    z 0.000000 0.000000 1.755830 
# 
# From -- ./inp_files/21181.got.cif
#   From: 2010.03.12/outbox.cif.g09.slc.cpg/sg47_11_cif.got.tgz:21181.got - 2010.04.14 03:12:58.
