data_PCOD8198973
_publ_section_title
;
Structure prediction by ZEFSAII (Michael W. Deem and Ramdas Pophale) SiO2 
 PCOD8198973
Probable space group: P M M M
;
_chemical_formula_sum "Si O2"
_cell_formula_units_Z 48
_cell_length_a 9.397263
_cell_length_b 9.582244
_cell_length_c 29.442151
_cell_angle_alpha 90.000000
_cell_angle_beta 90.000000
_cell_angle_gamma 90.000000
_cell_volume 2651.173455
_symmetry_space_group_name_H-M "P M M M"
_symmetry_group_IT_number 47
_symmetry_cell_setting 'orthorhombic'
loop_
_space_group_symop_operation_xyz
x,y,z
-x,-y,z
x,-y,-z
-x,y,-z
-x,-y,-z
x,y,-z
-x,y,z
x,-y,z
loop_
_atom_site_type_symbol
_atom_site_label
_atom_site_fract_x
_atom_site_fract_y
_atom_site_fract_z
Si Si1 0.334972 0.162581 0.796441
Si Si2 0.667531 0.000000 0.950679
Si Si3 0.340316 0.834334 0.549806
Si Si4 0.833614 0.160035 0.364804
Si Si5 0.664936 0.265406 0.103107
Si Si6 0.167770 0.662451 0.722232
Si Si7 0.831019 0.500000 0.947235
O O1 0.500000 0.168866 0.782608
O O2 0.309990 0.240740 0.843867
O O3 0.244102 0.251098 0.761326
O O4 0.285734 0.000000 0.798418
O O5 0.717676 0.870019 0.922421
O O6 0.500000 0.000000 0.956277
O O7 0.741638 0.000000 0.000000
O O8 0.288928 0.780205 0.500000
O O9 0.500000 0.780693 0.559254
O O10 0.239104 0.779188 0.589738
O O11 0.337018 0.000000 0.549653
O O12 0.787456 0.263245 0.324588
O O13 0.000000 0.165629 0.373577
O O14 0.786125 0.000000 0.353644
O O15 0.500000 0.305027 0.093624
O O16 0.770917 0.373978 0.081596
O O17 0.216238 0.500000 0.721762
O O18 0.000000 0.673912 0.730351
O O19 0.000000 0.500000 0.945504
O O20 0.778527 0.500000 0.000000
#
# Coordination Sequence:
#
# PCOD8198973 Si02
#       7
#     8   4   8   8   8   8   4
#     4  10  21  38  59  84 111 136 171 223 275 321
#     4   9  16  30  57  87 109 133 173 221 264 309
#     4   8  14  25  43  70 103 135 168 211 264 318
#     4   9  17  30  49  73 101 134 175 222 265 309
#     4  10  20  37  60  85 110 140 179 221 265 315
#     4  10  22  38  55  77 107 144 183 221 266 323
#     4  11  25  41  55  79 117 153 183 217 258 309
#
# _framework density 18.105187999999998
#
# number of rings (size 3 to 8) (size 9 to 14) (size 15 to 20)
#    0.000    2.500    0.833    1.750    1.167    4.333 
#    0.000    3.750    0.000    2.000    0.000    3.500 
#    0.000    0.000    0.000    0.000    0.000    0.000 
#
# Total GULP energy -594870.914720 kJ/mol
# GULP energy per Si atom -12393.144057 kJ/mol
# Density = 1.806398 g / cm^3
# Si number density = 18.105188 Si / 1000 Ang^3
#
#
#
# Elastic Constant Matrix: (Units=GPa)
#
#
# Indices 1 2 3 4 5 6 
#
# 1 53.3210 44.9442 60.1842 0.0000 0.0000 0.0000
# 2 44.9442 113.9133 65.9241 0.0000 0.0000 0.0000
# 3 60.1842 65.9241 152.4246 0.0000 0.0000 0.0000
# 4 0.0000 0.0000 0.0000 19.3268 0.0000 0.0000
# 5 0.0000 0.0000 0.0000 0.0000 34.2070 0.0000
# 6 0.0000 0.0000 0.0000 0.0000 0.0000 18.8032
#
#
#
# Elastic Compliance Matrix: (Units=1/GPa)
#
#
# Indices 1 2 3 4 5 6 
#
# 1 0.039419 -0.008730 -0.011789 0.000000 0.000000 0.000000
# 2 -0.008730 0.013643 -0.002454 0.000000 0.000000 0.000000
# 3 -0.011789 -0.002454 0.012276 0.000000 0.000000 0.000000
# 4 0.000000 0.000000 0.000000 0.051742 0.000000 0.000000
# 5 0.000000 0.000000 0.000000 0.000000 0.029234 0.000000
# 6 0.000000 0.000000 0.000000 0.000000 0.000000 0.053182
#
#
# Mechanical properties :
#
#
# Convention : Reuss Voigt Hill
#
# Bulk Modulus (GPa) = 51.56322 73.52932 62.54627
# Shear Modulus (GPa) = 19.84870 24.37449 22.11160
#
# Velocity S-wave (km/s) = 3.31463 3.67314 3.49848
# Velocity P-wave (km/s) = 6.57196 7.66092 7.13724
#
# Compressibility (1/GPa) = 0.01939367
#
# Stress axis : x y z
#
# Youngs Moduli (GPa) = 25.36847 73.29741 81.45702
#
# Poissons Ratio (x) = 0.63991 0.96026
# Poissons Ratio (y) = 0.22148 0.19986
# Poissons Ratio (z) = 0.29906 0.17984
#
# Static dielectric constant tensor:
#      x y z
#    x 3.215490 0.000000 0.000000 
#    y 0.000000 3.166310 0.000000 
#    z 0.000000 0.000000 3.702790 
# 
# 
# High freq. dielectric constant tensor:
#      x y z
#    x 1.684660 0.000000 0.000000 
#    y 0.000000 1.690050 0.000000 
#    z 0.000000 0.000000 1.717950 
# 
# From -- ./inp_files/34087.got.cif
#   From: 2010.03.12/outbox.cif.g09.slc.cpg/sg47_18_cif.got.tgz:34087.got - 2010.04.14 03:12:58.
