data_PCOD8198426
_publ_section_title
;
Structure prediction by ZEFSAII (Michael W. Deem and Ramdas Pophale) SiO2 
 PCOD8198426
Probable space group: P M M M
;
_chemical_formula_sum "Si O2"
_cell_formula_units_Z 64
_cell_length_a 9.011248
_cell_length_b 18.575226
_cell_length_c 20.147599
_cell_angle_alpha 90.000000
_cell_angle_beta 90.000000
_cell_angle_gamma 90.000000
_cell_volume 3372.425364
_symmetry_space_group_name_H-M "P M M M"
_symmetry_group_IT_number 47
_symmetry_cell_setting 'orthorhombic'
loop_
_space_group_symop_operation_xyz
x,y,z
-x,-y,z
x,-y,-z
-x,y,-z
-x,-y,-z
x,y,-z
-x,y,z
x,-y,z
loop_
_atom_site_type_symbol
_atom_site_label
_atom_site_fract_x
_atom_site_fract_y
_atom_site_fract_z
Si Si1 0.324420 0.331423 0.197914
Si Si2 0.327624 0.328065 0.577382
Si Si3 0.172915 0.180820 0.576882
Si Si4 0.825942 0.416793 0.684188
Si Si5 0.674041 0.833788 0.810280
Si Si6 0.676185 0.580562 0.073134
Si Si7 0.672918 0.083879 0.320493
Si Si8 0.174367 0.081234 0.924616
O O1 0.500000 0.342281 0.206561
O O2 0.242315 0.370812 0.256985
O O3 0.278411 0.248445 0.199753
O O4 0.264919 0.364550 0.128632
O O5 0.301058 0.341821 0.500000
O O6 0.500000 0.325807 0.596222
O O7 0.257218 0.252592 0.600308
O O8 0.248492 0.393176 0.615187
O O9 0.204611 0.164495 0.500000
O O10 0.234558 0.113400 0.617575
O O11 0.000000 0.191690 0.591093
O O12 0.788928 0.500000 0.696592
O O13 0.000000 0.402479 0.679776
O O14 0.500000 0.842032 0.819533
O O15 0.729666 0.878368 0.746683
O O16 0.747131 0.862729 0.876850
O O17 0.500000 0.580725 0.072864
O O18 0.733733 0.500000 0.089570
O O19 0.734257 0.604329 0.000000
O O20 0.500000 0.099762 0.332933
O O21 0.706338 0.000000 0.313630
O O22 0.000000 0.087495 0.914479
O O23 0.227097 0.000000 0.908155
O O24 0.218294 0.100861 0.000000
#
# Coordination Sequence:
#
# PCOD8198426 Si02
#       8
#     8   8   8   8   8   8   8   8
#     4  10  20  34  55  81 108 141 182 227 271 320
#     4  10  21  38  61  86 111 142 181 222 265 320
#     4  10  21  37  58  84 113 143 176 219 272 328
#     4  11  24  39  56  81 113 147 183 225 271 319
#     4  10  21  35  53  80 109 137 176 227 277 322
#     4   8  14  26  46  73 104 137 174 217 264 313
#     4  10  21  36  53  75 107 146 187 231 276 324
#     4   9  19  36  56  78 106 142 183 223 266 323
#
# _framework density 18.977440000000001
#
# number of rings (size 3 to 8) (size 9 to 14) (size 15 to 20)
#    0.000    2.250    0.000    3.375    0.000    7.250 
#    0.000    4.375    0.000    0.375    0.000    1.750 
#    0.000    0.000    0.000    0.000    0.000    0.000 
#
# Total GULP energy -793780.844896 kJ/mol
# GULP energy per Si atom -12402.825702 kJ/mol
# Density = 1.893425 g / cm^3
# Si number density = 18.977440 Si / 1000 Ang^3
#
#
#
# Elastic Constant Matrix: (Units=GPa)
#
#
# Indices 1 2 3 4 5 6 
#
# 1 66.8479 63.1379 53.4859 0.0000 0.0000 0.0000
# 2 63.1379 141.7350 84.7570 0.0000 0.0000 0.0000
# 3 53.4859 84.7570 122.7535 0.0000 0.0000 0.0000
# 4 0.0000 0.0000 0.0000 42.9689 0.0000 0.0000
# 5 0.0000 0.0000 0.0000 0.0000 30.3774 0.0000
# 6 0.0000 0.0000 0.0000 0.0000 0.0000 24.6154
#
#
#
# Elastic Compliance Matrix: (Units=1/GPa)
#
#
# Indices 1 2 3 4 5 6 
#
# 1 0.028337 -0.008925 -0.006185 0.000000 0.000000 0.000000
# 2 -0.008925 0.014828 -0.006350 0.000000 0.000000 0.000000
# 3 -0.006185 -0.006350 0.015225 0.000000 0.000000 0.000000
# 4 0.000000 0.000000 0.000000 0.023273 0.000000 0.000000
# 5 0.000000 0.000000 0.000000 0.000000 0.032919 0.000000
# 6 0.000000 0.000000 0.000000 0.000000 0.000000 0.040625
#
#
# Mechanical properties :
#
#
# Convention : Reuss Voigt Hill
#
# Bulk Modulus (GPa) = 64.63098 81.56645 73.09872
# Shear Modulus (GPa) = 24.59616 28.25605 26.42611
#
# Velocity S-wave (km/s) = 3.60401 3.86285 3.73567
# Velocity P-wave (km/s) = 7.17281 7.93533 7.56369
#
# Compressibility (1/GPa) = 0.01547246
#
# Stress axis : x y z
#
# Youngs Moduli (GPa) = 35.28908 67.43930 65.67944
#
# Poissons Ratio (x) = 0.60188 0.40622
# Poissons Ratio (y) = 0.31495 0.41704
# Poissons Ratio (z) = 0.21826 0.42822
#
# Static dielectric constant tensor:
#      x y z
#    x 3.298960 0.000000 0.000000 
#    y 0.000000 3.574260 0.000000 
#    z 0.000000 0.000000 3.689510 
# 
# 
# High freq. dielectric constant tensor:
#      x y z
#    x 1.721900 0.000000 0.000000 
#    y 0.000000 1.741350 0.000000 
#    z 0.000000 0.000000 1.750500 
# 
# From -- ./inp_files/27044.got.cif
#   From: 2010.03.12/outbox.cif.g09.slc.cpg/sg47_14_cif.got.tgz:27044.got - 2010.04.14 03:12:58.
