data_PCOD8198338
_publ_section_title
;
Structure prediction by ZEFSAII (Michael W. Deem and Ramdas Pophale) SiO2 
 PCOD8198338
Probable space group: P M M M
;
_chemical_formula_sum "Si O2"
_cell_formula_units_Z 48
_cell_length_a 31.100525
_cell_length_b 8.933090
_cell_length_c 9.176851
_cell_angle_alpha 90.000000
_cell_angle_beta 90.000000
_cell_angle_gamma 90.000000
_cell_volume 2549.547515
_symmetry_space_group_name_H-M "P M M M"
_symmetry_group_IT_number 47
_symmetry_cell_setting 'orthorhombic'
loop_
_space_group_symop_operation_xyz
x,y,z
-x,-y,z
x,-y,-z
-x,y,-z
-x,-y,-z
x,y,-z
-x,y,z
x,-y,z
loop_
_atom_site_type_symbol
_atom_site_label
_atom_site_fract_x
_atom_site_fract_y
_atom_site_fract_z
Si Si1 0.500000 0.831077 0.326568
Si Si2 0.170518 0.828117 0.671929
Si Si3 0.093141 0.321817 0.831967
Si Si4 0.000000 0.337188 0.171780
Si Si5 0.414326 0.670607 0.327077
Si Si6 0.336532 0.824534 0.832071
Si Si7 0.751759 0.675215 0.832047
O O1 0.500000 0.830872 0.500000
O O2 0.457909 0.746302 0.267441
O O3 0.500000 0.000000 0.265452
O O4 0.171142 0.810210 0.500000
O O5 0.125943 0.763456 0.729614
O O6 0.209434 0.733893 0.736189
O O7 0.175200 0.000000 0.720360
O O8 0.095845 0.500000 0.807040
O O9 0.045358 0.258292 0.786929
O O10 0.103659 0.284217 0.000000
O O11 0.000000 0.500000 0.247249
O O12 0.000000 0.360965 0.000000
O O13 0.412190 0.680508 0.500000
O O14 0.413474 0.500000 0.272751
O O15 0.374159 0.758155 0.264275
O O16 0.291807 0.754020 0.779096
O O17 0.334058 0.000000 0.805291
O O18 0.345321 0.784111 0.000000
O O19 0.746334 0.500000 0.806655
O O20 0.761541 0.713554 0.000000
#
# Coordination Sequence:
#
# PCOD8198338 Si02
#       7
#     4   8   8   4   8   8   8
#     4   9  17  31  52  77 106 141 180 222 266 311
#     4  11  24  38  51  73 107 143 176 212 257 308
#     4   9  17  32  56  82 105 133 172 216 261 309
#     4   7  12  26  50  79 106 130 164 213 260 303
#     4  10  20  34  54  80 109 142 180 220 262 310
#     4  10  21  37  57  81 109 140 173 212 261 315
#     4  10  21  38  60  82 102 130 171 216 262 313
#
# _framework density 18.826871000000001
#
# number of rings (size 3 to 8) (size 9 to 14) (size 15 to 20)
#    0.000    2.333    0.000    3.750    0.000    8.333 
#    0.000    1.250    0.000    6.500    0.000    0.000 
#    0.000    0.000    0.000    0.000    0.000    0.000 
#
# Total GULP energy -595132.295409 kJ/mol
# GULP energy per Si atom -12398.589488 kJ/mol
# Density = 1.878402 g / cm^3
# Si number density = 18.826871 Si / 1000 Ang^3
#
#
#
# Elastic Constant Matrix: (Units=GPa)
#
#
# Indices 1 2 3 4 5 6 
#
# 1 160.4371 56.6865 38.4181 0.0000 0.0000 0.0000
# 2 56.6865 90.7955 30.5156 0.0000 0.0000 0.0000
# 3 38.4181 30.5156 38.2310 0.0000 0.0000 0.0000
# 4 0.0000 0.0000 0.0000 27.2334 0.0000 0.0000
# 5 0.0000 0.0000 0.0000 0.0000 36.0683 0.0000
# 6 0.0000 0.0000 0.0000 0.0000 0.0000 86.8325
#
#
#
# Elastic Compliance Matrix: (Units=1/GPa)
#
#
# Indices 1 2 3 4 5 6 
#
# 1 0.008957 -0.003508 -0.006201 0.000000 0.000000 0.000000
# 2 -0.003508 0.016426 -0.009585 0.000000 0.000000 0.000000
# 3 -0.006201 -0.009585 0.040039 0.000000 0.000000 0.000000
# 4 0.000000 0.000000 0.000000 0.036720 0.000000 0.000000
# 5 0.000000 0.000000 0.000000 0.000000 0.027725 0.000000
# 6 0.000000 0.000000 0.000000 0.000000 0.000000 0.011516
#
#
# Mechanical properties :
#
#
# Convention : Reuss Voigt Hill
#
# Bulk Modulus (GPa) = 37.26769 60.07821 48.67295
# Shear Modulus (GPa) = 26.46669 40.94973 33.70821
#
# Velocity S-wave (km/s) = 3.75346 4.66882 4.23594
# Velocity P-wave (km/s) = 6.21470 7.81307 7.05927
#
# Compressibility (1/GPa) = 0.02683290
#
# Stress axis : x y z
#
# Youngs Moduli (GPa) = 111.63923 60.88040 24.97567
#
# Poissons Ratio (x) = 0.21359 0.15487
# Poissons Ratio (y) = 0.39166 0.23940
# Poissons Ratio (z) = 0.69227 0.58356
#
# Static dielectric constant tensor:
#      x y z
#    x 3.814510 0.000000 0.000000 
#    y 0.000000 3.524190 0.000000 
#    z 0.000000 0.000000 3.196240 
# 
# 
# High freq. dielectric constant tensor:
#      x y z
#    x 1.753690 0.000000 0.000000 
#    y 0.000000 1.733060 0.000000 
#    z 0.000000 0.000000 1.703730 
# 
# From -- ./inp_files/2762.got.cif
#   From: 2010.03.12/outbox.cif.g09.slc.cpg/sg47_2_cif.got.tgz:2762.got - 2010.04.14 03:12:58.
