data_PCOD8198900
_publ_section_title
;
Structure prediction by ZEFSAII (Michael W. Deem and Ramdas Pophale) SiO2 
 PCOD8198900
Probable space group: P M M M
;
_chemical_formula_sum "Si O2"
_cell_formula_units_Z 52
_cell_length_a 28.214942
_cell_length_b 11.663748
_cell_length_c 8.952579
_cell_angle_alpha 90.000000
_cell_angle_beta 90.000000
_cell_angle_gamma 90.000000
_cell_volume 2946.221889
_symmetry_space_group_name_H-M "P M M M"
_symmetry_group_IT_number 47
_symmetry_cell_setting 'orthorhombic'
loop_
_space_group_symop_operation_xyz
x,y,z
-x,-y,z
x,-y,-z
-x,y,-z
-x,-y,-z
x,y,-z
-x,y,z
x,-y,z
loop_
_atom_site_type_symbol
_atom_site_label
_atom_site_fract_x
_atom_site_fract_y
_atom_site_fract_z
Si Si1 0.448666 0.363844 0.669244
Si Si2 0.791561 0.500000 0.675754
Si Si3 0.185522 0.867596 0.674106
Si Si4 0.643262 0.629444 0.172201
Si Si5 0.255745 0.288943 0.825527
Si Si6 0.108029 0.500000 0.823251
Si Si7 0.909505 0.732839 0.676429
Si Si8 0.000000 0.127026 0.322646
O O1 0.444760 0.322065 0.500000
O O2 0.500000 0.322537 0.734609
O O3 0.446370 0.500000 0.680626
O O4 0.403331 0.312703 0.754986
O O5 0.803604 0.500000 0.500000
O O6 0.762912 0.612070 0.718319
O O7 0.838263 0.500000 0.772697
O O8 0.197023 0.849816 0.500000
O O9 0.230892 0.828473 0.772113
O O10 0.139852 0.793225 0.722028
O O11 0.174892 0.000000 0.709740
O O12 0.654020 0.500000 0.233731
O O13 0.687682 0.713915 0.201504
O O14 0.631767 0.619852 0.000000
O O15 0.244557 0.313431 0.000000
O O16 0.083026 0.387386 0.758591
O O17 0.104071 0.500000 0.000000
O O18 0.911277 0.712236 0.500000
O O19 0.952665 0.810613 0.733514
O O20 0.000000 0.121087 0.500000
O O21 0.000000 0.000000 0.253648
#
# Coordination Sequence:
#
# PCOD8198900 Si02
#       8
#     8   4   8   8   8   4   8   4
#     4   8  14  24  37  56  85 122 164 207 248 292
#     4  12  22  34  53  77 103 135 173 212 257 309
#     4  10  21  36  54  77 104 135 174 215 253 302
#     4   9  17  28  41  62  93 128 166 205 246 295
#     4  11  21  34  51  74 105 137 171 212 256 306
#     4  12  24  37  55  80 111 141 171 212 259 310
#     4  10  20  36  59  84 109 138 174 214 257 307
#     4   9  18  35  61  88 110 137 176 221 262 299
#
# _framework density 17.649725
#
# number of rings (size 3 to 8) (size 9 to 14) (size 15 to 20)
#    0.000    2.077    2.308    2.769    0.000    4.000 
#    0.000    3.462    0.000    1.846    0.000    0.000 
#    0.000    0.615    0.000    6.769    0.000    5.231 
#
# Total GULP energy -644603.567980 kJ/mol
# GULP energy per Si atom -12396.222461 kJ/mol
# Density = 1.760955 g / cm^3
# Si number density = 17.649725 Si / 1000 Ang^3
#
#
#
# Elastic Constant Matrix: (Units=GPa)
#
#
# Indices 1 2 3 4 5 6 
#
# 1 145.3837 50.7905 46.4963 0.0000 0.0000 0.0000
# 2 50.7905 99.7992 37.1448 0.0000 0.0000 0.0000
# 3 46.4963 37.1448 52.9565 0.0000 0.0000 0.0000
# 4 0.0000 0.0000 0.0000 23.1485 0.0000 0.0000
# 5 0.0000 0.0000 0.0000 0.0000 22.2743 0.0000
# 6 0.0000 0.0000 0.0000 0.0000 0.0000 15.2094
#
#
#
# Elastic Compliance Matrix: (Units=1/GPa)
#
#
# Indices 1 2 3 4 5 6 
#
# 1 0.009992 -0.002463 -0.007046 0.000000 0.000000 0.000000
# 2 -0.002463 0.014167 -0.007775 0.000000 0.000000 0.000000
# 3 -0.007046 -0.007775 0.030523 0.000000 0.000000 0.000000
# 4 0.000000 0.000000 0.000000 0.043199 0.000000 0.000000
# 5 0.000000 0.000000 0.000000 0.000000 0.044895 0.000000
# 6 0.000000 0.000000 0.000000 0.000000 0.000000 0.065749
#
#
# Mechanical properties :
#
#
# Convention : Reuss Voigt Hill
#
# Bulk Modulus (GPa) = 49.71235 63.00028 56.35632
# Shear Modulus (GPa) = 20.01625 23.04030 21.52827
#
# Velocity S-wave (km/s) = 3.37127 3.61698 3.49628
# Velocity P-wave (km/s) = 6.58644 7.29491 6.94970
#
# Compressibility (1/GPa) = 0.02011572
#
# Stress axis : x y z
#
# Youngs Moduli (GPa) = 100.07912 70.58510 32.76222
#
# Poissons Ratio (x) = 0.17384 0.23083
# Poissons Ratio (y) = 0.24649 0.25472
# Poissons Ratio (z) = 0.70512 0.54878
#
# Static dielectric constant tensor:
#      x y z
#    x 3.621160 0.000000 0.000000 
#    y 0.000000 3.113550 0.000000 
#    z 0.000000 0.000000 3.171260 
# 
# 
# High freq. dielectric constant tensor:
#      x y z
#    x 1.692010 0.000000 0.000000 
#    y 0.000000 1.645240 0.000000 
#    z 0.000000 0.000000 1.671550 
# 
# From -- ./inp_files/13324.got.cif
#   From: 2010.03.12/outbox.cif.g09.slc.cpg/sg47_7_cif.got.tgz:13324.got - 2010.04.14 03:12:58.
