data_PCOD8198815
_publ_section_title
;
Structure prediction by ZEFSAII (Michael W. Deem and Ramdas Pophale) SiO2 
 PCOD8198815
Probable space group: P M M M
;
_chemical_formula_sum "Si O2"
_cell_formula_units_Z 40
_cell_length_a 8.007787
_cell_length_b 9.425196
_cell_length_c 26.978677
_cell_angle_alpha 90.000000
_cell_angle_beta 90.000000
_cell_angle_gamma 90.000000
_cell_volume 2036.214621
_symmetry_space_group_name_H-M "P M M M"
_symmetry_group_IT_number 47
_symmetry_cell_setting 'orthorhombic'
loop_
_space_group_symop_operation_xyz
x,y,z
-x,-y,z
x,-y,-z
-x,y,-z
-x,-y,-z
x,y,-z
-x,y,z
x,-y,z
loop_
_atom_site_type_symbol
_atom_site_label
_atom_site_fract_x
_atom_site_fract_y
_atom_site_fract_z
Si Si1 0.000000 0.331768 0.944671
Si Si2 0.687550 0.335527 0.879835
Si Si3 0.696929 0.655731 0.410072
Si Si4 0.304861 0.336086 0.700644
Si Si5 0.809266 0.837792 0.209478
Si Si6 0.805423 0.155301 0.500000
O O1 0.829910 0.279618 0.917681
O O2 0.000000 0.500000 0.947426
O O3 0.000000 0.266740 0.000000
O O4 0.500000 0.315806 0.902369
O O5 0.720154 0.500000 0.866842
O O6 0.695788 0.246766 0.829374
O O7 0.500000 0.645042 0.409842
O O8 0.770547 0.500000 0.423328
O O9 0.756183 0.701046 0.355115
O O10 0.753699 0.767057 0.450245
O O11 0.500000 0.305505 0.707134
O O12 0.264781 0.500000 0.712823
O O13 0.203897 0.233828 0.736863
O O14 0.000000 0.830050 0.191524
O O15 0.747131 0.000000 0.212578
O O16 0.000000 0.138908 0.500000
O O17 0.720418 0.000000 0.500000
#
# Coordination Sequence:
#
# PCOD8198815 Si02
#       6
#     4   8   8   8   8   4
#     4   9  18  34  57  87 121 151 185 236 289 332
#     4  10  20  35  58  85 113 150 193 234 281 338
#     4   9  19  37  59  80 102 132 175 224 271 325
#     4   9  19  36  57  81 107 136 175 224 277 332
#     4  11  23  36  52  78 113 151 188 228 276 330
#     4  11  24  37  50  74 108 141 174 217 268 324
#
# _framework density 19.644295
#
# number of rings (size 3 to 8) (size 9 to 14) (size 15 to 20)
#    0.000    2.200    1.000    3.000    0.000    8.800 
#    0.000    8.000    0.000    1.200    0.000    1.400 
#    0.000    0.000    0.000    0.000    0.000    0.000 
#
# Total GULP energy -495938.253675 kJ/mol
# GULP energy per Si atom -12398.456342 kJ/mol
# Density = 1.959958 g / cm^3
# Si number density = 19.644295 Si / 1000 Ang^3
#
#
#
# Elastic Constant Matrix: (Units=GPa)
#
#
# Indices 1 2 3 4 5 6 
#
# 1 84.0830 32.7142 45.7539 0.0000 0.0000 0.0000
# 2 32.7142 104.1008 69.5794 0.0000 0.0000 0.0000
# 3 45.7539 69.5794 141.9396 0.0000 0.0000 0.0000
# 4 0.0000 0.0000 0.0000 -1.2896 0.0000 0.0000
# 5 0.0000 0.0000 0.0000 0.0000 30.6965 0.0000
# 6 0.0000 0.0000 0.0000 0.0000 0.0000 23.4620
#
#
#
# Elastic Compliance Matrix: (Units=1/GPa)
#
#
# Indices 1 2 3 4 5 6 
#
# 1 0.014744 -0.002167 -0.003691 0.000000 0.000000 0.000000
# 2 -0.002167 0.014606 -0.006461 0.000000 0.000000 0.000000
# 3 -0.003691 -0.006461 0.011402 0.000000 0.000000 0.000000
# 4 0.000000 0.000000 0.000000 -0.775414 0.000000 0.000000
# 5 0.000000 0.000000 0.000000 0.000000 0.032577 0.000000
# 6 0.000000 0.000000 0.000000 0.000000 0.000000 0.042622
#
#
# Mechanical properties :
#
#
# Convention : Reuss Voigt Hill
#
# Bulk Modulus (GPa) = 62.05447 69.57982 65.81715
# Shear Modulus (GPa) = -7.94340 22.71217 7.38439
#
# Velocity S-wave (km/s) = -2.01306 3.40394 1.94093
# Velocity P-wave (km/s) = 5.12391 7.13764 6.21290
#
# Compressibility (1/GPa) = 0.01611487
#
# Stress axis : x y z
#
# Youngs Moduli (GPa) = 67.82292 68.46681 87.70161
#
# Poissons Ratio (x) = 0.14834 0.32368
# Poissons Ratio (y) = 0.14695 0.56667
# Poissons Ratio (z) = 0.25031 0.44239
#
# Static dielectric constant tensor:
#      x y z
#    x 3.557430 0.000000 0.000000 
#    y 0.000000 3.060160 0.000000 
#    z 0.000000 0.000000 3.534620 
# 
# 
# High freq. dielectric constant tensor:
#      x y z
#    x 1.766260 0.000000 0.000000 
#    y 0.000000 1.749070 0.000000 
#    z 0.000000 0.000000 1.764140 
# 
# From -- ./inp_files/1766.got.cif
#   From: 2010.03.12/outbox.cif.g09.slc.cpg/sg47_1_cif.got.tgz:1766.got - 2010.04.14 03:12:58.
