data_PCOD8198681
_publ_section_title
;
Structure prediction by ZEFSAII (Michael W. Deem and Ramdas Pophale) SiO2 
 PCOD8198681
Probable space group: P M M M
;
_chemical_formula_sum "Si O2"
_cell_formula_units_Z 40
_cell_length_a 9.032412
_cell_length_b 7.942253
_cell_length_c 27.133888
_cell_angle_alpha 90.000000
_cell_angle_beta 90.000000
_cell_angle_gamma 90.000000
_cell_volume 1946.522753
_symmetry_space_group_name_H-M "P M M M"
_symmetry_group_IT_number 47
_symmetry_cell_setting 'orthorhombic'
loop_
_space_group_symop_operation_xyz
x,y,z
-x,-y,z
x,-y,-z
-x,y,-z
-x,-y,-z
x,y,-z
-x,y,z
x,-y,z
loop_
_atom_site_type_symbol
_atom_site_label
_atom_site_fract_x
_atom_site_fract_y
_atom_site_fract_z
Si Si1 0.332191 0.308791 0.712321
Si Si2 0.832317 0.192712 0.805709
Si Si3 0.823952 0.500000 0.555142
Si Si4 0.828561 0.188008 0.380363
Si Si5 0.167046 0.700155 0.000000
Si Si6 0.671259 0.301460 0.902138
O O1 0.500000 0.246864 0.720262
O O2 0.326662 0.500000 0.693388
O O3 0.247991 0.300664 0.764028
O O4 0.256555 0.193496 0.671256
O O5 0.747450 0.209325 0.856857
O O6 0.000000 0.258828 0.812058
O O7 0.830217 0.000000 0.788695
O O8 0.757556 0.500000 0.500000
O O9 0.767006 0.669905 0.582218
O O10 0.000000 0.500000 0.552940
O O11 0.000000 0.223479 0.369031
O O12 0.806363 0.000000 0.403007
O O13 0.252010 0.766458 0.951802
O O14 0.167030 0.500000 0.000000
O O15 0.000000 0.771270 0.000000
O O16 0.500000 0.251054 0.904106
O O17 0.692718 0.500000 0.895953
#
# Coordination Sequence:
#
# PCOD8198681 Si02
#       6
#     8   8   4   8   4   8
#     4  11  23  38  58  84 113 148 190 235 287 347
#     4  11  24  39  55  79 111 146 185 230 282 341
#     4   9  18  34  57  87 123 159 197 246 297 342
#     4  10  20  35  58  87 118 155 198 242 293 351
#     4   9  17  31  54  81 108 141 182 228 280 337
#     4  10  20  35  56  82 110 141 181 229 281 338
#
# _framework density 20.549461999999998
#
# number of rings (size 3 to 8) (size 9 to 14) (size 15 to 20)
#    0.000    1.800    1.000    3.300    0.000   10.800 
#    0.000    2.500    0.000    4.200    0.000    1.400 
#    0.000    0.000    0.000    0.000    0.000    0.000 
#
# Total GULP energy -496133.579024 kJ/mol
# GULP energy per Si atom -12403.339476 kJ/mol
# Density = 2.050269 g / cm^3
# Si number density = 20.549462 Si / 1000 Ang^3
#
#
#
# Elastic Constant Matrix: (Units=GPa)
#
#
# Indices 1 2 3 4 5 6 
#
# 1 130.9323 33.2637 55.2112 0.0000 0.0000 0.0000
# 2 33.2637 86.7230 40.5867 0.0000 0.0000 0.0000
# 3 55.2112 40.5867 147.9258 0.0000 0.0000 0.0000
# 4 0.0000 0.0000 0.0000 21.4583 0.0000 0.0000
# 5 0.0000 0.0000 0.0000 0.0000 -5.0673 0.0000
# 6 0.0000 0.0000 0.0000 0.0000 0.0000 20.2901
#
#
#
# Elastic Compliance Matrix: (Units=1/GPa)
#
#
# Indices 1 2 3 4 5 6 
#
# 1 0.009435 -0.002261 -0.002901 0.000000 0.000000 0.000000
# 2 -0.002261 0.013772 -0.002935 0.000000 0.000000 0.000000
# 3 -0.002901 -0.002935 0.008648 0.000000 0.000000 0.000000
# 4 0.000000 0.000000 0.000000 0.046602 0.000000 0.000000
# 5 0.000000 0.000000 0.000000 0.000000 -0.197345 0.000000
# 6 0.000000 0.000000 0.000000 0.000000 0.000000 0.049285
#
#
# Mechanical properties :
#
#
# Convention : Reuss Voigt Hill
#
# Bulk Modulus (GPa) = 63.85240 69.30047 66.57643
# Shear Modulus (GPa) = -103.76084 23.10419 -40.32833
#
# Velocity S-wave (km/s) = -7.11357 3.35673 -4.43482
# Velocity P-wave (km/s) = 6.02747 6.98716 2.49900
#
# Compressibility (1/GPa) = 0.01566112
#
# Stress axis : x y z
#
# Youngs Moduli (GPa) = 105.98402 72.61270 115.63185
#
# Poissons Ratio (x) = 0.16420 0.33547
# Poissons Ratio (y) = 0.23966 0.33933
# Poissons Ratio (z) = 0.30748 0.21309
#
# Static dielectric constant tensor:
#      x y z
#    x 3.731110 0.000000 0.000000 
#    y 0.000000 3.612660 0.000000 
#    z 0.000000 0.000000 3.694380 
# 
# 
# High freq. dielectric constant tensor:
#      x y z
#    x 1.798950 0.000000 0.000000 
#    y 0.000000 1.799450 0.000000 
#    z 0.000000 0.000000 1.801830 
# 
# From -- ./inp_files/33047.got.cif
#   From: 2010.03.12/outbox.cif.g09.slc.cpg/sg47_17_cif.got.tgz:33047.got - 2010.04.14 03:12:58.
