data_PCOD8198010
_publ_section_title
;
Structure prediction by ZEFSAII (Michael W. Deem and Ramdas Pophale) SiO2 
 PCOD8198010
Probable space group: P M M M
;
_chemical_formula_sum "Si O2"
_cell_formula_units_Z 52
_cell_length_a 9.261911
_cell_length_b 13.538084
_cell_length_c 26.290615
_cell_angle_alpha 90.000000
_cell_angle_beta 90.000000
_cell_angle_gamma 90.000000
_cell_volume 3296.541544
_symmetry_space_group_name_H-M "P M M M"
_symmetry_group_IT_number 47
_symmetry_cell_setting 'orthorhombic'
loop_
_space_group_symop_operation_xyz
x,y,z
-x,-y,z
x,-y,-z
-x,y,-z
-x,-y,-z
x,y,-z
-x,y,z
x,-y,z
loop_
_atom_site_type_symbol
_atom_site_label
_atom_site_fract_x
_atom_site_fract_y
_atom_site_fract_z
Si Si1 0.332152 0.885800 0.642573
Si Si2 0.836828 0.117378 0.944326
Si Si3 0.166669 0.388328 0.699380
Si Si4 0.329860 0.383694 0.500000
Si Si5 0.831219 0.285042 0.593380
Si Si6 0.331300 0.217988 0.746543
Si Si7 0.330305 0.113458 0.152016
O O1 0.500000 0.864697 0.630822
O O2 0.233931 0.823648 0.603667
O O3 0.294789 0.856463 0.700511
O O4 0.293413 0.000000 0.634771
O O5 0.739261 0.160699 0.898858
O O6 0.000000 0.152819 0.935049
O O7 0.827444 0.000000 0.943908
O O8 0.783194 0.155433 0.000000
O O9 0.222444 0.500000 0.704176
O O10 0.194273 0.353285 0.642127
O O11 0.254788 0.322785 0.739139
O O12 0.000000 0.379183 0.713813
O O13 0.299247 0.500000 0.500000
O O14 0.500000 0.360591 0.500000
O O15 0.256387 0.335890 0.451261
O O16 0.000000 0.275394 0.579317
O O17 0.500000 0.238100 0.750015
O O18 0.272242 0.170747 0.798575
O O19 0.500000 0.124122 0.146455
O O20 0.283863 0.000000 0.158733
#
# Coordination Sequence:
#
# PCOD8198010 Si02
#       7
#     8   8   8   4   8   8   8
#     4   9  17  31  50  69  93 125 155 183 217 257
#     4   8  14  24  36  51  75 109 147 183 217 253
#     4   9  18  32  48  66  89 116 144 175 215 261
#     4  11  23  37  54  75  96 117 145 182 222 267
#     4  10  20  34  52  73  96 120 147 181 220 262
#     4   9  17  28  43  65  90 116 148 182 216 257
#     4   9  16  25  38  58  85 115 146 180 215 251
#
# _framework density 15.774107000000001
#
# number of rings (size 3 to 8) (size 9 to 14) (size 15 to 20)
#    0.000    2.846    0.000    2.077    0.000    5.231 
#    0.000    1.923    0.000    5.077    0.000    0.000 
#    0.000    0.615    0.000    6.769    0.000    5.231 
#
# Total GULP energy -644704.355412 kJ/mol
# GULP energy per Si atom -12398.160681 kJ/mol
# Density = 1.573820 g / cm^3
# Si number density = 15.774107 Si / 1000 Ang^3
#
#
#
# Elastic Constant Matrix: (Units=GPa)
#
#
# Indices 1 2 3 4 5 6 
#
# 1 66.7299 50.3136 59.2996 0.0000 0.0000 0.0000
# 2 50.3136 104.2340 58.0646 0.0000 0.0000 0.0000
# 3 59.2996 58.0646 120.5805 0.0000 0.0000 0.0000
# 4 0.0000 0.0000 0.0000 15.7684 0.0000 0.0000
# 5 0.0000 0.0000 0.0000 0.0000 29.0634 0.0000
# 6 0.0000 0.0000 0.0000 0.0000 0.0000 23.0902
#
#
#
# Elastic Compliance Matrix: (Units=1/GPa)
#
#
# Indices 1 2 3 4 5 6 
#
# 1 0.031887 -0.009096 -0.011301 0.000000 0.000000 0.000000
# 2 -0.009096 0.015706 -0.003089 0.000000 0.000000 0.000000
# 3 -0.011301 -0.003089 0.015339 0.000000 0.000000 0.000000
# 4 0.000000 0.000000 0.000000 0.063418 0.000000 0.000000
# 5 0.000000 0.000000 0.000000 0.000000 0.034407 0.000000
# 6 0.000000 0.000000 0.000000 0.000000 0.000000 0.043308
#
#
# Mechanical properties :
#
#
# Convention : Reuss Voigt Hill
#
# Bulk Modulus (GPa) = 62.66750 69.65555 66.16152
# Shear Modulus (GPa) = 19.50387 21.84218 20.67303
#
# Velocity S-wave (km/s) = 3.52013 3.72517 3.62410
# Velocity P-wave (km/s) = 7.50574 7.92190 7.71663
#
# Compressibility (1/GPa) = 0.01595723
#
# Stress axis : x y z
#
# Youngs Moduli (GPa) = 31.36034 63.67138 65.19427
#
# Poissons Ratio (x) = 0.57918 0.73679
# Poissons Ratio (y) = 0.28527 0.20141
# Poissons Ratio (z) = 0.35442 0.19671
#
# Static dielectric constant tensor:
#      x y z
#    x 3.043700 0.000000 0.000000 
#    y 0.000000 2.877240 0.000000 
#    z 0.000000 0.000000 3.190130 
# 
# 
# High freq. dielectric constant tensor:
#      x y z
#    x 1.607630 0.000000 0.000000 
#    y 0.000000 1.578730 0.000000 
#    z 0.000000 0.000000 1.603500 
# 
# From -- ./inp_files/21743.got.cif
#   From: 2010.03.12/outbox.cif.g09.slc.cpg/sg47_11_cif.got.tgz:21743.got - 2010.04.14 03:12:58.
