data_PCOD8198444
_publ_section_title
;
Structure prediction by ZEFSAII (Michael W. Deem and Ramdas Pophale) SiO2 
 PCOD8198444
Probable space group: P M M M
;
_chemical_formula_sum "Si O2"
_cell_formula_units_Z 48
_cell_length_a 8.942427
_cell_length_b 20.408962
_cell_length_c 14.265316
_cell_angle_alpha 90.000000
_cell_angle_beta 90.000000
_cell_angle_gamma 90.000000
_cell_volume 2603.500809
_symmetry_space_group_name_H-M "P M M M"
_symmetry_group_IT_number 47
_symmetry_cell_setting 'orthorhombic'
loop_
_space_group_symop_operation_xyz
x,y,z
-x,-y,z
x,-y,-z
-x,y,-z
-x,-y,-z
x,y,-z
-x,y,z
x,-y,z
loop_
_atom_site_type_symbol
_atom_site_label
_atom_site_fract_x
_atom_site_fract_y
_atom_site_fract_z
Si Si1 0.175452 0.312673 0.216202
Si Si2 0.829837 0.862017 0.396161
Si Si3 0.670454 0.574764 0.890717
Si Si4 0.173198 0.073964 0.205898
Si Si5 0.324460 0.193006 0.891624
Si Si6 0.674193 0.273105 0.605688
O O1 0.216053 0.379684 0.164691
O O2 0.246200 0.250046 0.166203
O O3 0.234850 0.318550 0.322546
O O4 0.000000 0.303042 0.216192
O O5 0.802942 0.892597 0.500000
O O6 0.797335 0.916005 0.317048
O O7 0.718756 0.802110 0.378526
O O8 0.000000 0.835721 0.387609
O O9 0.500000 0.595052 0.867862
O O10 0.699531 0.500000 0.860377
O O11 0.702203 0.583862 0.000000
O O12 0.271326 0.122191 0.143243
O O13 0.000000 0.086363 0.182002
O O14 0.220616 0.000000 0.180936
O O15 0.500000 0.199048 0.875616
O O16 0.281210 0.201245 0.000000
O O17 0.713203 0.295651 0.500000
O O18 0.500000 0.280325 0.627017
#
# Coordination Sequence:
#
# PCOD8198444 Si02
#       6
#     8   8   8   8   8   8
#     4  12  23  35  57  87 117 148 182 225 278 329
#     4   9  17  31  52  78 108 140 175 218 271 331
#     4   9  19  37  60  86 118 155 191 226 268 321
#     4  10  21  36  54  78 108 143 181 224 280 340
#     4  11  24  40  57  77 103 140 188 236 280 329
#     4  10  20  34  55  82 111 144 183 227 273 323
#
# _framework density 18.436713000000001
#
# number of rings (size 3 to 8) (size 9 to 14) (size 15 to 20)
#    0.000    1.833    1.667    3.500    0.000    6.000 
#    0.000    4.167    0.000    0.500    0.000    7.000 
#    0.000    0.000    0.000    0.000    0.000    0.000 
#
# Total GULP energy -595277.237798 kJ/mol
# GULP energy per Si atom -12401.609121 kJ/mol
# Density = 1.839475 g / cm^3
# Si number density = 18.436713 Si / 1000 Ang^3
#
#
#
# Elastic Constant Matrix: (Units=GPa)
#
#
# Indices 1 2 3 4 5 6 
#
# 1 95.7352 45.0495 63.6509 0.0000 0.0000 0.0000
# 2 45.0495 90.2140 49.1858 0.0000 0.0000 0.0000
# 3 63.6509 49.1858 107.5942 0.0000 0.0000 0.0000
# 4 0.0000 0.0000 0.0000 29.5130 0.0000 0.0000
# 5 0.0000 0.0000 0.0000 0.0000 28.6473 0.0000
# 6 0.0000 0.0000 0.0000 0.0000 0.0000 30.5162
#
#
#
# Elastic Compliance Matrix: (Units=1/GPa)
#
#
# Indices 1 2 3 4 5 6 
#
# 1 0.018408 -0.004336 -0.008908 0.000000 0.000000 0.000000
# 2 -0.004336 0.015786 -0.004651 0.000000 0.000000 0.000000
# 3 -0.008908 -0.004651 0.016690 0.000000 0.000000 0.000000
# 4 0.000000 0.000000 0.000000 0.033883 0.000000 0.000000
# 5 0.000000 0.000000 0.000000 0.000000 0.034907 0.000000
# 6 0.000000 0.000000 0.000000 0.000000 0.000000 0.032770
#
#
# Mechanical properties :
#
#
# Convention : Reuss Voigt Hill
#
# Bulk Modulus (GPa) = 66.25038 67.70173 66.97605
# Shear Modulus (GPa) = 25.87101 26.77910 26.32506
#
# Velocity S-wave (km/s) = 3.75004 3.81529 3.78280
# Velocity P-wave (km/s) = 7.40016 7.49729 7.44888
#
# Compressibility (1/GPa) = 0.01509425
#
# Stress axis : x y z
#
# Youngs Moduli (GPa) = 54.32335 63.34787 59.91466
#
# Poissons Ratio (x) = 0.27465 0.53372
# Poissons Ratio (y) = 0.23553 0.27869
# Poissons Ratio (z) = 0.48391 0.29466
#
# Static dielectric constant tensor:
#      x y z
#    x 3.405240 0.000000 0.000000 
#    y 0.000000 3.202820 0.000000 
#    z 0.000000 0.000000 3.670000 
# 
# 
# High freq. dielectric constant tensor:
#      x y z
#    x 1.717460 0.000000 0.000000 
#    y 0.000000 1.693570 0.000000 
#    z 0.000000 0.000000 1.725890 
# 
# From -- ./inp_files/6811.got.cif
#   From: 2010.03.12/outbox.cif.g09.slc.cpg/sg47_4_cif.got.tgz:6811.got - 2010.04.14 03:12:58.
