data_PCOD8198995
_publ_section_title
;
Structure prediction by ZEFSAII (Michael W. Deem and Ramdas Pophale) SiO2 
 PCOD8198995
Probable space group: P M M M
;
_chemical_formula_sum "Si O2"
_cell_formula_units_Z 48
_cell_length_a 8.013661
_cell_length_b 32.077685
_cell_length_c 9.086905
_cell_angle_alpha 90.000000
_cell_angle_beta 90.000000
_cell_angle_gamma 90.000000
_cell_volume 2335.877012
_symmetry_space_group_name_H-M "P M M M"
_symmetry_group_IT_number 47
_symmetry_cell_setting 'orthorhombic'
loop_
_space_group_symop_operation_xyz
x,y,z
-x,-y,z
x,-y,-z
-x,y,-z
-x,-y,-z
x,y,-z
-x,y,z
x,-y,z
loop_
_atom_site_type_symbol
_atom_site_label
_atom_site_fract_x
_atom_site_fract_y
_atom_site_fract_z
Si Si1 0.196452 0.918433 0.664053
Si Si2 0.189394 0.320989 0.835418
Si Si3 0.308399 0.243428 0.334376
Si Si4 0.802853 0.837315 0.169098
Si Si5 0.303536 0.000000 0.165510
Si Si6 0.311680 0.590798 0.172672
Si Si7 0.000000 0.450877 0.330559
O O1 0.274306 0.920523 0.500000
O O2 0.268149 0.878043 0.747811
O O3 0.000000 0.914400 0.653621
O O4 0.240231 0.959561 0.751899
O O5 0.205890 0.282321 0.726497
O O6 0.301404 0.360159 0.786660
O O7 0.000000 0.337010 0.831284
O O8 0.238877 0.306076 0.000000
O O9 0.247130 0.233826 0.500000
O O10 0.500000 0.256464 0.330792
O O11 0.282978 0.202966 0.236054
O O12 0.000000 0.832864 0.187461
O O13 0.750210 0.841433 0.000000
O O14 0.500000 0.000000 0.162833
O O15 0.230610 0.000000 0.000000
O O16 0.500000 0.575637 0.214316
O O17 0.171079 0.565457 0.258921
O O18 0.277593 0.584489 0.000000
O O19 0.000000 0.500000 0.311716
O O20 0.000000 0.436937 0.500000
#
# Coordination Sequence:
#
# PCOD8198995 Si02
#       7
#     8   8   8   8   4   8   4
#     4  10  21  38  61  86 111 142 182 229 283 342
#     4  10  20  37  62  89 118 154 198 249 304 361
#     4  11  24  38  53  80 118 157 196 238 288 348
#     4  10  21  38  60  84 109 143 188 235 285 341
#     4  11  24  39  56  82 114 147 184 225 274 334
#     4  10  21  40  67  96 126 164 213 268 322 378
#     4  11  25  43  63  91 131 175 215 261 321 386
#
# _framework density 20.549026999999999
#
# number of rings (size 3 to 8) (size 9 to 14) (size 15 to 20)
#    0.000    1.667    0.833    3.250    0.000   10.667 
#    0.000    1.667    0.000    0.000    0.000    0.000 
#    0.000    0.000    0.000    0.000    0.000    0.000 
#
# Total GULP energy -595299.163121 kJ/mol
# GULP energy per Si atom -12402.065898 kJ/mol
# Density = 2.050226 g / cm^3
# Si number density = 20.549027 Si / 1000 Ang^3
#
#
#
# Elastic Constant Matrix: (Units=GPa)
#
#
# Indices 1 2 3 4 5 6 
#
# 1 80.6809 43.3377 46.4693 0.0000 0.0000 0.0000
# 2 43.3377 116.9856 65.8302 0.0000 0.0000 0.0000
# 3 46.4693 65.8302 148.1652 0.0000 0.0000 0.0000
# 4 0.0000 0.0000 0.0000 51.0199 0.0000 0.0000
# 5 0.0000 0.0000 0.0000 0.0000 26.0901 0.0000
# 6 0.0000 0.0000 0.0000 0.0000 0.0000 9.0318
#
#
#
# Elastic Compliance Matrix: (Units=1/GPa)
#
#
# Indices 1 2 3 4 5 6 
#
# 1 0.016601 -0.004293 -0.003299 0.000000 0.000000 0.000000
# 2 -0.004293 0.012508 -0.004211 0.000000 0.000000 0.000000
# 3 -0.003299 -0.004211 0.009655 0.000000 0.000000 0.000000
# 4 0.000000 0.000000 0.000000 0.019600 0.000000 0.000000
# 5 0.000000 0.000000 0.000000 0.000000 0.038329 0.000000
# 6 0.000000 0.000000 0.000000 0.000000 0.000000 0.110720
#
#
# Mechanical properties :
#
#
# Convention : Reuss Voigt Hill
#
# Bulk Modulus (GPa) = 65.97512 73.01181 69.49347
# Shear Modulus (GPa) = 21.17999 29.90798 25.54398
#
# Velocity S-wave (km/s) = 3.21394 3.81917 3.52955
# Velocity P-wave (km/s) = 6.77853 7.41996 7.10648
#
# Compressibility (1/GPa) = 0.01515723
#
# Stress axis : x y z
#
# Youngs Moduli (GPa) = 60.23808 79.94822 103.57581
#
# Poissons Ratio (x) = 0.34325 0.34169
# Poissons Ratio (y) = 0.25863 0.43614
# Poissons Ratio (z) = 0.19872 0.33665
#
# Static dielectric constant tensor:
#      x y z
#    x 3.748190 0.000000 0.000000 
#    y 0.000000 3.704640 0.000000 
#    z 0.000000 0.000000 4.001330 
# 
# 
# High freq. dielectric constant tensor:
#      x y z
#    x 1.803310 0.000000 0.000000 
#    y 0.000000 1.807760 0.000000 
#    z 0.000000 0.000000 1.810760 
# 
# From -- ./inp_files/2728.got.cif
#   From: 2010.03.12/outbox.cif.g09.slc.cpg/sg47_2_cif.got.tgz:2728.got - 2010.04.14 03:12:58.
