data_PCOD8198180
_publ_section_title
;
Structure prediction by ZEFSAII (Michael W. Deem and Ramdas Pophale) SiO2 
 PCOD8198180
Probable space group: P M M M
;
_chemical_formula_sum "Si O2"
_cell_formula_units_Z 64
_cell_length_a 19.446087
_cell_length_b 9.076247
_cell_length_c 20.609303
_cell_angle_alpha 90.000000
_cell_angle_beta 90.000000
_cell_angle_gamma 90.000000
_cell_volume 3637.490225
_symmetry_space_group_name_H-M "P M M M"
_symmetry_group_IT_number 47
_symmetry_cell_setting 'orthorhombic'
loop_
_space_group_symop_operation_xyz
x,y,z
-x,-y,z
x,-y,-z
-x,y,-z
-x,-y,-z
x,y,-z
-x,y,z
x,-y,z
loop_
_atom_site_type_symbol
_atom_site_label
_atom_site_fract_x
_atom_site_fract_y
_atom_site_fract_z
Si Si1 0.075309 0.170244 0.628490
Si Si2 0.216791 0.170306 0.573122
Si Si3 0.421948 0.171778 0.737062
Si Si4 0.296421 0.673281 0.685897
Si Si5 0.700909 0.830342 0.927186
Si Si6 0.216616 0.671500 0.182620
Si Si7 0.577744 0.328864 0.126807
Si Si8 0.924019 0.671338 0.238636
O O1 0.134913 0.204271 0.576677
O O2 0.093893 0.251345 0.694513
O O3 0.000000 0.220229 0.601493
O O4 0.073515 0.000000 0.646363
O O5 0.240900 0.205307 0.500000
O O6 0.257007 0.274787 0.621998
O O7 0.231340 0.000000 0.590959
O O8 0.500000 0.196866 0.712628
O O9 0.370048 0.244579 0.685803
O O10 0.409417 0.251050 0.805058
O O11 0.405559 0.000000 0.745407
O O12 0.308639 0.500000 0.681246
O O13 0.253860 0.716338 0.750331
O O14 0.755284 0.764790 0.877028
O O15 0.628544 0.744012 0.924858
O O16 0.687649 0.000000 0.909771
O O17 0.730354 0.812849 0.000000
O O18 0.228817 0.500000 0.167806
O O19 0.135414 0.710839 0.187033
O O20 0.500000 0.306297 0.101950
O O21 0.595714 0.500000 0.135668
O O22 0.921159 0.500000 0.254491
O O23 0.000000 0.717205 0.212104
#
# Coordination Sequence:
#
# PCOD8198180 Si02
#       8
#     8   8   8   8   8   8   8   8
#     4   9  17  29  47  73 104 139 179 218 258 307
#     4  10  21  35  51  74 107 147 185 221 265 314
#     4  10  20  34  55  82 109 138 173 215 263 312
#     4  11  21  34  55  82 108 138 178 221 266 313
#     4  11  24  38  53  76 106 142 181 220 265 315
#     4  10  20  34  54  80 105 136 177 219 266 316
#     4  10  20  34  53  78 108 142 178 214 256 308
#     4   9  17  31  52  77 105 134 169 216 265 313
#
# _framework density 17.594549000000001
#
# number of rings (size 3 to 8) (size 9 to 14) (size 15 to 20)
#    0.000    2.000    2.500    1.500    0.000    4.250 
#    0.000    2.500    0.000    0.750    0.000    7.875 
#    0.000    0.000    0.000    0.000    0.000    0.000 
#
# Total GULP energy -793505.190338 kJ/mol
# GULP energy per Si atom -12398.518599 kJ/mol
# Density = 1.755450 g / cm^3
# Si number density = 17.594549 Si / 1000 Ang^3
#
#
#
# Elastic Constant Matrix: (Units=GPa)
#
#
# Indices 1 2 3 4 5 6 
#
# 1 104.0516 50.3486 49.7797 0.0000 0.0000 0.0000
# 2 50.3486 88.2661 47.5287 0.0000 0.0000 0.0000
# 3 49.7797 47.5287 88.4447 0.0000 0.0000 0.0000
# 4 0.0000 0.0000 0.0000 -4.4909 0.0000 0.0000
# 5 0.0000 0.0000 0.0000 0.0000 22.7627 0.0000
# 6 0.0000 0.0000 0.0000 0.0000 0.0000 26.2030
#
#
#
# Elastic Compliance Matrix: (Units=1/GPa)
#
#
# Indices 1 2 3 4 5 6 
#
# 1 0.014891 -0.005602 -0.005371 0.000000 0.000000 0.000000
# 2 -0.005602 0.018050 -0.006547 0.000000 0.000000 0.000000
# 3 -0.005371 -0.006547 0.017847 0.000000 0.000000 0.000000
# 4 0.000000 0.000000 0.000000 -0.222670 0.000000 0.000000
# 5 0.000000 0.000000 0.000000 0.000000 0.043932 0.000000
# 6 0.000000 0.000000 0.000000 0.000000 0.000000 0.038164
#
#
# Mechanical properties :
#
#
# Convention : Reuss Voigt Hill
#
# Bulk Modulus (GPa) = 63.49450 64.00849 63.75149
# Shear Modulus (GPa) = -101.01328 17.76864 -41.62232
#
# Velocity S-wave (km/s) = -7.58527 3.18133 -4.86906
# Velocity P-wave (km/s) = 6.36782 7.06776 2.16841
#
# Compressibility (1/GPa) = 0.01574940
#
# Stress axis : x y z
#
# Youngs Moduli (GPa) = 67.15612 55.40118 56.03066
#
# Poissons Ratio (x) = 0.31036 0.30091
# Poissons Ratio (y) = 0.37621 0.36682
# Poissons Ratio (z) = 0.36066 0.36270
#
# Static dielectric constant tensor:
#      x y z
#    x 3.606880 0.000000 0.000000 
#    y 0.000000 3.332530 0.000000 
#    z 0.000000 0.000000 3.067030 
# 
# 
# High freq. dielectric constant tensor:
#      x y z
#    x 1.688840 0.000000 0.000000 
#    y 0.000000 1.688060 0.000000 
#    z 0.000000 0.000000 1.647350 
# 
# From -- ./inp_files/9928.got.cif
#   From: 2010.03.12/outbox.cif.g09.slc.cpg/sg47_5_cif.got.tgz:9928.got - 2010.04.14 03:12:58.
