data_PCOD8198740
_publ_section_title
;
Structure prediction by ZEFSAII (Michael W. Deem and Ramdas Pophale) SiO2 
 PCOD8198740
Probable space group: P M M M
;
_chemical_formula_sum "Si O2"
_cell_formula_units_Z 64
_cell_length_a 15.702068
_cell_length_b 8.933852
_cell_length_c 23.268267
_cell_angle_alpha 90.000000
_cell_angle_beta 90.000000
_cell_angle_gamma 90.000000
_cell_volume 3264.071369
_symmetry_space_group_name_H-M "P M M M"
_symmetry_group_IT_number 47
_symmetry_cell_setting 'orthorhombic'
loop_
_space_group_symop_operation_xyz
x,y,z
-x,-y,z
x,-y,-z
-x,y,-z
-x,-y,-z
x,y,-z
-x,y,z
x,-y,z
loop_
_atom_site_type_symbol
_atom_site_label
_atom_site_fract_x
_atom_site_fract_y
_atom_site_fract_z
Si Si1 0.590020 0.673235 0.893637
Si Si2 0.595390 0.322287 0.649131
Si Si3 0.232645 0.323038 0.935595
Si Si4 0.821900 0.176339 0.824852
Si Si5 0.096584 0.663484 0.270204
Si Si6 0.255849 0.327636 0.565356
Si Si7 0.659355 0.326942 0.227086
Si Si8 0.901384 0.823070 0.616435
O O1 0.500000 0.746175 0.914339
O O2 0.588729 0.500000 0.909848
O O3 0.671656 0.742820 0.926007
O O4 0.593522 0.695327 0.824956
O O5 0.500000 0.261173 0.633868
O O6 0.593375 0.500000 0.646052
O O7 0.667517 0.261245 0.605087
O O8 0.618186 0.269426 0.713776
O O9 0.230328 0.500000 0.923880
O O10 0.172734 0.242896 0.889316
O O11 0.201975 0.284221 0.000000
O O12 0.900276 0.243168 0.789086
O O13 0.741274 0.228019 0.787519
O O14 0.826858 0.000000 0.829526
O O15 0.142471 0.500000 0.265451
O O16 0.133968 0.758233 0.323158
O O17 0.000000 0.634884 0.285066
O O18 0.287399 0.311470 0.500000
O O19 0.238206 0.500000 0.581688
O O20 0.165982 0.239827 0.570380
O O21 0.687169 0.500000 0.231643
O O22 0.000000 0.776526 0.602100
O O23 0.894898 0.000000 0.618888
#
# Coordination Sequence:
#
# PCOD8198740 Si02
#       8
#     8   8   8   8   8   8   8   8
#     4   8  13  22  40  68  96 119 153 208 265 309
#     4   9  17  30  51  77 102 133 178 232 281 317
#     4   9  18  32  49  69  95 131 175 218 257 299
#     4  11  21  32  50  75 105 139 171 208 253 302
#     4  10  20  35  57  83 109 134 160 196 247 308
#     4  10  21  35  52  77 109 146 187 228 268 313
#     4   9  16  28  48  72  97 128 170 217 264 314
#     4  10  21  37  58  84 112 140 171 212 265 323
#
# _framework density 19.607413999999999
#
# number of rings (size 3 to 8) (size 9 to 14) (size 15 to 20)
#    0.000    2.500    0.000    3.750    0.000    5.250 
#    0.000    3.750    0.000   10.875    0.000    7.000 
#    0.000    0.000    0.000    0.000    0.000    0.000 
#
# Total GULP energy -793042.095013 kJ/mol
# GULP energy per Si atom -12391.282735 kJ/mol
# Density = 1.956279 g / cm^3
# Si number density = 19.607414 Si / 1000 Ang^3
#
#
#
# Elastic Constant Matrix: (Units=GPa)
#
#
# Indices 1 2 3 4 5 6 
#
# 1 66.9740 21.3354 28.2191 0.0000 0.0000 0.0000
# 2 21.3354 73.8669 34.1262 0.0000 0.0000 0.0000
# 3 28.2191 34.1262 102.9877 0.0000 0.0000 0.0000
# 4 0.0000 0.0000 0.0000 17.9784 0.0000 0.0000
# 5 0.0000 0.0000 0.0000 0.0000 16.6612 0.0000
# 6 0.0000 0.0000 0.0000 0.0000 0.0000 14.5222
#
#
#
# Elastic Compliance Matrix: (Units=1/GPa)
#
#
# Indices 1 2 3 4 5 6 
#
# 1 0.017561 -0.003364 -0.003697 0.000000 0.000000 0.000000
# 2 -0.003364 0.016629 -0.004589 0.000000 0.000000 0.000000
# 3 -0.003697 -0.004589 0.012243 0.000000 0.000000 0.000000
# 4 0.000000 0.000000 0.000000 0.055622 0.000000 0.000000
# 5 0.000000 0.000000 0.000000 0.000000 0.060020 0.000000
# 6 0.000000 0.000000 0.000000 0.000000 0.000000 0.068860
#
#
# Mechanical properties :
#
#
# Convention : Reuss Voigt Hill
#
# Bulk Modulus (GPa) = 43.22633 45.68779 44.45706
# Shear Modulus (GPa) = 19.08791 20.50889 19.79840
#
# Velocity S-wave (km/s) = 3.12349 3.23766 3.18109
# Velocity P-wave (km/s) = 5.92470 6.10970 6.01791
#
# Compressibility (1/GPa) = 0.02313405
#
# Stress axis : x y z
#
# Youngs Moduli (GPa) = 56.94589 60.13424 81.67695
#
# Poissons Ratio (x) = 0.20230 0.30195
# Poissons Ratio (y) = 0.19157 0.37478
# Poissons Ratio (z) = 0.21052 0.27593
#
# Static dielectric constant tensor:
#      x y z
#    x 3.710160 0.000000 0.000000 
#    y 0.000000 3.261580 0.000000 
#    z 0.000000 0.000000 3.613190 
# 
# 
# High freq. dielectric constant tensor:
#      x y z
#    x 1.756240 0.000000 0.000000 
#    y 0.000000 1.724060 0.000000 
#    z 0.000000 0.000000 1.763010 
# 
# From -- ./inp_files/31341.got.cif
#   From: 2010.03.12/outbox.cif.g09.slc.cpg/sg47_16_cif.got.tgz:31341.got - 2010.04.14 03:12:58.
