data_PCOD8198510
_publ_section_title
;
Structure prediction by ZEFSAII (Michael W. Deem and Ramdas Pophale) SiO2 
 PCOD8198510
Probable space group: P M M M
;
_chemical_formula_sum "Si O2"
_cell_formula_units_Z 44
_cell_length_a 31.554824
_cell_length_b 7.746557
_cell_length_c 9.533727
_cell_angle_alpha 90.000000
_cell_angle_beta 90.000000
_cell_angle_gamma 90.000000
_cell_volume 2330.436076
_symmetry_space_group_name_H-M "P M M M"
_symmetry_group_IT_number 47
_symmetry_cell_setting 'orthorhombic'
loop_
_space_group_symop_operation_xyz
x,y,z
-x,-y,z
x,-y,-z
-x,y,-z
-x,-y,-z
x,y,-z
-x,y,z
x,-y,z
loop_
_atom_site_type_symbol
_atom_site_label
_atom_site_fract_x
_atom_site_fract_y
_atom_site_fract_z
Si Si1 0.076623 0.795692 0.656108
Si Si2 0.547651 0.700808 0.661765
Si Si3 0.829641 0.191731 0.333390
Si Si4 0.683783 0.500000 0.834319
Si Si5 0.000000 0.793782 0.158027
Si Si6 0.623772 0.808340 0.840587
Si Si7 0.770208 0.500000 0.667267
O O1 0.069647 0.716860 0.500000
O O2 0.123379 0.748911 0.715563
O O3 0.041480 0.721051 0.762060
O O4 0.072356 0.000000 0.645535
O O5 0.557093 0.739711 0.500000
O O6 0.500000 0.760330 0.699893
O O7 0.553230 0.500000 0.694956
O O8 0.580636 0.807021 0.753099
O O9 0.830312 0.184059 0.500000
O O10 0.795384 0.330162 0.281007
O O11 0.818323 0.000000 0.274111
O O12 0.657781 0.669371 0.786865
O O13 0.726028 0.500000 0.745249
O O14 0.693952 0.500000 0.000000
O O15 0.000000 0.000000 0.156783
O O16 0.000000 0.720838 0.000000
O O17 0.643788 0.000000 0.827159
O O18 0.611550 0.764195 0.000000
O O19 0.763449 0.500000 0.500000
#
# Coordination Sequence:
#
# PCOD8198510 Si02
#       7
#     8   8   8   4   4   8   4
#     4   8  13  23  40  60  86 123 160 191 230 284
#     4   9  18  33  54  81 113 146 178 215 260 307
#     4   8  15  29  49  74 101 125 156 203 251 293
#     4  10  22  40  55  73 105 136 164 210 265 311
#     4   9  15  21  33  60  95 124 155 197 236 273
#     4  10  21  37  57  79 104 140 183 220 256 303
#     4  10  20  34  56  80  98 124 163 207 254 309
#
# _framework density 18.880586000000001
#
# number of rings (size 3 to 8) (size 9 to 14) (size 15 to 20)
#    0.000    3.000    0.909    1.909    0.000    3.636 
#    0.000    3.636    0.000    1.636    0.000    3.818 
#    0.000    0.000    0.000    0.000    0.000    0.000 
#
# Total GULP energy -545421.862952 kJ/mol
# GULP energy per Si atom -12395.951431 kJ/mol
# Density = 1.883761 g / cm^3
# Si number density = 18.880586 Si / 1000 Ang^3
#
#
#
# Elastic Constant Matrix: (Units=GPa)
#
#
# Indices 1 2 3 4 5 6 
#
# 1 156.4940 67.8937 62.2365 0.0000 0.0000 0.0000
# 2 67.8937 97.2797 31.9785 0.0000 0.0000 0.0000
# 3 62.2365 31.9785 67.9684 0.0000 0.0000 0.0000
# 4 0.0000 0.0000 0.0000 12.5700 0.0000 0.0000
# 5 0.0000 0.0000 0.0000 0.0000 4.9097 0.0000
# 6 0.0000 0.0000 0.0000 0.0000 0.0000 2.0629
#
#
#
# Elastic Compliance Matrix: (Units=1/GPa)
#
#
# Indices 1 2 3 4 5 6 
#
# 1 0.012289 -0.005770 -0.008538 0.000000 0.000000 0.000000
# 2 -0.005770 0.014870 -0.001713 0.000000 0.000000 0.000000
# 3 -0.008538 -0.001713 0.023336 0.000000 0.000000 0.000000
# 4 0.000000 0.000000 0.000000 0.079555 0.000000 0.000000
# 5 0.000000 0.000000 0.000000 0.000000 0.203678 0.000000
# 6 0.000000 0.000000 0.000000 0.000000 0.000000 0.484745
#
#
# Mechanical properties :
#
#
# Convention : Reuss Voigt Hill
#
# Bulk Modulus (GPa) = 54.18895 71.77329 62.98112
# Shear Modulus (GPa) = 5.83659 14.55076 10.19368
#
# Velocity S-wave (km/s) = 1.76012 2.77911 2.32610
# Velocity P-wave (km/s) = 5.73532 6.95664 6.37529
#
# Compressibility (1/GPa) = 0.01845395
#
# Stress axis : x y z
#
# Youngs Moduli (GPa) = 81.37624 67.25122 42.85213
#
# Poissons Ratio (x) = 0.38804 0.36585
# Poissons Ratio (y) = 0.46954 0.07339
# Poissons Ratio (z) = 0.69475 0.11518
#
# Static dielectric constant tensor:
#      x y z
#    x 3.499530 0.000000 0.000000 
#    y 0.000000 3.520250 0.000000 
#    z 0.000000 0.000000 3.297230 
# 
# 
# High freq. dielectric constant tensor:
#      x y z
#    x 1.730170 0.000000 0.000000 
#    y 0.000000 1.726050 0.000000 
#    z 0.000000 0.000000 1.704100 
# 
# From -- ./inp_files/13742.got.cif
#   From: 2010.03.12/outbox.cif.g09.slc.cpg/sg47_7_cif.got.tgz:13742.got - 2010.04.14 03:12:58.
