data_PCOD8198779
_publ_section_title
;
Structure prediction by ZEFSAII (Michael W. Deem and Ramdas Pophale) SiO2 
 PCOD8198779
Probable space group: P M M M
;
_chemical_formula_sum "Si O2"
_cell_formula_units_Z 52
_cell_length_a 14.220496
_cell_length_b 8.684403
_cell_length_c 20.699918
_cell_angle_alpha 90.000000
_cell_angle_beta 90.000000
_cell_angle_gamma 90.000000
_cell_volume 2556.367798
_symmetry_space_group_name_H-M "P M M M"
_symmetry_group_IT_number 47
_symmetry_cell_setting 'orthorhombic'
loop_
_space_group_symop_operation_xyz
x,y,z
-x,-y,z
x,-y,-z
-x,y,-z
-x,-y,-z
x,y,-z
-x,y,z
x,-y,z
loop_
_atom_site_type_symbol
_atom_site_label
_atom_site_fract_x
_atom_site_fract_y
_atom_site_fract_z
Si Si1 0.609766 0.323544 0.232443
Si Si2 0.281230 0.179546 0.881201
Si Si3 0.889454 0.824998 0.686591
Si Si4 0.224464 0.678281 0.572348
Si Si5 0.606111 0.820852 0.631808
Si Si6 0.892632 0.681762 0.821774
Si Si7 0.607335 0.682064 0.000000
O O1 0.500000 0.302137 0.218349
O O2 0.641189 0.500000 0.221588
O O3 0.665812 0.212108 0.185357
O O4 0.634735 0.273866 0.304693
O O5 0.174187 0.242041 0.875914
O O6 0.337305 0.263310 0.937435
O O7 0.278260 0.000000 0.896301
O O8 0.847644 0.748622 0.623014
O O9 0.858150 0.734587 0.750864
O O10 0.000000 0.816973 0.678155
O O11 0.853393 0.000000 0.692822
O O12 0.184535 0.702981 0.500000
O O13 0.239455 0.500000 0.587786
O O14 0.324795 0.764626 0.575692
O O15 0.500000 0.783716 0.609949
O O16 0.619187 0.000000 0.646664
O O17 0.883453 0.500000 0.826250
O O18 0.000000 0.735783 0.834627
O O19 0.604388 0.500000 0.000000
O O20 0.500000 0.746794 0.000000
#
# Coordination Sequence:
#
# PCOD8198779 Si02
#       7
#     8   8   8   8   8   8   4
#     4  10  20  35  57  84 114 149 190 236 285 340
#     4  12  24  38  60  89 123 159 194 238 289 340
#     4  10  21  38  61  88 117 148 185 235 292 345
#     4  11  24  39  55  77 108 148 191 234 283 345
#     4  10  21  37  57  81 109 142 184 237 293 345
#     4  10  21  39  64  91 119 153 194 239 286 339
#     4  11  25  45  66  89 122 163 205 244 282 333
#
# _framework density 20.341360000000002
#
# number of rings (size 3 to 8) (size 9 to 14) (size 15 to 20)
#    0.000    1.462    0.000    5.308    0.000    8.000 
#    0.000    3.462    0.000    2.308    0.000    0.000 
#    0.000    0.000    0.000    0.000    0.000    0.000 
#
# Total GULP energy -645015.334006 kJ/mol
# GULP energy per Si atom -12404.141039 kJ/mol
# Density = 2.029506 g / cm^3
# Si number density = 20.341360 Si / 1000 Ang^3
#
#
#
# Elastic Constant Matrix: (Units=GPa)
#
#
# Indices 1 2 3 4 5 6 
#
# 1 85.2257 35.7160 61.9518 0.0000 0.0000 0.0000
# 2 35.7160 95.4871 34.2663 0.0000 0.0000 0.0000
# 3 61.9518 34.2663 78.3874 0.0000 0.0000 0.0000
# 4 0.0000 0.0000 0.0000 -104.7491 0.0000 0.0000
# 5 0.0000 0.0000 0.0000 0.0000 31.1760 0.0000
# 6 0.0000 0.0000 0.0000 0.0000 0.0000 32.8817
#
#
#
# Elastic Compliance Matrix: (Units=1/GPa)
#
#
# Indices 1 2 3 4 5 6 
#
# 1 0.028299 -0.003035 -0.021039 0.000000 0.000000 0.000000
# 2 -0.003035 0.012747 -0.003173 0.000000 0.000000 0.000000
# 3 -0.021039 -0.003173 0.030772 0.000000 0.000000 0.000000
# 4 0.000000 0.000000 0.000000 -0.009547 0.000000 0.000000
# 5 0.000000 0.000000 0.000000 0.000000 0.032076 0.000000
# 6 0.000000 0.000000 0.000000 0.000000 0.000000 0.030412
#
#
# Mechanical properties :
#
#
# Convention : Reuss Voigt Hill
#
# Bulk Modulus (GPa) = 57.72625 58.10760 57.91692
# Shear Modulus (GPa) = 27.02311 0.33945 13.68128
#
# Velocity S-wave (km/s) = 3.64879 0.40895 2.59624
# Velocity P-wave (km/s) = 6.79646 5.37133 6.12548
#
# Compressibility (1/GPa) = 0.01732314
#
# Stress axis : x y z
#
# Youngs Moduli (GPa) = 35.33734 78.45204 32.49732
#
# Poissons Ratio (x) = 0.23810 0.68370
# Poissons Ratio (y) = 0.10725 0.10313
# Poissons Ratio (z) = 0.74345 0.24896
#
# Static dielectric constant tensor:
#      x y z
#    x 3.975050 0.000000 0.000000 
#    y 0.000000 3.809470 0.000000 
#    z 0.000000 0.000000 3.741200 
# 
# 
# High freq. dielectric constant tensor:
#      x y z
#    x 1.808550 0.000000 0.000000 
#    y 0.000000 1.808550 0.000000 
#    z 0.000000 0.000000 1.781690 
# 
# From -- ./inp_files/10966.got.cif
#   From: 2010.03.12/outbox.cif.g09.slc.cpg/sg47_6_cif.got.tgz:10966.got - 2010.04.14 03:12:58.
