data_PCOD8198769
_publ_section_title
;
Structure prediction by ZEFSAII (Michael W. Deem and Ramdas Pophale) SiO2 
 PCOD8198769
Probable space group: P M M M
;
_chemical_formula_sum "Si O2"
_cell_formula_units_Z 40
_cell_length_a 27.547279
_cell_length_b 9.069424
_cell_length_c 7.831491
_cell_angle_alpha 90.000000
_cell_angle_beta 90.000000
_cell_angle_gamma 90.000000
_cell_volume 1956.603683
_symmetry_space_group_name_H-M "P M M M"
_symmetry_group_IT_number 47
_symmetry_cell_setting 'orthorhombic'
loop_
_space_group_symop_operation_xyz
x,y,z
-x,-y,z
x,-y,-z
-x,y,-z
-x,-y,-z
x,y,-z
-x,y,z
x,-y,z
loop_
_atom_site_type_symbol
_atom_site_label
_atom_site_fract_x
_atom_site_fract_y
_atom_site_fract_z
Si Si1 0.311209 0.837749 0.695960
Si Si2 0.054165 0.174899 0.000000
Si Si3 0.403556 0.333441 0.196645
Si Si4 0.220089 0.335520 0.297572
Si Si5 0.877791 0.173715 0.694988
Si Si6 0.500000 0.829568 0.701354
O O1 0.297828 0.860287 0.500000
O O2 0.361224 0.749308 0.704056
O O3 0.266854 0.748036 0.782469
O O4 0.316521 0.000000 0.782330
O O5 0.080838 0.228168 0.826523
O O6 0.000000 0.242634 0.000000
O O7 0.051659 0.000000 0.000000
O O8 0.408809 0.500000 0.267665
O O9 0.453402 0.247917 0.220513
O O10 0.389111 0.335402 0.000000
O O11 0.224687 0.343647 0.500000
O O12 0.218444 0.500000 0.220018
O O13 0.171653 0.250003 0.244552
O O14 0.892223 0.218018 0.500000
O O15 0.869383 0.000000 0.708140
O O16 0.500000 0.810750 0.500000
O O17 0.500000 0.000000 0.756057
#
# Coordination Sequence:
#
# PCOD8198769 Si02
#       6
#     8   4   8   8   8   4
#     4  10  20  35  57  84 112 143 182 226 272 328
#     4   9  18  32  51  79 111 141 181 232 281 330
#     4  11  24  40  57  81 113 146 182 224 272 327
#     4   9  17  31  53  79 107 141 180 222 270 323
#     4   9  17  31  52  77 106 142 184 229 278 333
#     4  11  24  41  62  86 108 137 182 229 274 328
#
# _framework density 20.443587000000001
#
# number of rings (size 3 to 8) (size 9 to 14) (size 15 to 20)
#    0.000    2.200    0.000    3.000    0.000   10.000 
#    1.800    2.500    0.000    1.200    0.000    2.800 
#    0.000    0.000    0.000    0.000    0.000    0.000 
#
# Total GULP energy -495970.023864 kJ/mol
# GULP energy per Si atom -12399.250597 kJ/mol
# Density = 2.039706 g / cm^3
# Si number density = 20.443587 Si / 1000 Ang^3
#
#
#
# Elastic Constant Matrix: (Units=GPa)
#
#
# Indices 1 2 3 4 5 6 
#
# 1 182.0317 66.5552 37.7126 0.0000 0.0000 0.0000
# 2 66.5552 129.9132 25.8745 0.0000 0.0000 0.0000
# 3 37.7126 25.8745 59.7951 0.0000 0.0000 0.0000
# 4 0.0000 0.0000 0.0000 15.0618 0.0000 0.0000
# 5 0.0000 0.0000 0.0000 0.0000 5.2339 0.0000
# 6 0.0000 0.0000 0.0000 0.0000 0.0000 -3.3063
#
#
#
# Elastic Compliance Matrix: (Units=1/GPa)
#
#
# Indices 1 2 3 4 5 6 
#
# 1 0.007300 -0.003089 -0.003267 0.000000 0.000000 0.000000
# 2 -0.003089 0.009731 -0.002262 0.000000 0.000000 0.000000
# 3 -0.003267 -0.002262 0.019763 0.000000 0.000000 0.000000
# 4 0.000000 0.000000 0.000000 0.066393 0.000000 0.000000
# 5 0.000000 0.000000 0.000000 0.000000 0.191061 0.000000
# 6 0.000000 0.000000 0.000000 0.000000 0.000000 -0.302452
#
#
# Mechanical properties :
#
#
# Convention : Reuss Voigt Hill
#
# Bulk Modulus (GPa) = 51.13404 70.22495 60.67949
# Shear Modulus (GPa) = 321.50292 19.50440 170.50366
#
# Velocity S-wave (km/s) = 12.55408 3.09214 9.14238
# Velocity P-wave (km/s) = 15.33644 6.86830 11.88234
#
# Compressibility (1/GPa) = 0.01955645
#
# Stress axis : x y z
#
# Youngs Moduli (GPa) = 136.98854 102.76903 50.59846
#
# Poissons Ratio (x) = 0.31746 0.16532
# Poissons Ratio (y) = 0.42316 0.11447
# Poissons Ratio (z) = 0.44759 0.23250
#
# Static dielectric constant tensor:
#      x y z
#    x 3.773130 0.000000 0.000000 
#    y 0.000000 3.916380 0.000000 
#    z 0.000000 0.000000 3.544070 
# 
# 
# High freq. dielectric constant tensor:
#      x y z
#    x 1.801330 0.000000 0.000000 
#    y 0.000000 1.798960 0.000000 
#    z 0.000000 0.000000 1.783450 
# 
# From -- ./inp_files/13044.got.cif
#   From: 2010.03.12/outbox.cif.g09.slc.cpg/sg47_7_cif.got.tgz:13044.got - 2010.04.14 03:12:58.
