data_PCOD8198367
_publ_section_title
;
Structure prediction by ZEFSAII (Michael W. Deem and Ramdas Pophale) SiO2 
 PCOD8198367
Probable space group: P M M M
;
_chemical_formula_sum "Si O2"
_cell_formula_units_Z 48
_cell_length_a 14.003691
_cell_length_b 9.129516
_cell_length_c 20.434442
_cell_angle_alpha 90.000000
_cell_angle_beta 90.000000
_cell_angle_gamma 90.000000
_cell_volume 2612.480493
_symmetry_space_group_name_H-M "P M M M"
_symmetry_group_IT_number 47
_symmetry_cell_setting 'orthorhombic'
loop_
_space_group_symop_operation_xyz
x,y,z
-x,-y,z
x,-y,-z
-x,y,-z
-x,-y,-z
x,y,-z
-x,y,z
x,-y,z
loop_
_atom_site_type_symbol
_atom_site_label
_atom_site_fract_x
_atom_site_fract_y
_atom_site_fract_z
Si Si1 0.201731 0.329534 0.877462
Si Si2 0.605788 0.829419 0.316557
Si Si3 0.110403 0.173397 0.000000
Si Si4 0.796328 0.830518 0.620020
Si Si5 0.891040 0.673228 0.500000
Si Si6 0.887450 0.166220 0.758322
Si Si7 0.393973 0.668820 0.815816
O O1 0.179121 0.500000 0.889620
O O2 0.161447 0.235485 0.936435
O O3 0.153034 0.280106 0.810390
O O4 0.316027 0.301022 0.872402
O O5 0.500000 0.778261 0.339898
O O6 0.683486 0.792794 0.372327
O O7 0.635929 0.755020 0.248947
O O8 0.607432 0.000000 0.301033
O O9 0.000000 0.221433 0.000000
O O10 0.120576 0.000000 0.000000
O O11 0.838073 0.730244 0.563879
O O12 0.849012 0.791153 0.687195
O O13 0.811833 0.000000 0.601118
O O14 0.886398 0.500000 0.500000
O O15 0.000000 0.729691 0.500000
O O16 0.000000 0.181656 0.757325
O O17 0.856651 0.000000 0.776613
O O18 0.500000 0.715599 0.840740
O O19 0.392676 0.500000 0.795680
#
# Coordination Sequence:
#
# PCOD8198367 Si02
#       7
#     8   8   4   8   4   8   8
#     4  11  22  36  57  84 112 144 184 228 274 325
#     4   9  17  31  55  86 114 141 178 225 272 318
#     4  11  25  43  60  77 106 150 191 229 278 333
#     4  10  20  36  58  82 110 146 186 225 273 333
#     4  11  25  41  56  77 108 146 189 237 284 329
#     4  10  20  34  54  81 111 142 181 228 275 327
#     4   9  18  33  54  82 115 148 179 216 270 330
#
# _framework density 18.373342999999998
#
# number of rings (size 3 to 8) (size 9 to 14) (size 15 to 20)
#    0.000    2.000    1.667    2.000    0.000    6.333 
#    0.000    0.833    0.000    5.000    0.000    0.000 
#    0.000    0.000    0.000    0.000    0.000    0.000 
#
# Total GULP energy -595186.109272 kJ/mol
# GULP energy per Si atom -12399.710610 kJ/mol
# Density = 1.833152 g / cm^3
# Si number density = 18.373343 Si / 1000 Ang^3
#
#
#
# Elastic Constant Matrix: (Units=GPa)
#
#
# Indices 1 2 3 4 5 6 
#
# 1 126.3570 49.0759 68.1222 0.0000 0.0000 0.0000
# 2 49.0759 62.9535 48.2091 0.0000 0.0000 0.0000
# 3 68.1222 48.2091 107.1301 0.0000 0.0000 0.0000
# 4 0.0000 0.0000 0.0000 282.6768 0.0000 0.0000
# 5 0.0000 0.0000 0.0000 0.0000 26.4965 0.0000
# 6 0.0000 0.0000 0.0000 0.0000 0.0000 26.0221
#
#
#
# Elastic Compliance Matrix: (Units=1/GPa)
#
#
# Indices 1 2 3 4 5 6 
#
# 1 0.013366 -0.005968 -0.005814 0.000000 0.000000 0.000000
# 2 -0.005968 0.026901 -0.008311 0.000000 0.000000 0.000000
# 3 -0.005814 -0.008311 0.016771 0.000000 0.000000 0.000000
# 4 0.000000 0.000000 0.000000 0.003538 0.000000 0.000000
# 5 0.000000 0.000000 0.000000 0.000000 0.037741 0.000000
# 6 0.000000 0.000000 0.000000 0.000000 0.000000 0.038429
#
#
# Mechanical properties :
#
#
# Convention : Reuss Voigt Hill
#
# Bulk Modulus (GPa) = 59.33341 69.69500 64.51421
# Shear Modulus (GPa) = 27.38985 75.77465 51.58225
#
# Velocity S-wave (km/s) = 3.86520 6.42893 5.30429
# Velocity P-wave (km/s) = 7.23070 9.65004 8.52661
#
# Compressibility (1/GPa) = 0.01685391
#
# Stress axis : x y z
#
# Youngs Moduli (GPa) = 74.81522 37.17293 59.62507
#
# Poissons Ratio (x) = 0.22183 0.34666
# Poissons Ratio (y) = 0.44646 0.49555
# Poissons Ratio (z) = 0.43497 0.30895
#
# Static dielectric constant tensor:
#      x y z
#    x 3.953240 0.000000 0.000000 
#    y 0.000000 3.414730 0.000000 
#    z 0.000000 0.000000 2.329620 
# 
# 
# High freq. dielectric constant tensor:
#      x y z
#    x 1.735720 0.000000 0.000000 
#    y 0.000000 1.712740 0.000000 
#    z 0.000000 0.000000 1.691180 
# 
# From -- ./inp_files/6442.got.cif
#   From: 2010.03.12/outbox.cif.g09.slc.cpg/sg47_4_cif.got.tgz:6442.got - 2010.04.14 03:12:58.
