data_PCOD8198745
_publ_section_title
;
Structure prediction by ZEFSAII (Michael W. Deem and Ramdas Pophale) SiO2 
 PCOD8198745
Probable space group: P M M M
;
_chemical_formula_sum "Si O2"
_cell_formula_units_Z 44
_cell_length_a 8.962634
_cell_length_b 28.126952
_cell_length_c 9.124581
_cell_angle_alpha 90.000000
_cell_angle_beta 90.000000
_cell_angle_gamma 90.000000
_cell_volume 2300.230007
_symmetry_space_group_name_H-M "P M M M"
_symmetry_group_IT_number 47
_symmetry_cell_setting 'orthorhombic'
loop_
_space_group_symop_operation_xyz
x,y,z
-x,-y,z
x,-y,-z
-x,y,-z
-x,-y,-z
x,y,-z
-x,y,z
x,-y,z
loop_
_atom_site_type_symbol
_atom_site_label
_atom_site_fract_x
_atom_site_fract_y
_atom_site_fract_z
Si Si1 0.171095 0.863109 0.327804
Si Si2 0.325401 0.587532 0.828748
Si Si3 0.671179 0.054812 0.830815
Si Si4 0.674338 0.777444 0.830359
Si Si5 0.173314 0.500000 0.672254
Si Si6 0.831976 0.317133 0.174130
O O1 0.194990 0.862465 0.500000
O O2 0.219666 0.914397 0.268785
O O3 0.274166 0.823102 0.257949
O O4 0.000000 0.853665 0.284437
O O5 0.500000 0.586734 0.796732
O O6 0.247604 0.546323 0.739197
O O7 0.260398 0.637421 0.770455
O O8 0.290971 0.580038 0.000000
O O9 0.500000 0.065685 0.789173
O O10 0.709265 0.000000 0.800802
O O11 0.698809 0.067702 0.000000
O O12 0.500000 0.769564 0.807825
O O13 0.756554 0.730930 0.765961
O O14 0.714611 0.785563 0.000000
O O15 0.200843 0.500000 0.500000
O O16 0.000000 0.500000 0.713139
O O17 0.000000 0.320381 0.235395
O O18 0.829781 0.316051 0.000000
#
# Coordination Sequence:
#
# PCOD8198745 Si02
#       6
#     8   8   8   8   4   8
#     4  11  24  38  52  76 111 147 182 221 265 315
#     4  10  20  35  57  84 111 140 178 223 269 319
#     4   9  19  37  60  84 108 136 175 222 269 319
#     4  10  20  35  57  83 109 139 178 223 268 316
#     4  11  24  39  54  76 108 145 184 225 270 320
#     4   9  17  31  54  83 112 141 174 216 267 319
#
# _framework density 19.128523000000001
#
# number of rings (size 3 to 8) (size 9 to 14) (size 15 to 20)
#    0.000    2.091    0.000    3.818    0.000   10.909 
#    0.000    3.636    0.000    5.455    0.000    0.000 
#    0.000    0.000    0.000    0.000    0.000    0.000 
#
# Total GULP energy -545761.854080 kJ/mol
# GULP energy per Si atom -12403.678502 kJ/mol
# Density = 1.908499 g / cm^3
# Si number density = 19.128523 Si / 1000 Ang^3
#
#
#
# Elastic Constant Matrix: (Units=GPa)
#
#
# Indices 1 2 3 4 5 6 
#
# 1 111.1922 60.2098 49.8183 0.0000 0.0000 0.0000
# 2 60.2098 135.4135 45.0902 0.0000 0.0000 0.0000
# 3 49.8183 45.0902 54.6437 0.0000 0.0000 0.0000
# 4 0.0000 0.0000 0.0000 31.5079 0.0000 0.0000
# 5 0.0000 0.0000 0.0000 0.0000 26.9344 0.0000
# 6 0.0000 0.0000 0.0000 0.0000 0.0000 27.5342
#
#
#
# Elastic Compliance Matrix: (Units=1/GPa)
#
#
# Indices 1 2 3 4 5 6 
#
# 1 0.016114 -0.003134 -0.012105 0.000000 0.000000 0.000000
# 2 -0.003134 0.010792 -0.006048 0.000000 0.000000 0.000000
# 3 -0.012105 -0.006048 0.034327 0.000000 0.000000 0.000000
# 4 0.000000 0.000000 0.000000 0.031738 0.000000 0.000000
# 5 0.000000 0.000000 0.000000 0.000000 0.037127 0.000000
# 6 0.000000 0.000000 0.000000 0.000000 0.000000 0.036318
#
#
# Mechanical properties :
#
#
# Convention : Reuss Voigt Hill
#
# Bulk Modulus (GPa) = 53.59308 67.94288 60.76798
# Shear Modulus (GPa) = 23.23309 26.93738 25.08523
#
# Velocity S-wave (km/s) = 3.48886 3.75671 3.62526
# Velocity P-wave (km/s) = 6.65640 7.37655 7.02571
#
# Compressibility (1/GPa) = 0.01865913
#
# Stress axis : x y z
#
# Youngs Moduli (GPa) = 62.05786 92.65931 29.13178
#
# Poissons Ratio (x) = 0.29041 0.35263
# Poissons Ratio (y) = 0.19450 0.17619
# Poissons Ratio (z) = 0.75120 0.56040
#
# Static dielectric constant tensor:
#      x y z
#    x 3.646260 0.000000 0.000000 
#    y 0.000000 3.689520 0.000000 
#    z 0.000000 0.000000 3.246480 
# 
# 
# High freq. dielectric constant tensor:
#      x y z
#    x 1.757420 0.000000 0.000000 
#    y 0.000000 1.761870 0.000000 
#    z 0.000000 0.000000 1.715170 
# 
# From -- ./inp_files/2027.got.cif
#   From: 2010.03.12/outbox.cif.g09.slc.cpg/sg47_2_cif.got.tgz:2027.got - 2010.04.14 03:12:58.
