data_PCOD8198453
_publ_section_title
;
Structure prediction by ZEFSAII (Michael W. Deem and Ramdas Pophale) SiO2 
 PCOD8198453
Probable space group: P M M M
;
_chemical_formula_sum "Si O2"
_cell_formula_units_Z 48
_cell_length_a 9.001711
_cell_length_b 31.259876
_cell_length_c 9.084934
_cell_angle_alpha 90.000000
_cell_angle_beta 90.000000
_cell_angle_gamma 90.000000
_cell_volume 2556.431106
_symmetry_space_group_name_H-M "P M M M"
_symmetry_group_IT_number 47
_symmetry_cell_setting 'orthorhombic'
loop_
_space_group_symop_operation_xyz
x,y,z
-x,-y,z
x,-y,-z
-x,y,-z
-x,-y,-z
x,y,-z
-x,y,z
x,-y,z
loop_
_atom_site_type_symbol
_atom_site_label
_atom_site_fract_x
_atom_site_fract_y
_atom_site_fract_z
Si Si1 0.825206 0.500000 0.828135
Si Si2 0.662727 0.000000 0.174846
Si Si3 0.676663 0.091622 0.164838
Si Si4 0.823829 0.740541 0.336638
Si Si5 0.174717 0.657076 0.829372
Si Si6 0.834633 0.834087 0.674117
Si Si7 0.325646 0.420655 0.328006
O O1 0.756783 0.458293 0.755731
O O2 0.000000 0.500000 0.800309
O O3 0.786684 0.500000 0.000000
O O4 0.742540 0.954938 0.219216
O O5 0.500000 0.000000 0.248660
O O6 0.645464 0.000000 0.000000
O O7 0.500000 0.088663 0.167889
O O8 0.727419 0.129088 0.270626
O O9 0.733026 0.101749 0.000000
O O10 0.758986 0.730497 0.500000
O O11 0.773238 0.704129 0.222472
O O12 0.770466 0.787263 0.279105
O O13 0.000000 0.742333 0.347898
O O14 0.266914 0.623924 0.733488
O O15 0.000000 0.649861 0.801437
O O16 0.214830 0.651493 0.000000
O O17 0.840420 0.835866 0.500000
O O18 0.000000 0.841149 0.739314
O O19 0.288458 0.423753 0.500000
O O20 0.500000 0.424538 0.298237
#
# Coordination Sequence:
#
# PCOD8198453 Si02
#       7
#     4   4   8   8   8   8   8
#     4  11  24  41  62  88 114 141 178 221 262 306
#     4   7  12  26  46  65  88 120 158 201 246 293
#     4   9  17  30  49  71  93 121 161 206 250 298
#     4   8  15  30  51  72  97 133 173 209 247 295
#     4  10  20  34  55  83 109 134 171 217 260 303
#     4   9  18  32  49  71 100 132 165 202 248 302
#     4  11  24  40  58  82 112 146 182 216 255 306
#
# _framework density 18.776176
#
# number of rings (size 3 to 8) (size 9 to 14) (size 15 to 20)
#    0.000    2.667    0.000    4.000    0.000    7.333 
#    0.000    3.333    0.000    5.000    0.000    0.000 
#    0.000    0.000    0.000    0.000    0.000    0.000 
#
# Total GULP energy -594886.241917 kJ/mol
# GULP energy per Si atom -12393.463373 kJ/mol
# Density = 1.873344 g / cm^3
# Si number density = 18.776176 Si / 1000 Ang^3
#
#
#
# Elastic Constant Matrix: (Units=GPa)
#
#
# Indices 1 2 3 4 5 6 
#
# 1 47.5682 48.2088 45.1881 0.0000 0.0000 0.0000
# 2 48.2088 177.4227 67.4086 0.0000 0.0000 0.0000
# 3 45.1881 67.4086 84.1182 0.0000 0.0000 0.0000
# 4 0.0000 0.0000 0.0000 36.4049 0.0000 0.0000
# 5 0.0000 0.0000 0.0000 0.0000 24.6901 0.0000
# 6 0.0000 0.0000 0.0000 0.0000 0.0000 33.1992
#
#
#
# Elastic Compliance Matrix: (Units=1/GPa)
#
#
# Indices 1 2 3 4 5 6 
#
# 1 0.045194 -0.004394 -0.020757 0.000000 0.000000 0.000000
# 2 -0.004394 0.008531 -0.004476 0.000000 0.000000 0.000000
# 3 -0.020757 -0.004476 0.026625 0.000000 0.000000 0.000000
# 4 0.000000 0.000000 0.000000 0.027469 0.000000 0.000000
# 5 0.000000 0.000000 0.000000 0.000000 0.040502 0.000000
# 6 0.000000 0.000000 0.000000 0.000000 0.000000 0.030121
#
#
# Mechanical properties :
#
#
# Convention : Reuss Voigt Hill
#
# Bulk Modulus (GPa) = 47.40084 70.08001 58.74042
# Shear Modulus (GPa) = 20.43093 28.74576 24.58834
#
# Velocity S-wave (km/s) = 3.30226 3.91701 3.62270
# Velocity P-wave (km/s) = 6.31189 7.60672 6.98935
#
# Compressibility (1/GPa) = 0.02109667
#
# Stress axis : x y z
#
# Youngs Moduli (GPa) = 22.12698 117.22548 37.55809
#
# Poissons Ratio (x) = 0.51504 0.77960
# Poissons Ratio (y) = 0.09722 0.16810
# Poissons Ratio (z) = 0.45929 0.52468
#
# Static dielectric constant tensor:
#      x y z
#    x 3.161420 0.000000 0.000000 
#    y 0.000000 3.970590 0.000000 
#    z 0.000000 0.000000 3.372210 
# 
# 
# High freq. dielectric constant tensor:
#      x y z
#    x 1.694310 0.000000 0.000000 
#    y 0.000000 1.754620 0.000000 
#    z 0.000000 0.000000 1.719260 
# 
# From -- ./inp_files/2747.got.cif
#   From: 2010.03.12/outbox.cif.g09.slc.cpg/sg47_2_cif.got.tgz:2747.got - 2010.04.14 03:12:58.
