data_PCOD8198093
_publ_section_title
;
Structure prediction by ZEFSAII (Michael W. Deem and Ramdas Pophale) SiO2 
 PCOD8198093
Probable space group: P M M M
;
_chemical_formula_sum "Si O2"
_cell_formula_units_Z 40
_cell_length_a 9.152954
_cell_length_b 7.930829
_cell_length_c 27.612293
_cell_angle_alpha 90.000000
_cell_angle_beta 90.000000
_cell_angle_gamma 90.000000
_cell_volume 2004.390514
_symmetry_space_group_name_H-M "P M M M"
_symmetry_group_IT_number 47
_symmetry_cell_setting 'orthorhombic'
loop_
_space_group_symop_operation_xyz
x,y,z
-x,-y,z
x,-y,-z
-x,y,-z
-x,-y,-z
x,y,-z
-x,y,z
x,-y,z
loop_
_atom_site_type_symbol
_atom_site_label
_atom_site_fract_x
_atom_site_fract_y
_atom_site_fract_z
Si Si1 0.326483 0.813083 0.116473
Si Si2 0.338132 0.195891 0.408188
Si Si3 0.674536 0.500000 0.945249
Si Si4 0.333420 0.301043 0.779958
Si Si5 0.164590 0.201646 0.500000
Si Si6 0.833890 0.300486 0.685312
O O1 0.500000 0.798715 0.116372
O O2 0.263364 0.668391 0.081009
O O3 0.271410 0.784216 0.171285
O O4 0.276288 0.000000 0.098990
O O5 0.500000 0.279055 0.405838
O O6 0.246427 0.274930 0.452582
O O7 0.255282 0.221323 0.358233
O O8 0.355429 0.000000 0.418377
O O9 0.500000 0.500000 0.944119
O O10 0.733500 0.500000 0.000000
O O11 0.500000 0.246229 0.769590
O O12 0.322374 0.500000 0.787188
O O13 0.235419 0.236506 0.735544
O O14 0.000000 0.272975 0.500000
O O15 0.161746 0.000000 0.500000
O O16 0.823493 0.500000 0.681685
O O17 0.000000 0.236426 0.682663
#
# Coordination Sequence:
#
# PCOD8198093 Si02
#       6
#     8   8   4   8   4   8
#     4   9  16  26  42  65  93 128 172 216 258 311
#     4  10  20  34  53  76 101 131 171 215 258 311
#     4   9  16  26  40  62  97 137 173 212 261 312
#     4   9  16  29  48  66  91 130 169 206 254 311
#     4   9  17  31  52  75 100 133 170 212 266 317
#     4  10  21  35  51  74 104 135 167 207 259 315
#
# _framework density 19.956191
#
# number of rings (size 3 to 8) (size 9 to 14) (size 15 to 20)
#    0.000    2.600    1.000    1.500    0.000    4.800 
#    0.000    4.500    0.000    3.000    0.000    0.000 
#    0.000    1.600    0.000    1.800    0.000    2.000 
#
# Total GULP energy -495915.024408 kJ/mol
# GULP energy per Si atom -12397.875610 kJ/mol
# Density = 1.991077 g / cm^3
# Si number density = 19.956191 Si / 1000 Ang^3
#
#
#
# Elastic Constant Matrix: (Units=GPa)
#
#
# Indices 1 2 3 4 5 6 
#
# 1 112.4534 23.0480 60.1883 0.0000 0.0000 0.0000
# 2 23.0480 70.2715 56.1958 0.0000 0.0000 0.0000
# 3 60.1883 56.1958 168.2394 0.0000 0.0000 0.0000
# 4 0.0000 0.0000 0.0000 26.6578 0.0000 0.0000
# 5 0.0000 0.0000 0.0000 0.0000 4.6217 0.0000
# 6 0.0000 0.0000 0.0000 0.0000 0.0000 12.6062
#
#
#
# Elastic Compliance Matrix: (Units=1/GPa)
#
#
# Indices 1 2 3 4 5 6 
#
# 1 0.011019 -0.000630 -0.003732 0.000000 0.000000 0.000000
# 2 -0.000630 0.019453 -0.006272 0.000000 0.000000 0.000000
# 3 -0.003732 -0.006272 0.009374 0.000000 0.000000 0.000000
# 4 0.000000 0.000000 0.000000 0.037513 0.000000 0.000000
# 5 0.000000 0.000000 0.000000 0.000000 0.216373 0.000000
# 6 0.000000 0.000000 0.000000 0.000000 0.000000 0.079326
#
#
# Mechanical properties :
#
#
# Convention : Reuss Voigt Hill
#
# Bulk Modulus (GPa) = 53.82654 69.98098 61.90376
# Shear Modulus (GPa) = 12.48381 22.87927 17.68154
#
# Velocity S-wave (km/s) = 2.50383 3.38964 2.97983
# Velocity P-wave (km/s) = 5.94893 7.10373 6.55182
#
# Compressibility (1/GPa) = 0.01857820
#
# Stress axis : x y z
#
# Youngs Moduli (GPa) = 90.75256 51.40554 106.67703
#
# Poissons Ratio (x) = 0.03238 0.39809
# Poissons Ratio (y) = 0.05716 0.66913
# Poissons Ratio (z) = 0.33866 0.32244
#
# Static dielectric constant tensor:
#      x y z
#    x 3.481370 0.000000 0.000000 
#    y 0.000000 3.504850 0.000000 
#    z 0.000000 0.000000 3.749300 
# 
# 
# High freq. dielectric constant tensor:
#      x y z
#    x 1.742690 0.000000 0.000000 
#    y 0.000000 1.764000 0.000000 
#    z 0.000000 0.000000 1.785910 
# 
# From -- ./inp_files/33090.got.cif
#   From: 2010.03.12/outbox.cif.g09.slc.cpg/sg47_17_cif.got.tgz:33090.got - 2010.04.14 03:12:58.
