data_PCOD8198270
_publ_section_title
;
Structure prediction by ZEFSAII (Michael W. Deem and Ramdas Pophale) SiO2 
 PCOD8198270
Probable space group: P M M M
;
_chemical_formula_sum "Si O2"
_cell_formula_units_Z 44
_cell_length_a 8.850314
_cell_length_b 17.784084
_cell_length_c 15.358312
_cell_angle_alpha 90.000000
_cell_angle_beta 90.000000
_cell_angle_gamma 90.000000
_cell_volume 2417.317334
_symmetry_space_group_name_H-M "P M M M"
_symmetry_group_IT_number 47
_symmetry_cell_setting 'orthorhombic'
loop_
_space_group_symop_operation_xyz
x,y,z
-x,-y,z
x,-y,-z
-x,y,-z
-x,-y,-z
x,y,-z
-x,y,z
x,-y,z
loop_
_atom_site_type_symbol
_atom_site_label
_atom_site_fract_x
_atom_site_fract_y
_atom_site_fract_z
Si Si1 0.822557 0.353652 0.332478
Si Si2 0.325517 0.416631 0.830444
Si Si3 0.824496 0.912311 0.402031
Si Si4 0.322134 0.739639 0.094030
Si Si5 0.332911 0.587163 0.500000
Si Si6 0.679176 0.203138 0.723738
O O1 0.777549 0.408772 0.254307
O O2 0.768970 0.392132 0.419167
O O3 0.739933 0.273845 0.328673
O O4 0.000000 0.339888 0.332919
O O5 0.500000 0.407807 0.801735
O O6 0.297765 0.500000 0.871779
O O7 0.282150 0.349232 0.896052
O O8 0.772028 0.887944 0.500000
O O9 0.734994 0.871415 0.324766
O O10 0.000000 0.893468 0.391299
O O11 0.792996 0.000000 0.389478
O O12 0.500000 0.749905 0.091082
O O13 0.260172 0.789412 0.175453
O O14 0.253562 0.765755 0.000000
O O15 0.361950 0.500000 0.500000
O O16 0.500000 0.626391 0.500000
O O17 0.500000 0.203894 0.723255
#
# Coordination Sequence:
#
# PCOD8198270 Si02
#       6
#     8   8   8   8   4   8
#     4  11  22  34  49  69  96 133 173 211 255 311
#     4   9  17  30  48  70  97 128 166 217 271 314
#     4   9  19  36  57  81 110 141 170 203 248 304
#     4   8  15  29  49  74 102 133 173 218 264 310
#     4  11  23  37  51  67  92 127 170 221 267 303
#     4  10  20  34  54  79 106 136 171 214 257 299
#
# _framework density 18.201996999999999
#
# number of rings (size 3 to 8) (size 9 to 14) (size 15 to 20)
#    0.000    2.455    0.000    4.636    1.273    4.364 
#    0.000    2.727    0.000   14.182    0.000    8.909 
#    0.000    0.000    0.000    0.000    0.000    0.000 
#
# Total GULP energy -545235.272410 kJ/mol
# GULP energy per Si atom -12391.710737 kJ/mol
# Density = 1.816057 g / cm^3
# Si number density = 18.201997 Si / 1000 Ang^3
#
#
#
# Elastic Constant Matrix: (Units=GPa)
#
#
# Indices 1 2 3 4 5 6 
#
# 1 62.4579 34.1207 40.7033 0.0000 0.0000 0.0000
# 2 34.1207 73.6899 51.9272 0.0000 0.0000 0.0000
# 3 40.7033 51.9272 139.2340 0.0000 0.0000 0.0000
# 4 0.0000 0.0000 0.0000 18.4967 0.0000 0.0000
# 5 0.0000 0.0000 0.0000 0.0000 5.5498 0.0000
# 6 0.0000 0.0000 0.0000 0.0000 0.0000 24.0915
#
#
#
# Elastic Compliance Matrix: (Units=1/GPa)
#
#
# Indices 1 2 3 4 5 6 
#
# 1 0.022751 -0.007932 -0.003693 0.000000 0.000000 0.000000
# 2 -0.007932 0.021174 -0.005578 0.000000 0.000000 0.000000
# 3 -0.003693 -0.005578 0.010342 0.000000 0.000000 0.000000
# 4 0.000000 0.000000 0.000000 0.054064 0.000000 0.000000
# 5 0.000000 0.000000 0.000000 0.000000 0.180185 0.000000
# 6 0.000000 0.000000 0.000000 0.000000 0.000000 0.041508
#
#
# Mechanical properties :
#
#
# Convention : Reuss Voigt Hill
#
# Bulk Modulus (GPa) = 50.34984 58.76491 54.55738
# Shear Modulus (GPa) = 13.47531 19.53631 16.50581
#
# Velocity S-wave (km/s) = 2.72383 3.27969 3.01460
# Velocity P-wave (km/s) = 6.13304 6.83350 6.49272
#
# Compressibility (1/GPa) = 0.01986104
#
# Stress axis : x y z
#
# Youngs Moduli (GPa) = 43.95497 47.22810 96.69416
#
# Poissons Ratio (x) = 0.37462 0.35705
# Poissons Ratio (y) = 0.34866 0.53935
# Poissons Ratio (z) = 0.16230 0.26343
#
# Static dielectric constant tensor:
#      x y z
#    x 3.238650 0.000000 0.000000 
#    y 0.000000 3.251660 0.000000 
#    z 0.000000 0.000000 3.724400 
# 
# 
# High freq. dielectric constant tensor:
#      x y z
#    x 1.689540 0.000000 0.000000 
#    y 0.000000 1.687470 0.000000 
#    z 0.000000 0.000000 1.707500 
# 
# From -- ./inp_files/6120.got.cif
#   From: 2010.03.12/outbox.cif.g09.slc.cpg/sg47_4_cif.got.tgz:6120.got - 2010.04.14 03:12:58.
