data_PCOD8198817
_publ_section_title
;
Structure prediction by ZEFSAII (Michael W. Deem and Ramdas Pophale) SiO2 
 PCOD8198817
Probable space group: P M M M
;
_chemical_formula_sum "Si O2"
_cell_formula_units_Z 56
_cell_length_a 9.256972
_cell_length_b 20.972230
_cell_length_c 14.324606
_cell_angle_alpha 90.000000
_cell_angle_beta 90.000000
_cell_angle_gamma 90.000000
_cell_volume 2780.969639
_symmetry_space_group_name_H-M "P M M M"
_symmetry_group_IT_number 47
_symmetry_cell_setting 'orthorhombic'
loop_
_space_group_symop_operation_xyz
x,y,z
-x,-y,z
x,-y,-z
-x,y,-z
-x,-y,-z
x,y,-z
-x,y,z
x,-y,z
loop_
_atom_site_type_symbol
_atom_site_label
_atom_site_fract_x
_atom_site_fract_y
_atom_site_fract_z
Si Si1 0.668968 0.743234 0.110053
Si Si2 0.830800 0.629397 0.796566
Si Si3 0.160433 0.072665 0.351299
Si Si4 0.167402 0.691018 0.393447
Si Si5 0.343576 0.189155 0.604299
Si Si6 0.829662 0.500000 0.893759
Si Si7 0.161350 0.136347 0.154147
Si Si8 0.342220 0.926486 0.000000
O O1 0.500000 0.743020 0.134019
O O2 0.737783 0.677180 0.141350
O O3 0.749291 0.798615 0.168385
O O4 0.696517 0.754888 0.000000
O O5 0.800156 0.636249 0.684286
O O6 0.779156 0.560524 0.832806
O O7 0.000000 0.641144 0.816670
O O8 0.269267 0.120077 0.402331
O O9 0.151131 0.095607 0.246315
O O10 0.000000 0.076635 0.396144
O O11 0.218447 0.000000 0.358348
O O12 0.213656 0.670176 0.500000
O O13 0.245493 0.754525 0.352920
O O14 0.000000 0.708894 0.394287
O O15 0.371201 0.211855 0.500000
O O16 0.500000 0.184824 0.656204
O O17 0.000000 0.500000 0.903372
O O18 0.764082 0.500000 0.000000
O O19 0.249803 0.090694 0.088432
O O20 0.000000 0.151795 0.116406
O O21 0.500000 0.891196 0.000000
O O22 0.373165 0.000000 0.000000
#
# Coordination Sequence:
#
# PCOD8198817 Si02
#       8
#     8   8   8   8   8   4   8   4
#     4  11  23  37  54  80 114 145 181 234 291 341
#     4  10  20  35  58  85 113 150 194 232 275 333
#     4  10  22  38  54  75 103 137 180 227 277 335
#     4   9  18  34  56  83 114 146 182 228 281 335
#     4  10  21  36  55  80 108 139 178 225 278 336
#     4   9  18  34  56  84 118 155 195 239 278 323
#     4  11  22  37  57  78 103 138 182 229 275 330
#     4  11  23  37  53  75 105 140 177 220 275 333
#
# _framework density 20.136862000000001
#
# number of rings (size 3 to 8) (size 9 to 14) (size 15 to 20)
#    0.000    1.857    0.714    3.214    0.000    9.143 
#    0.000    2.143    0.000    3.429    0.000    0.000 
#    0.000    3.429    0.000    0.000    0.000    0.000 
#
# Total GULP energy -694004.915598 kJ/mol
# GULP energy per Si atom -12392.944921 kJ/mol
# Density = 2.009103 g / cm^3
# Si number density = 20.136862 Si / 1000 Ang^3
#
#
#
# Elastic Constant Matrix: (Units=GPa)
#
#
# Indices 1 2 3 4 5 6 
#
# 1 110.5389 46.5151 34.7106 0.0000 0.0000 0.0000
# 2 46.5151 139.6081 44.1094 0.0000 0.0000 0.0000
# 3 34.7106 44.1094 84.8491 0.0000 0.0000 0.0000
# 4 0.0000 0.0000 0.0000 37.2409 0.0000 0.0000
# 5 0.0000 0.0000 0.0000 0.0000 -122.9043 0.0000
# 6 0.0000 0.0000 0.0000 0.0000 0.0000 13.6024
#
#
#
# Elastic Compliance Matrix: (Units=1/GPa)
#
#
# Indices 1 2 3 4 5 6 
#
# 1 0.011187 -0.002730 -0.003157 0.000000 0.000000 0.000000
# 2 -0.002730 0.009237 -0.003685 0.000000 0.000000 0.000000
# 3 -0.003157 -0.003685 0.014993 0.000000 0.000000 0.000000
# 4 0.000000 0.000000 0.000000 0.026852 0.000000 0.000000
# 5 0.000000 0.000000 0.000000 0.000000 -0.008136 0.000000
# 6 0.000000 0.000000 0.000000 0.000000 0.000000 0.073517
#
#
# Mechanical properties :
#
#
# Convention : Reuss Voigt Hill
#
# Bulk Modulus (GPa) = 61.45435 65.07403 63.26419
# Shear Modulus (GPa) = 32.84789 -0.43479 16.20655
#
# Velocity S-wave (km/s) = 4.04323 -0.46517 2.84001
# Velocity P-wave (km/s) = 7.23751 5.66547 6.49920
#
# Compressibility (1/GPa) = 0.01627224
#
# Stress axis : x y z
#
# Youngs Moduli (GPa) = 89.39218 108.26387 66.69807
#
# Poissons Ratio (x) = 0.29552 0.21058
# Poissons Ratio (y) = 0.24401 0.24579
# Poissons Ratio (z) = 0.28224 0.39896
#
# Static dielectric constant tensor:
#      x y z
#    x 3.900860 0.000000 0.000000 
#    y 0.000000 3.603400 0.000000 
#    z 0.000000 0.000000 3.645430 
# 
# 
# High freq. dielectric constant tensor:
#      x y z
#    x 1.783710 0.000000 0.000000 
#    y 0.000000 1.771910 0.000000 
#    z 0.000000 0.000000 1.794980 
# 
# From -- ./inp_files/21631.got.cif
#   From: 2010.03.12/outbox.cif.g09.slc.cpg/sg47_11_cif.got.tgz:21631.got - 2010.04.14 03:12:58.
