data_PCOD8198531
_publ_section_title
;
Structure prediction by ZEFSAII (Michael W. Deem and Ramdas Pophale) SiO2 
 PCOD8198531
Probable space group: P M M M
;
_chemical_formula_sum "Si O2"
_cell_formula_units_Z 64
_cell_length_a 23.699300
_cell_length_b 9.068591
_cell_length_c 15.341108
_cell_angle_alpha 90.000000
_cell_angle_beta 90.000000
_cell_angle_gamma 90.000000
_cell_volume 3297.099559
_symmetry_space_group_name_H-M "P M M M"
_symmetry_group_IT_number 47
_symmetry_cell_setting 'orthorhombic'
loop_
_space_group_symop_operation_xyz
x,y,z
-x,-y,z
x,-y,-z
-x,y,-z
-x,-y,-z
x,y,-z
-x,y,z
x,-y,z
loop_
_atom_site_type_symbol
_atom_site_label
_atom_site_fract_x
_atom_site_fract_y
_atom_site_fract_z
Si Si1 0.436317 0.328181 0.848551
Si Si2 0.934778 0.170564 0.099667
Si Si3 0.678920 0.169154 0.597426
Si Si4 0.738721 0.673580 0.753452
Si Si5 0.330078 0.168594 0.902735
Si Si6 0.438023 0.833105 0.671213
Si Si7 0.064756 0.828266 0.400376
Si Si8 0.868463 0.326634 0.750180
O O1 0.500000 0.294535 0.880673
O O2 0.422217 0.500000 0.856617
O O3 0.392668 0.237334 0.906812
O O4 0.428175 0.281226 0.748783
O O5 0.897365 0.268824 0.162462
O O6 0.000000 0.206386 0.117598
O O7 0.922469 0.000000 0.119347
O O8 0.919107 0.208790 0.000000
O O9 0.698543 0.210529 0.500000
O O10 0.710783 0.273848 0.664080
O O11 0.611217 0.193301 0.601264
O O12 0.694201 0.000000 0.619207
O O13 0.730982 0.500000 0.761033
O O14 0.709905 0.745321 0.837070
O O15 0.803609 0.721627 0.752636
O O16 0.334204 0.000000 0.871355
O O17 0.304326 0.179358 0.000000
O O18 0.500000 0.806718 0.628315
O O19 0.434401 0.000000 0.708570
O O20 0.080796 0.790180 0.500000
O O21 0.104467 0.737113 0.337167
O O22 0.000000 0.785269 0.382034
O O23 0.074038 0.000000 0.381737
O O24 0.875953 0.500000 0.747328
#
# Coordination Sequence:
#
# PCOD8198531 Si02
#       8
#     8   8   8   8   8   8   8   8
#     4  10  20  34  56  86 118 150 183 224 280 346
#     4   9  19  37  61  89 120 153 189 229 276 334
#     4  10  21  37  59  86 114 148 192 238 286 343
#     4  11  25  43  59  79 113 155 196 240 289 340
#     4  11  24  41  62  86 111 144 190 242 293 345
#     4   9  17  31  54  83 115 148 182 227 282 339
#     4   9  19  37  61  89 120 154 193 236 282 334
#     4  11  24  38  56  85 118 153 194 238 286 341
#
# _framework density 19.411000000000001
#
# number of rings (size 3 to 8) (size 9 to 14) (size 15 to 20)
#    0.000    2.000    1.250    2.625    0.000    8.000 
#    0.000    8.750    0.000    0.000    0.000    2.625 
#    0.000    0.000    0.000    0.000    0.000    0.000 
#
# Total GULP energy -793628.220327 kJ/mol
# GULP energy per Si atom -12400.440943 kJ/mol
# Density = 1.936682 g / cm^3
# Si number density = 19.411000 Si / 1000 Ang^3
#
#
#
# Elastic Constant Matrix: (Units=GPa)
#
#
# Indices 1 2 3 4 5 6 
#
# 1 132.2414 64.9211 71.8154 0.0000 0.0000 0.0000
# 2 64.9211 83.8655 51.3810 0.0000 0.0000 0.0000
# 3 71.8154 51.3810 117.7446 0.0000 0.0000 0.0000
# 4 0.0000 0.0000 0.0000 -6.2902 0.0000 0.0000
# 5 0.0000 0.0000 0.0000 0.0000 1.6797 0.0000
# 6 0.0000 0.0000 0.0000 0.0000 0.0000 30.2379
#
#
#
# Elastic Compliance Matrix: (Units=1/GPa)
#
#
# Indices 1 2 3 4 5 6 
#
# 1 0.014268 -0.007798 -0.005300 0.000000 0.000000 0.000000
# 2 -0.007798 0.020537 -0.004205 0.000000 0.000000 0.000000
# 3 -0.005300 -0.004205 0.013561 0.000000 0.000000 0.000000
# 4 0.000000 0.000000 0.000000 -0.158977 0.000000 0.000000
# 5 0.000000 0.000000 0.000000 0.000000 0.595360 0.000000
# 6 0.000000 0.000000 0.000000 0.000000 0.000000 0.033071
#
#
# Mechanical properties :
#
#
# Convention : Reuss Voigt Hill
#
# Bulk Modulus (GPa) = 72.67946 78.89851 75.78899
# Shear Modulus (GPa) = 8.97644 14.84107 11.90875
#
# Velocity S-wave (km/s) = 2.15278 2.76809 2.47959
# Velocity P-wave (km/s) = 6.61082 7.13799 6.87946
#
# Compressibility (1/GPa) = 0.01375904
#
# Stress axis : x y z
#
# Youngs Moduli (GPa) = 70.08472 48.69199 73.74357
#
# Poissons Ratio (x) = 0.37972 0.39081
# Poissons Ratio (y) = 0.54655 0.31013
# Poissons Ratio (z) = 0.37142 0.20477
#
# Static dielectric constant tensor:
#      x y z
#    x 3.667170 0.000000 0.000000 
#    y 0.000000 3.529790 0.000000 
#    z 0.000000 0.000000 3.456600 
# 
# 
# High freq. dielectric constant tensor:
#      x y z
#    x 1.757740 0.000000 0.000000 
#    y 0.000000 1.755700 0.000000 
#    z 0.000000 0.000000 1.755980 
# 
# From -- ./inp_files/21913.got.cif
#   From: 2010.03.12/outbox.cif.g09.slc.cpg/sg47_11_cif.got.tgz:21913.got - 2010.04.14 03:12:58.
