data_PCOD8198710
_publ_section_title
;
Structure prediction by ZEFSAII (Michael W. Deem and Ramdas Pophale) SiO2 
 PCOD8198710
Probable space group: P M M M
;
_chemical_formula_sum "Si O2"
_cell_formula_units_Z 36
_cell_length_a 9.430709
_cell_length_b 23.392794
_cell_length_c 8.919934
_cell_angle_alpha 90.000000
_cell_angle_beta 90.000000
_cell_angle_gamma 90.000000
_cell_volume 1967.832285
_symmetry_space_group_name_H-M "P M M M"
_symmetry_group_IT_number 47
_symmetry_cell_setting 'orthorhombic'
loop_
_space_group_symop_operation_xyz
x,y,z
-x,-y,z
x,-y,-z
-x,y,-z
-x,-y,-z
x,y,-z
-x,y,z
x,-y,z
loop_
_atom_site_type_symbol
_atom_site_label
_atom_site_fract_x
_atom_site_fract_y
_atom_site_fract_z
Si Si1 0.164870 0.668999 0.324805
Si Si2 0.659557 0.562820 0.678218
Si Si3 0.831732 0.782613 0.168390
Si Si4 0.335012 0.000000 0.823087
Si Si5 0.164721 0.898222 0.676414
O O1 0.195402 0.677015 0.500000
O O2 0.240619 0.612734 0.257449
O O3 0.228226 0.724643 0.242102
O O4 0.000000 0.661192 0.291479
O O5 0.665231 0.563818 0.500000
O O6 0.500000 0.574110 0.734448
O O7 0.710980 0.500000 0.734546
O O8 0.782486 0.836593 0.266320
O O9 0.000000 0.779496 0.168187
O O10 0.771891 0.788763 0.000000
O O11 0.261049 0.944484 0.756528
O O12 0.500000 0.000000 0.778026
O O13 0.313944 0.000000 0.000000
O O14 0.188543 0.901856 0.500000
O O15 0.000000 0.909008 0.717761
#
# Coordination Sequence:
#
# PCOD8198710 Si02
#       5
#     8   8   8   4   8
#     4   9  16  26  43  68  94 118 150 195 240 280
#     4   8  14  25  41  62  89 120 153 190 234 284
#     4   9  17  30  49  72  98 128 160 196 241 291
#     4  11  24  39  54  76 108 141 170 203 246 294
#     4  10  20  35  57  82 104 130 169 211 248 292
#
# _framework density 18.294242000000001
#
# number of rings (size 3 to 8) (size 9 to 14) (size 15 to 20)
#    0.000    2.778    0.000    2.667    0.000    6.667 
#    0.000    3.333    0.000    5.333    0.000    4.667 
#    0.000    0.000    0.000    0.000    0.000    0.000 
#
# Total GULP energy -446304.311545 kJ/mol
# GULP energy per Si atom -12397.341987 kJ/mol
# Density = 1.825260 g / cm^3
# Si number density = 18.294242 Si / 1000 Ang^3
#
#
#
# Elastic Constant Matrix: (Units=GPa)
#
#
# Indices 1 2 3 4 5 6 
#
# 1 68.0228 75.2318 42.2699 0.0000 0.0000 0.0000
# 2 75.2318 196.3321 59.5741 0.0000 0.0000 0.0000
# 3 42.2699 59.5741 71.6055 0.0000 0.0000 0.0000
# 4 0.0000 0.0000 0.0000 -1.1200 0.0000 0.0000
# 5 0.0000 0.0000 0.0000 0.0000 15.7318 0.0000
# 6 0.0000 0.0000 0.0000 0.0000 0.0000 -0.2532
#
#
#
# Elastic Compliance Matrix: (Units=1/GPa)
#
#
# Indices 1 2 3 4 5 6 
#
# 1 0.031120 -0.008495 -0.011303 0.000000 0.000000 0.000000
# 2 -0.008495 0.009132 -0.002583 0.000000 0.000000 0.000000
# 3 -0.011303 -0.002583 0.022787 0.000000 0.000000 0.000000
# 4 0.000000 0.000000 0.000000 -0.892838 0.000000 0.000000
# 5 0.000000 0.000000 0.000000 0.000000 0.063566 0.000000
# 6 0.000000 0.000000 0.000000 0.000000 0.000000 -3.949734
#
#
# Mechanical properties :
#
#
# Convention : Reuss Voigt Hill
#
# Bulk Modulus (GPa) = 54.71384 76.67911 65.69648
# Shear Modulus (GPa) = -1.07179 13.46402 6.19612
#
# Velocity S-wave (km/s) = -0.76624 2.71582 1.84236
# Velocity P-wave (km/s) = 5.40276 7.19997 6.36511
#
# Compressibility (1/GPa) = 0.01827691
#
# Stress axis : x y z
#
# Youngs Moduli (GPa) = 32.13360 109.49969 43.88489
#
# Poissons Ratio (x) = 0.93021 0.49603
# Poissons Ratio (y) = 0.27298 0.11336
# Poissons Ratio (z) = 0.36321 0.28286
#
# Static dielectric constant tensor:
#      x y z
#    x 3.191530 0.000000 0.000000 
#    y 0.000000 3.853490 0.000000 
#    z 0.000000 0.000000 3.244380 
# 
# 
# High freq. dielectric constant tensor:
#      x y z
#    x 1.676200 0.000000 0.000000 
#    y 0.000000 1.730480 0.000000 
#    z 0.000000 0.000000 1.690600 
# 
# From -- ./inp_files/1417.got.cif
#   From: 2010.03.12/outbox.cif.g09.slc.cpg/sg47_1_cif.got.tgz:1417.got - 2010.04.14 03:12:58.
