data_PCOD8198300
_publ_section_title
;
Structure prediction by ZEFSAII (Michael W. Deem and Ramdas Pophale) SiO2 
 PCOD8198300
Probable space group: P M M M
;
_chemical_formula_sum "Si O2"
_cell_formula_units_Z 48
_cell_length_a 31.034473
_cell_length_b 9.063539
_cell_length_c 9.006166
_cell_angle_alpha 90.000000
_cell_angle_beta 90.000000
_cell_angle_gamma 90.000000
_cell_volume 2533.273793
_symmetry_space_group_name_H-M "P M M M"
_symmetry_group_IT_number 47
_symmetry_cell_setting 'orthorhombic'
loop_
_space_group_symop_operation_xyz
x,y,z
-x,-y,z
x,-y,-z
-x,y,-z
-x,-y,-z
x,y,-z
-x,y,z
x,-y,z
loop_
_atom_site_type_symbol
_atom_site_label
_atom_site_fract_x
_atom_site_fract_y
_atom_site_fract_z
Si Si1 0.249020 0.166363 0.176940
Si Si2 0.500000 0.825822 0.169777
Si Si3 0.421528 0.328867 0.673499
Si Si4 0.079426 0.171950 0.825757
Si Si5 0.334081 0.671498 0.828634
Si Si6 0.834476 0.333899 0.823456
Si Si7 0.000000 0.330128 0.675479
O O1 0.293141 0.239746 0.233810
O O2 0.208387 0.256712 0.241208
O O3 0.246513 0.000000 0.237433
O O4 0.247856 0.169611 0.000000
O O5 0.457675 0.765830 0.247860
O O6 0.500000 0.000000 0.183712
O O7 0.500000 0.772936 0.000000
O O8 0.423226 0.296645 0.500000
O O9 0.429860 0.500000 0.709679
O O10 0.375280 0.278324 0.734550
O O11 0.124290 0.241270 0.770473
O O12 0.041858 0.251383 0.738184
O O13 0.079615 0.000000 0.786275
O O14 0.072235 0.198152 0.000000
O O15 0.323765 0.500000 0.807040
O O16 0.343380 0.709283 0.000000
O O17 0.837531 0.500000 0.760286
O O18 0.832322 0.336413 0.000000
O O19 0.000000 0.500000 0.726548
O O20 0.000000 0.314877 0.500000
#
# Coordination Sequence:
#
# PCOD8198300 Si02
#       7
#     8   4   8   8   8   8   4
#     4   9  16  26  43  70 103 135 168 210 257 303
#     4  11  24  39  56  80 108 137 172 215 262 312
#     4  10  21  37  57  80 106 138 176 216 260 311
#     4  10  20  34  54  80 107 135 171 216 265 315
#     4   9  17  30  49  73 101 134 171 210 253 302
#     4   9  16  27  46  73 104 136 169 209 259 311
#     4  11  24  39  54  74 102 137 176 215 258 312
#
# _framework density 18.947814000000001
#
# number of rings (size 3 to 8) (size 9 to 14) (size 15 to 20)
#    0.000    2.333    0.000    3.000    0.000   10.000 
#    0.000    1.667    0.000    1.000    0.000    2.333 
#    0.000    0.000    0.000    0.000    0.000    0.000 
#
# Total GULP energy -595312.435141 kJ/mol
# GULP energy per Si atom -12402.342399 kJ/mol
# Density = 1.890469 g / cm^3
# Si number density = 18.947814 Si / 1000 Ang^3
#
#
#
# Elastic Constant Matrix: (Units=GPa)
#
#
# Indices 1 2 3 4 5 6 
#
# 1 188.8594 95.9745 54.9967 0.0000 0.0000 0.0000
# 2 95.9745 139.1790 44.3516 0.0000 0.0000 0.0000
# 3 54.9967 44.3516 53.6181 0.0000 0.0000 0.0000
# 4 0.0000 0.0000 0.0000 18.6367 0.0000 0.0000
# 5 0.0000 0.0000 0.0000 0.0000 -19.5067 0.0000
# 6 0.0000 0.0000 0.0000 0.0000 0.0000 -62.7579
#
#
#
# Elastic Compliance Matrix: (Units=1/GPa)
#
#
# Indices 1 2 3 4 5 6 
#
# 1 0.009295 -0.004578 -0.005747 0.000000 0.000000 0.000000
# 2 -0.004578 0.012012 -0.005240 0.000000 0.000000 0.000000
# 3 -0.005747 -0.005240 0.028880 0.000000 0.000000 0.000000
# 4 0.000000 0.000000 0.000000 0.053658 0.000000 0.000000
# 5 0.000000 0.000000 0.000000 0.000000 -0.051265 0.000000
# 6 0.000000 0.000000 0.000000 0.000000 0.000000 -0.015934
#
#
# Mechanical properties :
#
#
# Convention : Reuss Voigt Hill
#
# Bulk Modulus (GPa) = 52.47685 85.81133 69.14409
# Shear Modulus (GPa) = 67.45104 -0.30334 33.57385
#
# Velocity S-wave (km/s) = 5.97291 -0.40055 4.21397
# Velocity P-wave (km/s) = 8.67889 6.72106 7.76195
#
# Compressibility (1/GPa) = 0.01905602
#
# Stress axis : x y z
#
# Youngs Moduli (GPa) = 107.58357 83.25106 34.62659
#
# Poissons Ratio (x) = 0.38115 0.19900
# Poissons Ratio (y) = 0.49255 0.18144
# Poissons Ratio (z) = 0.61829 0.43623
#
# Static dielectric constant tensor:
#      x y z
#    x 3.679070 0.000000 0.000000 
#    y 0.000000 3.614410 0.000000 
#    z 0.000000 0.000000 3.118230 
# 
# 
# High freq. dielectric constant tensor:
#      x y z
#    x 1.756060 0.000000 0.000000 
#    y 0.000000 1.745580 0.000000 
#    z 0.000000 0.000000 1.694860 
# 
# From -- ./inp_files/13823.got.cif
#   From: 2010.03.12/outbox.cif.g09.slc.cpg/sg47_7_cif.got.tgz:13823.got - 2010.04.14 03:12:58.
