data_PCOD8198544
_publ_section_title
;
Structure prediction by ZEFSAII (Michael W. Deem and Ramdas Pophale) SiO2 
 PCOD8198544
Probable space group: P M M M
;
_chemical_formula_sum "Si O2"
_cell_formula_units_Z 48
_cell_length_a 17.860303
_cell_length_b 14.015253
_cell_length_c 9.653649
_cell_angle_alpha 90.000000
_cell_angle_beta 90.000000
_cell_angle_gamma 90.000000
_cell_volume 2416.469225
_symmetry_space_group_name_H-M "P M M M"
_symmetry_group_IT_number 47
_symmetry_cell_setting 'orthorhombic'
loop_
_space_group_symop_operation_xyz
x,y,z
-x,-y,z
x,-y,-z
-x,y,-z
-x,-y,-z
x,y,-z
-x,y,z
x,-y,z
loop_
_atom_site_type_symbol
_atom_site_label
_atom_site_fract_x
_atom_site_fract_y
_atom_site_fract_z
Si Si1 0.000000 0.886768 0.165147
Si Si2 0.826307 0.390960 0.734097
Si Si3 0.415086 0.754028 0.659864
Si Si4 0.081557 0.611237 0.000000
Si Si5 0.866949 0.194868 0.653886
Si Si6 0.660932 0.608932 0.843059
Si Si7 0.287570 0.894664 0.664053
O O1 0.071325 0.836797 0.235663
O O2 0.000000 0.000000 0.195835
O O3 0.000000 0.867519 0.000000
O O4 0.844991 0.500000 0.684581
O O5 0.870536 0.359466 0.869637
O O6 0.855645 0.309544 0.630120
O O7 0.738598 0.380635 0.761271
O O8 0.398015 0.727008 0.500000
O O9 0.500000 0.790464 0.676456
O O10 0.402882 0.662459 0.756562
O O11 0.359462 0.835737 0.715663
O O12 0.067912 0.500000 0.000000
O O13 0.000000 0.662996 0.000000
O O14 0.886682 0.154492 0.500000
O O15 0.789259 0.153600 0.713746
O O16 0.635726 0.500000 0.848881
O O17 0.668357 0.648900 0.000000
O O18 0.288634 0.900280 0.500000
O O19 0.292844 0.000000 0.729630
#
# Coordination Sequence:
#
# PCOD8198544 Si02
#       7
#     4   8   8   4   8   8   8
#     4  11  27  47  66  91 122 158 204 256 304 351
#     4  10  20  34  56  87 122 158 200 243 289 348
#     4  10  21  37  57  85 118 150 193 248 304 361
#     4   9  18  32  52  80 113 153 194 237 290 342
#     4  11  23  39  63  92 123 162 200 242 300 356
#     4  10  20  36  58  83 116 159 203 244 289 349
#     4   9  18  35  59  86 115 149 192 241 296 358
#
# _framework density 19.863692
#
# number of rings (size 3 to 8) (size 9 to 14) (size 15 to 20)
#    0.000    2.000    2.500    0.750    2.333    3.000 
#    0.000    5.000    0.000    1.500    0.000    1.167 
#    0.000    0.000    0.000    0.000    0.000    0.000 
#
# Total GULP energy -594919.609835 kJ/mol
# GULP energy per Si atom -12394.158538 kJ/mol
# Density = 1.981848 g / cm^3
# Si number density = 19.863692 Si / 1000 Ang^3
#
#
#
# Elastic Constant Matrix: (Units=GPa)
#
#
# Indices 1 2 3 4 5 6 
#
# 1 137.6746 54.3137 40.3344 0.0000 0.0000 0.0000
# 2 54.3137 124.6926 37.3031 0.0000 0.0000 0.0000
# 3 40.3344 37.3031 74.7769 0.0000 0.0000 0.0000
# 4 0.0000 0.0000 0.0000 31.9446 0.0000 0.0000
# 5 0.0000 0.0000 0.0000 0.0000 100.5434 0.0000
# 6 0.0000 0.0000 0.0000 0.0000 0.0000 22.8081
#
#
#
# Elastic Compliance Matrix: (Units=1/GPa)
#
#
# Indices 1 2 3 4 5 6 
#
# 1 0.009533 -0.003073 -0.003609 0.000000 0.000000 0.000000
# 2 -0.003073 0.010417 -0.003539 0.000000 0.000000 0.000000
# 3 -0.003609 -0.003539 0.017085 0.000000 0.000000 0.000000
# 4 0.000000 0.000000 0.000000 0.031304 0.000000 0.000000
# 5 0.000000 0.000000 0.000000 0.000000 0.009946 0.000000
# 6 0.000000 0.000000 0.000000 0.000000 0.000000 0.043844
#
#
# Mechanical properties :
#
#
# Convention : Reuss Voigt Hill
#
# Bulk Modulus (GPa) = 60.26553 66.78293 63.52423
# Shear Modulus (GPa) = 33.76025 44.73875 39.24950
#
# Velocity S-wave (km/s) = 4.12709 4.75098 4.44998
# Velocity P-wave (km/s) = 7.28806 7.98682 7.64543
#
# Compressibility (1/GPa) = 0.01659323
#
# Stress axis : x y z
#
# Youngs Moduli (GPa) = 104.89755 95.99788 58.52917
#
# Poissons Ratio (x) = 0.29497 0.21125
# Poissons Ratio (y) = 0.32232 0.20714
# Poissons Ratio (z) = 0.37861 0.33975
#
# Static dielectric constant tensor:
#      x y z
#    x 3.626250 0.000000 0.000000 
#    y 0.000000 3.781330 0.000000 
#    z 0.000000 0.000000 3.587970 
# 
# 
# High freq. dielectric constant tensor:
#      x y z
#    x 1.776590 0.000000 0.000000 
#    y 0.000000 1.776590 0.000000 
#    z 0.000000 0.000000 1.753210 
# 
# From -- ./inp_files/9201.got.cif
#   From: 2010.03.12/outbox.cif.g09.slc.cpg/sg47_5_cif.got.tgz:9201.got - 2010.04.14 03:12:58.
