data_PCOD8198109
_publ_section_title
;
Structure prediction by ZEFSAII (Michael W. Deem and Ramdas Pophale) SiO2 
 PCOD8198109
Probable space group: P M M M
;
_chemical_formula_sum "Si O2"
_cell_formula_units_Z 40
_cell_length_a 9.651973
_cell_length_b 7.978363
_cell_length_c 27.338180
_cell_angle_alpha 90.000000
_cell_angle_beta 90.000000
_cell_angle_gamma 90.000000
_cell_volume 2105.229703
_symmetry_space_group_name_H-M "P M M M"
_symmetry_group_IT_number 47
_symmetry_cell_setting 'orthorhombic'
loop_
_space_group_symop_operation_xyz
x,y,z
-x,-y,z
x,-y,-z
-x,y,-z
-x,-y,-z
x,y,-z
-x,y,z
x,-y,z
loop_
_atom_site_type_symbol
_atom_site_label
_atom_site_fract_x
_atom_site_fract_y
_atom_site_fract_z
Si Si1 0.154854 0.695865 0.897221
Si Si2 0.160318 0.688169 0.619011
Si Si3 0.340706 0.193164 0.704521
Si Si4 0.164311 0.000000 0.554597
Si Si5 0.343102 0.698773 0.189477
Si Si6 0.158243 0.196111 0.000000
O O1 0.145479 0.500000 0.889094
O O2 0.248959 0.773223 0.854217
O O3 0.226061 0.733273 0.950033
O O4 0.000000 0.775877 0.894630
O O5 0.178940 0.500000 0.596820
O O6 0.246668 0.696827 0.668876
O O7 0.000000 0.722572 0.631617
O O8 0.215710 0.829901 0.581422
O O9 0.500000 0.251683 0.699122
O O10 0.289674 0.222631 0.759838
O O11 0.322526 0.000000 0.690329
O O12 0.227910 0.000000 0.500000
O O13 0.000000 0.000000 0.551748
O O14 0.500000 0.756246 0.178913
O O15 0.332362 0.500000 0.193165
O O16 0.000000 0.258550 0.000000
O O17 0.174190 0.000000 0.000000
#
# Coordination Sequence:
#
# PCOD8198109 Si02
#       6
#     8   8   8   4   8   4
#     4   9  17  30  48  68  90 119 157 199 243 294
#     4  10  20  34  55  82 110 142 181 223 266 313
#     4  10  20  34  53  76 104 141 179 215 262 317
#     4   9  18  34  55  81 115 147 177 220 269 314
#     4   9  18  32  48  68  96 128 162 202 249 303
#     4   9  17  29  46  67  90 116 150 193 242 296
#
# _framework density 19.000302999999999
#
# number of rings (size 3 to 8) (size 9 to 14) (size 15 to 20)
#    0.000    2.600    1.000    0.900    0.000    4.400 
#    0.000    4.500    0.000    4.200    0.000    1.400 
#    0.000    0.000    0.000    0.000    0.000    0.000 
#
# Total GULP energy -495888.576576 kJ/mol
# GULP energy per Si atom -12397.214414 kJ/mol
# Density = 1.895706 g / cm^3
# Si number density = 19.000303 Si / 1000 Ang^3
#
#
#
# Elastic Constant Matrix: (Units=GPa)
#
#
# Indices 1 2 3 4 5 6 
#
# 1 54.0704 23.8259 58.1083 0.0000 0.0000 0.0000
# 2 23.8259 73.2999 49.3607 0.0000 0.0000 0.0000
# 3 58.1083 49.3607 157.4134 0.0000 0.0000 0.0000
# 4 0.0000 0.0000 0.0000 29.8368 0.0000 0.0000
# 5 0.0000 0.0000 0.0000 0.0000 11.8030 0.0000
# 6 0.0000 0.0000 0.0000 0.0000 0.0000 15.7404
#
#
#
# Elastic Compliance Matrix: (Units=1/GPa)
#
#
# Indices 1 2 3 4 5 6 
#
# 1 0.031175 -0.003022 -0.010561 0.000000 0.000000 0.000000
# 2 -0.003022 0.017587 -0.004399 0.000000 0.000000 0.000000
# 3 -0.010561 -0.004399 0.011631 0.000000 0.000000 0.000000
# 4 0.000000 0.000000 0.000000 0.033516 0.000000 0.000000
# 5 0.000000 0.000000 0.000000 0.000000 0.084724 0.000000
# 6 0.000000 0.000000 0.000000 0.000000 0.000000 0.063531
#
#
# Mechanical properties :
#
#
# Convention : Reuss Voigt Hill
#
# Bulk Modulus (GPa) = 40.93408 60.81926 50.87667
# Shear Modulus (GPa) = 17.46599 21.70863 19.58731
#
# Velocity S-wave (km/s) = 3.03520 3.38382 3.21424
# Velocity P-wave (km/s) = 5.82013 6.88085 6.37260
#
# Compressibility (1/GPa) = 0.02442952
#
# Stress axis : x y z
#
# Youngs Moduli (GPa) = 32.07683 56.85870 85.97990
#
# Poissons Ratio (x) = 0.17182 0.90800
# Poissons Ratio (y) = 0.09693 0.37827
# Poissons Ratio (z) = 0.33875 0.25015
#
# Static dielectric constant tensor:
#      x y z
#    x 3.382840 0.000000 0.000000 
#    y 0.000000 3.410700 0.000000 
#    z 0.000000 0.000000 3.643840 
# 
# 
# High freq. dielectric constant tensor:
#      x y z
#    x 1.703250 0.000000 0.000000 
#    y 0.000000 1.739270 0.000000 
#    z 0.000000 0.000000 1.740870 
# 
# From -- ./inp_files/33022.got.cif
#   From: 2010.03.12/outbox.cif.g09.slc.cpg/sg47_17_cif.got.tgz:33022.got - 2010.04.14 03:12:58.
