data_PCOD8198090
_publ_section_title
;
Structure prediction by ZEFSAII (Michael W. Deem and Ramdas Pophale) SiO2 
 PCOD8198090
Probable space group: P M M M
;
_chemical_formula_sum "Si O2"
_cell_formula_units_Z 40
_cell_length_a 27.263384
_cell_length_b 8.208522
_cell_length_c 9.636570
_cell_angle_alpha 90.000000
_cell_angle_beta 90.000000
_cell_angle_gamma 90.000000
_cell_volume 2156.588115
_symmetry_space_group_name_H-M "P M M M"
_symmetry_group_IT_number 47
_symmetry_cell_setting 'orthorhombic'
loop_
_space_group_symop_operation_xyz
x,y,z
-x,-y,z
x,-y,-z
-x,y,-z
-x,-y,-z
x,y,-z
-x,y,z
x,-y,z
loop_
_atom_site_type_symbol
_atom_site_label
_atom_site_fract_x
_atom_site_fract_y
_atom_site_fract_z
Si Si1 0.815306 0.812599 0.343321
Si Si2 0.000000 0.810174 0.157566
Si Si3 0.554820 0.000000 0.164266
Si Si4 0.382450 0.687340 0.163280
Si Si5 0.899397 0.312037 0.153044
Si Si6 0.711858 0.688096 0.343031
O O1 0.820255 0.744594 0.500000
O O2 0.852172 0.717949 0.245675
O O3 0.759417 0.787758 0.292659
O O4 0.829406 0.000000 0.336055
O O5 0.050555 0.749485 0.228675
O O6 0.000000 0.000000 0.166000
O O7 0.000000 0.743128 0.000000
O O8 0.580044 0.829421 0.213050
O O9 0.500000 0.000000 0.226969
O O10 0.553075 0.000000 0.000000
O O11 0.400241 0.500000 0.199648
O O12 0.332283 0.729907 0.240579
O O13 0.372824 0.700517 0.000000
O O14 0.905213 0.500000 0.130839
O O15 0.892924 0.228603 0.000000
O O16 0.696583 0.737355 0.500000
O O17 0.726077 0.500000 0.334919
#
# Coordination Sequence:
#
# PCOD8198090 Si02
#       6
#     8   4   4   8   8   8
#     4  10  21  35  51  74 103 134 169 209 254 306
#     4   9  17  31  52  75 100 129 162 204 254 305
#     4   9  18  32  51  77 107 137 171 212 259 304
#     4   9  18  32  51  76 104 134 172 215 255 301
#     4  10  20  34  53  76 101 131 168 208 251 302
#     4   9  18  33  52  73  99 133 168 204 252 306
#
# _framework density 18.547816000000001
#
# number of rings (size 3 to 8) (size 9 to 14) (size 15 to 20)
#    0.000    2.600    0.000    1.500    1.400    4.800 
#    0.000    4.500    0.000    4.200    0.000    2.800 
#    0.000    0.000    0.000    0.000    0.000    0.000 
#
# Total GULP energy -495748.819309 kJ/mol
# GULP energy per Si atom -12393.720483 kJ/mol
# Density = 1.850560 g / cm^3
# Si number density = 18.547816 Si / 1000 Ang^3
#
#
#
# Elastic Constant Matrix: (Units=GPa)
#
#
# Indices 1 2 3 4 5 6 
#
# 1 141.7575 58.2083 51.7802 0.0000 0.0000 0.0000
# 2 58.2083 88.3423 27.4443 0.0000 0.0000 0.0000
# 3 51.7802 27.4443 47.3180 0.0000 0.0000 0.0000
# 4 0.0000 0.0000 0.0000 18.5796 0.0000 0.0000
# 5 0.0000 0.0000 0.0000 0.0000 -7.0374 0.0000
# 6 0.0000 0.0000 0.0000 0.0000 0.0000 37.5446
#
#
#
# Elastic Compliance Matrix: (Units=1/GPa)
#
#
# Indices 1 2 3 4 5 6 
#
# 1 0.013489 -0.005248 -0.011718 0.000000 0.000000 0.000000
# 2 -0.005248 0.015849 -0.003450 0.000000 0.000000 0.000000
# 3 -0.011718 -0.003450 0.035957 0.000000 0.000000 0.000000
# 4 0.000000 0.000000 0.000000 0.053823 0.000000 0.000000
# 5 0.000000 0.000000 0.000000 0.000000 -0.142098 0.000000
# 6 0.000000 0.000000 0.000000 0.000000 0.000000 0.026635
#
#
# Mechanical properties :
#
#
# Convention : Reuss Voigt Hill
#
# Bulk Modulus (GPa) = 40.87460 61.36483 51.11971
# Shear Modulus (GPa) = 94.98389 19.14968 57.06679
#
# Velocity S-wave (km/s) = 7.16390 3.21666 5.55285
# Velocity P-wave (km/s) = 9.51388 6.85218 8.29054
#
# Compressibility (1/GPa) = 0.02446507
#
# Stress axis : x y z
#
# Youngs Moduli (GPa) = 74.13286 63.09526 27.81094
#
# Poissons Ratio (x) = 0.33111 0.32588
# Poissons Ratio (y) = 0.38904 0.09594
# Poissons Ratio (z) = 0.86866 0.21766
#
# Static dielectric constant tensor:
#      x y z
#    x 3.228240 0.000000 0.000000 
#    y 0.000000 3.538060 0.000000 
#    z 0.000000 0.000000 3.239380 
# 
# 
# High freq. dielectric constant tensor:
#      x y z
#    x 1.720810 0.000000 0.000000 
#    y 0.000000 1.730670 0.000000 
#    z 0.000000 0.000000 1.686940 
# 
# From -- ./inp_files/1772.got.cif
#   From: 2010.03.12/outbox.cif.g09.slc.cpg/sg47_1_cif.got.tgz:1772.got - 2010.04.14 03:12:58.
