data_PCOD8198311
_publ_section_title
;
Structure prediction by ZEFSAII (Michael W. Deem and Ramdas Pophale) SiO2 
 PCOD8198311
Probable space group: P M M M
;
_chemical_formula_sum "Si O2"
_cell_formula_units_Z 40
_cell_length_a 9.342212
_cell_length_b 25.887623
_cell_length_c 8.980807
_cell_angle_alpha 90.000000
_cell_angle_beta 90.000000
_cell_angle_gamma 90.000000
_cell_volume 2171.987178
_symmetry_space_group_name_H-M "P M M M"
_symmetry_group_IT_number 47
_symmetry_cell_setting 'orthorhombic'
loop_
_space_group_symop_operation_xyz
x,y,z
-x,-y,z
x,-y,-z
-x,y,-z
-x,-y,-z
x,y,-z
-x,y,z
x,-y,z
loop_
_atom_site_type_symbol
_atom_site_label
_atom_site_fract_x
_atom_site_fract_y
_atom_site_fract_z
Si Si1 0.335343 0.299553 0.672735
Si Si2 0.833089 0.102886 0.326263
Si Si3 0.332474 0.194453 0.827799
Si Si4 0.829801 0.000000 0.832034
Si Si5 0.829105 0.611589 0.830115
Si Si6 0.844261 0.500000 0.175747
O O1 0.310769 0.287348 0.500000
O O2 0.500000 0.312833 0.707280
O O3 0.284842 0.249969 0.765932
O O4 0.239594 0.347766 0.718994
O O5 0.802672 0.098247 0.500000
O O6 0.751121 0.151444 0.262008
O O7 0.000000 0.110189 0.291297
O O8 0.772052 0.050983 0.250247
O O9 0.500000 0.185572 0.802095
O O10 0.289689 0.191310 0.000000
O O11 0.000000 0.000000 0.827546
O O12 0.770868 0.000000 0.000000
O O13 0.767933 0.554423 0.781910
O O14 0.000000 0.612652 0.814391
O O15 0.784245 0.624416 0.000000
O O16 0.000000 0.500000 0.252982
O O17 0.866358 0.500000 0.000000
#
# Coordination Sequence:
#
# PCOD8198311 Si02
#       6
#     8   8   8   4   8   4
#     4  10  21  36  52  71  99 135 170 205 250 302
#     4  10  20  34  54  80 108 137 169 206 250 301
#     4  10  21  37  56  76  99 131 171 213 256 301
#     4   9  17  31  52  77 106 139 172 208 250 293
#     4   9  17  31  53  78 101 128 165 208 251 296
#     4   7  12  26  48  73 100 128 160 201 248 295
#
# _framework density 18.416315999999998
#
# number of rings (size 3 to 8) (size 9 to 14) (size 15 to 20)
#    0.000    2.600    0.000    3.300    0.000    6.000 
#    0.000    1.500    0.000    7.800    0.000    0.000 
#    0.000    0.000    0.000    0.000    0.000    0.000 
#
# Total GULP energy -495881.146613 kJ/mol
# GULP energy per Si atom -12397.028665 kJ/mol
# Density = 1.837440 g / cm^3
# Si number density = 18.416316 Si / 1000 Ang^3
#
#
#
# Elastic Constant Matrix: (Units=GPa)
#
#
# Indices 1 2 3 4 5 6 
#
# 1 32.8941 41.1358 25.3417 0.0000 0.0000 0.0000
# 2 41.1358 142.2604 37.3835 0.0000 0.0000 0.0000
# 3 25.3417 37.3835 61.1920 0.0000 0.0000 0.0000
# 4 0.0000 0.0000 0.0000 16.2619 0.0000 0.0000
# 5 0.0000 0.0000 0.0000 0.0000 26.4982 0.0000
# 6 0.0000 0.0000 0.0000 0.0000 0.0000 222.6408
#
#
#
# Elastic Compliance Matrix: (Units=1/GPa)
#
#
# Indices 1 2 3 4 5 6 
#
# 1 0.059213 -0.012720 -0.016751 0.000000 0.000000 0.000000
# 2 -0.012720 0.011106 -0.001517 0.000000 0.000000 0.000000
# 3 -0.016751 -0.001517 0.024206 0.000000 0.000000 0.000000
# 4 0.000000 0.000000 0.000000 0.061494 0.000000 0.000000
# 5 0.000000 0.000000 0.000000 0.000000 0.037738 0.000000
# 6 0.000000 0.000000 0.000000 0.000000 0.000000 0.004492
#
#
# Mechanical properties :
#
#
# Convention : Reuss Voigt Hill
#
# Bulk Modulus (GPa) = 30.72347 49.34093 40.03220
# Shear Modulus (GPa) = 18.44512 61.91255 40.17884
#
# Velocity S-wave (km/s) = 3.16818 5.80442 4.67593
# Velocity P-wave (km/s) = 5.48654 8.47183 7.13702
#
# Compressibility (1/GPa) = 0.03254841
#
# Stress axis : x y z
#
# Youngs Moduli (GPa) = 16.88828 90.04032 41.31188
#
# Poissons Ratio (x) = 1.14531 0.69202
# Poissons Ratio (y) = 0.21482 0.06268
# Poissons Ratio (z) = 0.28290 0.13661
#
# Static dielectric constant tensor:
#      x y z
#    x 3.076010 0.000000 0.000000 
#    y 0.000000 3.695860 0.000000 
#    z 0.000000 0.000000 3.396790 
# 
# 
# High freq. dielectric constant tensor:
#      x y z
#    x 1.679960 0.000000 0.000000 
#    y 0.000000 1.734550 0.000000 
#    z 0.000000 0.000000 1.714500 
# 
# From -- ./inp_files/1709.got.cif
#   From: 2010.03.12/outbox.cif.g09.slc.cpg/sg47_1_cif.got.tgz:1709.got - 2010.04.14 03:12:58.
