data_PCOD8198126
_publ_section_title
;
Structure prediction by ZEFSAII (Michael W. Deem and Ramdas Pophale) SiO2 
 PCOD8198126
Probable space group: P M M M
;
_chemical_formula_sum "Si O2"
_cell_formula_units_Z 48
_cell_length_a 14.602232
_cell_length_b 20.477607
_cell_length_c 8.934596
_cell_angle_alpha 90.000000
_cell_angle_beta 90.000000
_cell_angle_gamma 90.000000
_cell_volume 2671.611890
_symmetry_space_group_name_H-M "P M M M"
_symmetry_group_IT_number 47
_symmetry_cell_setting 'orthorhombic'
loop_
_space_group_symop_operation_xyz
x,y,z
-x,-y,z
x,-y,-z
-x,y,-z
-x,-y,-z
x,y,-z
-x,y,z
x,-y,z
loop_
_atom_site_type_symbol
_atom_site_label
_atom_site_fract_x
_atom_site_fract_y
_atom_site_fract_z
Si Si1 0.393505 0.309276 0.824633
Si Si2 0.098904 0.768969 0.322567
Si Si3 0.290801 0.426385 0.675276
Si Si4 0.394577 0.074813 0.172160
Si Si5 0.900864 0.378293 0.322462
Si Si6 0.708415 0.188339 0.323290
O O1 0.500000 0.305047 0.785341
O O2 0.356130 0.377613 0.763277
O O3 0.344996 0.247958 0.749700
O O4 0.375236 0.306118 0.000000
O O5 0.096872 0.767863 0.500000
O O6 0.112891 0.695386 0.263223
O O7 0.185394 0.811649 0.267918
O O8 0.000000 0.796415 0.263725
O O9 0.296273 0.409073 0.500000
O O10 0.324376 0.500000 0.706655
O O11 0.185532 0.420472 0.733764
O O12 0.500000 0.086048 0.215421
O O13 0.332537 0.119124 0.277024
O O14 0.366592 0.000000 0.200251
O O15 0.378633 0.094228 0.000000
O O16 0.902850 0.379110 0.500000
O O17 0.000000 0.405376 0.263850
O O18 0.701140 0.197023 0.500000
#
# Coordination Sequence:
#
# PCOD8198126 Si02
#       6
#     8   8   8   8   8   8
#     4  11  24  39  53  70  97 136 177 212 253 312
#     4   8  14  26  47  75 105 134 163 201 252 306
#     4  10  20  34  53  77 102 128 165 216 267 307
#     4   9  19  36  55  76 108 148 180 205 245 305
#     4   8  13  25  47  74 103 131 160 199 251 310
#     4  11  20  32  56  85 108 131 167 217 261 294
#
# _framework density 17.966683
#
# number of rings (size 3 to 8) (size 9 to 14) (size 15 to 20)
#    0.000    2.500    1.667    3.000    0.000    5.000 
#    0.000    4.167    0.000    4.000    0.000    4.667 
#    0.000    0.000    0.000    0.000    0.000    0.000 
#
# Total GULP energy -594886.901987 kJ/mol
# GULP energy per Si atom -12393.477125 kJ/mol
# Density = 1.792579 g / cm^3
# Si number density = 17.966683 Si / 1000 Ang^3
#
#
#
# Elastic Constant Matrix: (Units=GPa)
#
#
# Indices 1 2 3 4 5 6 
#
# 1 142.1270 68.0739 55.1189 0.0000 0.0000 0.0000
# 2 68.0739 94.3587 35.1656 0.0000 0.0000 0.0000
# 3 55.1189 35.1656 50.1158 0.0000 0.0000 0.0000
# 4 0.0000 0.0000 0.0000 24.4219 0.0000 0.0000
# 5 0.0000 0.0000 0.0000 0.0000 -8.4113 0.0000
# 6 0.0000 0.0000 0.0000 0.0000 0.0000 29.1264
#
#
#
# Elastic Compliance Matrix: (Units=1/GPa)
#
#
# Indices 1 2 3 4 5 6 
#
# 1 0.014471 -0.006105 -0.011632 0.000000 0.000000 0.000000
# 2 -0.006105 0.016926 -0.005162 0.000000 0.000000 0.000000
# 3 -0.011632 -0.005162 0.036369 0.000000 0.000000 0.000000
# 4 0.000000 0.000000 0.000000 0.040947 0.000000 0.000000
# 5 0.000000 0.000000 0.000000 0.000000 -0.118888 0.000000
# 6 0.000000 0.000000 0.000000 0.000000 0.000000 0.034333
#
#
# Mechanical properties :
#
#
# Convention : Reuss Voigt Hill
#
# Bulk Modulus (GPa) = 45.52092 67.03537 56.27815
# Shear Modulus (GPa) = 64.69959 17.57695 41.13827
#
# Velocity S-wave (km/s) = 6.00742 3.13118 4.79027
# Velocity P-wave (km/s) = 8.57380 7.10383 7.87319
#
# Compressibility (1/GPa) = 0.02196792
#
# Stress axis : x y z
#
# Youngs Moduli (GPa) = 69.10332 59.08024 27.49565
#
# Poissons Ratio (x) = 0.36068 0.31983
# Poissons Ratio (y) = 0.42187 0.14194
# Poissons Ratio (z) = 0.80381 0.30499
#
# Static dielectric constant tensor:
#      x y z
#    x 3.856410 0.000000 0.000000 
#    y 0.000000 3.205520 0.000000 
#    z 0.000000 0.000000 3.014430 
# 
# 
# High freq. dielectric constant tensor:
#      x y z
#    x 1.710600 0.000000 0.000000 
#    y 0.000000 1.680300 0.000000 
#    z 0.000000 0.000000 1.661610 
# 
# From -- ./inp_files/6353.got.cif
#   From: 2010.03.12/outbox.cif.g09.slc.cpg/sg47_4_cif.got.tgz:6353.got - 2010.04.14 03:12:58.
