data_PCOD8198915
_publ_section_title
;
Structure prediction by ZEFSAII (Michael W. Deem and Ramdas Pophale) SiO2 
 PCOD8198915
Probable space group: P M M M
;
_chemical_formula_sum "Si O2"
_cell_formula_units_Z 48
_cell_length_a 17.080799
_cell_length_b 9.023240
_cell_length_c 15.163229
_cell_angle_alpha 90.000000
_cell_angle_beta 90.000000
_cell_angle_gamma 90.000000
_cell_volume 2337.019762
_symmetry_space_group_name_H-M "P M M M"
_symmetry_group_IT_number 47
_symmetry_cell_setting 'orthorhombic'
loop_
_space_group_symop_operation_xyz
x,y,z
-x,-y,z
x,-y,-z
-x,y,-z
-x,-y,-z
x,y,-z
-x,y,z
x,-y,z
loop_
_atom_site_type_symbol
_atom_site_label
_atom_site_fract_x
_atom_site_fract_y
_atom_site_fract_z
Si Si1 0.589275 0.163008 0.166682
Si Si2 0.651949 0.675224 0.324732
Si Si3 0.406155 0.666131 0.000000
Si Si4 0.591798 0.176333 0.500000
Si Si5 0.822324 0.327695 0.254186
Si Si6 0.088741 0.825304 0.899565
Si Si7 0.907599 0.165000 0.597782
O O1 0.500000 0.138633 0.140815
O O2 0.590547 0.261234 0.254764
O O3 0.629079 0.250690 0.085612
O O4 0.628631 0.000000 0.179466
O O5 0.641503 0.500000 0.337558
O O6 0.636429 0.756087 0.416576
O O7 0.735875 0.719328 0.284543
O O8 0.372292 0.500000 0.000000
O O9 0.500000 0.661230 0.000000
O O10 0.500000 0.221322 0.500000
O O11 0.601204 0.000000 0.500000
O O12 0.828240 0.500000 0.235709
O O13 0.847577 0.247564 0.164413
O O14 0.879092 0.286659 0.334039
O O15 0.000000 0.774980 0.874852
O O16 0.095317 0.000000 0.888663
O O17 0.107619 0.777891 0.000000
O O18 0.875308 0.203472 0.500000
O O19 0.000000 0.168650 0.596521
O O20 0.878893 0.000000 0.625530
#
# Coordination Sequence:
#
# PCOD8198915 Si02
#       7
#     8   8   4   4   8   8   8
#     4  10  20  36  59  87 116 147 193 247 290 341
#     4  11  25  42  59  85 121 161 197 238 299 366
#     4   9  17  31  55  85 115 149 184 223 282 349
#     4  11  25  45  69  95 118 147 198 259 309 360
#     4  11  24  38  55  85 123 158 195 242 295 352
#     4   9  19  38  64  91 119 157 207 256 299 352
#     4   9  19  36  58  84 113 150 196 240 285 343
#
# _framework density 20.538978
#
# number of rings (size 3 to 8) (size 9 to 14) (size 15 to 20)
#    0.000    2.000    0.000    4.000    1.167   10.667 
#    1.500    1.667    0.000    0.000    0.000    0.000 
#    0.000    0.000    0.000    0.000    0.000    0.000 
#
# Total GULP energy -595143.348041 kJ/mol
# GULP energy per Si atom -12398.819751 kJ/mol
# Density = 2.049223 g / cm^3
# Si number density = 20.538978 Si / 1000 Ang^3
#
#
#
# Elastic Constant Matrix: (Units=GPa)
#
#
# Indices 1 2 3 4 5 6 
#
# 1 65.8609 48.0676 47.6791 0.0000 0.0000 0.0000
# 2 48.0676 109.4208 71.5209 0.0000 0.0000 0.0000
# 3 47.6791 71.5209 166.5254 0.0000 0.0000 0.0000
# 4 0.0000 0.0000 0.0000 27.5004 0.0000 0.0000
# 5 0.0000 0.0000 0.0000 0.0000 22.7482 0.0000
# 6 0.0000 0.0000 0.0000 0.0000 0.0000 27.5941
#
#
#
# Elastic Compliance Matrix: (Units=1/GPa)
#
#
# Indices 1 2 3 4 5 6 
#
# 1 0.023509 -0.008241 -0.003191 0.000000 0.000000 0.000000
# 2 -0.008241 0.015595 -0.004338 0.000000 0.000000 0.000000
# 3 -0.003191 -0.004338 0.008782 0.000000 0.000000 0.000000
# 4 0.000000 0.000000 0.000000 0.036363 0.000000 0.000000
# 5 0.000000 0.000000 0.000000 0.000000 0.043959 0.000000
# 6 0.000000 0.000000 0.000000 0.000000 0.000000 0.036240
#
#
# Mechanical properties :
#
#
# Convention : Reuss Voigt Hill
#
# Bulk Modulus (GPa) = 61.18472 75.14915 68.16693
# Shear Modulus (GPa) = 24.82160 27.20450 26.01305
#
# Velocity S-wave (km/s) = 3.48014 3.64336 3.56268
# Velocity P-wave (km/s) = 6.78253 7.37338 7.08412
#
# Compressibility (1/GPa) = 0.01634395
#
# Stress axis : x y z
#
# Youngs Moduli (GPa) = 42.53769 64.12353 113.86789
#
# Poissons Ratio (x) = 0.52845 0.36340
# Poissons Ratio (y) = 0.35056 0.49399
# Poissons Ratio (z) = 0.13576 0.27819
#
# Static dielectric constant tensor:
#      x y z
#    x 3.554020 0.000000 0.000000 
#    y 0.000000 3.861950 0.000000 
#    z 0.000000 0.000000 3.956140 
# 
# 
# High freq. dielectric constant tensor:
#      x y z
#    x 1.781250 0.000000 0.000000 
#    y 0.000000 1.807840 0.000000 
#    z 0.000000 0.000000 1.819020 
# 
# From -- ./inp_files/24457.got.cif
#   From: 2010.03.12/outbox.cif.g09.slc.cpg/sg47_13_cif.got.tgz:24457.got - 2010.04.14 03:12:58.
