data_PCOD8198782
_publ_section_title
;
Structure prediction by ZEFSAII (Michael W. Deem and Ramdas Pophale) SiO2 
 PCOD8198782
Probable space group: P M M M
;
_chemical_formula_sum "Si O2"
_cell_formula_units_Z 52
_cell_length_a 25.161215
_cell_length_b 9.131236
_cell_length_c 11.940244
_cell_angle_alpha 90.000000
_cell_angle_beta 90.000000
_cell_angle_gamma 90.000000
_cell_volume 2743.306787
_symmetry_space_group_name_H-M "P M M M"
_symmetry_group_IT_number 47
_symmetry_cell_setting 'orthorhombic'
loop_
_space_group_symop_operation_xyz
x,y,z
-x,-y,z
x,-y,-z
-x,y,-z
-x,-y,-z
x,y,-z
-x,y,z
x,-y,z
loop_
_atom_site_type_symbol
_atom_site_label
_atom_site_fract_x
_atom_site_fract_y
_atom_site_fract_z
Si Si1 0.344320 0.170907 0.870506
Si Si2 0.800617 0.838279 0.000000
Si Si3 0.560126 0.829871 0.281218
Si Si4 0.076055 0.159268 0.000000
Si Si5 0.940983 0.828098 0.242163
Si Si6 0.152919 0.670923 0.627821
Si Si7 0.436842 0.664541 0.500000
Si Si8 0.755029 0.327842 0.206969
O O1 0.403650 0.205541 0.826698
O O2 0.303651 0.257482 0.789729
O O3 0.331806 0.000000 0.859986
O O4 0.339196 0.222841 0.000000
O O5 0.861992 0.862676 0.000000
O O6 0.786018 0.744879 0.893610
O O7 0.772426 0.000000 0.000000
O O8 0.500000 0.779940 0.251876
O O9 0.583686 0.744853 0.388447
O O10 0.561594 0.000000 0.312381
O O11 0.059143 0.239837 0.884618
O O12 0.048079 0.000000 0.000000
O O13 0.896686 0.752464 0.317124
O O14 0.000000 0.801944 0.293598
O O15 0.926927 0.000000 0.236961
O O16 0.157188 0.722152 0.500000
O O17 0.140807 0.500000 0.639294
O O18 0.210036 0.708540 0.683113
O O19 0.414289 0.500000 0.500000
O O20 0.500000 0.668166 0.500000
O O21 0.749305 0.500000 0.187784
#
# Coordination Sequence:
#
# PCOD8198782 Si02
#       8
#     8   4   8   4   8   8   4   8
#     4  10  21  36  56  83 115 147 180 222 274 334
#     4  11  19  32  59  85 107 141 182 222 275 329
#     4   9  18  34  56  81 112 150 190 230 273 325
#     4   9  17  31  54  83 113 142 172 214 271 326
#     4  10  20  35  57  85 114 143 179 223 271 325
#     4  10  23  42  59  76 106 147 187 226 271 324
#     4   9  17  31  53  79 107 143 187 231 274 317
#     4  11  22  37  58  82 109 142 184 228 274 327
#
# _framework density 18.955226
#
# number of rings (size 3 to 8) (size 9 to 14) (size 15 to 20)
#    0.000    2.077    2.308    1.154    0.000    4.308 
#    1.385    3.462    0.000    0.923    0.000    3.231 
#    0.000    0.000    0.000    0.000    0.000    0.000 
#
# Total GULP energy -644547.156362 kJ/mol
# GULP energy per Si atom -12395.137622 kJ/mol
# Density = 1.891208 g / cm^3
# Si number density = 18.955226 Si / 1000 Ang^3
#
#
#
# Elastic Constant Matrix: (Units=GPa)
#
#
# Indices 1 2 3 4 5 6 
#
# 1 129.0752 48.7219 66.8728 0.0000 0.0000 0.0000
# 2 48.7219 66.8811 52.4026 0.0000 0.0000 0.0000
# 3 66.8728 52.4026 137.5069 0.0000 0.0000 0.0000
# 4 0.0000 0.0000 0.0000 25.4238 0.0000 0.0000
# 5 0.0000 0.0000 0.0000 0.0000 14.6905 0.0000
# 6 0.0000 0.0000 0.0000 0.0000 0.0000 23.9542
#
#
#
# Elastic Compliance Matrix: (Units=1/GPa)
#
#
# Indices 1 2 3 4 5 6 
#
# 1 0.011759 -0.005825 -0.003499 0.000000 0.000000 0.000000
# 2 -0.005825 0.024202 -0.006391 0.000000 0.000000 0.000000
# 3 -0.003499 -0.006391 0.011409 0.000000 0.000000 0.000000
# 4 0.000000 0.000000 0.000000 0.039333 0.000000 0.000000
# 5 0.000000 0.000000 0.000000 0.000000 0.068071 0.000000
# 6 0.000000 0.000000 0.000000 0.000000 0.000000 0.041746
#
#
# Mechanical properties :
#
#
# Convention : Reuss Voigt Hill
#
# Bulk Modulus (GPa) = 62.72684 74.38421 68.55552
# Shear Modulus (GPa) = 21.43501 23.84475 22.63988
#
# Velocity S-wave (km/s) = 3.36642 3.55061 3.45974
# Velocity P-wave (km/s) = 6.94797 7.49242 7.22533
#
# Compressibility (1/GPa) = 0.01594214
#
# Stress axis : x y z
#
# Youngs Moduli (GPa) = 85.04273 41.31851 87.64771
#
# Poissons Ratio (x) = 0.24067 0.30667
# Poissons Ratio (y) = 0.49535 0.56012
# Poissons Ratio (z) = 0.29755 0.26405
#
# Static dielectric constant tensor:
#      x y z
#    x 3.584600 0.000000 0.000000 
#    y 0.000000 3.410100 0.000000 
#    z 0.000000 0.000000 3.507760 
# 
# 
# High freq. dielectric constant tensor:
#      x y z
#    x 1.742610 0.000000 0.000000 
#    y 0.000000 1.722660 0.000000 
#    z 0.000000 0.000000 1.731640 
# 
# From -- ./inp_files/19883.got.cif
#   From: 2010.03.12/outbox.cif.g09.slc.cpg/sg47_10_cif.got.tgz:19883.got - 2010.04.14 03:12:58.
