data_PCOD8198119
_publ_section_title
;
Structure prediction by ZEFSAII (Michael W. Deem and Ramdas Pophale) SiO2 
 PCOD8198119
Probable space group: P M M M
;
_chemical_formula_sum "Si O2"
_cell_formula_units_Z 48
_cell_length_a 31.342307
_cell_length_b 9.045416
_cell_length_c 8.693366
_cell_angle_alpha 90.000000
_cell_angle_beta 90.000000
_cell_angle_gamma 90.000000
_cell_volume 2464.605818
_symmetry_space_group_name_H-M "P M M M"
_symmetry_group_IT_number 47
_symmetry_cell_setting 'orthorhombic'
loop_
_space_group_symop_operation_xyz
x,y,z
-x,-y,z
x,-y,-z
-x,y,-z
-x,-y,-z
x,y,-z
-x,y,z
x,-y,z
loop_
_atom_site_type_symbol
_atom_site_label
_atom_site_fract_x
_atom_site_fract_y
_atom_site_fract_z
Si Si1 0.749011 0.832932 0.816503
Si Si2 0.500000 0.332198 0.681663
Si Si3 0.580834 0.829997 0.181929
Si Si4 0.665537 0.333144 0.816864
Si Si5 0.916358 0.833022 0.183438
Si Si6 0.832717 0.333014 0.816579
Si Si7 0.000000 0.666972 0.183436
O O1 0.707481 0.748461 0.752218
O O2 0.791006 0.750775 0.753411
O O3 0.748722 0.000000 0.753470
O O4 0.748826 0.832653 0.000000
O O5 0.500000 0.500000 0.744035
O O6 0.500000 0.328604 0.500000
O O7 0.541454 0.250076 0.741216
O O8 0.624020 0.753641 0.242406
O O9 0.581624 0.000000 0.233537
O O10 0.576360 0.814858 0.000000
O O11 0.664420 0.500000 0.752482
O O12 0.666635 0.333813 0.000000
O O13 0.874592 0.749666 0.246855
O O14 0.958195 0.750095 0.246828
O O15 0.916295 0.000000 0.246609
O O16 0.916351 0.832650 0.000000
O O17 0.832534 0.500000 0.753352
O O18 0.832752 0.332752 0.000000
O O19 0.000000 0.500000 0.246613
O O20 0.000000 0.667352 0.000000
#
# Coordination Sequence:
#
# PCOD8198119 Si02
#       7
#     8   4   8   8   8   8   4
#     4   9  15  22  32  47  68  92 117 147 184 228
#     4  11  24  39  54  74 100 129 160 193 230 272
#     4  10  20  34  53  76  99 124 156 192 229 271
#     4   9  16  26  41  61  84 109 136 167 204 246
#     4   9  15  21  27  34  44  60  85 119 161 210
#     4   9  15  21  28  38  53  74 100 130 168 218
#     4   9  15  21  27  33  41  55  79 115 159 207
#
# _framework density 19.475731
#
# number of rings (size 3 to 8) (size 9 to 14) (size 15 to 20)
#    0.000    2.667    0.000    3.250    0.000   11.667 
#    0.000    0.000    0.000    0.000    0.000    0.000 
#    0.000    0.000    0.000    0.000    0.000    0.000 
#
# Total GULP energy -595191.883123 kJ/mol
# GULP energy per Si atom -12399.830898 kJ/mol
# Density = 1.943140 g / cm^3
# Si number density = 19.475731 Si / 1000 Ang^3
#
#
#
# Elastic Constant Matrix: (Units=GPa)
#
#
# Indices 1 2 3 4 5 6 
#
# 1 229.2178 128.9191 13.3022 0.0000 0.0000 0.0000
# 2 128.9191 228.3661 14.5884 0.0000 0.0000 0.0000
# 3 13.3022 14.5884 4.9752 0.0000 0.0000 0.0000
# 4 0.0000 0.0000 0.0000 7.0091 0.0000 0.0000
# 5 0.0000 0.0000 0.0000 0.0000 -4.5125 0.0000
# 6 0.0000 0.0000 0.0000 0.0000 0.0000 51.4014
#
#
#
# Elastic Compliance Matrix: (Units=1/GPa)
#
#
# Indices 1 2 3 4 5 6 
#
# 1 0.006663 -0.003228 -0.008349 0.000000 0.000000 0.000000
# 2 -0.003228 0.006952 -0.011754 0.000000 0.000000 0.000000
# 3 -0.008349 -0.011754 0.257784 0.000000 0.000000 0.000000
# 4 0.000000 0.000000 0.000000 0.142671 0.000000 0.000000
# 5 0.000000 0.000000 0.000000 0.000000 -0.221608 0.000000
# 6 0.000000 0.000000 0.000000 0.000000 0.000000 0.019455
#
#
# Mechanical properties :
#
#
# Convention : Reuss Voigt Hill
#
# Bulk Modulus (GPa) = 4.44967 86.24205 45.34586
# Shear Modulus (GPa) = 14.99290 31.16290 23.07790
#
# Velocity S-wave (km/s) = 2.77758 4.00445 3.44605
# Velocity P-wave (km/s) = 3.54631 8.10918 6.25840
#
# Compressibility (1/GPa) = 0.22473588
#
# Stress axis : x y z
#
# Youngs Moduli (GPa) = 150.09038 143.84206 3.87922
#
# Poissons Ratio (x) = 0.46431 0.03239
# Poissons Ratio (y) = 0.48448 0.04560
# Poissons Ratio (z) = 1.25309 1.69078
#
# Static dielectric constant tensor:
#      x y z
#    x 3.882830 0.000000 0.000000 
#    y 0.000000 3.870340 0.000000 
#    z 0.000000 0.000000 2.620260 
# 
# 
# High freq. dielectric constant tensor:
#      x y z
#    x 1.780950 0.000000 0.000000 
#    y 0.000000 1.781400 0.000000 
#    z 0.000000 0.000000 1.663200 
# 
# From -- ./inp_files/13897.got.cif
#   From: 2010.03.12/outbox.cif.g09.slc.cpg/sg47_7_cif.got.tgz:13897.got - 2010.04.14 03:12:58.
