data_PCOD8198350
_publ_section_title
;
Structure prediction by ZEFSAII (Michael W. Deem and Ramdas Pophale) SiO2 
 PCOD8198350
Probable space group: P M M M
;
_chemical_formula_sum "Si O2"
_cell_formula_units_Z 44
_cell_length_a 29.879841
_cell_length_b 8.015449
_cell_length_c 9.440165
_cell_angle_alpha 90.000000
_cell_angle_beta 90.000000
_cell_angle_gamma 90.000000
_cell_volume 2260.922743
_symmetry_space_group_name_H-M "P M M M"
_symmetry_group_IT_number 47
_symmetry_cell_setting 'orthorhombic'
loop_
_space_group_symop_operation_xyz
x,y,z
-x,-y,z
x,-y,-z
-x,y,-z
-x,-y,-z
x,y,-z
-x,y,z
x,-y,z
loop_
_atom_site_type_symbol
_atom_site_label
_atom_site_fract_x
_atom_site_fract_y
_atom_site_fract_z
Si Si1 0.390497 0.189290 0.835596
Si Si2 0.130263 0.190609 0.843589
Si Si3 0.223893 0.307242 0.157858
Si Si4 0.549817 0.500000 0.167521
Si Si5 0.693238 0.302296 0.664124
Si Si6 0.950054 0.694539 0.661973
O O1 0.425674 0.329623 0.782130
O O2 0.346397 0.206450 0.742145
O O3 0.409685 0.000000 0.816004
O O4 0.378278 0.221566 0.000000
O O5 0.173952 0.281390 0.778509
O O6 0.086333 0.206792 0.749945
O O7 0.143654 0.000000 0.853381
O O8 0.119864 0.264146 0.000000
O O9 0.234007 0.500000 0.143289
O O10 0.260811 0.234271 0.265211
O O11 0.227212 0.224777 0.000000
O O12 0.500000 0.500000 0.234064
O O13 0.546610 0.500000 0.000000
O O14 0.693893 0.251338 0.500000
O O15 0.686911 0.500000 0.682888
O O16 0.945598 0.750265 0.500000
O O17 0.940698 0.500000 0.678705
O O18 0.000000 0.738527 0.717129
#
# Coordination Sequence:
#
# PCOD8198350 Si02
#       6
#     8   8   8   4   8   8
#     4  10  20  34  56  84 113 149 189 229 278 333
#     4  10  21  35  51  75 107 138 169 210 260 315
#     4   9  18  33  53  75 103 142 183 221 263 315
#     4   9  18  34  57  85 117 149 185 235 284 327
#     4  10  20  34  54  80 110 144 182 226 275 325
#     4   9  19  36  56  76  98 128 169 215 261 312
#
# _framework density 19.461079000000002
#
# number of rings (size 3 to 8) (size 9 to 14) (size 15 to 20)
#    0.000    2.455    0.909    1.636    0.000    5.091 
#    0.000    8.182    0.000    1.091    0.000    1.273 
#    0.000    0.000    0.000    0.000    0.000    0.000 
#
# Total GULP energy -545427.358904 kJ/mol
# GULP energy per Si atom -12396.076339 kJ/mol
# Density = 1.941679 g / cm^3
# Si number density = 19.461079 Si / 1000 Ang^3
#
#
#
# Elastic Constant Matrix: (Units=GPa)
#
#
# Indices 1 2 3 4 5 6 
#
# 1 152.1906 45.6387 60.3119 0.0000 0.0000 0.0000
# 2 45.6387 73.4523 31.8908 0.0000 0.0000 0.0000
# 3 60.3119 31.8908 77.1717 0.0000 0.0000 0.0000
# 4 0.0000 0.0000 0.0000 19.6864 0.0000 0.0000
# 5 0.0000 0.0000 0.0000 0.0000 1.3560 0.0000
# 6 0.0000 0.0000 0.0000 0.0000 0.0000 14.8653
#
#
#
# Elastic Compliance Matrix: (Units=1/GPa)
#
#
# Indices 1 2 3 4 5 6 
#
# 1 0.010211 -0.003509 -0.006530 0.000000 0.000000 0.000000
# 2 -0.003509 0.017797 -0.004612 0.000000 0.000000 0.000000
# 3 -0.006530 -0.004612 0.019967 0.000000 0.000000 0.000000
# 4 0.000000 0.000000 0.000000 0.050797 0.000000 0.000000
# 5 0.000000 0.000000 0.000000 0.000000 0.737451 0.000000
# 6 0.000000 0.000000 0.000000 0.000000 0.000000 0.067271
#
#
# Mechanical properties :
#
#
# Convention : Reuss Voigt Hill
#
# Bulk Modulus (GPa) = 53.55332 64.27749 58.91541
# Shear Modulus (GPa) = 5.32470 18.17974 11.75222
#
# Velocity S-wave (km/s) = 1.65590 3.05972 2.46007
# Velocity P-wave (km/s) = 5.58873 6.75151 6.19745
#
# Compressibility (1/GPa) = 0.01867298
#
# Stress axis : x y z
#
# Youngs Moduli (GPa) = 97.93565 56.18895 50.08200
#
# Poissons Ratio (x) = 0.19718 0.32703
# Poissons Ratio (y) = 0.34368 0.23098
# Poissons Ratio (z) = 0.63950 0.25914
#
# Static dielectric constant tensor:
#      x y z
#    x 3.610000 0.000000 0.000000 
#    y 0.000000 3.456610 0.000000 
#    z 0.000000 0.000000 3.528570 
# 
# 
# High freq. dielectric constant tensor:
#      x y z
#    x 1.758870 0.000000 0.000000 
#    y 0.000000 1.752670 0.000000 
#    z 0.000000 0.000000 1.736480 
# 
# From -- ./inp_files/2152.got.cif
#   From: 2010.03.12/outbox.cif.g09.slc.cpg/sg47_2_cif.got.tgz:2152.got - 2010.04.14 03:12:58.
