data_PCOD8198493
_publ_section_title
;
Structure prediction by ZEFSAII (Michael W. Deem and Ramdas Pophale) SiO2 
 PCOD8198493
Probable space group: P M M M
;
_chemical_formula_sum "Si O2"
_cell_formula_units_Z 64
_cell_length_a 24.995145
_cell_length_b 14.584556
_cell_length_c 8.922254
_cell_angle_alpha 90.000000
_cell_angle_beta 90.000000
_cell_angle_gamma 90.000000
_cell_volume 3252.546061
_symmetry_space_group_name_H-M "P M M M"
_symmetry_group_IT_number 47
_symmetry_cell_setting 'orthorhombic'
loop_
_space_group_symop_operation_xyz
x,y,z
-x,-y,z
x,-y,-z
-x,y,-z
-x,-y,-z
x,y,-z
-x,y,z
x,-y,z
loop_
_atom_site_type_symbol
_atom_site_label
_atom_site_fract_x
_atom_site_fract_y
_atom_site_fract_z
Si Si1 0.870116 0.255102 0.173438
Si Si2 0.060758 0.393951 0.667290
Si Si3 0.059984 0.896006 0.676958
Si Si4 0.340528 0.395210 0.322285
Si Si5 0.407111 0.898605 0.172652
Si Si6 0.749607 0.727522 0.824358
Si Si7 0.558755 0.724557 0.672451
Si Si8 0.295335 0.102576 0.328472
O O1 0.906401 0.342424 0.206526
O O2 0.893365 0.166716 0.256994
O O3 0.810938 0.284998 0.225886
O O4 0.870449 0.230857 0.000000
O O5 0.082971 0.372931 0.500000
O O6 0.065023 0.500000 0.704767
O O7 0.000000 0.360006 0.675780
O O8 0.062589 0.886871 0.500000
O O9 0.000000 0.867240 0.731521
O O10 0.071628 0.000000 0.727450
O O11 0.336756 0.393555 0.500000
O O12 0.342330 0.500000 0.263270
O O13 0.288214 0.345224 0.258469
O O14 0.394752 0.343585 0.268029
O O15 0.445141 0.817491 0.229508
O O16 0.356335 0.894304 0.279617
O O17 0.434121 0.000000 0.188046
O O18 0.390851 0.881129 0.000000
O O19 0.737234 0.831587 0.779794
O O20 0.741189 0.713411 0.000000
O O21 0.570111 0.750387 0.500000
O O22 0.500000 0.677232 0.688255
O O23 0.291478 0.136721 0.500000
O O24 0.271922 0.000000 0.311677
#
# Coordination Sequence:
#
# PCOD8198493 Si02
#       8
#     8   8   8   8   8   8   8   8
#     4  11  24  37  53  83 119 152 189 234 285 342
#     4   9  19  37  60  84 110 143 185 233 284 337
#     4   9  19  37  60  85 115 154 199 243 287 337
#     4  10  22  41  64  87 111 145 192 241 291 349
#     4  10  20  34  55  84 118 155 190 225 272 331
#     4  11  24  40  57  81 116 155 191 232 285 341
#     4  10  21  37  59  88 120 152 189 237 288 340
#     4  10  20  35  58  85 111 143 186 233 278 328
#
# _framework density 19.676893
#
# number of rings (size 3 to 8) (size 9 to 14) (size 15 to 20)
#    0.000    2.000    1.250    2.625    0.000    8.000 
#    0.000    8.750    0.000    0.000    0.000    1.750 
#    0.000    0.000    0.000    0.000    0.000    0.000 
#
# Total GULP energy -793418.905098 kJ/mol
# GULP energy per Si atom -12397.170392 kJ/mol
# Density = 1.963211 g / cm^3
# Si number density = 19.676893 Si / 1000 Ang^3
#
#
#
# Elastic Constant Matrix: (Units=GPa)
#
#
# Indices 1 2 3 4 5 6 
#
# 1 122.8090 68.6109 35.7561 0.0000 0.0000 0.0000
# 2 68.6109 121.8603 34.5024 0.0000 0.0000 0.0000
# 3 35.7561 34.5024 34.6746 0.0000 0.0000 0.0000
# 4 0.0000 0.0000 0.0000 8.6046 0.0000 0.0000
# 5 0.0000 0.0000 0.0000 0.0000 12.3595 0.0000
# 6 0.0000 0.0000 0.0000 0.0000 0.0000 -31.4262
#
#
#
# Elastic Compliance Matrix: (Units=1/GPa)
#
#
# Indices 1 2 3 4 5 6 
#
# 1 0.013611 -0.005136 -0.008924 0.000000 0.000000 0.000000
# 2 -0.005136 0.013363 -0.008000 0.000000 0.000000 0.000000
# 3 -0.008924 -0.008000 0.046003 0.000000 0.000000 0.000000
# 4 0.000000 0.000000 0.000000 0.116216 0.000000 0.000000
# 5 0.000000 0.000000 0.000000 0.000000 0.080909 0.000000
# 6 0.000000 0.000000 0.000000 0.000000 0.000000 -0.031821
#
#
# Mechanical properties :
#
#
# Convention : Reuss Voigt Hill
#
# Bulk Modulus (GPa) = 34.65637 61.89810 48.27723
# Shear Modulus (GPa) = 17.12201 7.27255 12.19728
#
# Velocity S-wave (km/s) = 2.95305 1.92458 2.49244
# Velocity P-wave (km/s) = 5.41094 6.03856 5.73334
#
# Compressibility (1/GPa) = 0.02885472
#
# Stress axis : x y z
#
# Youngs Moduli (GPa) = 73.47172 74.83241 21.73792
#
# Poissons Ratio (x) = 0.38438 0.19399
# Poissons Ratio (y) = 0.37739 0.17391
# Poissons Ratio (z) = 0.65568 0.59867
#
# Static dielectric constant tensor:
#      x y z
#    x 3.709040 0.000000 0.000000 
#    y 0.000000 3.750260 0.000000 
#    z 0.000000 0.000000 3.489140 
# 
# 
# High freq. dielectric constant tensor:
#      x y z
#    x 1.762870 0.000000 0.000000 
#    y 0.000000 1.770680 0.000000 
#    z 0.000000 0.000000 1.761150 
# 
# From -- ./inp_files/12710.got.cif
#   From: 2010.03.12/outbox.cif.g09.slc.cpg/sg47_7_cif.got.tgz:12710.got - 2010.04.14 03:12:58.
