data_PCOD8198786
_publ_section_title
;
Structure prediction by ZEFSAII (Michael W. Deem and Ramdas Pophale) SiO2 
 PCOD8198786
Probable space group: P M M M
;
_chemical_formula_sum "Si O2"
_cell_formula_units_Z 48
_cell_length_a 8.994760
_cell_length_b 30.525772
_cell_length_c 9.081817
_cell_angle_alpha 90.000000
_cell_angle_beta 90.000000
_cell_angle_gamma 90.000000
_cell_volume 2493.612593
_symmetry_space_group_name_H-M "P M M M"
_symmetry_group_IT_number 47
_symmetry_cell_setting 'orthorhombic'
loop_
_space_group_symop_operation_xyz
x,y,z
-x,-y,z
x,-y,-z
-x,y,-z
-x,-y,-z
x,y,-z
-x,y,z
x,-y,z
loop_
_atom_site_type_symbol
_atom_site_label
_atom_site_fract_x
_atom_site_fract_y
_atom_site_fract_z
Si Si1 0.327686 0.747255 0.827177
Si Si2 0.826476 0.076207 0.334197
Si Si3 0.832590 0.500000 0.174914
Si Si4 0.172138 0.667413 0.673057
Si Si5 0.171389 0.176286 0.328722
Si Si6 0.325270 0.587472 0.170440
Si Si7 0.333775 0.000000 0.173204
O O1 0.500000 0.739155 0.789356
O O2 0.227089 0.711942 0.745675
O O3 0.279543 0.794942 0.771432
O O4 0.298708 0.743666 0.000000
O O5 0.771553 0.067064 0.500000
O O6 0.791469 0.126115 0.289870
O O7 0.744171 0.044136 0.224851
O O8 0.000000 0.066805 0.322509
O O9 0.749137 0.456806 0.232514
O O10 0.000000 0.500000 0.237092
O O11 0.830483 0.500000 0.000000
O O12 0.198076 0.670963 0.500000
O O13 0.266631 0.627424 0.734664
O O14 0.000000 0.660129 0.712467
O O15 0.202442 0.185878 0.500000
O O16 0.000000 0.187022 0.291768
O O17 0.500000 0.582924 0.191731
O O18 0.283724 0.595619 0.000000
O O19 0.500000 0.000000 0.235621
O O20 0.329831 0.000000 0.000000
#
# Coordination Sequence:
#
# PCOD8198786 Si02
#       7
#     8   8   4   8   8   8   4
#     4  11  24  39  56  82 114 146 181 222 269 323
#     4   9  19  37  60  83 107 139 182 228 271 321
#     4   9  17  31  54  83 114 149 186 224 270 323
#     4  11  24  40  58  81 109 143 185 231 276 324
#     4   9  19  37  60  85 111 140 178 224 272 323
#     4  10  20  35  57  85 115 146 183 227 274 326
#     4  11  24  37  50  76 114 149 182 225 274 322
#
# _framework density 19.249181
#
# number of rings (size 3 to 8) (size 9 to 14) (size 15 to 20)
#    0.000    2.000    0.000    4.250    0.000   12.333 
#    0.000    5.417    0.000    2.500    0.000    0.000 
#    0.000    0.000    0.000    0.000    0.000    0.000 
#
# Total GULP energy -595375.293651 kJ/mol
# GULP energy per Si atom -12403.651951 kJ/mol
# Density = 1.920537 g / cm^3
# Si number density = 19.249181 Si / 1000 Ang^3
#
#
#
# Elastic Constant Matrix: (Units=GPa)
#
#
# Indices 1 2 3 4 5 6 
#
# 1 81.9520 48.1753 42.3525 0.0000 0.0000 0.0000
# 2 48.1753 121.7266 43.0649 0.0000 0.0000 0.0000
# 3 42.3525 43.0649 66.3983 0.0000 0.0000 0.0000
# 4 0.0000 0.0000 0.0000 33.0897 0.0000 0.0000
# 5 0.0000 0.0000 0.0000 0.0000 28.1558 0.0000
# 6 0.0000 0.0000 0.0000 0.0000 0.0000 8.1589
#
#
#
# Elastic Compliance Matrix: (Units=1/GPa)
#
#
# Indices 1 2 3 4 5 6 
#
# 1 0.019855 -0.004383 -0.009822 0.000000 0.000000 0.000000
# 2 -0.004383 0.011629 -0.004747 0.000000 0.000000 0.000000
# 3 -0.009822 -0.004747 0.024404 0.000000 0.000000 0.000000
# 4 0.000000 0.000000 0.000000 0.030221 0.000000 0.000000
# 5 0.000000 0.000000 0.000000 0.000000 0.035517 0.000000
# 6 0.000000 0.000000 0.000000 0.000000 0.000000 0.122565
#
#
# Mechanical properties :
#
#
# Convention : Reuss Voigt Hill
#
# Bulk Modulus (GPa) = 55.60176 59.69581 57.64879
# Shear Modulus (GPa) = 17.35579 22.97983 20.16781
#
# Velocity S-wave (km/s) = 3.00599 3.45890 3.24037
# Velocity P-wave (km/s) = 6.40280 6.85795 6.63428
#
# Compressibility (1/GPa) = 0.01798504
#
# Stress axis : x y z
#
# Youngs Moduli (GPa) = 50.36624 85.99112 40.97689
#
# Poissons Ratio (x) = 0.37690 0.40246
# Poissons Ratio (y) = 0.22076 0.19451
# Poissons Ratio (z) = 0.49467 0.40818
#
# Static dielectric constant tensor:
#      x y z
#    x 3.606600 0.000000 0.000000 
#    y 0.000000 3.664480 0.000000 
#    z 0.000000 0.000000 3.386580 
# 
# 
# High freq. dielectric constant tensor:
#      x y z
#    x 1.756200 0.000000 0.000000 
#    y 0.000000 1.765770 0.000000 
#    z 0.000000 0.000000 1.737290 
# 
# From -- ./inp_files/2548.got.cif
#   From: 2010.03.12/outbox.cif.g09.slc.cpg/sg47_2_cif.got.tgz:2548.got - 2010.04.14 03:12:58.
