data_PCOD8198236
_publ_section_title
;
Structure prediction by ZEFSAII (Michael W. Deem and Ramdas Pophale) SiO2 
 PCOD8198236
Probable space group: P M M M
;
_chemical_formula_sum "Si O2"
_cell_formula_units_Z 64
_cell_length_a 8.702669
_cell_length_b 14.837321
_cell_length_c 25.253938
_cell_angle_alpha 90.000000
_cell_angle_beta 90.000000
_cell_angle_gamma 90.000000
_cell_volume 3260.896903
_symmetry_space_group_name_H-M "P M M M"
_symmetry_group_IT_number 47
_symmetry_cell_setting 'orthorhombic'
loop_
_space_group_symop_operation_xyz
x,y,z
-x,-y,z
x,-y,-z
-x,y,-z
-x,-y,-z
x,y,-z
-x,y,z
x,-y,z
loop_
_atom_site_type_symbol
_atom_site_label
_atom_site_fract_x
_atom_site_fract_y
_atom_site_fract_z
Si Si1 0.174524 0.402232 0.591123
Si Si2 0.318718 0.103225 0.343062
Si Si3 0.183561 0.246802 0.863723
Si Si4 0.179101 0.770250 0.745322
Si Si5 0.182784 0.099293 0.058197
Si Si6 0.817191 0.399253 0.059100
Si Si7 0.325265 0.399903 0.299709
Si Si8 0.822271 0.793427 0.441524
O O1 0.192182 0.500000 0.561018
O O2 0.296567 0.401432 0.638027
O O3 0.210371 0.314435 0.555855
O O4 0.000000 0.394605 0.613236
O O5 0.500000 0.103333 0.340077
O O6 0.258164 0.154508 0.291119
O O7 0.272158 0.155051 0.396617
O O8 0.256301 0.000000 0.343838
O O9 0.248043 0.231055 0.804749
O O10 0.250529 0.164303 0.897534
O O11 0.247026 0.336149 0.893573
O O12 0.000000 0.249633 0.862007
O O13 0.206166 0.669426 0.725155
O O14 0.000000 0.792329 0.744801
O O15 0.000000 0.098795 0.060886
O O16 0.248059 0.000000 0.069481
O O17 0.234843 0.132443 0.000000
O O18 0.757180 0.500000 0.070658
O O19 0.000000 0.396353 0.059651
O O20 0.762127 0.368361 0.000000
O O21 0.500000 0.368123 0.289579
O O22 0.297490 0.500000 0.275760
O O23 0.777904 0.830737 0.500000
O O24 0.000000 0.811987 0.429136
#
# Coordination Sequence:
#
# PCOD8198236 Si02
#       8
#     8   8   8   8   8   8   8   8
#     4   9  17  31  54  84 117 150 180 210 251 308
#     4  11  25  44  63  80 103 142 190 235 281 334
#     4   9  17  26  39  64  98 133 170 212 260 319
#     4  11  22  35  54  81 111 144 181 225 280 334
#     4   8  13  22  37  57  85 124 165 203 250 313
#     4   8  13  22  37  58  90 136 182 217 254 307
#     4  10  20  34  54  78 106 143 184 223 262 310
#     4  10  21  37  60  91 122 149 179 220 272 328
#
# _framework density 19.626501999999999
#
# number of rings (size 3 to 8) (size 9 to 14) (size 15 to 20)
#    0.000    2.500    1.250    2.250    0.000    5.000 
#    0.000    5.000    0.000    0.000    0.000    2.625 
#    0.000    8.000    0.000   22.000    0.000   18.000 
#
# Total GULP energy -792965.942984 kJ/mol
# GULP energy per Si atom -12390.092859 kJ/mol
# Density = 1.958183 g / cm^3
# Si number density = 19.626502 Si / 1000 Ang^3
#
#
#
# Elastic Constant Matrix: (Units=GPa)
#
#
# Indices 1 2 3 4 5 6 
#
# 1 32.6461 24.7012 22.0464 0.0000 0.0000 0.0000
# 2 24.7012 137.9521 76.5570 0.0000 0.0000 0.0000
# 3 22.0464 76.5570 144.6952 0.0000 0.0000 0.0000
# 4 0.0000 0.0000 0.0000 10.4479 0.0000 0.0000
# 5 0.0000 0.0000 0.0000 0.0000 0.7960 0.0000
# 6 0.0000 0.0000 0.0000 0.0000 0.0000 18.8860
#
#
#
# Elastic Compliance Matrix: (Units=1/GPa)
#
#
# Indices 1 2 3 4 5 6 
#
# 1 0.036307 -0.004857 -0.002962 0.000000 0.000000 0.000000
# 2 -0.004857 0.010912 -0.005033 0.000000 0.000000 0.000000
# 3 -0.002962 -0.005033 0.010025 0.000000 0.000000 0.000000
# 4 0.000000 0.000000 0.000000 0.095713 0.000000 0.000000
# 5 0.000000 0.000000 0.000000 0.000000 1.256211 0.000000
# 6 0.000000 0.000000 0.000000 0.000000 0.000000 0.052949
#
#
# Mechanical properties :
#
#
# Convention : Reuss Voigt Hill
#
# Bulk Modulus (GPa) = 31.70649 62.43361 47.07005
# Shear Modulus (GPa) = 3.33704 18.82523 11.08113
#
# Velocity S-wave (km/s) = 1.30536 3.10041 2.37871
# Velocity P-wave (km/s) = 4.29674 6.68556 5.61955
#
# Compressibility (1/GPa) = 0.03153928
#
# Stress axis : x y z
#
# Youngs Moduli (GPa) = 27.54291 91.64345 99.74605
#
# Poissons Ratio (x) = 0.44513 0.29545
# Poissons Ratio (y) = 0.13378 0.50205
# Poissons Ratio (z) = 0.08158 0.46127
#
# Static dielectric constant tensor:
#      x y z
#    x 3.101440 0.000000 0.000000 
#    y 0.000000 3.979650 0.000000 
#    z 0.000000 0.000000 3.691590 
# 
# 
# High freq. dielectric constant tensor:
#      x y z
#    x 1.717830 0.000000 0.000000 
#    y 0.000000 1.776310 0.000000 
#    z 0.000000 0.000000 1.759830 
# 
# From -- ./inp_files/32131.got.cif
#   From: 2010.03.12/outbox.cif.g09.slc.cpg/sg47_17_cif.got.tgz:32131.got - 2010.04.14 03:12:58.
