data_PCOD8198341
_publ_section_title
;
Structure prediction by ZEFSAII (Michael W. Deem and Ramdas Pophale) SiO2 
 PCOD8198341
Probable space group: P M M M
;
_chemical_formula_sum "Si O2"
_cell_formula_units_Z 48
_cell_length_a 9.283816
_cell_length_b 32.396361
_cell_length_c 7.996242
_cell_angle_alpha 90.000000
_cell_angle_beta 90.000000
_cell_angle_gamma 90.000000
_cell_volume 2404.964574
_symmetry_space_group_name_H-M "P M M M"
_symmetry_group_IT_number 47
_symmetry_cell_setting 'orthorhombic'
loop_
_space_group_symop_operation_xyz
x,y,z
-x,-y,z
x,-y,-z
-x,y,-z
-x,-y,-z
x,y,-z
-x,y,z
x,-y,z
loop_
_atom_site_type_symbol
_atom_site_label
_atom_site_fract_x
_atom_site_fract_y
_atom_site_fract_z
Si Si1 0.338533 0.578140 0.807247
Si Si2 0.660811 0.815751 0.802569
Si Si3 0.168288 0.500000 0.306630
Si Si4 0.663135 0.334131 0.691152
Si Si5 0.841068 0.740200 0.807122
Si Si6 0.169244 0.897906 0.192035
Si Si7 0.829539 0.954003 0.500000
O O1 0.500000 0.565694 0.748905
O O2 0.232599 0.540540 0.776385
O O3 0.283996 0.618581 0.708611
O O4 0.337128 0.590085 0.000000
O O5 0.500000 0.817921 0.725045
O O6 0.743535 0.776186 0.723919
O O7 0.747964 0.856658 0.755880
O O8 0.649260 0.810802 0.000000
O O9 0.207502 0.500000 0.500000
O O10 0.000000 0.500000 0.271525
O O11 0.670641 0.320532 0.500000
O O12 0.500000 0.330394 0.761095
O O13 0.766742 0.304229 0.793139
O O14 0.000000 0.739251 0.722612
O O15 0.859959 0.751032 0.000000
O O16 0.220614 0.931892 0.327570
O O17 0.000000 0.888938 0.207708
O O18 0.206386 0.911760 0.000000
O O19 0.000000 0.956355 0.500000
O O20 0.762655 0.000000 0.500000
#
# Coordination Sequence:
#
# PCOD8198341 Si02
#       7
#     8   8   4   8   8   8   4
#     4  10  21  38  61  85 107 137 179 223 267 318
#     4   9  17  31  53  78 104 137 178 223 269 319
#     4  11  24  39  56  82 114 145 176 215 266 320
#     4  10  21  37  56  79 108 142 180 221 267 320
#     4  10  20  34  54  80 109 142 180 221 268 324
#     4   9  17  31  52  77 106 141 181 226 276 330
#     4   9  18  32  51  79 111 141 179 227 277 330
#
# _framework density 19.958712999999999
#
# number of rings (size 3 to 8) (size 9 to 14) (size 15 to 20)
#    0.000    2.333    0.000    2.500    0.000    7.667 
#    1.500    2.083    0.000    1.000    0.000    2.333 
#    0.000    0.000    0.000    0.000    0.000    0.000 
#
# Total GULP energy -595137.955176 kJ/mol
# GULP energy per Si atom -12398.707399 kJ/mol
# Density = 1.991329 g / cm^3
# Si number density = 19.958713 Si / 1000 Ang^3
#
#
#
# Elastic Constant Matrix: (Units=GPa)
#
#
# Indices 1 2 3 4 5 6 
#
# 1 98.0612 65.0812 26.4571 0.0000 0.0000 0.0000
# 2 65.0812 148.8583 35.7573 0.0000 0.0000 0.0000
# 3 26.4571 35.7573 62.7220 0.0000 0.0000 0.0000
# 4 0.0000 0.0000 0.0000 19.5519 0.0000 0.0000
# 5 0.0000 0.0000 0.0000 0.0000 16.4370 0.0000
# 6 0.0000 0.0000 0.0000 0.0000 0.0000 25.3152
#
#
#
# Elastic Compliance Matrix: (Units=1/GPa)
#
#
# Indices 1 2 3 4 5 6 
#
# 1 0.014827 -0.005770 -0.002965 0.000000 0.000000 0.000000
# 2 -0.005770 0.010029 -0.003284 0.000000 0.000000 0.000000
# 3 -0.002965 -0.003284 0.019066 0.000000 0.000000 0.000000
# 4 0.000000 0.000000 0.000000 0.051146 0.000000 0.000000
# 5 0.000000 0.000000 0.000000 0.000000 0.060838 0.000000
# 6 0.000000 0.000000 0.000000 0.000000 0.000000 0.039502
#
#
# Mechanical properties :
#
#
# Convention : Reuss Voigt Hill
#
# Bulk Modulus (GPa) = 50.28893 62.69252 56.49073
# Shear Modulus (GPa) = 22.11661 24.41722 23.26691
#
# Velocity S-wave (km/s) = 3.33245 3.50149 3.41802
# Velocity P-wave (km/s) = 6.32915 6.91567 6.62890
#
# Compressibility (1/GPa) = 0.01988509
#
# Stress axis : x y z
#
# Youngs Moduli (GPa) = 67.44324 99.70705 52.44961
#
# Poissons Ratio (x) = 0.57535 0.15550
# Poissons Ratio (y) = 0.38917 0.17223
# Poissons Ratio (z) = 0.19995 0.32740
#
# Static dielectric constant tensor:
#      x y z
#    x 3.695570 0.000000 0.000000 
#    y 0.000000 3.629760 0.000000 
#    z 0.000000 0.000000 3.527240 
# 
# 
# High freq. dielectric constant tensor:
#      x y z
#    x 1.768820 0.000000 0.000000 
#    y 0.000000 1.779680 0.000000 
#    z 0.000000 0.000000 1.766960 
# 
# From -- ./inp_files/2704.got.cif
#   From: 2010.03.12/outbox.cif.g09.slc.cpg/sg47_2_cif.got.tgz:2704.got - 2010.04.14 03:12:58.
