data_PCOD8198239
_publ_section_title
;
Structure prediction by ZEFSAII (Michael W. Deem and Ramdas Pophale) SiO2 
 PCOD8198239
Probable space group: P M M M
;
_chemical_formula_sum "Si O2"
_cell_formula_units_Z 44
_cell_length_a 9.332504
_cell_length_b 28.711129
_cell_length_c 9.214300
_cell_angle_alpha 90.000000
_cell_angle_beta 90.000000
_cell_angle_gamma 90.000000
_cell_volume 2468.941520
_symmetry_space_group_name_H-M "P M M M"
_symmetry_group_IT_number 47
_symmetry_cell_setting 'orthorhombic'
loop_
_space_group_symop_operation_xyz
x,y,z
-x,-y,z
x,-y,-z
-x,y,-z
-x,-y,-z
x,y,-z
-x,y,z
x,-y,z
loop_
_atom_site_type_symbol
_atom_site_label
_atom_site_fract_x
_atom_site_fract_y
_atom_site_fract_z
Si Si1 0.165117 0.639621 0.329777
Si Si2 0.669930 0.171829 0.661329
Si Si3 0.170331 0.449050 0.836050
Si Si4 0.668245 0.918398 0.169442
Si Si5 0.659360 0.273372 0.327252
Si Si6 0.831232 0.000000 0.670766
O O1 0.188448 0.635654 0.500000
O O2 0.233137 0.592694 0.261552
O O3 0.242971 0.685164 0.264688
O O4 0.000000 0.644851 0.287111
O O5 0.731225 0.160189 0.500000
O O6 0.500000 0.174856 0.650788
O O7 0.717239 0.132461 0.775214
O O8 0.724354 0.222611 0.716758
O O9 0.224926 0.500000 0.781152
O O10 0.000000 0.448464 0.827434
O O11 0.222444 0.440917 0.000000
O O12 0.500000 0.927235 0.198891
O O13 0.760460 0.954996 0.258272
O O14 0.703865 0.922721 0.000000
O O15 0.654429 0.275504 0.500000
O O16 0.500000 0.279937 0.262860
O O17 0.798834 0.000000 0.500000
O O18 0.000000 0.000000 0.703092
#
# Coordination Sequence:
#
# PCOD8198239 Si02
#       6
#     8   8   8   8   8   4
#     4   9  16  25  40  64  88 107 136 183 228 259
#     4   8  14  27  48  70  91 120 158 193 222 260
#     4   8  14  25  40  57  79 109 142 174 213 264
#     4  10  20  34  54  79 103 127 158 197 240 282
#     4   8  14  26  44  64  88 120 152 179 215 265
#     4  11  24  39  54  74 100 131 166 199 234 280
#
# _framework density 17.821401999999999
#
# number of rings (size 3 to 8) (size 9 to 14) (size 15 to 20)
#    0.000    3.182    0.000    2.727    0.000    3.273 
#    0.000    3.636    0.000    5.455    0.000    3.818 
#    0.000    0.000    0.000    0.000    0.000    0.000 
#
# Total GULP energy -545272.490122 kJ/mol
# GULP energy per Si atom -12392.556594 kJ/mol
# Density = 1.778084 g / cm^3
# Si number density = 17.821402 Si / 1000 Ang^3
#
#
#
# Elastic Constant Matrix: (Units=GPa)
#
#
# Indices 1 2 3 4 5 6 
#
# 1 47.0681 57.8256 36.3591 0.0000 0.0000 0.0000
# 2 57.8256 197.1578 68.7053 0.0000 0.0000 0.0000
# 3 36.3591 68.7053 72.0485 0.0000 0.0000 0.0000
# 4 0.0000 0.0000 0.0000 8.6720 0.0000 0.0000
# 5 0.0000 0.0000 0.0000 0.0000 13.9620 0.0000
# 6 0.0000 0.0000 0.0000 0.0000 0.0000 6.9382
#
#
#
# Elastic Compliance Matrix: (Units=1/GPa)
#
#
# Indices 1 2 3 4 5 6 
#
# 1 0.040573 -0.007136 -0.013670 0.000000 0.000000 0.000000
# 2 -0.007136 0.008852 -0.004840 0.000000 0.000000 0.000000
# 3 -0.013670 -0.004840 0.025393 0.000000 0.000000 0.000000
# 4 0.000000 0.000000 0.000000 0.115313 0.000000 0.000000
# 5 0.000000 0.000000 0.000000 0.000000 0.071623 0.000000
# 6 0.000000 0.000000 0.000000 0.000000 0.000000 0.144130
#
#
# Mechanical properties :
#
#
# Convention : Reuss Voigt Hill
#
# Bulk Modulus (GPa) = 42.50619 71.33939 56.92279
# Shear Modulus (GPa) = 10.75231 16.14007 13.44619
#
# Velocity S-wave (km/s) = 2.45896 3.01268 2.74979
# Velocity P-wave (km/s) = 5.65375 7.22625 6.48782
#
# Compressibility (1/GPa) = 0.02352599
#
# Stress axis : x y z
#
# Youngs Moduli (GPa) = 24.64721 112.97426 39.38077
#
# Poissons Ratio (x) = 0.80619 0.53833
# Poissons Ratio (y) = 0.17588 0.19059
# Poissons Ratio (z) = 0.33692 0.54675
#
# Static dielectric constant tensor:
#      x y z
#    x 2.996350 0.000000 0.000000 
#    y 0.000000 3.969020 0.000000 
#    z 0.000000 0.000000 3.151710 
# 
# 
# High freq. dielectric constant tensor:
#      x y z
#    x 1.641470 0.000000 0.000000 
#    y 0.000000 1.713460 0.000000 
#    z 0.000000 0.000000 1.667120 
# 
# From -- ./inp_files/2011.got.cif
#   From: 2010.03.12/outbox.cif.g09.slc.cpg/sg47_2_cif.got.tgz:2011.got - 2010.04.14 03:12:58.
