data_PCOD8198139
_publ_section_title
;
Structure prediction by ZEFSAII (Michael W. Deem and Ramdas Pophale) SiO2 
 PCOD8198139
Probable space group: P M M M
;
_chemical_formula_sum "Si O2"
_cell_formula_units_Z 48
_cell_length_a 9.084304
_cell_length_b 9.073381
_cell_length_c 31.170126
_cell_angle_alpha 90.000000
_cell_angle_beta 90.000000
_cell_angle_gamma 90.000000
_cell_volume 2569.208586
_symmetry_space_group_name_H-M "P M M M"
_symmetry_group_IT_number 47
_symmetry_cell_setting 'orthorhombic'
loop_
_space_group_symop_operation_xyz
x,y,z
-x,-y,z
x,-y,-z
-x,y,-z
-x,-y,-z
x,y,-z
-x,y,z
x,-y,z
loop_
_atom_site_type_symbol
_atom_site_label
_atom_site_fract_x
_atom_site_fract_y
_atom_site_fract_z
Si Si1 0.827165 0.329179 0.914890
Si Si2 0.671689 0.828384 0.331865
Si Si3 0.674918 0.334033 0.752410
Si Si4 0.833958 0.175544 0.416560
Si Si5 0.333766 0.175897 0.500000
Si Si6 0.329966 0.173441 0.162303
Si Si7 0.665885 0.674985 0.000000
O O1 0.787647 0.500000 0.906692
O O2 0.768867 0.233325 0.875867
O O3 0.749942 0.268134 0.957854
O O4 0.000000 0.305942 0.920230
O O5 0.500000 0.797669 0.339130
O O6 0.735175 0.743153 0.290563
O O7 0.755814 0.766872 0.373485
O O8 0.702647 0.000000 0.324296
O O9 0.500000 0.331243 0.751224
O O10 0.736319 0.500000 0.754730
O O11 0.730329 0.245688 0.793955
O O12 0.748121 0.237787 0.457898
O O13 0.000000 0.235813 0.417801
O O14 0.830935 0.000000 0.417359
O O15 0.500000 0.235837 0.500000
O O16 0.332007 0.000000 0.500000
O O17 0.500000 0.216342 0.153907
O O18 0.309734 0.000000 0.166422
O O19 0.665731 0.500000 0.000000
O O20 0.500000 0.738124 0.000000
#
# Coordination Sequence:
#
# PCOD8198139 Si02
#       7
#     8   8   8   8   4   8   4
#     4  10  20  34  53  78 108 140 173 210 253 301
#     4   9  16  27  44  66  92 122 157 197 240 286
#     4   9  17  30  50  74  97 124 162 207 250 292
#     4   9  16  25  38  59  89 123 156 191 234 283
#     4   9  15  23  37  59  88 121 156 193 232 276
#     4  10  20  34  53  77 104 135 172 213 256 302
#     4   9  17  31  54  81 106 135 172 212 252 295
#
# _framework density 18.682796
#
# number of rings (size 3 to 8) (size 9 to 14) (size 15 to 20)
#    0.000    2.667    0.000    2.500    0.000    8.000 
#    0.000    1.250    0.000    6.000    0.000    0.583 
#    0.000    4.667    0.000    0.000    0.000    0.000 
#
# Total GULP energy -595237.302907 kJ/mol
# GULP energy per Si atom -12400.777144 kJ/mol
# Density = 1.864027 g / cm^3
# Si number density = 18.682796 Si / 1000 Ang^3
#
#
#
# Elastic Constant Matrix: (Units=GPa)
#
#
# Indices 1 2 3 4 5 6 
#
# 1 96.9542 31.9864 73.4890 0.0000 0.0000 0.0000
# 2 31.9864 58.1904 52.9262 0.0000 0.0000 0.0000
# 3 73.4890 52.9262 198.5067 0.0000 0.0000 0.0000
# 4 0.0000 0.0000 0.0000 9.5653 0.0000 0.0000
# 5 0.0000 0.0000 0.0000 0.0000 10.4115 0.0000
# 6 0.0000 0.0000 0.0000 0.0000 0.0000 14.6261
#
#
#
# Elastic Compliance Matrix: (Units=1/GPa)
#
#
# Indices 1 2 3 4 5 6 
#
# 1 0.015091 -0.004243 -0.004456 0.000000 0.000000 0.000000
# 2 -0.004243 0.023879 -0.004796 0.000000 0.000000 0.000000
# 3 -0.004456 -0.004796 0.007966 0.000000 0.000000 0.000000
# 4 0.000000 0.000000 0.000000 0.104544 0.000000 0.000000
# 5 0.000000 0.000000 0.000000 0.000000 0.096047 0.000000
# 6 0.000000 0.000000 0.000000 0.000000 0.000000 0.068371
#
#
# Mechanical properties :
#
#
# Convention : Reuss Voigt Hill
#
# Bulk Modulus (GPa) = 50.13189 74.49493 62.31341
# Shear Modulus (GPa) = 14.30463 19.93724 17.12093
#
# Velocity S-wave (km/s) = 2.77005 3.27026 3.03050
# Velocity P-wave (km/s) = 6.09281 7.36340 6.75803
#
# Compressibility (1/GPa) = 0.01994738
#
# Stress axis : x y z
#
# Youngs Moduli (GPa) = 66.26381 41.87725 125.53560
#
# Poissons Ratio (x) = 0.17768 0.55935
# Poissons Ratio (y) = 0.28114 0.60207
# Poissons Ratio (z) = 0.29525 0.20084
#
# Static dielectric constant tensor:
#      x y z
#    x 3.327330 0.000000 0.000000 
#    y 0.000000 3.087930 0.000000 
#    z 0.000000 0.000000 3.688960 
# 
# 
# High freq. dielectric constant tensor:
#      x y z
#    x 1.710200 0.000000 0.000000 
#    y 0.000000 1.684420 0.000000 
#    z 0.000000 0.000000 1.745250 
# 
# From -- ./inp_files/34095.got.cif
#   From: 2010.03.12/outbox.cif.g09.slc.cpg/sg47_18_cif.got.tgz:34095.got - 2010.04.14 03:12:58.
