data_PCOD8199918
_publ_section_title
;
Structure prediction by ZEFSAII (Michael W. Deem and Ramdas Pophale) SiO2 
 PCOD8199918
Probable space group: P M M M
;
_chemical_formula_sum "Si O2"
_cell_formula_units_Z 48
_cell_length_a 15.542899
_cell_length_b 8.790661
_cell_length_c 17.858396
_cell_angle_alpha 90.000000
_cell_angle_beta 90.000000
_cell_angle_gamma 90.000000
_cell_volume 2440.034721
_symmetry_space_group_name_H-M "P M M M"
_symmetry_group_IT_number 47
_symmetry_cell_setting 'orthorhombic'
loop_
_space_group_symop_operation_xyz
x,y,z
-x,-y,z
x,-y,-z
-x,y,-z
-x,-y,-z
x,y,-z
-x,y,z
x,-y,z
loop_
_atom_site_type_symbol
_atom_site_label
_atom_site_fract_x
_atom_site_fract_y
_atom_site_fract_z
Si Si1 0.094629 0.819308 0.648913
Si Si2 0.272084 0.821577 0.415253
Si Si3 0.403117 0.324281 0.701013
Si Si4 0.398503 0.326186 0.000000
Si Si5 0.662596 0.180508 0.846758
Si Si6 0.000000 0.181602 0.917103
Si Si7 0.852683 0.819185 0.810890
O O1 0.173046 0.765640 0.595643
O O2 0.114596 0.755323 0.731593
O O3 0.000000 0.757962 0.622436
O O4 0.090976 0.000000 0.650175
O O5 0.299530 0.783734 0.500000
O O6 0.336569 0.739077 0.359473
O O7 0.278300 0.000000 0.397644
O O8 0.500000 0.301157 0.670044
O O9 0.382169 0.500000 0.714535
O O10 0.398379 0.239742 0.780637
O O11 0.363602 0.244183 0.073298
O O12 0.367338 0.500000 0.000000
O O13 0.500000 0.313825 0.000000
O O14 0.757799 0.241020 0.827978
O O15 0.657099 0.000000 0.850011
O O16 0.084562 0.242729 0.875279
O O17 0.000000 0.000000 0.918940
O O18 0.000000 0.250835 0.000000
O O19 0.853398 0.000000 0.808742
#
# Coordination Sequence:
#
# PCOD8199918 Si02
#       7
#     8   8   8   4   8   4   8
#     4   9  15  28  52  82 117 152 185 229 288 346
#     4  10  21  37  58  88 122 152 190 245 300 347
#     4  11  24  41  61  84 113 154 200 242 292 358
#     4  11  25  43  59  80 115 154 192 235 287 351
#     4  11  22  37  61  90 118 147 190 245 295 342
#     4   9  16  24  40  72 115 151 178 221 282 335
#     4   9  16  27  46  77 112 145 181 227 279 332
#
# _framework density 19.671849999999999
#
# number of rings (size 3 to 8) (size 9 to 14) (size 15 to 20)
#    0.000    2.000    2.500    1.750    1.167    5.000 
#    0.000    3.333    0.000    0.500    0.000    3.500 
#    0.000    0.000    0.000    0.000    0.000    0.000 
#
# Total GULP energy -595077.804176 kJ/mol
# GULP energy per Si atom -12397.454254 kJ/mol
# Density = 1.962708 g / cm^3
# Si number density = 19.671850 Si / 1000 Ang^3
#
#
#
# Elastic Constant Matrix: (Units=GPa)
#
#
# Indices 1 2 3 4 5 6 
#
# 1 135.5757 43.0219 52.7632 0.0000 0.0000 0.0000
# 2 43.0219 62.9152 39.3626 0.0000 0.0000 0.0000
# 3 52.7632 39.3626 118.0662 0.0000 0.0000 0.0000
# 4 0.0000 0.0000 0.0000 17.0325 0.0000 0.0000
# 5 0.0000 0.0000 0.0000 0.0000 22.3020 0.0000
# 6 0.0000 0.0000 0.0000 0.0000 0.0000 -0.1375
#
#
#
# Elastic Compliance Matrix: (Units=1/GPa)
#
#
# Indices 1 2 3 4 5 6 
#
# 1 0.010100 -0.005159 -0.002794 0.000000 0.000000 0.000000
# 2 -0.005159 0.022718 -0.005269 0.000000 0.000000 0.000000
# 3 -0.002794 -0.005269 0.011475 0.000000 0.000000 0.000000
# 4 0.000000 0.000000 0.000000 0.058711 0.000000 0.000000
# 5 0.000000 0.000000 0.000000 0.000000 0.044839 0.000000
# 6 0.000000 0.000000 0.000000 0.000000 0.000000 -7.272616
#
#
# Mechanical properties :
#
#
# Convention : Reuss Voigt Hill
#
# Bulk Modulus (GPa) = 56.01955 65.20583 60.61269
# Shear Modulus (GPa) = -0.70498 19.93337 9.61420
#
# Velocity S-wave (km/s) = -0.59929 3.18668 2.21312
# Velocity P-wave (km/s) = 5.29717 6.83803 6.11632
#
# Compressibility (1/GPa) = 0.01785091
#
# Stress axis : x y z
#
# Youngs Moduli (GPa) = 99.00734 44.01736 87.14614
#
# Poissons Ratio (x) = 0.22707 0.24348
# Poissons Ratio (y) = 0.51075 0.45915
# Poissons Ratio (z) = 0.27662 0.23192
#
# Static dielectric constant tensor:
#      x y z
#    x 3.925040 0.000000 0.000000 
#    y 0.000000 3.183980 0.000000 
#    z 0.000000 0.000000 3.679860 
# 
# 
# High freq. dielectric constant tensor:
#      x y z
#    x 1.785270 0.000000 0.000000 
#    y 0.000000 1.720140 0.000000 
#    z 0.000000 0.000000 1.772350 
# 
# From -- ./inp_files/28009.got.cif
#   From: 2010.03.12/outbox.cif.g09.slc.cpg/sg47_15_cif.got.tgz:28009.got - 2010.04.14 03:12:58.
