data_PCOD8199155
_publ_section_title
;
Structure prediction by ZEFSAII (Michael W. Deem and Ramdas Pophale) SiO2 
 PCOD8199155
Probable space group: P M M M
;
_chemical_formula_sum "Si O2"
_cell_formula_units_Z 52
_cell_length_a 9.707776
_cell_length_b 33.445529
_cell_length_c 9.246107
_cell_angle_alpha 90.000000
_cell_angle_beta 90.000000
_cell_angle_gamma 90.000000
_cell_volume 3002.041774
_symmetry_space_group_name_H-M "P M M M"
_symmetry_group_IT_number 47
_symmetry_cell_setting 'orthorhombic'
loop_
_space_group_symop_operation_xyz
x,y,z
-x,-y,z
x,-y,-z
-x,y,-z
-x,-y,-z
x,y,-z
-x,y,z
x,-y,z
loop_
_atom_site_type_symbol
_atom_site_label
_atom_site_fract_x
_atom_site_fract_y
_atom_site_fract_z
Si Si1 0.840274 0.804602 0.830798
Si Si2 0.340061 0.740705 0.668821
Si Si3 0.345354 0.044150 0.328175
Si Si4 0.664408 0.576502 0.162367
Si Si5 0.663230 0.650882 0.659881
Si Si6 0.840640 0.115647 0.668328
Si Si7 0.335833 0.500000 0.663295
O O1 0.751940 0.768767 0.767211
O O2 0.792371 0.845492 0.755361
O O3 0.000000 0.796017 0.797290
O O4 0.811432 0.808432 0.000000
O O5 0.310517 0.748628 0.500000
O O6 0.500000 0.748572 0.703669
O O7 0.297319 0.695443 0.711237
O O8 0.339130 0.044059 0.500000
O O9 0.500000 0.054080 0.275601
O O10 0.242696 0.077849 0.267758
O O11 0.301349 0.000000 0.271277
O O12 0.500000 0.576566 0.161883
O O13 0.722503 0.617715 0.230530
O O14 0.720354 0.539202 0.254958
O O15 0.721936 0.572853 0.000000
O O16 0.724215 0.642604 0.500000
O O17 0.500000 0.647430 0.651353
O O18 0.808224 0.123231 0.500000
O O19 0.000000 0.106162 0.694533
O O20 0.500000 0.500000 0.662744
O O21 0.278559 0.500000 0.500000
#
# Coordination Sequence:
#
# PCOD8199155 Si02
#       7
#     8   8   8   8   8   8   4
#     4  10  21  35  49  67  94 126 157 191 233 279
#     4   9  18  32  50  71  92 116 151 193 233 277
#     4   8  14  25  42  66  94 119 144 180 226 270
#     4   9  15  21  30  46  69  98 134 175 216 260
#     4   8  14  25  39  55  77 104 134 171 217 267
#     4   9  17  29  46  67  89 115 149 187 225 267
#     4   9  15  21  29  41  61  95 138 179 218 261
#
# _framework density 17.321543999999999
#
# number of rings (size 3 to 8) (size 9 to 14) (size 15 to 20)
#    0.000    3.154    0.000    2.538    0.000    5.538 
#    0.000    4.615    0.000    0.462    0.000    3.231 
#    0.000    0.000    0.000    0.692    0.000   13.692 
#
# Total GULP energy -644597.882755 kJ/mol
# GULP energy per Si atom -12396.113130 kJ/mol
# Density = 1.728212 g / cm^3
# Si number density = 17.321544 Si / 1000 Ang^3
#
#
#
# Elastic Constant Matrix: (Units=GPa)
#
#
# Indices 1 2 3 4 5 6 
#
# 1 38.6688 54.4357 32.5725 0.0000 0.0000 0.0000
# 2 54.4357 174.5933 81.6485 0.0000 0.0000 0.0000
# 3 32.5725 81.6485 100.0598 0.0000 0.0000 0.0000
# 4 0.0000 0.0000 0.0000 7.7303 0.0000 0.0000
# 5 0.0000 0.0000 0.0000 0.0000 14.6670 0.0000
# 6 0.0000 0.0000 0.0000 0.0000 0.0000 0.7445
#
#
#
# Elastic Compliance Matrix: (Units=1/GPa)
#
#
# Indices 1 2 3 4 5 6 
#
# 1 0.047897 -0.012358 -0.005508 0.000000 0.000000 0.000000
# 2 -0.012358 0.012450 -0.006137 0.000000 0.000000 0.000000
# 3 -0.005508 -0.006137 0.016795 0.000000 0.000000 0.000000
# 4 0.000000 0.000000 0.000000 0.129362 0.000000 0.000000
# 5 0.000000 0.000000 0.000000 0.000000 0.068180 0.000000
# 6 0.000000 0.000000 0.000000 0.000000 0.000000 1.343094
#
#
# Mechanical properties :
#
#
# Convention : Reuss Voigt Hill
#
# Bulk Modulus (GPa) = 34.32068 72.29282 53.30675
# Shear Modulus (GPa) = 2.98419 14.27270 8.62845
#
# Velocity S-wave (km/s) = 1.31399 2.87363 2.23431
# Velocity P-wave (km/s) = 4.70733 7.26889 6.12355
#
# Compressibility (1/GPa) = 0.02913696
#
# Stress axis : x y z
#
# Youngs Moduli (GPa) = 20.87820 80.31892 59.54324
#
# Poissons Ratio (x) = 0.99256 0.32796
# Poissons Ratio (y) = 0.25801 0.36539
# Poissons Ratio (z) = 0.11500 0.49289
#
# Static dielectric constant tensor:
#      x y z
#    x 2.825250 0.000000 0.000000 
#    y 0.000000 3.545190 0.000000 
#    z 0.000000 0.000000 3.183430 
# 
# 
# High freq. dielectric constant tensor:
#      x y z
#    x 1.616460 0.000000 0.000000 
#    y 0.000000 1.685420 0.000000 
#    z 0.000000 0.000000 1.655370 
# 
# From -- ./inp_files/4552.got.cif
#   From: 2010.03.12/outbox.cif.g09.slc.cpg/sg47_3_cif.got.tgz:4552.got - 2010.04.14 03:12:58.
