data_PCOD8199714
_publ_section_title
;
Structure prediction by ZEFSAII (Michael W. Deem and Ramdas Pophale) SiO2 
 PCOD8199714
Probable space group: P M M M
;
_chemical_formula_sum "Si O2"
_cell_formula_units_Z 52
_cell_length_a 19.042279
_cell_length_b 17.112656
_cell_length_c 8.045394
_cell_angle_alpha 90.000000
_cell_angle_beta 90.000000
_cell_angle_gamma 90.000000
_cell_volume 2621.704029
_symmetry_space_group_name_H-M "P M M M"
_symmetry_group_IT_number 47
_symmetry_cell_setting 'orthorhombic'
loop_
_space_group_symop_operation_xyz
x,y,z
-x,-y,z
x,-y,-z
-x,y,-z
-x,-y,-z
x,y,-z
-x,y,z
x,-y,z
loop_
_atom_site_type_symbol
_atom_site_label
_atom_site_fract_x
_atom_site_fract_y
_atom_site_fract_z
Si Si1 0.857159 0.000000 0.305394
Si Si2 0.417287 0.589885 0.500000
Si Si3 0.302200 0.000000 0.305830
Si Si4 0.656768 0.671152 0.191980
Si Si5 0.700900 0.837869 0.193613
Si Si6 0.143138 0.162318 0.194730
Si Si7 0.789897 0.589137 0.691895
Si Si8 0.079021 0.678752 0.197063
O O1 0.893870 0.920593 0.239796
O O2 0.860093 0.000000 0.500000
O O3 0.777294 0.000000 0.236161
O O4 0.393189 0.500000 0.500000
O O5 0.500000 0.599494 0.500000
O O6 0.390111 0.626705 0.672628
O O7 0.338323 0.919331 0.242263
O O8 0.306392 0.000000 0.500000
O O9 0.655067 0.762606 0.246094
O O10 0.736982 0.640927 0.198364
O O11 0.629777 0.659618 0.000000
O O12 0.778670 0.834133 0.277308
O O13 0.712071 0.834255 0.000000
O O14 0.097203 0.234121 0.263504
O O15 0.148484 0.170705 0.000000
O O16 0.767897 0.597387 0.500000
O O17 0.784157 0.500000 0.751347
O O18 0.869470 0.616888 0.717911
O O19 0.000000 0.658427 0.252825
O O20 0.087304 0.673184 0.000000
#
# Coordination Sequence:
#
# PCOD8199714 Si02
#       8
#     4   4   4   8   8   8   8   8
#     4   9  17  27  42  68  97 132 179 228 282 344
#     4  11  26  46  66  95 134 168 202 246 296 358
#     4   9  17  25  43  78 118 154 187 235 298 352
#     4  11  22  39  66  96 125 163 206 250 301 355
#     4   9  17  30  51  81 116 152 195 245 296 351
#     4   9  16  30  48  69  99 138 182 233 291 347
#     4  11  23  38  58  84 114 148 192 248 303 358
#     4  10  21  37  55  76 105 145 195 247 301 360
#
# _framework density 19.834430000000001
#
# number of rings (size 3 to 8) (size 9 to 14) (size 15 to 20)
#    0.000    2.077    2.308    1.385    1.077    5.538 
#    0.000    2.692    0.000    2.308    0.000    1.077 
#    0.000    2.462    0.000    0.000    0.000    0.000 
#
# Total GULP energy -644535.123022 kJ/mol
# GULP energy per Si atom -12394.906212 kJ/mol
# Density = 1.978929 g / cm^3
# Si number density = 19.834430 Si / 1000 Ang^3
#
#
#
# Elastic Constant Matrix: (Units=GPa)
#
#
# Indices 1 2 3 4 5 6 
#
# 1 54.7388 37.1489 24.1931 0.0000 0.0000 0.0000
# 2 37.1489 168.2804 44.9955 0.0000 0.0000 0.0000
# 3 24.1931 44.9955 58.0041 0.0000 0.0000 0.0000
# 4 0.0000 0.0000 0.0000 28.1938 0.0000 0.0000
# 5 0.0000 0.0000 0.0000 0.0000 18.9201 0.0000
# 6 0.0000 0.0000 0.0000 0.0000 0.0000 22.2301
#
#
#
# Elastic Compliance Matrix: (Units=1/GPa)
#
#
# Indices 1 2 3 4 5 6 
#
# 1 0.023745 -0.003272 -0.007365 0.000000 0.000000 0.000000
# 2 -0.003272 0.007949 -0.004801 0.000000 0.000000 0.000000
# 3 -0.007365 -0.004801 0.024036 0.000000 0.000000 0.000000
# 4 0.000000 0.000000 0.000000 0.035469 0.000000 0.000000
# 5 0.000000 0.000000 0.000000 0.000000 0.052854 0.000000
# 6 0.000000 0.000000 0.000000 0.000000 0.000000 0.044984
#
#
# Mechanical properties :
#
#
# Convention : Reuss Voigt Hill
#
# Bulk Modulus (GPa) = 40.23769 54.85537 47.54653
# Shear Modulus (GPa) = 21.91082 25.51454 23.71268
#
# Velocity S-wave (km/s) = 3.32729 3.59050 3.46140
# Velocity P-wave (km/s) = 5.92385 6.70116 6.32446
#
# Compressibility (1/GPa) = 0.02485232
#
# Stress axis : x y z
#
# Youngs Moduli (GPa) = 42.11473 125.80836 41.60341
#
# Poissons Ratio (x) = 0.41170 0.30642
# Poissons Ratio (y) = 0.13782 0.19974
# Poissons Ratio (z) = 0.31018 0.60401
#
# Static dielectric constant tensor:
#      x y z
#    x 3.208280 0.000000 0.000000 
#    y 0.000000 4.243970 0.000000 
#    z 0.000000 0.000000 3.424190 
# 
# 
# High freq. dielectric constant tensor:
#      x y z
#    x 1.712990 0.000000 0.000000 
#    y 0.000000 1.796640 0.000000 
#    z 0.000000 0.000000 1.769310 
# 
# From -- ./inp_files/9651.got.cif
#   From: 2010.03.12/outbox.cif.g09.slc.cpg/sg47_5_cif.got.tgz:9651.got - 2010.04.14 03:12:58.
