data_PCOD8199807
_publ_section_title
;
Structure prediction by ZEFSAII (Michael W. Deem and Ramdas Pophale) SiO2 
 PCOD8199807
Probable space group: P M M M
;
_chemical_formula_sum "Si O2"
_cell_formula_units_Z 64
_cell_length_a 8.865734
_cell_length_b 15.520222
_cell_length_c 23.993135
_cell_angle_alpha 90.000000
_cell_angle_beta 90.000000
_cell_angle_gamma 90.000000
_cell_volume 3301.411226
_symmetry_space_group_name_H-M "P M M M"
_symmetry_group_IT_number 47
_symmetry_cell_setting 'orthorhombic'
loop_
_space_group_symop_operation_xyz
x,y,z
-x,-y,z
x,-y,-z
-x,y,-z
-x,-y,-z
x,y,-z
-x,y,z
x,-y,z
loop_
_atom_site_type_symbol
_atom_site_label
_atom_site_fract_x
_atom_site_fract_y
_atom_site_fract_z
Si Si1 0.178046 0.254900 0.365888
Si Si2 0.173219 0.403662 0.177733
Si Si3 0.673549 0.598586 0.435208
Si Si4 0.678081 0.745005 0.245772
Si Si5 0.179180 0.904308 0.437431
Si Si6 0.828769 0.665025 0.938894
Si Si7 0.320739 0.905853 0.823964
Si Si8 0.677814 0.843264 0.060342
O O1 0.218341 0.339809 0.400454
O O2 0.249561 0.262061 0.305759
O O3 0.243549 0.169266 0.396457
O O4 0.000000 0.249329 0.359816
O O5 0.211556 0.500000 0.198164
O O6 0.280972 0.338176 0.209595
O O7 0.202165 0.401639 0.111020
O O8 0.000000 0.380283 0.191490
O O9 0.706838 0.613804 0.500000
O O10 0.500000 0.619859 0.421367
O O11 0.710060 0.500000 0.418918
O O12 0.500000 0.749455 0.252350
O O13 0.743587 0.831076 0.215932
O O14 0.240240 0.886952 0.500000
O O15 0.000000 0.899990 0.438201
O O16 0.231626 0.000000 0.417450
O O17 0.716246 0.743892 0.930377
O O18 0.000000 0.699983 0.935355
O O19 0.801226 0.621577 0.000000
O O20 0.500000 0.897759 0.825554
O O21 0.256469 0.896247 0.887153
O O22 0.270418 0.000000 0.801422
O O23 0.500000 0.853179 0.059370
O O24 0.742781 0.875459 0.000000
#
# Coordination Sequence:
#
# PCOD8199807 Si02
#       8
#     8   8   8   8   8   8   8   8
#     4  11  22  35  56  84 112 145 186 229 268 312
#     4  10  21  37  57  79 104 136 176 223 271 321
#     4   9  19  37  60  86 117 150 181 216 263 319
#     4  11  23  39  56  75 104 144 185 228 275 319
#     4   8  15  30  53  82 115 146 175 211 258 312
#     4   9  17  30  51  78 107 136 165 206 265 328
#     4   9  18  33  53  77 104 136 177 224 273 323
#     4   9  16  28  50  78 105 134 171 215 263 319
#
# _framework density 19.385649999999998
#
# number of rings (size 3 to 8) (size 9 to 14) (size 15 to 20)
#    0.000    2.500    1.250    1.875    0.000    2.750 
#    0.000    3.125    0.000    4.125    0.000    8.750 
#    0.000    0.000    0.000    0.000    0.000    0.000 
#
# Total GULP energy -793241.082009 kJ/mol
# GULP energy per Si atom -12394.391906 kJ/mol
# Density = 1.934153 g / cm^3
# Si number density = 19.385650 Si / 1000 Ang^3
#
#
#
# Elastic Constant Matrix: (Units=GPa)
#
#
# Indices 1 2 3 4 5 6 
#
# 1 34.3574 26.2874 30.8189 0.0000 0.0000 0.0000
# 2 26.2874 126.6606 66.5737 0.0000 0.0000 0.0000
# 3 30.8189 66.5737 119.0514 0.0000 0.0000 0.0000
# 4 0.0000 0.0000 0.0000 11.6244 0.0000 0.0000
# 5 0.0000 0.0000 0.0000 0.0000 11.8622 0.0000
# 6 0.0000 0.0000 0.0000 0.0000 0.0000 17.6079
#
#
#
# Elastic Compliance Matrix: (Units=1/GPa)
#
#
# Indices 1 2 3 4 5 6 
#
# 1 0.039273 -0.003976 -0.007943 0.000000 0.000000 0.000000
# 2 -0.003976 0.011584 -0.005449 0.000000 0.000000 0.000000
# 3 -0.007943 -0.005449 0.013503 0.000000 0.000000 0.000000
# 4 0.000000 0.000000 0.000000 0.086026 0.000000 0.000000
# 5 0.000000 0.000000 0.000000 0.000000 0.084301 0.000000
# 6 0.000000 0.000000 0.000000 0.000000 0.000000 0.056793
#
#
# Mechanical properties :
#
#
# Convention : Reuss Voigt Hill
#
# Bulk Modulus (GPa) = 33.75586 58.60329 46.17957
# Shear Modulus (GPa) = 14.87698 18.64487 16.76092
#
# Velocity S-wave (km/s) = 2.77324 3.10463 2.94361
# Velocity P-wave (km/s) = 5.26357 6.56868 5.95200
#
# Compressibility (1/GPa) = 0.02962449
#
# Stress axis : x y z
#
# Youngs Moduli (GPa) = 25.46282 86.32530 74.05791
#
# Poissons Ratio (x) = 0.34320 0.58827
# Poissons Ratio (y) = 0.10123 0.40352
# Poissons Ratio (z) = 0.20226 0.47036
#
# Static dielectric constant tensor:
#      x y z
#    x 3.232220 0.000000 0.000000 
#    y 0.000000 3.608750 0.000000 
#    z 0.000000 0.000000 3.745280 
# 
# 
# High freq. dielectric constant tensor:
#      x y z
#    x 1.721270 0.000000 0.000000 
#    y 0.000000 1.753730 0.000000 
#    z 0.000000 0.000000 1.761160 
# 
# From -- ./inp_files/32090.got.cif
#   From: 2010.03.12/outbox.cif.g09.slc.cpg/sg47_17_cif.got.tgz:32090.got - 2010.04.14 03:12:58.
