data_PCOD8199136
_publ_section_title
;
Structure prediction by ZEFSAII (Michael W. Deem and Ramdas Pophale) SiO2 
 PCOD8199136
Probable space group: P M M M
;
_chemical_formula_sum "Si O2"
_cell_formula_units_Z 56
_cell_length_a 13.584418
_cell_length_b 29.545115
_cell_length_c 9.378756
_cell_angle_alpha 90.000000
_cell_angle_beta 90.000000
_cell_angle_gamma 90.000000
_cell_volume 3764.193658
_symmetry_space_group_name_H-M "P M M M"
_symmetry_group_IT_number 47
_symmetry_cell_setting 'orthorhombic'
loop_
_space_group_symop_operation_xyz
x,y,z
-x,-y,z
x,-y,-z
-x,y,-z
-x,-y,-z
x,y,-z
-x,y,z
x,-y,z
loop_
_atom_site_type_symbol
_atom_site_label
_atom_site_fract_x
_atom_site_fract_y
_atom_site_fract_z
Si Si1 0.383030 0.549580 0.659647
Si Si2 0.886838 0.132028 0.335608
Si Si3 0.617219 0.631473 0.842006
Si Si4 0.392999 0.096499 0.834025
Si Si5 0.271520 0.183691 0.832765
Si Si6 0.801743 0.051607 0.832100
Si Si7 0.609698 0.269428 0.169971
O O1 0.342168 0.554366 0.500000
O O2 0.500000 0.553659 0.659371
O O3 0.352691 0.500000 0.721591
O O4 0.336439 0.590549 0.750384
O O5 0.853279 0.127416 0.500000
O O6 0.824948 0.171300 0.257716
O O7 0.873634 0.083818 0.256900
O O8 0.000000 0.146443 0.325072
O O9 0.500000 0.628105 0.847153
O O10 0.645817 0.680833 0.777540
O O11 0.661260 0.626168 0.000000
O O12 0.500000 0.088652 0.759260
O O13 0.356474 0.147152 0.801775
O O14 0.310807 0.060780 0.780738
O O15 0.407690 0.089361 0.000000
O O16 0.312849 0.231791 0.777637
O O17 0.243720 0.184521 0.000000
O O18 0.830314 0.000000 0.799638
O O19 0.812798 0.063090 0.000000
O O20 0.500000 0.258850 0.229985
O O21 0.604072 0.269489 0.000000
#
# Coordination Sequence:
#
# PCOD8199136 Si02
#       7
#     8   8   8   8   8   8   8
#     4   8  13  20  28  38  56  86 125 167 204 231
#     4  10  21  35  48  61  79 103 128 156 193 234
#     4   8  13  20  30  46  68  93 122 156 192 229
#     4   8  13  22  39  63  86 105 126 152 180 212
#     4   9  16  27  45  65  81 100 129 161 190 223
#     4   9  18  31  47  68  88 104 127 158 187 217
#     4   8  13  22  38  60  83 104 127 158 195 232
#
# _framework density 14.877024
#
# number of rings (size 3 to 8) (size 9 to 14) (size 15 to 20)
#    0.000    3.429    0.000    3.000    0.000    4.000 
#    0.000    5.000    0.000   11.571    0.000    4.000 
#    0.000    0.000    0.000    0.000    0.000    0.714 
#
# Total GULP energy -693848.453497 kJ/mol
# GULP energy per Si atom -12390.150955 kJ/mol
# Density = 1.484316 g / cm^3
# Si number density = 14.877024 Si / 1000 Ang^3
#
#
#
# Elastic Constant Matrix: (Units=GPa)
#
#
# Indices 1 2 3 4 5 6 
#
# 1 54.8474 29.9885 25.9444 0.0000 0.0000 0.0000
# 2 29.9885 129.7521 46.0311 0.0000 0.0000 0.0000
# 3 25.9444 46.0311 54.3508 0.0000 0.0000 0.0000
# 4 0.0000 0.0000 0.0000 11.7235 0.0000 0.0000
# 5 0.0000 0.0000 0.0000 0.0000 11.2382 0.0000
# 6 0.0000 0.0000 0.0000 0.0000 0.0000 13.2277
#
#
#
# Elastic Compliance Matrix: (Units=1/GPa)
#
#
# Indices 1 2 3 4 5 6 
#
# 1 0.023949 -0.002115 -0.009641 0.000000 0.000000 0.000000
# 2 -0.002115 0.011204 -0.008479 0.000000 0.000000 0.000000
# 3 -0.009641 -0.008479 0.030183 0.000000 0.000000 0.000000
# 4 0.000000 0.000000 0.000000 0.085299 0.000000 0.000000
# 5 0.000000 0.000000 0.000000 0.000000 0.088982 0.000000
# 6 0.000000 0.000000 0.000000 0.000000 0.000000 0.075599
#
#
# Mechanical properties :
#
#
# Convention : Reuss Voigt Hill
#
# Bulk Modulus (GPa) = 40.21695 49.20870 44.71282
# Shear Modulus (GPa) = 13.73722 16.37030 15.05376
#
# Velocity S-wave (km/s) = 3.04202 3.32079 3.18446
# Velocity P-wave (km/s) = 6.27934 6.91754 6.60615
#
# Compressibility (1/GPa) = 0.02486514
#
# Stress axis : x y z
#
# Youngs Moduli (GPa) = 41.75491 89.25414 33.13175
#
# Poissons Ratio (x) = 0.18877 0.31942
# Poissons Ratio (y) = 0.08831 0.28094
# Poissons Ratio (z) = 0.40256 0.75682
#
# Static dielectric constant tensor:
#      x y z
#    x 2.592910 0.000000 0.000000 
#    y 0.000000 3.148410 0.000000 
#    z 0.000000 0.000000 2.750240 
# 
# 
# High freq. dielectric constant tensor:
#      x y z
#    x 1.521710 0.000000 0.000000 
#    y 0.000000 1.573530 0.000000 
#    z 0.000000 0.000000 1.543200 
# 
# From -- ./inp_files/8177.got.cif
#   From: 2010.03.12/outbox.cif.g09.slc.cpg/sg47_5_cif.got.tgz:8177.got - 2010.04.14 03:12:58.
