data_PCOD8199651
_publ_section_title
;
Structure prediction by ZEFSAII (Michael W. Deem and Ramdas Pophale) SiO2 
 PCOD8199651
Probable space group: P M M M
;
_chemical_formula_sum "Si O2"
_cell_formula_units_Z 48
_cell_length_a 29.173047
_cell_length_b 9.648451
_cell_length_c 8.318993
_cell_angle_alpha 90.000000
_cell_angle_beta 90.000000
_cell_angle_gamma 90.000000
_cell_volume 2341.586180
_symmetry_space_group_name_H-M "P M M M"
_symmetry_group_IT_number 47
_symmetry_cell_setting 'orthorhombic'
loop_
_space_group_symop_operation_xyz
x,y,z
-x,-y,z
x,-y,-z
-x,y,-z
-x,-y,-z
x,y,-z
-x,y,z
x,-y,z
loop_
_atom_site_type_symbol
_atom_site_label
_atom_site_fract_x
_atom_site_fract_y
_atom_site_fract_z
Si Si1 0.553719 0.000000 0.319265
Si Si2 0.607814 0.240493 0.813708
Si Si3 0.948949 0.344776 0.808894
Si Si4 0.216318 0.656676 0.188161
Si Si5 0.704255 0.158082 0.313823
Si Si6 0.133070 0.842280 0.808035
Si Si7 0.448225 0.500000 0.808771
O O1 0.569569 0.873134 0.212727
O O2 0.500000 0.000000 0.332591
O O3 0.575184 0.000000 0.500000
O O4 0.652548 0.207586 0.710489
O O5 0.582234 0.374185 0.745656
O O6 0.621904 0.252917 0.000000
O O7 0.935541 0.500000 0.749595
O O8 0.913182 0.231248 0.742413
O O9 0.000000 0.306223 0.746980
O O10 0.948108 0.343217 0.000000
O O11 0.216408 0.500000 0.262853
O O12 0.263725 0.735023 0.219829
O O13 0.175369 0.751222 0.260170
O O14 0.208960 0.642033 0.000000
O O15 0.716937 0.164385 0.500000
O O16 0.710382 0.000000 0.248929
O O17 0.135862 0.000000 0.741176
O O18 0.133816 0.845363 0.000000
O O19 0.500000 0.500000 0.735483
O O20 0.452282 0.500000 0.000000
#
# Coordination Sequence:
#
# PCOD8199651 Si02
#       7
#     4   8   8   8   8   8   4
#     4  11  23  39  59  87 123 157 191 231 274 323
#     4  11  22  38  63  89 114 149 190 231 276 328
#     4   8  13  21  34  55  89 134 179 222 273 331
#     4  10  21  36  56  80 106 139 183 230 275 330
#     4  11  24  41  59  81 112 144 177 224 283 339
#     4   9  16  26  42  66  97 134 177 227 277 327
#     4   9  20  38  59  87 119 145 179 229 274 315
#
# _framework density 20.498923999999999
#
# number of rings (size 3 to 8) (size 9 to 14) (size 15 to 20)
#    0.000    2.167    0.833    3.250    1.167    5.667 
#    0.000    2.917    0.000    3.000    0.000    0.000 
#    0.000    0.667    0.000    7.000    0.000    9.667 
#
# Total GULP energy -595000.303934 kJ/mol
# GULP energy per Si atom -12395.839665 kJ/mol
# Density = 2.045227 g / cm^3
# Si number density = 20.498924 Si / 1000 Ang^3
#
#
#
# Elastic Constant Matrix: (Units=GPa)
#
#
# Indices 1 2 3 4 5 6 
#
# 1 132.7783 89.5953 4.3203 0.0000 0.0000 0.0000
# 2 89.5953 205.0385 7.7293 0.0000 0.0000 0.0000
# 3 4.3203 7.7293 15.8476 0.0000 0.0000 0.0000
# 4 0.0000 0.0000 0.0000 9.9580 0.0000 0.0000
# 5 0.0000 0.0000 0.0000 0.0000 1.2634 0.0000
# 6 0.0000 0.0000 0.0000 0.0000 0.0000 42.2758
#
#
#
# Elastic Compliance Matrix: (Units=1/GPa)
#
#
# Indices 1 2 3 4 5 6 
#
# 1 0.010687 -0.004646 -0.000648 0.000000 0.000000 0.000000
# 2 -0.004646 0.006988 -0.002142 0.000000 0.000000 0.000000
# 3 -0.000648 -0.002142 0.064322 0.000000 0.000000 0.000000
# 4 0.000000 0.000000 0.000000 0.100422 0.000000 0.000000
# 5 0.000000 0.000000 0.000000 0.000000 0.791493 0.000000
# 6 0.000000 0.000000 0.000000 0.000000 0.000000 0.023654
#
#
# Mechanical properties :
#
#
# Convention : Reuss Voigt Hill
#
# Bulk Modulus (GPa) = 14.89705 61.88378 38.39042
# Shear Modulus (GPa) = 4.83180 27.50075 16.16627
#
# Velocity S-wave (km/s) = 1.53695 3.66672 2.81132
# Velocity P-wave (km/s) = 3.22996 6.94124 5.41357
#
# Compressibility (1/GPa) = 0.06712738
#
# Stress axis : x y z
#
# Youngs Moduli (GPa) = 93.57083 143.10648 15.54670
#
# Poissons Ratio (x) = 0.66480 0.01007
# Poissons Ratio (y) = 0.43468 0.03330
# Poissons Ratio (z) = 0.06061 0.30649
#
# Static dielectric constant tensor:
#      x y z
#    x 3.856530 0.000000 0.000000 
#    y 0.000000 4.073320 0.000000 
#    z 0.000000 0.000000 3.202250 
# 
# 
# High freq. dielectric constant tensor:
#      x y z
#    x 1.812930 0.000000 0.000000 
#    y 0.000000 1.816230 0.000000 
#    z 0.000000 0.000000 1.750720 
# 
# From -- ./inp_files/13824.got.cif
#   From: 2010.03.12/outbox.cif.g09.slc.cpg/sg47_7_cif.got.tgz:13824.got - 2010.04.14 03:12:58.
