data_PCOD8199272
_publ_section_title
;
Structure prediction by ZEFSAII (Michael W. Deem and Ramdas Pophale) SiO2 
 PCOD8199272
Probable space group: P M M M
;
_chemical_formula_sum "Si O2"
_cell_formula_units_Z 44
_cell_length_a 9.343274
_cell_length_b 28.287604
_cell_length_c 9.171753
_cell_angle_alpha 90.000000
_cell_angle_beta 90.000000
_cell_angle_gamma 90.000000
_cell_volume 2424.083633
_symmetry_space_group_name_H-M "P M M M"
_symmetry_group_IT_number 47
_symmetry_cell_setting 'orthorhombic'
loop_
_space_group_symop_operation_xyz
x,y,z
-x,-y,z
x,-y,-z
-x,y,-z
-x,-y,-z
x,y,-z
-x,y,z
x,-y,z
loop_
_atom_site_type_symbol
_atom_site_label
_atom_site_fract_x
_atom_site_fract_y
_atom_site_fract_z
Si Si1 0.829287 0.091832 0.334862
Si Si2 0.837637 0.554334 0.169428
Si Si3 0.170383 0.183114 0.835290
Si Si4 0.829417 0.000000 0.165161
Si Si5 0.166389 0.275885 0.669663
Si Si6 0.336340 0.632548 0.328296
O O1 0.770510 0.090932 0.500000
O O2 0.769377 0.138293 0.253716
O O3 0.771262 0.046092 0.249044
O O4 0.000000 0.092061 0.335630
O O5 0.799818 0.500000 0.201629
O O6 0.728154 0.585718 0.258912
O O7 0.000000 0.565247 0.219018
O O8 0.819550 0.565807 0.000000
O O9 0.224457 0.230856 0.758301
O O10 0.000000 0.181732 0.834511
O O11 0.229659 0.181266 0.000000
O O12 0.000000 0.000000 0.163700
O O13 0.770284 0.000000 0.000000
O O14 0.194950 0.265902 0.500000
O O15 0.252076 0.321308 0.727123
O O16 0.000000 0.285329 0.700614
O O17 0.320403 0.627431 0.500000
O O18 0.500000 0.637608 0.279163
#
# Coordination Sequence:
#
# PCOD8199272 Si02
#       6
#     8   8   8   4   8   8
#     4   9  15  22  32  47  70 102 140 180 224 276
#     4   9  19  36  56  77 101 130 165 203 241 283
#     4   9  16  25  38  57  79 104 140 187 233 275
#     4   9  15  21  29  43  67 101 140 181 224 271
#     4   9  17  30  47  65  87 118 155 193 234 280
#     4  10  21  35  51  74 103 132 162 198 241 289
#
# _framework density 18.151187
#
# number of rings (size 3 to 8) (size 9 to 14) (size 15 to 20)
#    0.000    2.818    0.000    2.455    0.000    8.364 
#    0.000    4.545    0.000    0.000    0.000    0.000 
#    0.000    0.000    0.000    0.818    0.000   17.818 
#
# Total GULP energy -545611.874087 kJ/mol
# GULP energy per Si atom -12400.269866 kJ/mol
# Density = 1.810987 g / cm^3
# Si number density = 18.151187 Si / 1000 Ang^3
#
#
#
# Elastic Constant Matrix: (Units=GPa)
#
#
# Indices 1 2 3 4 5 6 
#
# 1 50.8637 51.9802 32.3166 0.0000 0.0000 0.0000
# 2 51.9802 158.4414 72.5402 0.0000 0.0000 0.0000
# 3 32.3166 72.5402 105.2801 0.0000 0.0000 0.0000
# 4 0.0000 0.0000 0.0000 34.2640 0.0000 0.0000
# 5 0.0000 0.0000 0.0000 0.0000 13.9869 0.0000
# 6 0.0000 0.0000 0.0000 0.0000 0.0000 1.2617
#
#
#
# Elastic Compliance Matrix: (Units=1/GPa)
#
#
# Indices 1 2 3 4 5 6 
#
# 1 0.030485 -0.008351 -0.003603 0.000000 0.000000 0.000000
# 2 -0.008351 0.011508 -0.005366 0.000000 0.000000 0.000000
# 3 -0.003603 -0.005366 0.014302 0.000000 0.000000 0.000000
# 4 0.000000 0.000000 0.000000 0.029185 0.000000 0.000000
# 5 0.000000 0.000000 0.000000 0.000000 0.071496 0.000000
# 6 0.000000 0.000000 0.000000 0.000000 0.000000 0.792566
#
#
# Mechanical properties :
#
#
# Convention : Reuss Voigt Hill
#
# Bulk Modulus (GPa) = 46.18204 69.80659 57.99432
# Shear Modulus (GPa) = 5.04338 20.41905 12.73121
#
# Velocity S-wave (km/s) = 1.66870 3.35766 2.65127
# Velocity P-wave (km/s) = 5.40472 7.31941 6.43369
#
# Compressibility (1/GPa) = 0.02165344
#
# Stress axis : x y z
#
# Youngs Moduli (GPa) = 32.80355 86.89624 69.92248
#
# Poissons Ratio (x) = 0.72571 0.25194
# Poissons Ratio (y) = 0.27396 0.37518
# Poissons Ratio (z) = 0.11820 0.46626
#
# Static dielectric constant tensor:
#      x y z
#    x 2.834400 0.000000 0.000000 
#    y 0.000000 3.510490 0.000000 
#    z 0.000000 0.000000 3.405960 
# 
# 
# High freq. dielectric constant tensor:
#      x y z
#    x 1.641570 0.000000 0.000000 
#    y 0.000000 1.719970 0.000000 
#    z 0.000000 0.000000 1.707920 
# 
# From -- ./inp_files/1984.got.cif
#   From: 2010.03.12/outbox.cif.g09.slc.cpg/sg47_1_cif.got.tgz:1984.got - 2010.04.14 03:12:58.
