data_PCOD8199900
_publ_section_title
;
Structure prediction by ZEFSAII (Michael W. Deem and Ramdas Pophale) SiO2 
 PCOD8199900
Probable space group: P M M M
;
_chemical_formula_sum "Si O2"
_cell_formula_units_Z 44
_cell_length_a 24.297071
_cell_length_b 9.132729
_cell_length_c 10.261900
_cell_angle_alpha 90.000000
_cell_angle_beta 90.000000
_cell_angle_gamma 90.000000
_cell_volume 2277.100884
_symmetry_space_group_name_H-M "P M M M"
_symmetry_group_IT_number 47
_symmetry_cell_setting 'orthorhombic'
loop_
_space_group_symop_operation_xyz
x,y,z
-x,-y,z
x,-y,-z
-x,y,-z
-x,-y,-z
x,y,-z
-x,y,z
x,-y,z
loop_
_atom_site_type_symbol
_atom_site_label
_atom_site_fract_x
_atom_site_fract_y
_atom_site_fract_z
Si Si1 0.065074 0.836018 0.500000
Si Si2 0.362342 0.669656 0.646711
Si Si3 0.839211 0.832191 0.855940
Si Si4 0.234422 0.669292 0.648517
Si Si5 0.437788 0.827262 0.146561
Si Si6 0.063183 0.672858 0.241774
O O1 0.084621 0.744754 0.375633
O O2 0.000000 0.846391 0.500000
O O3 0.090585 0.000000 0.500000
O O4 0.378189 0.718985 0.500000
O O5 0.375735 0.500000 0.665236
O O6 0.298420 0.700726 0.671649
O O7 0.396972 0.758578 0.750213
O O8 0.798344 0.768424 0.749058
O O9 0.896685 0.742336 0.865112
O O10 0.852151 0.000000 0.820308
O O11 0.812282 0.820025 0.000000
O O12 0.218109 0.710175 0.500000
O O13 0.220549 0.500000 0.675745
O O14 0.500000 0.776303 0.177486
O O15 0.433141 0.000000 0.158166
O O16 0.421605 0.777374 0.000000
O O17 0.070884 0.500000 0.251202
O O18 0.000000 0.713097 0.208954
#
# Coordination Sequence:
#
# PCOD8199900 Si02
#       6
#     4   8   8   8   8   8
#     4   9  17  31  53  81 111 141 175 217 264 317
#     4   9  19  36  57  83 113 144 183 232 285 337
#     4  11  25  41  57  82 115 149 185 228 282 340
#     4   9  20  40  63  84 109 144 185 231 283 338
#     4   9  19  35  53  77 113 155 195 233 275 326
#     4  10  21  37  58  83 111 145 185 227 274 331
#
# _framework density 19.322813
#
# number of rings (size 3 to 8) (size 9 to 14) (size 15 to 20)
#    0.000    2.455    0.000    3.000    1.273    7.273 
#    0.000   10.000    0.000    0.000    0.000    0.000 
#    0.000    0.000    0.000    0.000    0.000    0.000 
#
# Total GULP energy -545518.623674 kJ/mol
# GULP energy per Si atom -12398.150538 kJ/mol
# Density = 1.927883 g / cm^3
# Si number density = 19.322813 Si / 1000 Ang^3
#
#
#
# Elastic Constant Matrix: (Units=GPa)
#
#
# Indices 1 2 3 4 5 6 
#
# 1 76.9278 47.3861 63.4927 0.0000 0.0000 0.0000
# 2 47.3861 100.2879 61.9197 0.0000 0.0000 0.0000
# 3 63.4927 61.9197 128.0061 0.0000 0.0000 0.0000
# 4 0.0000 0.0000 0.0000 77.6983 0.0000 0.0000
# 5 0.0000 0.0000 0.0000 0.0000 21.9107 0.0000
# 6 0.0000 0.0000 0.0000 0.0000 0.0000 33.0612
#
#
#
# Elastic Compliance Matrix: (Units=1/GPa)
#
#
# Indices 1 2 3 4 5 6 
#
# 1 0.024107 -0.005715 -0.009193 0.000000 0.000000 0.000000
# 2 -0.005715 0.015572 -0.004698 0.000000 0.000000 0.000000
# 3 -0.009193 -0.004698 0.014645 0.000000 0.000000 0.000000
# 4 0.000000 0.000000 0.000000 0.012870 0.000000 0.000000
# 5 0.000000 0.000000 0.000000 0.000000 0.045640 0.000000
# 6 0.000000 0.000000 0.000000 0.000000 0.000000 0.030247
#
#
# Mechanical properties :
#
#
# Convention : Reuss Voigt Hill
#
# Bulk Modulus (GPa) = 66.17205 72.31318 69.24262
# Shear Modulus (GPa) = 26.69099 35.36226 31.02663
#
# Velocity S-wave (km/s) = 3.72064 4.28258 4.01146
# Velocity P-wave (km/s) = 7.26481 7.87140 7.57418
#
# Compressibility (1/GPa) = 0.01511212
#
# Stress axis : x y z
#
# Youngs Moduli (GPa) = 41.48227 64.21726 68.28469
#
# Poissons Ratio (x) = 0.36697 0.62774
# Poissons Ratio (y) = 0.23705 0.32081
# Poissons Ratio (z) = 0.38135 0.30170
#
# Static dielectric constant tensor:
#      x y z
#    x 3.518850 0.000000 0.000000 
#    y 0.000000 3.480230 0.000000 
#    z 0.000000 0.000000 3.644180 
# 
# 
# High freq. dielectric constant tensor:
#      x y z
#    x 1.746820 0.000000 0.000000 
#    y 0.000000 1.752780 0.000000 
#    z 0.000000 0.000000 1.757630 
# 
# From -- ./inp_files/19474.got.cif
#   From: 2010.03.12/outbox.cif.g09.slc.cpg/sg47_10_cif.got.tgz:19474.got - 2010.04.14 03:12:58.
