data_PCOD8199184
_publ_section_title
;
Structure prediction by ZEFSAII (Michael W. Deem and Ramdas Pophale) SiO2 
 PCOD8199184
Probable space group: P M M M
;
_chemical_formula_sum "Si O2"
_cell_formula_units_Z 52
_cell_length_a 9.449079
_cell_length_b 17.605863
_cell_length_c 17.949757
_cell_angle_alpha 90.000000
_cell_angle_beta 90.000000
_cell_angle_gamma 90.000000
_cell_volume 2986.107042
_symmetry_space_group_name_H-M "P M M M"
_symmetry_group_IT_number 47
_symmetry_cell_setting 'orthorhombic'
loop_
_space_group_symop_operation_xyz
x,y,z
-x,-y,z
x,-y,-z
-x,y,-z
-x,-y,-z
x,y,-z
-x,y,z
x,-y,z
loop_
_atom_site_type_symbol
_atom_site_label
_atom_site_fract_x
_atom_site_fract_y
_atom_site_fract_z
Si Si1 0.662983 0.086024 0.724900
Si Si2 0.164894 0.869279 0.415941
Si Si3 0.845071 0.710835 0.356364
Si Si4 0.335465 0.584549 0.583436
Si Si5 0.160076 0.211261 0.800548
Si Si6 0.169260 0.335371 0.084056
Si Si7 0.155465 0.500000 0.088515
O O1 0.500000 0.112526 0.716042
O O2 0.737996 0.087987 0.643910
O O3 0.740402 0.138259 0.786659
O O4 0.670815 0.000000 0.754555
O O5 0.199624 0.897378 0.500000
O O6 0.196843 0.779471 0.411452
O O7 0.000000 0.884873 0.396127
O O8 0.736213 0.642648 0.360954
O O9 0.842610 0.738741 0.272671
O O10 0.000000 0.680103 0.377828
O O11 0.275097 0.594802 0.500000
O O12 0.500000 0.601522 0.583462
O O13 0.303563 0.500000 0.612536
O O14 0.224135 0.265612 0.865113
O O15 0.000000 0.183822 0.820055
O O16 0.230000 0.419029 0.110947
O O17 0.000000 0.339756 0.088233
O O18 0.220114 0.318162 0.000000
O O19 0.000000 0.500000 0.125291
O O20 0.140540 0.500000 0.000000
#
# Coordination Sequence:
#
# PCOD8199184 Si02
#       7
#     8   8   8   8   8   8   4
#     4  10  21  35  50  69  94 126 163 200 237 282
#     4   9  18  32  50  72  96 121 151 191 241 293
#     4   9  17  29  43  63  91 118 147 185 230 278
#     4   9  18  31  44  58  79 112 156 200 236 271
#     4   9  18  32  49  72  98 124 156 193 237 287
#     4   8  13  24  45  73 102 129 158 193 233 280
#     4   7  10  18  36  66 101 129 150 179 226 277
#
# _framework density 17.413978
#
# number of rings (size 3 to 8) (size 9 to 14) (size 15 to 20)
#    0.000    3.154    0.000    3.231    0.000    5.538 
#    1.385    2.308    0.000    0.923    0.000    3.231 
#    0.000    1.846    0.000    0.000    0.000    0.000 
#
# Total GULP energy -644308.055267 kJ/mol
# GULP energy per Si atom -12390.539524 kJ/mol
# Density = 1.737434 g / cm^3
# Si number density = 17.413978 Si / 1000 Ang^3
#
#
#
# Elastic Constant Matrix: (Units=GPa)
#
#
# Indices 1 2 3 4 5 6 
#
# 1 57.9744 51.9538 19.7553 0.0000 0.0000 0.0000
# 2 51.9538 114.1342 44.0873 0.0000 0.0000 0.0000
# 3 19.7553 44.0873 60.9730 0.0000 0.0000 0.0000
# 4 0.0000 0.0000 0.0000 16.8836 0.0000 0.0000
# 5 0.0000 0.0000 0.0000 0.0000 6.6990 0.0000
# 6 0.0000 0.0000 0.0000 0.0000 0.0000 29.4254
#
#
#
# Elastic Compliance Matrix: (Units=1/GPa)
#
#
# Indices 1 2 3 4 5 6 
#
# 1 0.029135 -0.013343 0.000208 0.000000 0.000000 0.000000
# 2 -0.013343 0.018267 -0.008885 0.000000 0.000000 0.000000
# 3 0.000208 -0.008885 0.022758 0.000000 0.000000 0.000000
# 4 0.000000 0.000000 0.000000 0.059229 0.000000 0.000000
# 5 0.000000 0.000000 0.000000 0.000000 0.149276 0.000000
# 6 0.000000 0.000000 0.000000 0.000000 0.000000 0.033984
#
#
# Mechanical properties :
#
#
# Convention : Reuss Voigt Hill
#
# Bulk Modulus (GPa) = 38.28473 51.63049 44.95761
# Shear Modulus (GPa) = 13.68373 18.42061 16.05217
#
# Velocity S-wave (km/s) = 2.80624 3.25592 3.03941
# Velocity P-wave (km/s) = 5.70375 6.62178 6.17983
#
# Compressibility (1/GPa) = 0.02612007
#
# Stress axis : x y z
#
# Youngs Moduli (GPa) = 34.32277 54.74235 43.94028
#
# Poissons Ratio (x) = 0.73040 -0.00913
# Poissons Ratio (y) = 0.45795 0.39043
# Poissons Ratio (z) = -0.00713 0.48641
#
# Static dielectric constant tensor:
#      x y z
#    x 3.027430 0.000000 0.000000 
#    y 0.000000 3.344020 0.000000 
#    z 0.000000 0.000000 3.212700 
# 
# 
# High freq. dielectric constant tensor:
#      x y z
#    x 1.641830 0.000000 0.000000 
#    y 0.000000 1.677000 0.000000 
#    z 0.000000 0.000000 1.645900 
# 
# From -- ./inp_files/26746.got.cif
#   From: 2010.03.12/outbox.cif.g09.slc.cpg/sg47_14_cif.got.tgz:26746.got - 2010.04.14 03:12:58.
