data_PCOD8199841
_publ_section_title
;
Structure prediction by ZEFSAII (Michael W. Deem and Ramdas Pophale) SiO2 
 PCOD8199841
Probable space group: P M M M
;
_chemical_formula_sum "Si O2"
_cell_formula_units_Z 36
_cell_length_a 7.881496
_cell_length_b 14.339390
_cell_length_c 14.885149
_cell_angle_alpha 90.000000
_cell_angle_beta 90.000000
_cell_angle_gamma 90.000000
_cell_volume 1682.257691
_symmetry_space_group_name_H-M "P M M M"
_symmetry_group_IT_number 47
_symmetry_cell_setting 'orthorhombic'
loop_
_space_group_symop_operation_xyz
x,y,z
-x,-y,z
x,-y,-z
-x,y,-z
-x,-y,-z
x,y,-z
-x,y,z
x,-y,z
loop_
_atom_site_type_symbol
_atom_site_label
_atom_site_fract_x
_atom_site_fract_y
_atom_site_fract_z
Si Si1 0.798503 0.393920 0.727617
Si Si2 0.806831 0.295939 0.901269
Si Si3 0.000000 0.895076 0.606872
Si Si4 0.691077 0.900016 0.893527
Si Si5 0.691148 0.231825 0.395616
O O1 0.745161 0.500000 0.709215
O O2 0.728046 0.364578 0.826595
O O3 0.710868 0.330880 0.652786
O O4 0.000000 0.379752 0.723059
O O5 0.796709 0.190023 0.862080
O O6 0.000000 0.323304 0.914769
O O7 0.716039 0.305814 0.000000
O O8 0.829514 0.842456 0.641258
O O9 0.000000 0.898891 0.500000
O O10 0.000000 0.000000 0.646263
O O11 0.500000 0.887415 0.857936
O O12 0.764757 0.000000 0.857532
O O13 0.693971 0.903500 0.000000
O O14 0.724227 0.251048 0.500000
O O15 0.500000 0.192953 0.379390
#
# Coordination Sequence:
#
# PCOD8199841 Si02
#       5
#     8   8   4   8   8
#     4  10  21  37  57  80 111 155 202 249 303 357
#     4   9  18  32  51  77 108 143 188 242 294 346
#     4   9  18  36  63  93 126 161 195 235 287 349
#     4   8  14  26  45  68  95 131 174 219 272 334
#     4  10  21  38  62  92 124 157 196 242 293 351
#
# _framework density 21.399811
#
# number of rings (size 3 to 8) (size 9 to 14) (size 15 to 20)
#    0.000    2.778    1.111    0.667    0.000    3.111 
#    0.000   10.000    0.000    0.000    0.000    4.667 
#    0.000    0.000    0.000    0.000    0.000    0.000 
#
# Total GULP energy -446060.429803 kJ/mol
# GULP energy per Si atom -12390.567495 kJ/mol
# Density = 2.135110 g / cm^3
# Si number density = 21.399811 Si / 1000 Ang^3
#
#
#
# Elastic Constant Matrix: (Units=GPa)
#
#
# Indices 1 2 3 4 5 6 
#
# 1 88.3840 51.9247 30.6118 0.0000 0.0000 0.0000
# 2 51.9247 148.5591 49.4568 0.0000 0.0000 0.0000
# 3 30.6118 49.4568 63.3665 0.0000 0.0000 0.0000
# 4 0.0000 0.0000 0.0000 29.0540 0.0000 0.0000
# 5 0.0000 0.0000 0.0000 0.0000 12.3374 0.0000
# 6 0.0000 0.0000 0.0000 0.0000 0.0000 12.4017
#
#
#
# Elastic Compliance Matrix: (Units=1/GPa)
#
#
# Indices 1 2 3 4 5 6 
#
# 1 0.015049 -0.003837 -0.004276 0.000000 0.000000 0.000000
# 2 -0.003837 0.010072 -0.006008 0.000000 0.000000 0.000000
# 3 -0.004276 -0.006008 0.022536 0.000000 0.000000 0.000000
# 4 0.000000 0.000000 0.000000 0.034419 0.000000 0.000000
# 5 0.000000 0.000000 0.000000 0.000000 0.081054 0.000000
# 6 0.000000 0.000000 0.000000 0.000000 0.000000 0.080634
#
#
# Mechanical properties :
#
#
# Convention : Reuss Voigt Hill
#
# Bulk Modulus (GPa) = 51.50140 62.69958 57.10049
# Shear Modulus (GPa) = 17.95482 21.97973 19.96727
#
# Velocity S-wave (km/s) = 2.89972 3.20832 3.05791
# Velocity P-wave (km/s) = 5.94388 6.56408 6.26166
#
# Compressibility (1/GPa) = 0.01941695
#
# Stress axis : x y z
#
# Youngs Moduli (GPa) = 66.44918 99.28108 44.37362
#
# Poissons Ratio (x) = 0.38090 0.18973
# Poissons Ratio (y) = 0.25494 0.26660
# Poissons Ratio (z) = 0.28412 0.59648
#
# Static dielectric constant tensor:
#      x y z
#    x 3.778000 0.000000 0.000000 
#    y 0.000000 4.568620 0.000000 
#    z 0.000000 0.000000 3.794250 
# 
# 
# High freq. dielectric constant tensor:
#      x y z
#    x 1.820410 0.000000 0.000000 
#    y 0.000000 1.836340 0.000000 
#    z 0.000000 0.000000 1.821790 
# 
# From -- ./inp_files/5529.got.cif
#   From: 2010.03.12/outbox.cif.g09.slc.cpg/sg47_3_cif.got.tgz:5529.got - 2010.04.14 03:12:58.
