data_PCOD8199782
_publ_section_title
;
Structure prediction by ZEFSAII (Michael W. Deem and Ramdas Pophale) SiO2 
 PCOD8199782
Probable space group: P M M M
;
_chemical_formula_sum "Si O2"
_cell_formula_units_Z 48
_cell_length_a 9.224871
_cell_length_b 8.016238
_cell_length_c 32.618925
_cell_angle_alpha 90.000000
_cell_angle_beta 90.000000
_cell_angle_gamma 90.000000
_cell_volume 2412.129104
_symmetry_space_group_name_H-M "P M M M"
_symmetry_group_IT_number 47
_symmetry_cell_setting 'orthorhombic'
loop_
_space_group_symop_operation_xyz
x,y,z
-x,-y,z
x,-y,-z
-x,y,-z
-x,-y,-z
x,y,-z
-x,y,z
x,-y,z
loop_
_atom_site_type_symbol
_atom_site_label
_atom_site_fract_x
_atom_site_fract_y
_atom_site_fract_z
Si Si1 0.161628 0.191636 0.344006
Si Si2 0.336004 0.306508 0.579595
Si Si3 0.828149 0.000000 0.954186
Si Si4 0.829146 0.691128 0.899194
Si Si5 0.660861 0.302856 0.182501
Si Si6 0.839103 0.693450 0.257782
Si Si7 0.832197 0.196636 0.500000
O O1 0.268224 0.213115 0.381932
O O2 0.225452 0.281355 0.303486
O O3 0.000000 0.261328 0.354862
O O4 0.151412 0.000000 0.332900
O O5 0.500000 0.242094 0.572526
O O6 0.334380 0.500000 0.589782
O O7 0.242481 0.272556 0.539607
O O8 0.776157 0.172079 0.932453
O O9 0.000000 0.000000 0.955766
O O10 0.762523 0.000000 0.000000
O O11 0.787102 0.500000 0.912493
O O12 0.753414 0.744931 0.857176
O O13 0.000000 0.702729 0.891939
O O14 0.500000 0.225353 0.178624
O O15 0.649605 0.500000 0.186849
O O16 0.736994 0.224720 0.223009
O O17 0.851059 0.500000 0.247894
O O18 0.000000 0.774856 0.255819
O O19 0.000000 0.248789 0.500000
O O20 0.812702 0.000000 0.500000
#
# Coordination Sequence:
#
# PCOD8199782 Si02
#       7
#     8   8   4   8   8   8   4
#     4  10  21  37  56  80 110 144 182 222 267 321
#     4  11  24  40  59  84 112 143 181 223 267 318
#     4   9  18  32  51  79 109 135 173 225 273 320
#     4   9  17  31  52  76 103 138 177 218 269 325
#     4   9  17  30  50  75 103 136 175 219 264 313
#     4   9  17  31  52  76 104 140 180 221 265 315
#     4  11  24  41  62  88 114 141 176 219 268 322
#
# _framework density 19.899432000000001
#
# number of rings (size 3 to 8) (size 9 to 14) (size 15 to 20)
#    0.000    2.333    0.000    2.500    0.000    9.000 
#    1.500    3.750    0.000    1.000    0.000    2.333 
#    0.000    0.000    0.000    0.000    0.000    0.000 
#
# Total GULP energy -595070.498698 kJ/mol
# GULP energy per Si atom -12397.302056 kJ/mol
# Density = 1.985414 g / cm^3
# Si number density = 19.899432 Si / 1000 Ang^3
#
#
#
# Elastic Constant Matrix: (Units=GPa)
#
#
# Indices 1 2 3 4 5 6 
#
# 1 89.6409 25.5056 57.8598 0.0000 0.0000 0.0000
# 2 25.5056 61.8365 36.3853 0.0000 0.0000 0.0000
# 3 57.8598 36.3853 161.0572 0.0000 0.0000 0.0000
# 4 0.0000 0.0000 0.0000 14.6916 0.0000 0.0000
# 5 0.0000 0.0000 0.0000 0.0000 0.7293 0.0000
# 6 0.0000 0.0000 0.0000 0.0000 0.0000 16.2108
#
#
#
# Elastic Compliance Matrix: (Units=1/GPa)
#
#
# Indices 1 2 3 4 5 6 
#
# 1 0.015158 -0.003515 -0.004651 0.000000 0.000000 0.000000
# 2 -0.003515 0.019466 -0.003135 0.000000 0.000000 0.000000
# 3 -0.004651 -0.003135 0.008588 0.000000 0.000000 0.000000
# 4 0.000000 0.000000 0.000000 0.068066 0.000000 0.000000
# 5 0.000000 0.000000 0.000000 0.000000 1.371177 0.000000
# 6 0.000000 0.000000 0.000000 0.000000 0.000000 0.061687
#
#
# Mechanical properties :
#
#
# Convention : Reuss Voigt Hill
#
# Bulk Modulus (GPa) = 48.52148 61.33736 54.92942
# Shear Modulus (GPa) = 3.17740 19.17859 11.17799
#
# Velocity S-wave (km/s) = 1.26499 3.10784 2.37264
# Velocity P-wave (km/s) = 5.15460 6.61580 5.93038
#
# Compressibility (1/GPa) = 0.02060943
#
# Stress axis : x y z
#
# Youngs Moduli (GPa) = 65.97110 51.37108 116.43884
#
# Poissons Ratio (x) = 0.18059 0.54160
# Poissons Ratio (y) = 0.23191 0.36502
# Poissons Ratio (z) = 0.30686 0.16104
#
# Static dielectric constant tensor:
#      x y z
#    x 3.784650 0.000000 0.000000 
#    y 0.000000 3.533670 0.000000 
#    z 0.000000 0.000000 3.681520 
# 
# 
# High freq. dielectric constant tensor:
#      x y z
#    x 1.764280 0.000000 0.000000 
#    y 0.000000 1.765660 0.000000 
#    z 0.000000 0.000000 1.780200 
# 
# From -- ./inp_files/34135.got.cif
#   From: 2010.03.12/outbox.cif.g09.slc.cpg/sg47_18_cif.got.tgz:34135.got - 2010.04.14 03:12:58.
