data_PCOD8199854
_publ_section_title
;
Structure prediction by ZEFSAII (Michael W. Deem and Ramdas Pophale) SiO2 
 PCOD8199854
Probable space group: P M M M
;
_chemical_formula_sum "Si O2"
_cell_formula_units_Z 48
_cell_length_a 14.552311
_cell_length_b 9.214035
_cell_length_c 17.535596
_cell_angle_alpha 90.000000
_cell_angle_beta 90.000000
_cell_angle_gamma 90.000000
_cell_volume 2351.269208
_symmetry_space_group_name_H-M "P M M M"
_symmetry_group_IT_number 47
_symmetry_cell_setting 'orthorhombic'
loop_
_space_group_symop_operation_xyz
x,y,z
-x,-y,z
x,-y,-z
-x,y,-z
-x,-y,-z
x,y,-z
-x,y,z
x,-y,z
loop_
_atom_site_type_symbol
_atom_site_label
_atom_site_fract_x
_atom_site_fract_y
_atom_site_fract_z
Si Si1 0.102844 0.831081 0.692282
Si Si2 0.268606 0.168995 0.411856
Si Si3 0.391678 0.332318 0.702996
Si Si4 0.609455 0.664122 0.000000
Si Si5 0.609378 0.164466 0.852470
Si Si6 0.100759 0.327107 0.000000
Si Si7 0.890108 0.662213 0.837537
O O1 0.168131 0.792710 0.621509
O O2 0.145631 0.761486 0.768813
O O3 0.000000 0.771345 0.674416
O O4 0.098942 0.000000 0.707973
O O5 0.267061 0.211513 0.500000
O O6 0.346144 0.264808 0.371935
O O7 0.292120 0.000000 0.399403
O O8 0.500000 0.313639 0.693459
O O9 0.363990 0.500000 0.711626
O O10 0.354966 0.246766 0.777170
O O11 0.646453 0.748621 0.074159
O O12 0.649413 0.500000 0.000000
O O13 0.500000 0.658262 0.000000
O O14 0.500000 0.162769 0.853786
O O15 0.647703 0.000000 0.853044
O O16 0.150550 0.282074 0.920022
O O17 0.090680 0.500000 0.000000
O O18 0.000000 0.255068 0.000000
O O19 0.855699 0.500000 0.820164
O O20 0.000000 0.667028 0.843008
#
# Coordination Sequence:
#
# PCOD8199854 Si02
#       7
#     8   8   8   4   8   4   8
#     4   9  18  33  53  78 108 139 172 214 263 312
#     4  10  22  39  58  80 105 136 175 217 264 323
#     4  10  21  37  57  81 109 140 174 217 272 328
#     4   9  15  23  39  68 107 146 184 225 265 308
#     4   9  16  27  46  73 105 142 183 223 264 313
#     4   7  10  18  35  62  95 130 170 211 245 286
#     4   8  13  23  42  68  98 134 174 212 252 300
#
# _framework density 20.414508000000001
#
# number of rings (size 3 to 8) (size 9 to 14) (size 15 to 20)
#    0.000    3.000    0.000    2.250    0.000    5.667 
#    0.000    3.750    0.000    3.500    0.000    5.833 
#    0.000    0.000    0.000    0.000    0.000    0.000 
#
# Total GULP energy -594961.262091 kJ/mol
# GULP energy per Si atom -12395.026294 kJ/mol
# Density = 2.036804 g / cm^3
# Si number density = 20.414508 Si / 1000 Ang^3
#
#
#
# Elastic Constant Matrix: (Units=GPa)
#
#
# Indices 1 2 3 4 5 6 
#
# 1 40.4706 35.5208 41.3826 0.0000 0.0000 0.0000
# 2 35.5208 114.9404 88.6451 0.0000 0.0000 0.0000
# 3 41.3826 88.6451 202.2929 0.0000 0.0000 0.0000
# 4 0.0000 0.0000 0.0000 33.1827 0.0000 0.0000
# 5 0.0000 0.0000 0.0000 0.0000 -68.7541 0.0000
# 6 0.0000 0.0000 0.0000 0.0000 0.0000 15.2240
#
#
#
# Elastic Compliance Matrix: (Units=1/GPa)
#
#
# Indices 1 2 3 4 5 6 
#
# 1 0.035673 -0.008151 -0.003726 0.000000 0.000000 0.000000
# 2 -0.008151 0.015004 -0.004907 0.000000 0.000000 0.000000
# 3 -0.003726 -0.004907 0.007856 0.000000 0.000000 0.000000
# 4 0.000000 0.000000 0.000000 0.030136 0.000000 0.000000
# 5 0.000000 0.000000 0.000000 0.000000 -0.014545 0.000000
# 6 0.000000 0.000000 0.000000 0.000000 0.000000 0.065686
#
#
# Mechanical properties :
#
#
# Convention : Reuss Voigt Hill
#
# Bulk Modulus (GPa) = 40.05647 76.53345 58.29496
# Shear Modulus (GPa) = 27.51801 8.74088 18.12945
#
# Velocity S-wave (km/s) = 3.67545 2.07147 2.98328
# Velocity P-wave (km/s) = 6.13808 6.57970 6.36272
#
# Compressibility (1/GPa) = 0.02496476
#
# Stress axis : x y z
#
# Youngs Moduli (GPa) = 28.03241 66.65045 127.29322
#
# Poissons Ratio (x) = 0.54325 0.47428
# Poissons Ratio (y) = 0.22849 0.62466
# Poissons Ratio (z) = 0.10444 0.32707
#
# Static dielectric constant tensor:
#      x y z
#    x 3.412960 0.000000 0.000000 
#    y 0.000000 3.664160 0.000000 
#    z 0.000000 0.000000 3.932690 
# 
# 
# High freq. dielectric constant tensor:
#      x y z
#    x 1.776000 0.000000 0.000000 
#    y 0.000000 1.784570 0.000000 
#    z 0.000000 0.000000 1.803180 
# 
# From -- ./inp_files/28008.got.cif
#   From: 2010.03.12/outbox.cif.g09.slc.cpg/sg47_15_cif.got.tgz:28008.got - 2010.04.14 03:12:58.
