data_PCOD8199269
_publ_section_title
;
Structure prediction by ZEFSAII (Michael W. Deem and Ramdas Pophale) SiO2 
 PCOD8199269
Probable space group: P M M M
;
_chemical_formula_sum "Si O2"
_cell_formula_units_Z 48
_cell_length_a 9.295793
_cell_length_b 9.342027
_cell_length_c 30.813323
_cell_angle_alpha 90.000000
_cell_angle_beta 90.000000
_cell_angle_gamma 90.000000
_cell_volume 2675.876705
_symmetry_space_group_name_H-M "P M M M"
_symmetry_group_IT_number 47
_symmetry_cell_setting 'orthorhombic'
loop_
_space_group_symop_operation_xyz
x,y,z
-x,-y,z
x,-y,-z
-x,y,-z
-x,-y,-z
x,y,-z
-x,y,z
x,-y,z
loop_
_atom_site_type_symbol
_atom_site_label
_atom_site_fract_x
_atom_site_fract_y
_atom_site_fract_z
Si Si1 0.671794 0.661501 0.871385
Si Si2 0.332173 0.334236 0.705696
Si Si3 0.328792 0.838099 0.210753
Si Si4 0.336628 0.833885 0.450036
Si Si5 0.671067 0.839310 0.951977
Si Si6 0.834102 0.667298 0.379484
O O1 0.500000 0.661657 0.871267
O O2 0.730926 0.500000 0.868045
O O3 0.731345 0.752805 0.830872
O O4 0.732672 0.731802 0.915699
O O5 0.500000 0.308238 0.697198
O O6 0.299974 0.500000 0.715995
O O7 0.274754 0.241559 0.746020
O O8 0.248316 0.279891 0.663402
O O9 0.500000 0.838511 0.209525
O O10 0.268675 0.000000 0.210073
O O11 0.299676 0.802930 0.500000
O O12 0.500000 0.786387 0.439827
O O13 0.226594 0.744830 0.421538
O O14 0.316761 0.000000 0.439264
O O15 0.500000 0.838768 0.950261
O O16 0.726636 0.000000 0.942217
O O17 0.722923 0.790052 0.000000
O O18 0.809807 0.500000 0.386469
O O19 0.000000 0.707468 0.373936
#
# Coordination Sequence:
#
# PCOD8199269 Si02
#       6
#     8   8   8   8   8   8
#     4   9  15  21  30  45  66  92 124 166 215 264
#     4   9  17  30  47  65  87 116 150 188 229 272
#     4   9  16  25  38  56  76  99 132 176 223 268
#     4   9  19  36  56  77 101 130 165 203 240 278
#     4   8  13  20  28  38  56  86 124 165 209 257
#     4  10  21  35  51  74 103 132 161 194 235 284
#
# _framework density 17.938046
#
# number of rings (size 3 to 8) (size 9 to 14) (size 15 to 20)
#    0.000    3.000    0.000    2.500    0.000    7.000 
#    0.000    5.833    0.000    0.000    0.000    0.000 
#    0.000    0.000    0.000    0.000    0.000    0.833 
#
# Total GULP energy -595114.423644 kJ/mol
# GULP energy per Si atom -12398.217159 kJ/mol
# Density = 1.789722 g / cm^3
# Si number density = 17.938046 Si / 1000 Ang^3
#
#
#
# Elastic Constant Matrix: (Units=GPa)
#
#
# Indices 1 2 3 4 5 6 
#
# 1 37.7754 30.4647 44.0953 0.0000 0.0000 0.0000
# 2 30.4647 110.3877 83.6753 0.0000 0.0000 0.0000
# 3 44.0953 83.6753 157.1063 0.0000 0.0000 0.0000
# 4 0.0000 0.0000 0.0000 40.8656 0.0000 0.0000
# 5 0.0000 0.0000 0.0000 0.0000 0.7122 0.0000
# 6 0.0000 0.0000 0.0000 0.0000 0.0000 13.3476
#
#
#
# Elastic Compliance Matrix: (Units=1/GPa)
#
#
# Indices 1 2 3 4 5 6 
#
# 1 0.040553 -0.004300 -0.009092 0.000000 0.000000 0.000000
# 2 -0.004300 0.015648 -0.007128 0.000000 0.000000 0.000000
# 3 -0.009092 -0.007128 0.012713 0.000000 0.000000 0.000000
# 4 0.000000 0.000000 0.000000 0.024470 0.000000 0.000000
# 5 0.000000 0.000000 0.000000 0.000000 1.404052 0.000000
# 6 0.000000 0.000000 0.000000 0.000000 0.000000 0.074920
#
#
# Mechanical properties :
#
#
# Convention : Reuss Voigt Hill
#
# Bulk Modulus (GPa) = 35.87345 69.08221 52.47783
# Shear Modulus (GPa) = 3.08131 20.78737 11.93434
#
# Velocity S-wave (km/s) = 1.31205 3.40787 2.58216
# Velocity P-wave (km/s) = 4.72623 7.35391 6.18131
#
# Compressibility (1/GPa) = 0.02787577
#
# Stress axis : x y z
#
# Youngs Moduli (GPa) = 24.65901 63.90414 78.65897
#
# Poissons Ratio (x) = 0.27479 0.71516
# Poissons Ratio (y) = 0.10603 0.56064
# Poissons Ratio (z) = 0.22420 0.45548
#
# Static dielectric constant tensor:
#      x y z
#    x 2.740350 0.000000 0.000000 
#    y 0.000000 3.399300 0.000000 
#    z 0.000000 0.000000 3.531240 
# 
# 
# High freq. dielectric constant tensor:
#      x y z
#    x 1.628280 0.000000 0.000000 
#    y 0.000000 1.696600 0.000000 
#    z 0.000000 0.000000 1.710800 
# 
# From -- ./inp_files/13803.got.cif
#   From: 2010.03.12/outbox.cif.g09.slc.cpg/sg47_7_cif.got.tgz:13803.got - 2010.04.14 03:12:58.
