data_PCOD8199796
_publ_section_title
;
Structure prediction by ZEFSAII (Michael W. Deem and Ramdas Pophale) SiO2 
 PCOD8199796
Probable space group: P M M M
;
_chemical_formula_sum "Si O2"
_cell_formula_units_Z 32
_cell_length_a 8.742010
_cell_length_b 13.043635
_cell_length_c 13.984458
_cell_angle_alpha 90.000000
_cell_angle_beta 90.000000
_cell_angle_gamma 90.000000
_cell_volume 1594.614010
_symmetry_space_group_name_H-M "P M M M"
_symmetry_group_IT_number 47
_symmetry_cell_setting 'orthorhombic'
loop_
_space_group_symop_operation_xyz
x,y,z
-x,-y,z
x,-y,-z
-x,y,-z
-x,-y,-z
x,y,-z
-x,y,z
x,-y,z
loop_
_atom_site_type_symbol
_atom_site_label
_atom_site_fract_x
_atom_site_fract_y
_atom_site_fract_z
Si Si1 0.671396 0.500000 0.613380
Si Si2 0.318318 0.192086 0.780498
Si Si3 0.180908 0.000000 0.110847
Si Si4 0.318921 0.387874 0.106953
Si Si5 0.180249 0.288886 0.390155
O O1 0.500000 0.500000 0.657256
O O2 0.665725 0.500000 0.500000
O O3 0.757379 0.398027 0.648274
O O4 0.500000 0.182036 0.780752
O O5 0.248347 0.098338 0.837340
O O6 0.254217 0.295828 0.829442
O O7 0.256662 0.197413 0.671567
O O8 0.000000 0.000000 0.121051
O O9 0.231903 0.000000 0.000000
O O10 0.500000 0.378715 0.102282
O O11 0.272227 0.500000 0.149605
O O12 0.251683 0.377051 0.000000
O O13 0.227693 0.270243 0.500000
O O14 0.000000 0.287319 0.377266
#
# Coordination Sequence:
#
# PCOD8199796 Si02
#       5
#     4   8   4   8   8
#     4   9  17  31  53  81 114 155 204 253 295 341
#     4  11  22  36  61  91 118 152 201 254 303 356
#     4  11  25  45  66  87 118 159 201 248 302 361
#     4   8  15  29  50  80 117 150 181 227 291 356
#     4  10  21  37  56  82 121 165 204 244 299 365
#
# _framework density 20.067551999999999
#
# number of rings (size 3 to 8) (size 9 to 14) (size 15 to 20)
#    0.000    2.250    0.000    3.750    1.750    5.000 
#    0.000    0.625    0.000    3.750    0.000    5.250 
#    0.000    0.000    0.000    0.000    0.000    0.000 
#
# Total GULP energy -396750.358466 kJ/mol
# GULP energy per Si atom -12398.448702 kJ/mol
# Density = 2.002188 g / cm^3
# Si number density = 20.067552 Si / 1000 Ang^3
#
#
#
# Elastic Constant Matrix: (Units=GPa)
#
#
# Indices 1 2 3 4 5 6 
#
# 1 82.9137 53.2010 52.5657 0.0000 0.0000 0.0000
# 2 53.2010 152.6199 89.3423 0.0000 0.0000 0.0000
# 3 52.5657 89.3423 115.8683 0.0000 0.0000 0.0000
# 4 0.0000 0.0000 0.0000 43.6168 0.0000 0.0000
# 5 0.0000 0.0000 0.0000 0.0000 24.8115 0.0000
# 6 0.0000 0.0000 0.0000 0.0000 0.0000 31.7728
#
#
#
# Elastic Compliance Matrix: (Units=1/GPa)
#
#
# Indices 1 2 3 4 5 6 
#
# 1 0.017498 -0.002648 -0.005897 0.000000 0.000000 0.000000
# 2 -0.002648 0.012344 -0.008317 0.000000 0.000000 0.000000
# 3 -0.005897 -0.008317 0.017718 0.000000 0.000000 0.000000
# 4 0.000000 0.000000 0.000000 0.022927 0.000000 0.000000
# 5 0.000000 0.000000 0.000000 0.000000 0.040304 0.000000
# 6 0.000000 0.000000 0.000000 0.000000 0.000000 0.031473
#
#
# Mechanical properties :
#
#
# Convention : Reuss Voigt Hill
#
# Bulk Modulus (GPa) = 72.26524 82.40223 77.33373
# Shear Modulus (GPa) = 27.68563 30.45973 29.07268
#
# Velocity S-wave (km/s) = 3.71836 3.90020 3.81036
# Velocity P-wave (km/s) = 7.38404 7.83796 7.61438
#
# Compressibility (1/GPa) = 0.01383791
#
# Stress axis : x y z
#
# Youngs Moduli (GPa) = 57.14935 81.01335 56.43857
#
# Poissons Ratio (x) = 0.21449 0.33281
# Poissons Ratio (y) = 0.15131 0.46938
# Poissons Ratio (z) = 0.33700 0.67376
#
# Static dielectric constant tensor:
#      x y z
#    x 3.428740 0.000000 0.000000 
#    y 0.000000 3.814990 0.000000 
#    z 0.000000 0.000000 3.877350 
# 
# 
# High freq. dielectric constant tensor:
#      x y z
#    x 1.765250 0.000000 0.000000 
#    y 0.000000 1.772930 0.000000 
#    z 0.000000 0.000000 1.796790 
# 
# From -- ./inp_files/3376.got.cif
#   From: 2010.03.12/outbox.cif.g09.slc.cpg/sg47_2_cif.got.tgz:3376.got - 2010.04.14 03:12:58.
