data_PCOD8199344
_publ_section_title
;
Structure prediction by ZEFSAII (Michael W. Deem and Ramdas Pophale) SiO2 
 PCOD8199344
Probable space group: P M M M
;
_chemical_formula_sum "Si O2"
_cell_formula_units_Z 64
_cell_length_a 23.889074
_cell_length_b 9.008646
_cell_length_c 14.689445
_cell_angle_alpha 90.000000
_cell_angle_beta 90.000000
_cell_angle_gamma 90.000000
_cell_volume 3161.289178
_symmetry_space_group_name_H-M "P M M M"
_symmetry_group_IT_number 47
_symmetry_cell_setting 'orthorhombic'
loop_
_space_group_symop_operation_xyz
x,y,z
-x,-y,z
x,-y,-z
-x,y,-z
-x,-y,-z
x,y,-z
-x,y,z
x,-y,z
loop_
_atom_site_type_symbol
_atom_site_label
_atom_site_fract_x
_atom_site_fract_y
_atom_site_fract_z
Si Si1 0.271028 0.170877 0.103614
Si Si2 0.832213 0.174465 0.230539
Si Si3 0.934892 0.662331 0.405500
Si Si4 0.224391 0.325832 0.605904
Si Si5 0.062302 0.677954 0.207828
Si Si6 0.339695 0.173202 0.395797
Si Si7 0.562544 0.172390 0.263904
Si Si8 0.384384 0.325311 0.103095
O O1 0.220983 0.213910 0.169935
O O2 0.323707 0.267840 0.134189
O O3 0.288109 0.000000 0.114995
O O4 0.253047 0.206274 0.000000
O O5 0.823998 0.254026 0.329848
O O6 0.883811 0.239908 0.166073
O O7 0.840606 0.000000 0.245053
O O8 0.914417 0.744160 0.500000
O O9 0.904893 0.500000 0.401542
O O10 0.926841 0.745231 0.310047
O O11 0.000000 0.632233 0.413009
O O12 0.211010 0.288353 0.500000
O O13 0.226919 0.500000 0.623298
O O14 0.284037 0.258285 0.635123
O O15 0.066449 0.500000 0.202270
O O16 0.000000 0.725892 0.171777
O O17 0.354527 0.208349 0.500000
O O18 0.392510 0.230546 0.337479
O O19 0.328122 0.000000 0.379970
O O20 0.500000 0.202478 0.301676
O O21 0.568859 0.257634 0.168670
O O22 0.572175 0.000000 0.244606
O O23 0.385287 0.500000 0.111981
O O24 0.397411 0.273835 0.000000
#
# Coordination Sequence:
#
# PCOD8199344 Si02
#       8
#     8   8   8   8   8   8   8   8
#     4   9  19  37  59  81 105 134 170 212 262 322
#     4  11  22  34  53  80 107 135 168 214 267 311
#     4   7  10  19  37  59  81 109 150 195 230 264
#     4  10  21  36  54  77 106 141 179 216 258 314
#     4   9  18  32  49  70  99 137 176 209 248 305
#     4   9  18  34  55  77 104 138 176 223 273 311
#     4  10  21  35  52  77 108 144 185 221 256 307
#     4  10  21  36  55  80 108 137 170 213 267 319
#
# _framework density 20.244904999999999
#
# number of rings (size 3 to 8) (size 9 to 14) (size 15 to 20)
#    0.000    2.625    0.000    3.000    0.000    7.500 
#    0.000    3.750    0.000    0.375    0.000    7.875 
#    0.000    0.000    0.000    0.000    0.000    0.000 
#
# Total GULP energy -792851.237978 kJ/mol
# GULP energy per Si atom -12388.300593 kJ/mol
# Density = 2.019883 g / cm^3
# Si number density = 20.244905 Si / 1000 Ang^3
#
#
#
# Elastic Constant Matrix: (Units=GPa)
#
#
# Indices 1 2 3 4 5 6 
#
# 1 130.7872 43.8588 28.5276 0.0000 0.0000 0.0000
# 2 43.8588 57.5386 20.7099 0.0000 0.0000 0.0000
# 3 28.5276 20.7099 48.0168 0.0000 0.0000 0.0000
# 4 0.0000 0.0000 0.0000 20.7021 0.0000 0.0000
# 5 0.0000 0.0000 0.0000 0.0000 5.6425 0.0000
# 6 0.0000 0.0000 0.0000 0.0000 0.0000 18.4559
#
#
#
# Elastic Compliance Matrix: (Units=1/GPa)
#
#
# Indices 1 2 3 4 5 6 
#
# 1 0.010712 -0.006954 -0.003365 0.000000 0.000000 0.000000
# 2 -0.006954 0.025088 -0.006689 0.000000 0.000000 0.000000
# 3 -0.003365 -0.006689 0.025710 0.000000 0.000000 0.000000
# 4 0.000000 0.000000 0.000000 0.048304 0.000000 0.000000
# 5 0.000000 0.000000 0.000000 0.000000 0.177227 0.000000
# 6 0.000000 0.000000 0.000000 0.000000 0.000000 0.054183
#
#
# Mechanical properties :
#
#
# Convention : Reuss Voigt Hill
#
# Bulk Modulus (GPa) = 36.37129 46.94835 41.65982
# Shear Modulus (GPa) = 13.00711 18.50986 15.75849
#
# Velocity S-wave (km/s) = 2.53748 3.02702 2.79300
# Velocity P-wave (km/s) = 5.15653 5.95463 5.56989
#
# Compressibility (1/GPa) = 0.02749421
#
# Stress axis : x y z
#
# Youngs Moduli (GPa) = 93.35357 39.85975 38.89514
#
# Poissons Ratio (x) = 0.27719 0.13088
# Poissons Ratio (y) = 0.64919 0.26017
# Poissons Ratio (z) = 0.31412 0.26662
#
# Static dielectric constant tensor:
#      x y z
#    x 3.830100 0.000000 0.000000 
#    y 0.000000 3.433500 0.000000 
#    z 0.000000 0.000000 3.919620 
# 
# 
# High freq. dielectric constant tensor:
#      x y z
#    x 1.803740 0.000000 0.000000 
#    y 0.000000 1.764340 0.000000 
#    z 0.000000 0.000000 1.776880 
# 
# From -- ./inp_files/25557.got.cif
#   From: 2010.03.12/outbox.cif.g09.slc.cpg/sg47_13_cif.got.tgz:25557.got - 2010.04.14 03:12:58.
