data_PCOD8199251
_publ_section_title
;
Structure prediction by ZEFSAII (Michael W. Deem and Ramdas Pophale) SiO2 
 PCOD8199251
Probable space group: P M M M
;
_chemical_formula_sum "Si O2"
_cell_formula_units_Z 52
_cell_length_a 17.570882
_cell_length_b 17.525453
_cell_length_c 9.345048
_cell_angle_alpha 90.000000
_cell_angle_beta 90.000000
_cell_angle_gamma 90.000000
_cell_volume 2877.692276
_symmetry_space_group_name_H-M "P M M M"
_symmetry_group_IT_number 47
_symmetry_cell_setting 'orthorhombic'
loop_
_space_group_symop_operation_xyz
x,y,z
-x,-y,z
x,-y,-z
-x,y,-z
-x,-y,-z
x,y,-z
-x,y,z
x,-y,z
loop_
_atom_site_type_symbol
_atom_site_label
_atom_site_fract_x
_atom_site_fract_y
_atom_site_fract_z
Si Si1 0.000000 0.409286 0.663665
Si Si2 0.851137 0.410774 0.833224
Si Si3 0.083931 0.914732 0.332588
Si Si4 0.628612 0.085619 0.167155
Si Si5 0.212771 0.855400 0.156026
Si Si6 0.713316 0.692236 0.160141
Si Si7 0.414086 0.767205 0.664408
O O1 0.076189 0.379510 0.743958
O O2 0.000000 0.500000 0.668571
O O3 0.000000 0.379206 0.500000
O O4 0.839883 0.500000 0.806363
O O5 0.772622 0.370966 0.780655
O O6 0.866197 0.392305 0.000000
O O7 0.095815 0.915362 0.500000
O O8 0.144536 0.857964 0.266757
O O9 0.000000 0.884859 0.292665
O O10 0.095753 0.000000 0.271566
O O11 0.718633 0.088465 0.200509
O O12 0.586864 0.149586 0.260751
O O13 0.599166 0.000000 0.204828
O O14 0.613683 0.104408 0.000000
O O15 0.241593 0.770189 0.154811
O O16 0.181909 0.878888 0.000000
O O17 0.639972 0.703699 0.261751
O O18 0.685215 0.670024 0.000000
O O19 0.388296 0.777281 0.500000
O O20 0.500000 0.735805 0.674306
#
# Coordination Sequence:
#
# PCOD8199251 Si02
#       7
#     4   8   8   8   8   8   8
#     4   9  17  29  47  75 109 139 166 197 238 291
#     4   9  17  32  55  79 103 134 171 209 249 294
#     4   9  18  31  44  59  83 117 157 199 240 282
#     4   9  18  32  50  72  97 126 162 204 250 300
#     4   9  17  30  46  65  90 118 152 195 240 285
#     4   9  19  35  53  74  99 128 164 204 247 299
#     4  10  21  35  51  73 101 132 166 205 249 301
#
# _framework density 18.070035000000001
#
# number of rings (size 3 to 8) (size 9 to 14) (size 15 to 20)
#    0.000    2.846    0.000    2.538    0.000    7.077 
#    1.385    2.308    0.000    0.462    0.000    3.231 
#    0.000    0.000    0.000    0.000    0.000    0.000 
#
# Total GULP energy -644542.916198 kJ/mol
# GULP energy per Si atom -12395.056081 kJ/mol
# Density = 1.802891 g / cm^3
# Si number density = 18.070035 Si / 1000 Ang^3
#
#
#
# Elastic Constant Matrix: (Units=GPa)
#
#
# Indices 1 2 3 4 5 6 
#
# 1 119.6981 34.7520 64.2478 0.0000 0.0000 0.0000
# 2 34.7520 43.4207 24.8399 0.0000 0.0000 0.0000
# 3 64.2478 24.8399 82.5118 0.0000 0.0000 0.0000
# 4 0.0000 0.0000 0.0000 16.9588 0.0000 0.0000
# 5 0.0000 0.0000 0.0000 0.0000 35.6312 0.0000
# 6 0.0000 0.0000 0.0000 0.0000 0.0000 15.3877
#
#
#
# Elastic Compliance Matrix: (Units=1/GPa)
#
#
# Indices 1 2 3 4 5 6 
#
# 1 0.015857 -0.006799 -0.010300 0.000000 0.000000 0.000000
# 2 -0.006799 0.030737 -0.003960 0.000000 0.000000 0.000000
# 3 -0.010300 -0.003960 0.021332 0.000000 0.000000 0.000000
# 4 0.000000 0.000000 0.000000 0.058966 0.000000 0.000000
# 5 0.000000 0.000000 0.000000 0.000000 0.028065 0.000000
# 6 0.000000 0.000000 0.000000 0.000000 0.000000 0.064987
#
#
# Mechanical properties :
#
#
# Convention : Reuss Voigt Hill
#
# Bulk Modulus (GPa) = 38.74646 54.81223 46.77935
# Shear Modulus (GPa) = 18.47311 21.71493 20.09402
#
# Velocity S-wave (km/s) = 3.20082 3.47033 3.33830
# Velocity P-wave (km/s) = 5.92868 6.81591 6.38772
#
# Compressibility (1/GPa) = 0.02580881
#
# Stress axis : x y z
#
# Youngs Moduli (GPa) = 63.06444 32.53416 46.87854
#
# Poissons Ratio (x) = 0.22119 0.48286
# Poissons Ratio (y) = 0.42875 0.18562
# Poissons Ratio (z) = 0.64958 0.12882
#
# Static dielectric constant tensor:
#      x y z
#    x 3.386640 0.000000 0.000000 
#    y 0.000000 3.283420 0.000000 
#    z 0.000000 0.000000 3.395040 
# 
# 
# High freq. dielectric constant tensor:
#      x y z
#    x 1.699780 0.000000 0.000000 
#    y 0.000000 1.670220 0.000000 
#    z 0.000000 0.000000 1.695670 
# 
# From -- ./inp_files/9567.got.cif
#   From: 2010.03.12/outbox.cif.g09.slc.cpg/sg47_5_cif.got.tgz:9567.got - 2010.04.14 03:12:58.
