data_PCOD8199465
_publ_section_title
;
Structure prediction by ZEFSAII (Michael W. Deem and Ramdas Pophale) SiO2 
 PCOD8199465
Probable space group: P M M M
;
_chemical_formula_sum "Si O2"
_cell_formula_units_Z 64
_cell_length_a 9.341041
_cell_length_b 24.412907
_cell_length_c 15.085265
_cell_angle_alpha 90.000000
_cell_angle_beta 90.000000
_cell_angle_gamma 90.000000
_cell_volume 3440.073476
_symmetry_space_group_name_H-M "P M M M"
_symmetry_group_IT_number 47
_symmetry_cell_setting 'orthorhombic'
loop_
_space_group_symop_operation_xyz
x,y,z
-x,-y,z
x,-y,-z
-x,y,-z
-x,-y,-z
x,y,-z
-x,y,z
x,-y,z
loop_
_atom_site_type_symbol
_atom_site_label
_atom_site_fract_x
_atom_site_fract_y
_atom_site_fract_z
Si Si1 0.339124 0.344453 0.906063
Si Si2 0.333384 0.230220 0.731801
Si Si3 0.831349 0.560440 0.400015
Si Si4 0.661275 0.934886 0.902796
Si Si5 0.659897 0.359651 0.718580
Si Si6 0.166647 0.844569 0.397333
Si Si7 0.165912 0.061968 0.263611
Si Si8 0.167447 0.236182 0.098088
O O1 0.500000 0.317659 0.897504
O O2 0.318026 0.382521 0.819548
O O3 0.218037 0.298633 0.907056
O O4 0.328881 0.377434 0.000000
O O5 0.500000 0.214709 0.735701
O O6 0.308612 0.294975 0.720071
O O7 0.261516 0.202747 0.646370
O O8 0.257236 0.207736 0.822272
O O9 0.776840 0.568243 0.500000
O O10 0.783648 0.500000 0.365777
O O11 0.768928 0.609221 0.342957
O O12 0.000000 0.565555 0.395643
O O13 0.500000 0.914187 0.887396
O O14 0.757763 0.911820 0.822877
O O15 0.667571 0.000000 0.901003
O O16 0.716147 0.914570 0.000000
O O17 0.500000 0.371528 0.684027
O O18 0.209590 0.850236 0.500000
O O19 0.201811 0.902285 0.350028
O O20 0.000000 0.829256 0.386518
O O21 0.000000 0.063032 0.240504
O O22 0.218286 0.000000 0.283498
O O23 0.000000 0.234068 0.122354
O O24 0.194827 0.209233 0.000000
#
# Coordination Sequence:
#
# PCOD8199465 Si02
#       8
#     8   8   8   8   8   8   8   8
#     4   8  14  26  44  68 101 137 169 202 243 292
#     4  10  21  36  53  75 105 138 171 208 250 300
#     4   9  19  35  52  71  97 129 165 206 253 302
#     4   8  14  26  46  73 104 135 164 195 236 290
#     4   9  18  31  50  77 102 128 165 205 245 291
#     4  10  22  39  56  74  99 132 169 211 260 309
#     4   9  18  33  54  79 103 128 163 207 252 299
#     4   9  16  27  47  75 104 133 167 207 248 293
#
# _framework density 18.604254000000001
#
# number of rings (size 3 to 8) (size 9 to 14) (size 15 to 20)
#    0.000    3.000    0.000    2.250    0.000    5.500 
#    0.000    6.250    0.000    1.125    0.000    5.250 
#    0.000    0.000    0.000    0.000    0.000    0.000 
#
# Total GULP energy -792962.028479 kJ/mol
# GULP energy per Si atom -12390.031695 kJ/mol
# Density = 1.856191 g / cm^3
# Si number density = 18.604254 Si / 1000 Ang^3
#
#
#
# Elastic Constant Matrix: (Units=GPa)
#
#
# Indices 1 2 3 4 5 6 
#
# 1 78.6169 33.1639 69.3399 0.0000 0.0000 0.0000
# 2 33.1639 52.2576 49.8616 0.0000 0.0000 0.0000
# 3 69.3399 49.8616 170.0662 0.0000 0.0000 0.0000
# 4 0.0000 0.0000 0.0000 -16.8664 0.0000 0.0000
# 5 0.0000 0.0000 0.0000 0.0000 29.5388 0.0000
# 6 0.0000 0.0000 0.0000 0.0000 0.0000 19.0924
#
#
#
# Elastic Compliance Matrix: (Units=1/GPa)
#
#
# Indices 1 2 3 4 5 6 
#
# 1 0.021754 -0.007418 -0.006695 0.000000 0.000000 0.000000
# 2 -0.007418 0.029098 -0.005507 0.000000 0.000000 0.000000
# 3 -0.006695 -0.005507 0.010224 0.000000 0.000000 0.000000
# 4 0.000000 0.000000 0.000000 -0.059289 0.000000 0.000000
# 5 0.000000 0.000000 0.000000 0.000000 0.033854 0.000000
# 6 0.000000 0.000000 0.000000 0.000000 0.000000 0.052377
#
#
# Mechanical properties :
#
#
# Convention : Reuss Voigt Hill
#
# Bulk Modulus (GPa) = 45.79329 67.29685 56.54507
# Shear Modulus (GPa) = 37.16529 16.25797 26.71163
#
# Velocity S-wave (km/s) = 4.47439 2.95936 3.79328
# Velocity P-wave (km/s) = 7.16668 6.92304 7.04591
#
# Compressibility (1/GPa) = 0.02183726
#
# Stress axis : x y z
#
# Youngs Moduli (GPa) = 45.96919 34.36704 97.80735
#
# Poissons Ratio (x) = 0.25492 0.65479
# Poissons Ratio (y) = 0.34098 0.53860
# Poissons Ratio (z) = 0.30775 0.18925
#
# Static dielectric constant tensor:
#      x y z
#    x 3.406330 0.000000 0.000000 
#    y 0.000000 3.057870 0.000000 
#    z 0.000000 0.000000 3.825460 
# 
# 
# High freq. dielectric constant tensor:
#      x y z
#    x 1.720480 0.000000 0.000000 
#    y 0.000000 1.681070 0.000000 
#    z 0.000000 0.000000 1.735620 
# 
# From -- ./inp_files/21919.got.cif
#   From: 2010.03.12/outbox.cif.g09.slc.cpg/sg47_11_cif.got.tgz:21919.got - 2010.04.14 03:12:58.
