data_PCOD8199305
_publ_section_title
;
Structure prediction by ZEFSAII (Michael W. Deem and Ramdas Pophale) SiO2 
 PCOD8199305
Probable space group: P M M M
;
_chemical_formula_sum "Si O2"
_cell_formula_units_Z 64
_cell_length_a 14.402575
_cell_length_b 9.399429
_cell_length_c 25.376371
_cell_angle_alpha 90.000000
_cell_angle_beta 90.000000
_cell_angle_gamma 90.000000
_cell_volume 3435.351122
_symmetry_space_group_name_H-M "P M M M"
_symmetry_group_IT_number 47
_symmetry_cell_setting 'orthorhombic'
loop_
_space_group_symop_operation_xyz
x,y,z
-x,-y,z
x,-y,-z
-x,y,-z
-x,-y,-z
x,y,-z
-x,y,z
x,-y,z
loop_
_atom_site_type_symbol
_atom_site_label
_atom_site_fract_x
_atom_site_fract_y
_atom_site_fract_z
Si Si1 0.727109 0.163621 0.940893
Si Si2 0.104885 0.334964 0.403019
Si Si3 0.729162 0.163037 0.441622
Si Si4 0.392708 0.836109 0.156567
Si Si5 0.296996 0.330223 0.247761
Si Si6 0.898508 0.659450 0.937346
Si Si7 0.100374 0.668275 0.284310
Si Si8 0.608487 0.165691 0.342719
O O1 0.639002 0.190699 0.903575
O O2 0.816318 0.242196 0.915691
O O3 0.754988 0.000000 0.942821
O O4 0.702452 0.218509 0.000000
O O5 0.131559 0.500000 0.405636
O O6 0.175813 0.250867 0.439491
O O7 0.115212 0.275149 0.343575
O O8 0.000000 0.310431 0.423495
O O9 0.685559 0.185161 0.500000
O O10 0.654841 0.212502 0.397918
O O11 0.755677 0.000000 0.431971
O O12 0.500000 0.796372 0.160390
O O13 0.336587 0.731088 0.193860
O O14 0.375254 0.000000 0.173174
O O15 0.309802 0.500000 0.249489
O O16 0.188034 0.284665 0.249060
O O17 0.350640 0.262608 0.296703
O O18 0.880951 0.500000 0.916532
O O19 0.000000 0.712561 0.917307
O O20 0.897519 0.662573 0.000000
O O21 0.095303 0.500000 0.287318
O O22 0.000000 0.725082 0.262208
O O23 0.500000 0.197237 0.347618
O O24 0.626779 0.000000 0.329521
#
# Coordination Sequence:
#
# PCOD8199305 Si02
#       8
#     8   8   8   8   8   8   8   8
#     4   9  18  33  54  79 105 138 182 225 262 304
#     4   9  17  32  54  77 103 138 177 213 255 312
#     4  10  21  35  51  75 107 140 176 220 265 310
#     4  10  22  39  56  76 107 143 175 215 268 319
#     4  11  21  35  59  85 107 133 171 219 262 309
#     4   8  14  26  46  73 105 140 175 210 253 307
#     4   8  15  30  53  79 105 133 166 206 254 306
#     4  10  21  37  56  76 101 137 178 219 267 319
#
# _framework density 18.629828
#
# number of rings (size 3 to 8) (size 9 to 14) (size 15 to 20)
#    0.000    2.625    1.250    1.875    0.000    4.000 
#    0.000    5.625    0.000    3.750    0.000    4.375 
#    0.000    0.000    0.000    0.000    0.000    0.000 
#
# Total GULP energy -793298.930379 kJ/mol
# GULP energy per Si atom -12395.295787 kJ/mol
# Density = 1.858743 g / cm^3
# Si number density = 18.629828 Si / 1000 Ang^3
#
#
#
# Elastic Constant Matrix: (Units=GPa)
#
#
# Indices 1 2 3 4 5 6 
#
# 1 129.6395 47.0982 56.6231 0.0000 0.0000 0.0000
# 2 47.0982 57.5016 38.5392 0.0000 0.0000 0.0000
# 3 56.6231 38.5392 92.9169 0.0000 0.0000 0.0000
# 4 0.0000 0.0000 0.0000 20.8071 0.0000 0.0000
# 5 0.0000 0.0000 0.0000 0.0000 24.9141 0.0000
# 6 0.0000 0.0000 0.0000 0.0000 0.0000 29.0618
#
#
#
# Elastic Compliance Matrix: (Units=1/GPa)
#
#
# Indices 1 2 3 4 5 6 
#
# 1 0.012239 -0.006961 -0.004571 0.000000 0.000000 0.000000
# 2 -0.006961 0.028046 -0.007391 0.000000 0.000000 0.000000
# 3 -0.004571 -0.007391 0.016613 0.000000 0.000000 0.000000
# 4 0.000000 0.000000 0.000000 0.048060 0.000000 0.000000
# 5 0.000000 0.000000 0.000000 0.000000 0.040138 0.000000
# 6 0.000000 0.000000 0.000000 0.000000 0.000000 0.034409
#
#
# Mechanical properties :
#
#
# Convention : Reuss Voigt Hill
#
# Bulk Modulus (GPa) = 52.48609 62.73100 57.60855
# Shear Modulus (GPa) = 22.35106 24.14310 23.24708
#
# Velocity S-wave (km/s) = 3.46749 3.60382 3.53631
# Velocity P-wave (km/s) = 6.65324 7.14578 6.90390
#
# Compressibility (1/GPa) = 0.01905267
#
# Stress axis : x y z
#
# Youngs Moduli (GPa) = 81.70398 35.65598 60.19228
#
# Poissons Ratio (x) = 0.24820 0.27516
# Poissons Ratio (y) = 0.56875 0.44485
# Poissons Ratio (z) = 0.37350 0.26352
#
# Static dielectric constant tensor:
#      x y z
#    x 3.763310 0.000000 0.000000 
#    y 0.000000 3.319670 0.000000 
#    z 0.000000 0.000000 3.329020 
# 
# 
# High freq. dielectric constant tensor:
#      x y z
#    x 1.731060 0.000000 0.000000 
#    y 0.000000 1.704660 0.000000 
#    z 0.000000 0.000000 1.709120 
# 
# From -- ./inp_files/7857.got.cif
#   From: 2010.03.12/outbox.cif.g09.slc.cpg/sg47_4_cif.got.tgz:7857.got - 2010.04.14 03:12:58.
