data_PCOD8199609
_publ_section_title
;
Structure prediction by ZEFSAII (Michael W. Deem and Ramdas Pophale) SiO2 
 PCOD8199609
Probable space group: P M M M
;
_chemical_formula_sum "Si O2"
_cell_formula_units_Z 56
_cell_length_a 19.918934
_cell_length_b 15.421310
_cell_length_c 9.410115
_cell_angle_alpha 90.000000
_cell_angle_beta 90.000000
_cell_angle_gamma 90.000000
_cell_volume 2890.562013
_symmetry_space_group_name_H-M "P M M M"
_symmetry_group_IT_number 47
_symmetry_cell_setting 'orthorhombic'
loop_
_space_group_symop_operation_xyz
x,y,z
-x,-y,z
x,-y,-z
-x,y,-z
-x,-y,-z
x,y,-z
-x,y,z
x,-y,z
loop_
_atom_site_type_symbol
_atom_site_label
_atom_site_fract_x
_atom_site_fract_y
_atom_site_fract_z
Si Si1 0.838276 0.904181 0.335278
Si Si2 0.077133 0.741408 0.667999
Si Si3 0.286082 0.144111 0.159457
Si Si4 0.843299 0.598329 0.164013
Si Si5 0.571436 0.161692 0.161429
Si Si6 0.698074 0.348484 0.837456
Si Si7 0.426170 0.665272 0.334444
O O1 0.825734 0.888405 0.500000
O O2 0.888067 0.830168 0.276555
O O3 0.765727 0.900348 0.263767
O O4 0.869493 0.000000 0.307386
O O5 0.085132 0.730519 0.500000
O O6 0.109907 0.658837 0.741760
O O7 0.000000 0.746888 0.713801
O O8 0.361327 0.104415 0.187754
O O9 0.290394 0.246595 0.186365
O O10 0.261765 0.123732 0.000000
O O11 0.868399 0.500000 0.184203
O O12 0.765957 0.604473 0.214110
O O13 0.849018 0.628066 0.000000
O O14 0.500000 0.109666 0.175314
O O15 0.569970 0.238287 0.274084
O O16 0.577755 0.200128 0.000000
O O17 0.634767 0.384144 0.745725
O O18 0.682671 0.371791 0.000000
O O19 0.408271 0.669025 0.500000
O O20 0.500000 0.620823 0.311458
#
# Coordination Sequence:
#
# PCOD8199609 Si02
#       7
#     8   8   8   8   8   8   8
#     4  10  21  36  55  80 109 143 182 222 266 318
#     4  10  22  40  61  85 113 144 177 217 267 322
#     4   9  16  28  49  75 102 136 178 224 272 319
#     4  10  21  38  60  85 113 145 182 223 268 320
#     4   8  14  25  41  64  97 136 177 221 269 318
#     4   9  17  30  49  73 102 138 179 222 268 318
#     4   9  16  24  38  66 101 136 178 225 270 317
#
# _framework density 19.373394999999999
#
# number of rings (size 3 to 8) (size 9 to 14) (size 15 to 20)
#    0.000    2.714    1.429    1.286    0.000    5.143 
#    0.000    2.857    0.000    0.857    0.000    8.000 
#    0.000    0.000    0.000    0.000    0.000    0.000 
#
# Total GULP energy -693865.134960 kJ/mol
# GULP energy per Si atom -12390.448839 kJ/mol
# Density = 1.932930 g / cm^3
# Si number density = 19.373395 Si / 1000 Ang^3
#
#
#
# Elastic Constant Matrix: (Units=GPa)
#
#
# Indices 1 2 3 4 5 6 
#
# 1 165.1144 51.8240 59.2546 0.0000 0.0000 0.0000
# 2 51.8240 73.9660 28.1611 0.0000 0.0000 0.0000
# 3 59.2546 28.1611 63.4462 0.0000 0.0000 0.0000
# 4 0.0000 0.0000 0.0000 16.4583 0.0000 0.0000
# 5 0.0000 0.0000 0.0000 0.0000 33.9551 0.0000
# 6 0.0000 0.0000 0.0000 0.0000 0.0000 1.9823
#
#
#
# Elastic Compliance Matrix: (Units=1/GPa)
#
#
# Indices 1 2 3 4 5 6 
#
# 1 0.010083 -0.004187 -0.007559 0.000000 0.000000 0.000000
# 2 -0.004187 0.018008 -0.004083 0.000000 0.000000 0.000000
# 3 -0.007559 -0.004083 0.024633 0.000000 0.000000 0.000000
# 4 0.000000 0.000000 0.000000 0.060760 0.000000 0.000000
# 5 0.000000 0.000000 0.000000 0.000000 0.029451 0.000000
# 6 0.000000 0.000000 0.000000 0.000000 0.000000 0.504455
#
#
# Mechanical properties :
#
#
# Convention : Reuss Voigt Hill
#
# Bulk Modulus (GPa) = 47.46675 64.55622 56.01148
# Shear Modulus (GPa) = 7.28792 21.36494 14.32643
#
# Velocity S-wave (km/s) = 1.94164 3.32444 2.72231
# Velocity P-wave (km/s) = 5.43883 6.93760 6.23342
#
# Compressibility (1/GPa) = 0.02106738
#
# Stress axis : x y z
#
# Youngs Moduli (GPa) = 99.17618 55.53208 40.59656
#
# Poissons Ratio (x) = 0.23251 0.30685
# Poissons Ratio (y) = 0.41524 0.16574
# Poissons Ratio (z) = 0.74963 0.22671
#
# Static dielectric constant tensor:
#      x y z
#    x 3.981940 0.000000 0.000000 
#    y 0.000000 3.235820 0.000000 
#    z 0.000000 0.000000 3.445480 
# 
# 
# High freq. dielectric constant tensor:
#      x y z
#    x 1.768280 0.000000 0.000000 
#    y 0.000000 1.717580 0.000000 
#    z 0.000000 0.000000 1.744050 
# 
# From -- ./inp_files/11205.got.cif
#   From: 2010.03.12/outbox.cif.g09.slc.cpg/sg47_6_cif.got.tgz:11205.got - 2010.04.14 03:12:58.
