data_PCOD8199274
_publ_section_title
;
Structure prediction by ZEFSAII (Michael W. Deem and Ramdas Pophale) SiO2 
 PCOD8199274
Probable space group: P M M M
;
_chemical_formula_sum "Si O2"
_cell_formula_units_Z 52
_cell_length_a 8.072084
_cell_length_b 9.833614
_cell_length_c 34.824527
_cell_angle_alpha 90.000000
_cell_angle_beta 90.000000
_cell_angle_gamma 90.000000
_cell_volume 2764.292885
_symmetry_space_group_name_H-M "P M M M"
_symmetry_group_IT_number 47
_symmetry_cell_setting 'orthorhombic'
loop_
_space_group_symop_operation_xyz
x,y,z
-x,-y,z
x,-y,-z
-x,y,-z
-x,-y,-z
x,y,-z
-x,y,z
x,-y,z
loop_
_atom_site_type_symbol
_atom_site_label
_atom_site_fract_x
_atom_site_fract_y
_atom_site_fract_z
Si Si1 0.807136 0.650461 0.252373
Si Si2 0.308681 0.159401 0.594471
Si Si3 0.807779 0.849107 0.810963
Si Si4 0.000000 0.160554 0.457307
Si Si5 0.194100 0.345579 0.956543
Si Si6 0.309964 0.848570 0.891590
Si Si7 0.306777 0.346629 0.334220
O O1 0.725819 0.500000 0.248736
O O2 0.724146 0.750410 0.220811
O O3 0.779676 0.706584 0.295382
O O4 0.000000 0.639605 0.243736
O O5 0.500000 0.191426 0.581236
O O6 0.259317 0.243345 0.632131
O O7 0.172222 0.206205 0.563079
O O8 0.291028 0.000000 0.603822
O O9 0.783207 0.790225 0.853984
O O10 0.000000 0.860088 0.801729
O O11 0.726619 0.000000 0.808242
O O12 0.000000 0.224908 0.500000
O O13 0.000000 0.000000 0.459984
O O14 0.248035 0.500000 0.947857
O O15 0.288246 0.246932 0.928037
O O16 0.000000 0.328024 0.950435
O O17 0.243796 0.306626 0.000000
O O18 0.500000 0.854375 0.880386
O O19 0.242956 0.000000 0.901721
O O20 0.500000 0.345500 0.326510
O O21 0.246588 0.500000 0.344797
#
# Coordination Sequence:
#
# PCOD8199274 Si02
#       7
#     8   8   8   4   8   8   8
#     4   9  18  31  47  69  95 124 161 204 247 292
#     4   9  18  32  50  74 102 132 169 211 254 303
#     4   9  18  33  50  68  94 129 167 205 246 291
#     4   9  18  32  51  77 105 133 169 213 259 305
#     4   9  19  36  56  77 100 127 162 203 246 294
#     4  10  21  35  51  74 103 133 165 202 246 296
#     4   9  18  32  49  70  98 132 166 202 249 300
#
# _framework density 18.811321
#
# number of rings (size 3 to 8) (size 9 to 14) (size 15 to 20)
#    0.000    2.846    0.000    0.923    1.077    4.000 
#    0.000    5.385    0.000    0.923    0.000    2.154 
#    0.000    0.000    0.000    0.000    0.000    0.000 
#
# Total GULP energy -644531.572949 kJ/mol
# GULP energy per Si atom -12394.837941 kJ/mol
# Density = 1.876851 g / cm^3
# Si number density = 18.811321 Si / 1000 Ang^3
#
#
#
# Elastic Constant Matrix: (Units=GPa)
#
#
# Indices 1 2 3 4 5 6 
#
# 1 50.3141 27.8698 41.4856 0.0000 0.0000 0.0000
# 2 27.8698 78.3621 77.8120 0.0000 0.0000 0.0000
# 3 41.4856 77.8120 152.1602 0.0000 0.0000 0.0000
# 4 0.0000 0.0000 0.0000 18.2521 0.0000 0.0000
# 5 0.0000 0.0000 0.0000 0.0000 13.1764 0.0000
# 6 0.0000 0.0000 0.0000 0.0000 0.0000 17.2786
#
#
#
# Elastic Compliance Matrix: (Units=1/GPa)
#
#
# Indices 1 2 3 4 5 6 
#
# 1 0.026417 -0.004558 -0.004872 0.000000 0.000000 0.000000
# 2 -0.004558 0.026713 -0.012418 0.000000 0.000000 0.000000
# 3 -0.004872 -0.012418 0.014250 0.000000 0.000000 0.000000
# 4 0.000000 0.000000 0.000000 0.054788 0.000000 0.000000
# 5 0.000000 0.000000 0.000000 0.000000 0.075893 0.000000
# 6 0.000000 0.000000 0.000000 0.000000 0.000000 0.057875
#
#
# Mechanical properties :
#
#
# Convention : Reuss Voigt Hill
#
# Bulk Modulus (GPa) = 42.21983 63.90791 53.06387
# Shear Modulus (GPa) = 16.25877 18.65268 17.45573
#
# Velocity S-wave (km/s) = 2.94310 3.15233 3.04951
# Velocity P-wave (km/s) = 5.83453 6.87724 6.37723
#
# Compressibility (1/GPa) = 0.02368555
#
# Stress axis : x y z
#
# Youngs Moduli (GPa) = 37.85506 37.43496 70.17307
#
# Poissons Ratio (x) = 0.17062 0.34185
# Poissons Ratio (y) = 0.17254 0.87140
# Poissons Ratio (z) = 0.18441 0.46486
#
# Static dielectric constant tensor:
#      x y z
#    x 3.346130 0.000000 0.000000 
#    y 0.000000 3.667230 0.000000 
#    z 0.000000 0.000000 3.506440 
# 
# 
# High freq. dielectric constant tensor:
#      x y z
#    x 1.723320 0.000000 0.000000 
#    y 0.000000 1.718100 0.000000 
#    z 0.000000 0.000000 1.728120 
# 
# From -- ./inp_files/33239.got.cif
#   From: 2010.03.12/outbox.cif.g09.slc.cpg/sg47_17_cif.got.tgz:33239.got - 2010.04.14 03:12:58.
