data_PCOD8199237
_publ_section_title
;
Structure prediction by ZEFSAII (Michael W. Deem and Ramdas Pophale) SiO2 
 PCOD8199237
Probable space group: P M M M
;
_chemical_formula_sum "Si O2"
_cell_formula_units_Z 64
_cell_length_a 25.736718
_cell_length_b 14.270334
_cell_length_c 9.132907
_cell_angle_alpha 90.000000
_cell_angle_beta 90.000000
_cell_angle_gamma 90.000000
_cell_volume 3354.257019
_symmetry_space_group_name_H-M "P M M M"
_symmetry_group_IT_number 47
_symmetry_cell_setting 'orthorhombic'
loop_
_space_group_symop_operation_xyz
x,y,z
-x,-y,z
x,-y,-z
-x,y,-z
-x,-y,-z
x,y,-z
-x,y,z
x,-y,z
loop_
_atom_site_type_symbol
_atom_site_label
_atom_site_fract_x
_atom_site_fract_y
_atom_site_fract_z
Si Si1 0.347882 0.110968 0.667099
Si Si2 0.754705 0.107325 0.171811
Si Si3 0.814886 0.391928 0.328284
Si Si4 0.714169 0.389676 0.838850
Si Si5 0.940156 0.108327 0.667033
Si Si6 0.558129 0.793926 0.171449
Si Si7 0.399334 0.602464 0.826981
Si Si8 0.144257 0.223711 0.827636
O O1 0.345729 0.145011 0.500000
O O2 0.296591 0.149677 0.749765
O O3 0.400905 0.146444 0.738805
O O4 0.348730 0.000000 0.680152
O O5 0.804787 0.166028 0.221786
O O6 0.764437 0.000000 0.220046
O O7 0.744986 0.114547 0.000000
O O8 0.817987 0.376411 0.500000
O O9 0.826054 0.500000 0.286035
O O10 0.758361 0.357555 0.273227
O O11 0.856718 0.325867 0.248648
O O12 0.715081 0.500000 0.858433
O O13 0.657731 0.362367 0.773651
O O14 0.724401 0.343371 0.000000
O O15 0.923241 0.128487 0.500000
O O16 0.906771 0.169338 0.777944
O O17 0.000000 0.135831 0.689858
O O18 0.931286 0.000000 0.705479
O O19 0.500000 0.829450 0.207860
O O20 0.560501 0.683649 0.217386
O O21 0.570616 0.805427 0.000000
O O22 0.414686 0.500000 0.759319
O O23 0.396328 0.590389 0.000000
O O24 0.142184 0.237820 0.000000
#
# Coordination Sequence:
#
# PCOD8199237 Si02
#       8
#     8   8   8   8   8   8   8   8
#     4  10  22  39  57  76 100 133 172 217 270 324
#     4   9  19  36  56  80 111 142 172 211 264 327
#     4  10  21  35  50  73 109 150 191 233 276 325
#     4   8  14  27  47  69  95 130 172 216 263 316
#     4   9  19  37  60  86 119 158 195 231 273 323
#     4  10  21  35  53  78 104 132 171 217 263 317
#     4   8  15  29  50  75 102 132 166 207 257 314
#     4  11  22  34  55  86 117 151 189 231 277 326
#
# _framework density 19.080231999999999
#
# number of rings (size 3 to 8) (size 9 to 14) (size 15 to 20)
#    0.000    2.625    0.000    2.625    1.750    4.250 
#    0.000    4.375    0.000    0.750    0.000    3.500 
#    0.000    0.000    0.000    0.000    0.000    0.000 
#
# Total GULP energy -793422.385312 kJ/mol
# GULP energy per Si atom -12397.224771 kJ/mol
# Density = 1.903680 g / cm^3
# Si number density = 19.080232 Si / 1000 Ang^3
#
#
#
# Elastic Constant Matrix: (Units=GPa)
#
#
# Indices 1 2 3 4 5 6 
#
# 1 100.2675 42.4735 49.5295 0.0000 0.0000 0.0000
# 2 42.4735 57.1325 37.7953 0.0000 0.0000 0.0000
# 3 49.5295 37.7953 78.0895 0.0000 0.0000 0.0000
# 4 0.0000 0.0000 0.0000 22.6903 0.0000 0.0000
# 5 0.0000 0.0000 0.0000 0.0000 0.2451 0.0000
# 6 0.0000 0.0000 0.0000 0.0000 0.0000 27.6358
#
#
#
# Elastic Compliance Matrix: (Units=1/GPa)
#
#
# Indices 1 2 3 4 5 6 
#
# 1 0.016656 -0.007934 -0.006724 0.000000 0.000000 0.000000
# 2 -0.007934 0.029526 -0.009259 0.000000 0.000000 0.000000
# 3 -0.006724 -0.009259 0.021552 0.000000 0.000000 0.000000
# 4 0.000000 0.000000 0.000000 0.044072 0.000000 0.000000
# 5 0.000000 0.000000 0.000000 0.000000 4.080372 0.000000
# 6 0.000000 0.000000 0.000000 0.000000 0.000000 0.036185
#
#
# Mechanical properties :
#
#
# Convention : Reuss Voigt Hill
#
# Bulk Modulus (GPa) = 50.24952 55.00958 52.62955
# Shear Modulus (GPa) = 1.16745 17.16031 9.16388
#
# Velocity S-wave (km/s) = 0.78307 3.00221 2.19391
# Velocity P-wave (km/s) = 5.21638 6.39617 5.83617
#
# Compressibility (1/GPa) = 0.01990069
#
# Stress axis : x y z
#
# Youngs Moduli (GPa) = 60.03958 33.86813 46.39981
#
# Poissons Ratio (x) = 0.26871 0.31200
# Poissons Ratio (y) = 0.47635 0.42959
# Poissons Ratio (z) = 0.40371 0.31357
#
# Static dielectric constant tensor:
#      x y z
#    x 3.459080 0.000000 0.000000 
#    y 0.000000 3.584130 0.000000 
#    z 0.000000 0.000000 3.321460 
# 
# 
# High freq. dielectric constant tensor:
#      x y z
#    x 1.728410 0.000000 0.000000 
#    y 0.000000 1.745070 0.000000 
#    z 0.000000 0.000000 1.722540 
# 
# From -- ./inp_files/12784.got.cif
#   From: 2010.03.12/outbox.cif.g09.slc.cpg/sg47_7_cif.got.tgz:12784.got - 2010.04.14 03:12:58.
