data_PCOD8199017
_publ_section_title
;
Structure prediction by ZEFSAII (Michael W. Deem and Ramdas Pophale) SiO2 
 PCOD8199017
Probable space group: P M M M
;
_chemical_formula_sum "Si O2"
_cell_formula_units_Z 48
_cell_length_a 17.235500
_cell_length_b 10.180337
_cell_length_c 13.931992
_cell_angle_alpha 90.000000
_cell_angle_beta 90.000000
_cell_angle_gamma 90.000000
_cell_volume 2444.551876
_symmetry_space_group_name_H-M "P M M M"
_symmetry_group_IT_number 47
_symmetry_cell_setting 'orthorhombic'
loop_
_space_group_symop_operation_xyz
x,y,z
-x,-y,z
x,-y,-z
-x,y,-z
-x,-y,-z
x,y,-z
-x,y,z
x,-y,z
loop_
_atom_site_type_symbol
_atom_site_label
_atom_site_fract_x
_atom_site_fract_y
_atom_site_fract_z
Si Si1 0.408645 0.644328 0.391992
Si Si2 0.084295 0.000000 0.386177
Si Si3 0.092152 0.500000 0.730247
Si Si4 0.838781 0.263966 0.613701
Si Si5 0.221899 0.500000 0.108130
Si Si6 0.500000 0.357133 0.111788
Si Si7 0.667710 0.252389 0.109460
Si Si8 0.309268 0.150506 0.697985
O O1 0.378563 0.669171 0.500000
O O2 0.500000 0.637783 0.389023
O O3 0.376430 0.500000 0.356920
O O4 0.387256 0.770658 0.327264
O O5 0.127106 0.872586 0.348513
O O6 0.080390 0.000000 0.500000
O O7 0.000000 0.000000 0.339443
O O8 0.112432 0.624706 0.665755
O O9 0.145568 0.500000 0.825119
O O10 0.000000 0.500000 0.756291
O O11 0.845370 0.286237 0.500000
O O12 0.750583 0.251406 0.647212
O O13 0.277498 0.623036 0.125355
O O14 0.189166 0.500000 0.000000
O O15 0.500000 0.500000 0.164018
O O16 0.578509 0.280924 0.138488
O O17 0.500000 0.383509 0.000000
O O18 0.698418 0.144613 0.185835
O O19 0.673629 0.199431 0.000000
O O20 0.306518 0.000000 0.658348
#
# Coordination Sequence:
#
# PCOD8199017 Si02
#       8
#     8   4   4   8   4   4   8   8
#     4   9  21  41  62  85 116 159 208 254 300 356
#     4   9  18  36  60  82 112 154 193 232 288 356
#     4  12  25  41  63  96 130 159 197 247 304 362
#     4  11  23  39  60  90 122 158 200 245 298 359
#     4  10  20  39  65  92 122 157 202 254 306 360
#     4   9  16  30  57  91 118 149 196 255 311 364
#     4  10  21  38  60  88 121 157 204 256 310 367
#     4  12  25  39  59  89 123 161 205 252 309 368
#
# _framework density 19.6355
#
# number of rings (size 3 to 8) (size 9 to 14) (size 15 to 20)
#    0.000    1.667    3.333    1.750    3.500    3.167 
#    0.000    0.833    0.000    1.500    0.000    0.000 
#    0.000    5.333    0.000    0.000    0.000    0.000 
#
# Total GULP energy -594728.535364 kJ/mol
# GULP energy per Si atom -12390.177820 kJ/mol
# Density = 1.959081 g / cm^3
# Si number density = 19.635500 Si / 1000 Ang^3
#
#
#
# Elastic Constant Matrix: (Units=GPa)
#
#
# Indices 1 2 3 4 5 6 
#
# 1 93.9900 32.5899 44.7586 0.0000 0.0000 0.0000
# 2 32.5899 107.6150 39.4748 0.0000 0.0000 0.0000
# 3 44.7586 39.4748 99.9283 0.0000 0.0000 0.0000
# 4 0.0000 0.0000 0.0000 22.2037 0.0000 0.0000
# 5 0.0000 0.0000 0.0000 0.0000 26.8667 0.0000
# 6 0.0000 0.0000 0.0000 0.0000 0.0000 23.0663
#
#
#
# Elastic Compliance Matrix: (Units=1/GPa)
#
#
# Indices 1 2 3 4 5 6 
#
# 1 0.013981 -0.002265 -0.005367 0.000000 0.000000 0.000000
# 2 -0.002265 0.011234 -0.003423 0.000000 0.000000 0.000000
# 3 -0.005367 -0.003423 0.013764 0.000000 0.000000 0.000000
# 4 0.000000 0.000000 0.000000 0.045037 0.000000 0.000000
# 5 0.000000 0.000000 0.000000 0.000000 0.037221 0.000000
# 6 0.000000 0.000000 0.000000 0.000000 0.000000 0.043353
#
#
# Mechanical properties :
#
#
# Convention : Reuss Voigt Hill
#
# Bulk Modulus (GPa) = 59.28723 59.46443 59.37583
# Shear Modulus (GPa) = 25.99787 26.74136 26.36961
#
# Velocity S-wave (km/s) = 3.64266 3.69438 3.66861
# Velocity P-wave (km/s) = 6.92470 6.96763 6.94619
#
# Compressibility (1/GPa) = 0.01686704
#
# Stress axis : x y z
#
# Youngs Moduli (GPa) = 71.52680 89.01521 72.65588
#
# Poissons Ratio (x) = 0.20163 0.38997
# Poissons Ratio (y) = 0.16202 0.24872
# Poissons Ratio (z) = 0.38391 0.30472
#
# Static dielectric constant tensor:
#      x y z
#    x 3.717630 0.000000 0.000000 
#    y 0.000000 6.518600 0.000000 
#    z 0.000000 0.000000 3.709410 
# 
# 
# High freq. dielectric constant tensor:
#      x y z
#    x 1.760400 0.000000 0.000000 
#    y 0.000000 1.757590 0.000000 
#    z 0.000000 0.000000 1.763840 
# 
# From -- ./inp_files/24553.got.cif
#   From: 2010.03.12/outbox.cif.g09.slc.cpg/sg47_13_cif.got.tgz:24553.got - 2010.04.14 03:12:58.
