data_PCOD8199754
_publ_section_title
;
Structure prediction by ZEFSAII (Michael W. Deem and Ramdas Pophale) SiO2 
 PCOD8199754
Probable space group: P M M M
;
_chemical_formula_sum "Si O2"
_cell_formula_units_Z 44
_cell_length_a 9.604166
_cell_length_b 28.110282
_cell_length_c 9.042065
_cell_angle_alpha 90.000000
_cell_angle_beta 90.000000
_cell_angle_gamma 90.000000
_cell_volume 2441.138864
_symmetry_space_group_name_H-M "P M M M"
_symmetry_group_IT_number 47
_symmetry_cell_setting 'orthorhombic'
loop_
_space_group_symop_operation_xyz
x,y,z
-x,-y,z
x,-y,-z
-x,y,-z
-x,-y,-z
x,y,-z
-x,y,z
x,-y,z
loop_
_atom_site_type_symbol
_atom_site_label
_atom_site_fract_x
_atom_site_fract_y
_atom_site_fract_z
Si Si1 0.839302 0.321449 0.169699
Si Si2 0.336750 0.500000 0.825156
Si Si3 0.664272 0.869661 0.832307
Si Si4 0.654520 0.764680 0.176044
Si Si5 0.160805 0.418861 0.326034
Si Si6 0.844226 0.053082 0.325276
O O1 0.756545 0.276318 0.234840
O O2 0.802078 0.366262 0.270945
O O3 0.000000 0.308004 0.181237
O O4 0.797454 0.332910 0.000000
O O5 0.500000 0.500000 0.783847
O O6 0.263984 0.546110 0.757652
O O7 0.314357 0.500000 0.000000
O O8 0.500000 0.876729 0.821884
O O9 0.704411 0.816997 0.770940
O O10 0.735964 0.909299 0.734990
O O11 0.716179 0.875516 0.000000
O O12 0.500000 0.753704 0.237104
O O13 0.651967 0.765309 0.000000
O O14 0.187855 0.422538 0.500000
O O15 0.000000 0.431545 0.288319
O O16 0.837986 0.054814 0.500000
O O17 0.000000 0.065714 0.270449
O O18 0.803939 0.000000 0.270145
#
# Coordination Sequence:
#
# PCOD8199754 Si02
#       6
#     8   4   8   8   8   8
#     4   9  17  30  50  75 100 129 168 208 243 286
#     4  11  24  39  56  80 106 133 170 213 254 298
#     4   9  18  32  50  74 102 130 163 204 249 297
#     4   8  15  29  48  70  98 130 162 200 246 292
#     4  10  21  37  56  78 106 139 171 205 250 300
#     4   9  19  35  51  68  94 128 165 205 250 300
#
# _framework density 18.024374000000002
#
# number of rings (size 3 to 8) (size 9 to 14) (size 15 to 20)
#    0.000    2.818    0.000    2.727    0.000    5.818 
#    0.000    7.273    0.000    3.273    0.000    0.000 
#    0.000    0.000    0.000    0.000    0.000    0.000 
#
# Total GULP energy -545485.167412 kJ/mol
# GULP energy per Si atom -12397.390168 kJ/mol
# Density = 1.798335 g / cm^3
# Si number density = 18.024374 Si / 1000 Ang^3
#
#
#
# Elastic Constant Matrix: (Units=GPa)
#
#
# Indices 1 2 3 4 5 6 
#
# 1 83.6385 82.0965 39.5718 0.0000 0.0000 0.0000
# 2 82.0965 152.1682 46.7986 0.0000 0.0000 0.0000
# 3 39.5718 46.7986 53.9123 0.0000 0.0000 0.0000
# 4 0.0000 0.0000 0.0000 -133.2764 0.0000 0.0000
# 5 0.0000 0.0000 0.0000 0.0000 25.2814 0.0000
# 6 0.0000 0.0000 0.0000 0.0000 0.0000 235.7849
#
#
#
# Elastic Compliance Matrix: (Units=1/GPa)
#
#
# Indices 1 2 3 4 5 6 
#
# 1 0.029278 -0.012532 -0.010612 0.000000 0.000000 0.000000
# 2 -0.012532 0.014329 -0.003240 0.000000 0.000000 0.000000
# 3 -0.010612 -0.003240 0.029150 0.000000 0.000000 0.000000
# 4 0.000000 0.000000 0.000000 -0.007503 0.000000 0.000000
# 5 0.000000 0.000000 0.000000 0.000000 0.039555 0.000000
# 6 0.000000 0.000000 0.000000 0.000000 0.000000 0.004241
#
#
# Mechanical properties :
#
#
# Convention : Reuss Voigt Hill
#
# Bulk Modulus (GPa) = 50.02514 69.62808 59.82661
# Shear Modulus (GPa) = 29.67694 33.64146 31.65920
#
# Velocity S-wave (km/s) = 4.06210 4.32492 4.19557
# Velocity P-wave (km/s) = 7.05799 7.97833 7.53223
#
# Compressibility (1/GPa) = 0.01998995
#
# Stress axis : x y z
#
# Youngs Moduli (GPa) = 34.15516 69.78643 34.30546
#
# Poissons Ratio (x) = 0.87459 0.36403
# Poissons Ratio (y) = 0.42805 0.11114
# Poissons Ratio (z) = 0.36244 0.22610
#
# Static dielectric constant tensor:
#      x y z
#    x 3.404520 0.000000 0.000000 
#    y 0.000000 3.542700 0.000000 
#    z 0.000000 0.000000 3.123170 
# 
# 
# High freq. dielectric constant tensor:
#      x y z
#    x 1.695170 0.000000 0.000000 
#    y 0.000000 1.711140 0.000000 
#    z 0.000000 0.000000 1.675440 
# 
# From -- ./inp_files/2164.got.cif
#   From: 2010.03.12/outbox.cif.g09.slc.cpg/sg47_2_cif.got.tgz:2164.got - 2010.04.14 03:12:58.
