data_PCOD8199835
_publ_section_title
;
Structure prediction by ZEFSAII (Michael W. Deem and Ramdas Pophale) SiO2 
 PCOD8199835
Probable space group: P M M M
;
_chemical_formula_sum "Si O2"
_cell_formula_units_Z 64
_cell_length_a 24.274853
_cell_length_b 14.505584
_cell_length_c 9.202528
_cell_angle_alpha 90.000000
_cell_angle_beta 90.000000
_cell_angle_gamma 90.000000
_cell_volume 3240.402619
_symmetry_space_group_name_H-M "P M M M"
_symmetry_group_IT_number 47
_symmetry_cell_setting 'orthorhombic'
loop_
_space_group_symop_operation_xyz
x,y,z
-x,-y,z
x,-y,-z
-x,y,-z
-x,-y,-z
x,y,-z
-x,y,z
x,-y,z
loop_
_atom_site_type_symbol
_atom_site_label
_atom_site_fract_x
_atom_site_fract_y
_atom_site_fract_z
Si Si1 0.741409 0.109645 0.663966
Si Si2 0.758591 0.390355 0.836034
Si Si3 0.847916 0.894695 0.168370
Si Si4 0.936979 0.745657 0.167660
Si Si5 0.133782 0.607742 0.331069
Si Si6 0.347915 0.394695 0.668369
Si Si7 0.366217 0.892258 0.168930
Si Si8 0.563021 0.245656 0.332340
O O1 0.739126 0.147810 0.500000
O O2 0.796503 0.146450 0.741661
O O3 0.687997 0.145826 0.749519
O O4 0.741936 0.000000 0.667753
O O5 0.758065 0.500000 0.832245
O O6 0.812004 0.354173 0.750479
O O7 0.703497 0.353550 0.758341
O O8 0.760875 0.352190 0.000000
O O9 0.901912 0.836255 0.206978
O O10 0.860746 0.000000 0.212701
O O11 0.831817 0.887797 0.000000
O O12 0.918949 0.659907 0.266608
O O13 0.000000 0.769638 0.202725
O O14 0.928837 0.717442 0.000000
O O15 0.140457 0.629863 0.500000
O O16 0.124569 0.500000 0.302724
O O17 0.331815 0.387798 0.500000
O O18 0.360745 0.500000 0.712701
O O19 0.401912 0.336256 0.706973
O O20 0.418948 0.840092 0.233391
O O21 0.375431 0.000000 0.197273
O O22 0.359541 0.870135 0.000000
O O23 0.571160 0.217440 0.500000
O O24 0.500000 0.269637 0.297269
#
# Coordination Sequence:
#
# PCOD8199835 Si02
#       8
#     8   8   8   8   8   8   8   8
#     4   9  17  31  54  83 111 138 172 215 264 319
#     4   9  17  31  54  83 111 138 172 215 264 319
#     4   9  18  34  56  81 110 142 175 215 263 314
#     4  10  22  38  55  78 107 141 183 224 262 310
#     4  10  21  37  57  80 107 140 177 219 268 319
#     4   9  18  34  56  81 110 142 175 215 263 314
#     4  10  21  37  57  80 107 140 177 219 268 319
#     4  10  22  38  55  78 107 141 183 224 262 310
#
# _framework density 19.750630999999998
#
# number of rings (size 3 to 8) (size 9 to 14) (size 15 to 20)
#    0.000    2.500    0.000    1.500    0.000    8.000 
#    0.000    5.000    0.000    0.000    0.000    5.250 
#    0.000    0.000    0.000    0.000    0.000    0.000 
#
# Total GULP energy -793837.825053 kJ/mol
# GULP energy per Si atom -12403.716016 kJ/mol
# Density = 1.970568 g / cm^3
# Si number density = 19.750631 Si / 1000 Ang^3
#
#
#
# Elastic Constant Matrix: (Units=GPa)
#
#
# Indices 1 2 3 4 5 6 
#
# 1 127.1520 36.5646 50.3434 0.0000 0.0000 0.0000
# 2 36.5646 56.3092 36.8906 0.0000 0.0000 0.0000
# 3 50.3434 36.8906 97.3606 0.0000 0.0000 0.0000
# 4 0.0000 0.0000 0.0000 23.0505 0.0000 0.0000
# 5 0.0000 0.0000 0.0000 0.0000 34.2094 0.0000
# 6 0.0000 0.0000 0.0000 0.0000 0.0000 34.0635
#
#
#
# Elastic Compliance Matrix: (Units=1/GPa)
#
#
# Indices 1 2 3 4 5 6 
#
# 1 0.010650 -0.004400 -0.003840 0.000000 0.000000 0.000000
# 2 -0.004400 0.025441 -0.007365 0.000000 0.000000 0.000000
# 3 -0.003840 -0.007365 0.015047 0.000000 0.000000 0.000000
# 4 0.000000 0.000000 0.000000 0.043383 0.000000 0.000000
# 5 0.000000 0.000000 0.000000 0.000000 0.029232 0.000000
# 6 0.000000 0.000000 0.000000 0.000000 0.000000 0.029357
#
#
# Mechanical properties :
#
#
# Convention : Reuss Voigt Hill
#
# Bulk Modulus (GPa) = 50.17710 58.71323 54.44517
# Shear Modulus (GPa) = 26.18315 28.73290 27.45802
#
# Velocity S-wave (km/s) = 3.64495 3.81830 3.73263
# Velocity P-wave (km/s) = 6.57074 7.01648 6.79727
#
# Compressibility (1/GPa) = 0.01992941
#
# Stress axis : x y z
#
# Youngs Moduli (GPa) = 93.89472 39.30630 66.45800
#
# Poissons Ratio (x) = 0.17295 0.25519
# Poissons Ratio (y) = 0.41315 0.48944
# Poissons Ratio (z) = 0.36054 0.28948
#
# Static dielectric constant tensor:
#      x y z
#    x 3.593790 0.000000 0.000000 
#    y 0.000000 3.470670 0.000000 
#    z 0.000000 0.000000 3.649530 
# 
# 
# High freq. dielectric constant tensor:
#      x y z
#    x 1.765970 0.000000 0.000000 
#    y 0.000000 1.764910 0.000000 
#    z 0.000000 0.000000 1.769920 
# 
# From -- ./inp_files/7849.got.cif
#   From: 2010.03.12/outbox.cif.g09.slc.cpg/sg47_4_cif.got.tgz:7849.got - 2010.04.14 03:12:58.
