data_PCOD8199131
_publ_section_title
;
Structure prediction by ZEFSAII (Michael W. Deem and Ramdas Pophale) SiO2 
 PCOD8199131
Probable space group: P M M M
;
_chemical_formula_sum "Si O2"
_cell_formula_units_Z 56
_cell_length_a 14.516651
_cell_length_b 9.246169
_cell_length_c 20.881287
_cell_angle_alpha 90.000000
_cell_angle_beta 90.000000
_cell_angle_gamma 90.000000
_cell_volume 2802.757514
_symmetry_space_group_name_H-M "P M M M"
_symmetry_group_IT_number 47
_symmetry_cell_setting 'orthorhombic'
loop_
_space_group_symop_operation_xyz
x,y,z
-x,-y,z
x,-y,-z
-x,y,-z
-x,-y,-z
x,y,-z
-x,y,z
x,-y,z
loop_
_atom_site_type_symbol
_atom_site_label
_atom_site_fract_x
_atom_site_fract_y
_atom_site_fract_z
Si Si1 0.604127 0.169743 0.384213
Si Si2 0.897680 0.328167 0.683176
Si Si3 0.769439 0.666812 0.429307
Si Si4 0.391186 0.158619 0.757894
Si Si5 0.229178 0.833081 0.928405
Si Si6 0.891112 0.333673 0.826133
Si Si7 0.606546 0.330437 0.879683
O O1 0.500000 0.225721 0.395096
O O2 0.671617 0.252507 0.431829
O O3 0.640763 0.206431 0.312593
O O4 0.608865 0.000000 0.397608
O O5 0.902901 0.500000 0.678811
O O6 0.834724 0.265154 0.625852
O O7 0.860720 0.285041 0.754169
O O8 0.000000 0.263681 0.673469
O O9 0.814877 0.685138 0.500000
O O10 0.750592 0.500000 0.413850
O O11 0.500000 0.144177 0.755664
O O12 0.360990 0.279155 0.809023
O O13 0.350200 0.000000 0.776214
O O14 0.159214 0.764417 0.878016
O O15 0.328531 0.753543 0.929075
O O16 0.244106 0.000000 0.910664
O O17 0.188049 0.816455 0.000000
O O18 0.863285 0.500000 0.838412
O O19 0.000000 0.313029 0.833887
O O20 0.500000 0.290791 0.893586
O O21 0.623443 0.500000 0.885411
#
# Coordination Sequence:
#
# PCOD8199131 Si02
#       7
#     8   8   8   8   8   8   8
#     4   9  19  35  53  74 105 148 193 233 276 331
#     4   8  16  34  59  85 112 142 179 225 278 336
#     4  10  21  34  51  81 116 148 186 233 282 329
#     4   8  15  30  51  75 103 136 179 230 281 331
#     4  11  25  41  57  82 117 156 194 233 280 335
#     4   9  19  38  64  90 114 143 184 237 291 341
#     4  10  21  36  56  83 114 149 190 236 284 335
#
# _framework density 19.980322999999999
#
# number of rings (size 3 to 8) (size 9 to 14) (size 15 to 20)
#    0.000    2.714    0.000    2.571    2.000    4.571 
#    0.000    7.143    0.000    1.286    0.000    1.000 
#    0.000    0.000    0.000    0.000    0.000    0.000 
#
# Total GULP energy -694147.779125 kJ/mol
# GULP energy per Si atom -12395.496056 kJ/mol
# Density = 1.993485 g / cm^3
# Si number density = 19.980323 Si / 1000 Ang^3
#
#
#
# Elastic Constant Matrix: (Units=GPa)
#
#
# Indices 1 2 3 4 5 6 
#
# 1 81.0276 38.1270 59.5980 0.0000 0.0000 0.0000
# 2 38.1270 77.5746 50.1385 0.0000 0.0000 0.0000
# 3 59.5980 50.1385 131.4323 0.0000 0.0000 0.0000
# 4 0.0000 0.0000 0.0000 23.5489 0.0000 0.0000
# 5 0.0000 0.0000 0.0000 0.0000 25.4403 0.0000
# 6 0.0000 0.0000 0.0000 0.0000 0.0000 21.2309
#
#
#
# Elastic Compliance Matrix: (Units=1/GPa)
#
#
# Indices 1 2 3 4 5 6 
#
# 1 0.020020 -0.005272 -0.007067 0.000000 0.000000 0.000000
# 2 -0.005272 0.018498 -0.004666 0.000000 0.000000 0.000000
# 3 -0.007067 -0.004666 0.012593 0.000000 0.000000 0.000000
# 4 0.000000 0.000000 0.000000 0.042465 0.000000 0.000000
# 5 0.000000 0.000000 0.000000 0.000000 0.039308 0.000000
# 6 0.000000 0.000000 0.000000 0.000000 0.000000 0.047101
#
#
# Mechanical properties :
#
#
# Convention : Reuss Voigt Hill
#
# Bulk Modulus (GPa) = 58.47624 65.08461 61.78042
# Shear Modulus (GPa) = 22.75887 23.52207 23.14047
#
# Velocity S-wave (km/s) = 3.37866 3.43485 3.40687
# Velocity P-wave (km/s) = 6.67465 6.95528 6.81641
#
# Compressibility (1/GPa) = 0.01710096
#
# Stress axis : x y z
#
# Youngs Moduli (GPa) = 49.94958 54.06098 79.40986
#
# Poissons Ratio (x) = 0.28502 0.56119
# Poissons Ratio (y) = 0.26334 0.37051
# Poissons Ratio (z) = 0.35299 0.25224
#
# Static dielectric constant tensor:
#      x y z
#    x 3.575410 0.000000 0.000000 
#    y 0.000000 3.381300 0.000000 
#    z 0.000000 0.000000 3.806520 
# 
# 
# High freq. dielectric constant tensor:
#      x y z
#    x 1.770080 0.000000 0.000000 
#    y 0.000000 1.757420 0.000000 
#    z 0.000000 0.000000 1.784990 
# 
# From -- ./inp_files/29711.got.cif
#   From: 2010.03.12/outbox.cif.g09.slc.cpg/sg47_15_cif.got.tgz:29711.got - 2010.04.14 03:12:58.
