data_PCOD8199150
_publ_section_title
;
Structure prediction by ZEFSAII (Michael W. Deem and Ramdas Pophale) SiO2 
 PCOD8199150
Probable space group: P M M M
;
_chemical_formula_sum "Si O2"
_cell_formula_units_Z 44
_cell_length_a 9.192178
_cell_length_b 9.211233
_cell_length_c 28.897260
_cell_angle_alpha 90.000000
_cell_angle_beta 90.000000
_cell_angle_gamma 90.000000
_cell_volume 2446.768378
_symmetry_space_group_name_H-M "P M M M"
_symmetry_group_IT_number 47
_symmetry_cell_setting 'orthorhombic'
loop_
_space_group_symop_operation_xyz
x,y,z
-x,-y,z
x,-y,-z
-x,y,-z
-x,-y,-z
x,y,-z
-x,y,z
x,-y,z
loop_
_atom_site_type_symbol
_atom_site_label
_atom_site_fract_x
_atom_site_fract_y
_atom_site_fract_z
Si Si1 0.664322 0.172874 0.089159
Si Si2 0.164668 0.173257 0.000000
Si Si3 0.662556 0.827782 0.548935
Si Si4 0.673694 0.834509 0.648686
Si Si5 0.168705 0.168749 0.179444
Si Si6 0.831994 0.330364 0.728609
O O1 0.500000 0.232705 0.087206
O O2 0.752771 0.233789 0.045208
O O3 0.740394 0.228451 0.135965
O O4 0.665829 0.000000 0.088034
O O5 0.000000 0.232620 0.000000
O O6 0.164851 0.000000 0.000000
O O7 0.741842 0.779573 0.500000
O O8 0.500000 0.763870 0.547161
O O9 0.734482 0.780178 0.597938
O O10 0.654058 0.000000 0.550742
O O11 0.500000 0.824150 0.649359
O O12 0.739059 0.727995 0.686242
O O13 0.723250 0.000000 0.658886
O O14 0.222252 0.255028 0.224399
O O15 0.000000 0.197562 0.168666
O O16 0.199636 0.000000 0.188542
O O17 0.804600 0.500000 0.733735
O O18 0.000000 0.292760 0.719467
#
# Coordination Sequence:
#
# PCOD8199150 Si02
#       6
#     8   4   8   8   8   8
#     4   9  16  25  39  62  91 119 147 183 226 269
#     4   9  15  23  37  59  90 125 154 179 214 264
#     4   7  10  19  38  65  94 119 144 180 227 275
#     4   9  17  29  48  74  98 120 151 192 236 281
#     4   9  17  30  47  65  86 115 152 191 230 273
#     4  10  21  35  49  66  91 125 162 197 235 281
#
# _framework density 17.982904000000001
#
# number of rings (size 3 to 8) (size 9 to 14) (size 15 to 20)
#    0.000    3.182    0.000    3.000    0.000    5.455 
#    0.000    1.818    0.000    1.091    0.000    7.000 
#    0.000    5.091    0.000    0.000    0.000    0.000 
#
# Total GULP energy -545163.121797 kJ/mol
# GULP energy per Si atom -12390.070950 kJ/mol
# Density = 1.794197 g / cm^3
# Si number density = 17.982904 Si / 1000 Ang^3
#
#
#
# Elastic Constant Matrix: (Units=GPa)
#
#
# Indices 1 2 3 4 5 6 
#
# 1 74.2323 20.6362 70.0013 0.0000 0.0000 0.0000
# 2 20.6362 35.1979 42.8766 0.0000 0.0000 0.0000
# 3 70.0013 42.8766 203.7423 0.0000 0.0000 0.0000
# 4 0.0000 0.0000 0.0000 -0.4589 0.0000 0.0000
# 5 0.0000 0.0000 0.0000 0.0000 13.0753 0.0000
# 6 0.0000 0.0000 0.0000 0.0000 0.0000 14.6823
#
#
#
# Elastic Compliance Matrix: (Units=1/GPa)
#
#
# Indices 1 2 3 4 5 6 
#
# 1 0.020471 -0.004618 -0.006062 0.000000 0.000000 0.000000
# 2 -0.004618 0.039247 -0.006673 0.000000 0.000000 0.000000
# 3 -0.006062 -0.006673 0.008395 0.000000 0.000000 0.000000
# 4 0.000000 0.000000 0.000000 -2.179031 0.000000 0.000000
# 5 0.000000 0.000000 0.000000 0.000000 0.076480 0.000000
# 6 0.000000 0.000000 0.000000 0.000000 0.000000 0.068109
#
#
# Mechanical properties :
#
#
# Convention : Reuss Voigt Hill
#
# Bulk Modulus (GPa) = 29.93271 64.46673 47.19972
# Shear Modulus (GPa) = -2.60350 17.43697 7.41674
#
# Velocity S-wave (km/s) = -1.20454 3.11729 2.03305
# Velocity P-wave (km/s) = 3.84014 6.99166 5.64048
#
# Compressibility (1/GPa) = 0.03340827
#
# Stress axis : x y z
#
# Youngs Moduli (GPa) = 48.84943 25.47989 119.11870
#
# Poissons Ratio (x) = 0.11767 0.72204
# Poissons Ratio (y) = 0.22559 0.79483
# Poissons Ratio (z) = 0.29610 0.17002
#
# Static dielectric constant tensor:
#      x y z
#    x 3.147960 0.000000 0.000000 
#    y 0.000000 2.793690 0.000000 
#    z 0.000000 0.000000 3.835270 
# 
# 
# High freq. dielectric constant tensor:
#      x y z
#    x 1.670560 0.000000 0.000000 
#    y 0.000000 1.637030 0.000000 
#    z 0.000000 0.000000 1.725130 
# 
# From -- ./inp_files/2253.got.cif
#   From: 2010.03.12/outbox.cif.g09.slc.cpg/sg47_2_cif.got.tgz:2253.got - 2010.04.14 03:12:58.
