data_PCOD8199739
_publ_section_title
;
Structure prediction by ZEFSAII (Michael W. Deem and Ramdas Pophale) SiO2 
 PCOD8199739
Probable space group: P M M M
;
_chemical_formula_sum "Si O2"
_cell_formula_units_Z 44
_cell_length_a 28.251244
_cell_length_b 8.690383
_cell_length_c 9.796311
_cell_angle_alpha 90.000000
_cell_angle_beta 90.000000
_cell_angle_gamma 90.000000
_cell_volume 2405.132778
_symmetry_space_group_name_H-M "P M M M"
_symmetry_group_IT_number 47
_symmetry_cell_setting 'orthorhombic'
loop_
_space_group_symop_operation_xyz
x,y,z
-x,-y,z
x,-y,-z
-x,y,-z
-x,-y,-z
x,y,-z
-x,y,z
x,-y,z
loop_
_atom_site_type_symbol
_atom_site_label
_atom_site_fract_x
_atom_site_fract_y
_atom_site_fract_z
Si Si1 0.920458 0.680705 0.655548
Si Si2 0.737751 0.817134 0.153101
Si Si3 0.000000 0.181760 0.156391
Si Si4 0.552369 0.816869 0.652933
Si Si5 0.633037 0.816758 0.846935
Si Si6 0.820715 0.178205 0.343334
O O1 0.932257 0.734436 0.500000
O O2 0.927717 0.500000 0.668968
O O3 0.867019 0.724590 0.693305
O O4 0.953830 0.762239 0.764148
O O5 0.685425 0.760172 0.199123
O O6 0.777657 0.752298 0.254623
O O7 0.738551 0.000000 0.157108
O O8 0.748747 0.758701 0.000000
O O9 0.000000 0.000000 0.155206
O O10 0.000000 0.244480 0.000000
O O11 0.561500 0.756390 0.500000
O O12 0.500000 0.764507 0.702711
O O13 0.592811 0.744359 0.749536
O O14 0.555198 0.000000 0.655415
O O15 0.631188 0.000000 0.841546
O O16 0.622668 0.759261 0.000000
O O17 0.806075 0.199298 0.500000
O O18 0.830927 0.000000 0.308955
#
# Coordination Sequence:
#
# PCOD8199739 Si02
#       6
#     8   8   4   8   8   8
#     4  10  21  37  56  77 102 132 163 195 234 279
#     4   8  14  24  37  54  77 104 135 175 222 267
#     4  11  24  39  56  80 106 131 162 199 236 274
#     4   8  13  19  25  35  54  82 118 161 208 256
#     4   8  13  20  29  42  61  87 122 164 209 256
#     4   9  17  29  46  68  91 116 150 189 226 268
#
# _framework density 18.294207
#
# number of rings (size 3 to 8) (size 9 to 14) (size 15 to 20)
#    0.000    3.182    0.000    2.727    0.000    4.727 
#    0.000    7.273    0.000    0.000    0.000    0.000 
#    0.000    0.000    0.000    0.000    0.000    0.909 
#
# Total GULP energy -545339.225686 kJ/mol
# GULP energy per Si atom -12394.073311 kJ/mol
# Density = 1.825257 g / cm^3
# Si number density = 18.294207 Si / 1000 Ang^3
#
#
#
# Elastic Constant Matrix: (Units=GPa)
#
#
# Indices 1 2 3 4 5 6 
#
# 1 163.9032 18.6414 107.9993 0.0000 0.0000 0.0000
# 2 18.6414 21.2011 20.4556 0.0000 0.0000 0.0000
# 3 107.9993 20.4556 126.8284 0.0000 0.0000 0.0000
# 4 0.0000 0.0000 0.0000 10.3764 0.0000 0.0000
# 5 0.0000 0.0000 0.0000 0.0000 40.7548 0.0000
# 6 0.0000 0.0000 0.0000 0.0000 0.0000 -3.8526
#
#
#
# Elastic Compliance Matrix: (Units=1/GPa)
#
#
# Indices 1 2 3 4 5 6 
#
# 1 0.013917 -0.000951 -0.011698 0.000000 0.000000 0.000000
# 2 -0.000951 0.055925 -0.008210 0.000000 0.000000 0.000000
# 3 -0.011698 -0.008210 0.019170 0.000000 0.000000 0.000000
# 4 0.000000 0.000000 0.000000 0.096373 0.000000 0.000000
# 5 0.000000 0.000000 0.000000 0.000000 0.024537 0.000000
# 6 0.000000 0.000000 0.000000 0.000000 0.000000 -0.259565
#
#
# Mechanical properties :
#
#
# Convention : Reuss Voigt Hill
#
# Bulk Modulus (GPa) = 21.14403 67.34726 44.24565
# Shear Modulus (GPa) = 637.90937 20.44482 329.17709
#
# Velocity S-wave (km/s) = 18.69363 3.34662 13.42854
# Velocity P-wave (km/s) = 21.85220 7.19906 16.26876
#
# Compressibility (1/GPa) = 0.04729467
#
# Stress axis : x y z
#
# Youngs Moduli (GPa) = 71.85414 17.88110 52.16519
#
# Poissons Ratio (x) = 0.01700 0.61021
# Poissons Ratio (y) = 0.06830 0.42830
# Poissons Ratio (z) = 0.84052 0.14681
#
# Static dielectric constant tensor:
#      x y z
#    x 3.740730 0.000000 0.000000 
#    y 0.000000 2.782060 0.000000 
#    z 0.000000 0.000000 3.616500 
# 
# 
# High freq. dielectric constant tensor:
#      x y z
#    x 1.723350 0.000000 0.000000 
#    y 0.000000 1.648630 0.000000 
#    z 0.000000 0.000000 1.708670 
# 
# From -- ./inp_files/13562.got.cif
#   From: 2010.03.12/outbox.cif.g09.slc.cpg/sg47_7_cif.got.tgz:13562.got - 2010.04.14 03:12:58.
