data_PCOD8199339
_publ_section_title
;
Structure prediction by ZEFSAII (Michael W. Deem and Ramdas Pophale) SiO2 
 PCOD8199339
Probable space group: P M M M
;
_chemical_formula_sum "Si O2"
_cell_formula_units_Z 48
_cell_length_a 32.514388
_cell_length_b 8.002013
_cell_length_c 9.229034
_cell_angle_alpha 90.000000
_cell_angle_beta 90.000000
_cell_angle_gamma 90.000000
_cell_volume 2401.215193
_symmetry_space_group_name_H-M "P M M M"
_symmetry_group_IT_number 47
_symmetry_cell_setting 'orthorhombic'
loop_
_space_group_symop_operation_xyz
x,y,z
-x,-y,z
x,-y,-z
-x,y,-z
-x,-y,-z
x,y,-z
-x,y,z
x,-y,z
loop_
_atom_site_type_symbol
_atom_site_label
_atom_site_fract_x
_atom_site_fract_y
_atom_site_fract_z
Si Si1 0.655326 0.307121 0.659870
Si Si2 0.046166 0.000000 0.672244
Si Si3 0.100604 0.309641 0.328640
Si Si4 0.420445 0.303577 0.161509
Si Si5 0.730125 0.808665 0.835931
Si Si6 0.817695 0.694505 0.163907
Si Si7 0.500000 0.197177 0.665265
O O1 0.655758 0.222437 0.500000
O O2 0.644845 0.500000 0.641225
O O3 0.619509 0.224345 0.758465
O O4 0.699720 0.292116 0.733262
O O5 0.067903 0.171416 0.727107
O O6 0.045670 0.000000 0.500000
O O7 0.000000 0.000000 0.735183
O O8 0.104455 0.303657 0.500000
O O9 0.088333 0.500000 0.278925
O O10 0.144327 0.254903 0.264482
O O11 0.414980 0.500000 0.146279
O O12 0.460338 0.265596 0.254436
O O13 0.424050 0.224699 0.000000
O O14 0.776934 0.788799 0.780327
O O15 0.716906 0.000000 0.829787
O O16 0.726918 0.738100 0.000000
O O17 0.808167 0.500000 0.174427
O O18 0.828592 0.748426 0.000000
O O19 0.500000 0.262857 0.500000
O O20 0.500000 0.000000 0.670506
#
# Coordination Sequence:
#
# PCOD8199339 Si02
#       7
#     8   4   8   8   8   8   4
#     4  10  21  37  57  80 106 139 178 219 265 315
#     4   9  18  32  51  77 107 139 177 223 275 326
#     4   9  18  32  51  76 104 136 177 223 270 323
#     4  10  21  38  61  85 107 137 179 223 267 318
#     4  10  21  35  52  77 107 140 178 217 261 317
#     4   9  18  33  53  76 103 137 175 217 265 315
#     4  11  24  39  56  82 114 145 176 215 266 320
#
# _framework density 19.989879999999999
#
# number of rings (size 3 to 8) (size 9 to 14) (size 15 to 20)
#    0.000    2.333    0.000    2.000    1.167    6.333 
#    0.000    3.333    0.000    1.000    0.000    2.333 
#    0.000    0.000    0.000    0.000    0.000    0.000 
#
# Total GULP energy -595123.989248 kJ/mol
# GULP energy per Si atom -12398.416443 kJ/mol
# Density = 1.994438 g / cm^3
# Si number density = 19.989880 Si / 1000 Ang^3
#
#
#
# Elastic Constant Matrix: (Units=GPa)
#
#
# Indices 1 2 3 4 5 6 
#
# 1 159.1147 41.9043 68.8048 0.0000 0.0000 0.0000
# 2 41.9043 55.0708 26.7831 0.0000 0.0000 0.0000
# 3 68.8048 26.7831 108.9798 0.0000 0.0000 0.0000
# 4 0.0000 0.0000 0.0000 17.5103 0.0000 0.0000
# 5 0.0000 0.0000 0.0000 0.0000 15.8689 0.0000
# 6 0.0000 0.0000 0.0000 0.0000 0.0000 -86.5588
#
#
#
# Elastic Compliance Matrix: (Units=1/GPa)
#
#
# Indices 1 2 3 4 5 6 
#
# 1 0.009729 -0.005015 -0.004910 0.000000 0.000000 0.000000
# 2 -0.005015 0.023208 -0.002538 0.000000 0.000000 0.000000
# 3 -0.004910 -0.002538 0.012899 0.000000 0.000000 0.000000
# 4 0.000000 0.000000 0.000000 0.057109 0.000000 0.000000
# 5 0.000000 0.000000 0.000000 0.000000 0.063016 0.000000
# 6 0.000000 0.000000 0.000000 0.000000 0.000000 -0.011553
#
#
# Mechanical properties :
#
#
# Convention : Reuss Voigt Hill
#
# Bulk Modulus (GPa) = 47.81921 66.46108 57.14014
# Shear Modulus (GPa) = 26.83781 1.74228 14.29004
#
# Velocity S-wave (km/s) = 3.66808 0.93460 2.67659
# Velocity P-wave (km/s) = 6.47406 5.87232 6.18052
#
# Compressibility (1/GPa) = 0.02091210
#
# Stress axis : x y z
#
# Youngs Moduli (GPa) = 102.79033 43.08778 77.52280
#
# Poissons Ratio (x) = 0.21608 0.38061
# Poissons Ratio (y) = 0.51548 0.19672
# Poissons Ratio (z) = 0.50467 0.10934
#
# Static dielectric constant tensor:
#      x y z
#    x 3.673120 0.000000 0.000000 
#    y 0.000000 3.594670 0.000000 
#    z 0.000000 0.000000 3.776650 
# 
# 
# High freq. dielectric constant tensor:
#      x y z
#    x 1.782230 0.000000 0.000000 
#    y 0.000000 1.771370 0.000000 
#    z 0.000000 0.000000 1.771600 
# 
# From -- ./inp_files/13861.got.cif
#   From: 2010.03.12/outbox.cif.g09.slc.cpg/sg47_7_cif.got.tgz:13861.got - 2010.04.14 03:12:58.
