data_PCOD8199483
_publ_section_title
;
Structure prediction by ZEFSAII (Michael W. Deem and Ramdas Pophale) SiO2 
 PCOD8199483
Probable space group: P M M M
;
_chemical_formula_sum "Si O2"
_cell_formula_units_Z 56
_cell_length_a 9.367650
_cell_length_b 15.210391
_cell_length_c 19.878263
_cell_angle_alpha 90.000000
_cell_angle_beta 90.000000
_cell_angle_gamma 90.000000
_cell_volume 2832.366613
_symmetry_space_group_name_H-M "P M M M"
_symmetry_group_IT_number 47
_symmetry_cell_setting 'orthorhombic'
loop_
_space_group_symop_operation_xyz
x,y,z
-x,-y,z
x,-y,-z
-x,y,-z
-x,-y,-z
x,y,-z
-x,y,z
x,-y,z
loop_
_atom_site_type_symbol
_atom_site_label
_atom_site_fract_x
_atom_site_fract_y
_atom_site_fract_z
Si Si1 0.159665 0.340462 0.613221
Si Si2 0.161242 0.860905 0.576369
Si Si3 0.660243 0.235672 0.182051
Si Si4 0.351088 0.403824 0.500000
Si Si5 0.166194 0.674305 0.078645
Si Si6 0.661467 0.500000 0.920963
Si Si7 0.337027 0.098246 0.294091
Si Si8 0.657262 0.399630 0.731198
O O1 0.164496 0.242246 0.587038
O O2 0.257699 0.396167 0.565628
O O3 0.221934 0.353792 0.686815
O O4 0.000000 0.377684 0.611913
O O5 0.216522 0.882333 0.500000
O O6 0.256423 0.903621 0.634381
O O7 0.000000 0.896588 0.584023
O O8 0.500000 0.204038 0.161517
O O9 0.766079 0.240955 0.117880
O O10 0.722393 0.168686 0.239396
O O11 0.652577 0.336994 0.204762
O O12 0.410882 0.500000 0.500000
O O13 0.500000 0.345661 0.500000
O O14 0.248833 0.585760 0.100356
O O15 0.000000 0.663918 0.098129
O O16 0.184396 0.693994 0.000000
O O17 0.500000 0.500000 0.888108
O O18 0.641338 0.500000 0.000000
O O19 0.500000 0.123903 0.310141
O O20 0.324537 0.000000 0.263288
O O21 0.500000 0.399035 0.696087
O O22 0.698280 0.500000 0.751889
#
# Coordination Sequence:
#
# PCOD8199483 Si02
#       8
#     8   8   8   4   8   4   8   8
#     4  11  21  35  53  75 105 142 185 233 281 334
#     4  10  21  38  58  82 112 146 185 230 286 350
#     4  10  21  37  59  85 114 152 193 237 289 344
#     4  11  23  35  49  71 100 141 190 235 283 336
#     4  10  21  36  55  84 122 160 199 243 287 334
#     4   9  17  31  53  81 117 163 208 243 280 331
#     4  10  22  41  64  89 114 143 186 238 291 348
#     4  10  21  36  53  77 110 147 188 232 280 335
#
# _framework density 19.771450999999999
#
# number of rings (size 3 to 8) (size 9 to 14) (size 15 to 20)
#    0.000    1.857    2.143    1.714    1.000    6.857 
#    0.000    1.429    0.000    0.429    0.000    3.000 
#    0.000    0.000    0.000    0.000    0.000    0.000 
#
# Total GULP energy -693872.699517 kJ/mol
# GULP energy per Si atom -12390.583920 kJ/mol
# Density = 1.972645 g / cm^3
# Si number density = 19.771451 Si / 1000 Ang^3
#
#
#
# Elastic Constant Matrix: (Units=GPa)
#
#
# Indices 1 2 3 4 5 6 
#
# 1 125.0415 32.0338 51.3239 0.0000 0.0000 0.0000
# 2 32.0338 81.2882 44.7373 0.0000 0.0000 0.0000
# 3 51.3239 44.7373 86.0468 0.0000 0.0000 0.0000
# 4 0.0000 0.0000 0.0000 20.5073 0.0000 0.0000
# 5 0.0000 0.0000 0.0000 0.0000 34.0861 0.0000
# 6 0.0000 0.0000 0.0000 0.0000 0.0000 14.1411
#
#
#
# Elastic Compliance Matrix: (Units=1/GPa)
#
#
# Indices 1 2 3 4 5 6 
#
# 1 0.010646 -0.000981 -0.005839 0.000000 0.000000 0.000000
# 2 -0.000981 0.017323 -0.008421 0.000000 0.000000 0.000000
# 3 -0.005839 -0.008421 0.019483 0.000000 0.000000 0.000000
# 4 0.000000 0.000000 0.000000 0.048763 0.000000 0.000000
# 5 0.000000 0.000000 0.000000 0.000000 0.029337 0.000000
# 6 0.000000 0.000000 0.000000 0.000000 0.000000 0.070716
#
#
# Mechanical properties :
#
#
# Convention : Reuss Voigt Hill
#
# Bulk Modulus (GPa) = 58.93606 60.95182 59.94394
# Shear Modulus (GPa) = 21.51382 24.69900 23.10641
#
# Velocity S-wave (km/s) = 3.30225 3.53827 3.42230
# Velocity P-wave (km/s) = 6.66432 6.89838 6.78236
#
# Compressibility (1/GPa) = 0.01696754
#
# Stress axis : x y z
#
# Youngs Moduli (GPa) = 93.93541 57.72544 51.32670
#
# Poissons Ratio (x) = 0.05665 0.29972
# Poissons Ratio (y) = 0.09219 0.43224
# Poissons Ratio (z) = 0.54853 0.48613
#
# Static dielectric constant tensor:
#      x y z
#    x 3.775910 0.000000 0.000000 
#    y 0.000000 3.484660 0.000000 
#    z 0.000000 0.000000 3.570100 
# 
# 
# High freq. dielectric constant tensor:
#      x y z
#    x 1.777510 0.000000 0.000000 
#    y 0.000000 1.752490 0.000000 
#    z 0.000000 0.000000 1.761490 
# 
# From -- ./inp_files/29800.got.cif
#   From: 2010.03.12/outbox.cif.g09.slc.cpg/sg47_15_cif.got.tgz:29800.got - 2010.04.14 03:12:58.
