data_PCOD8199650
_publ_section_title
;
Structure prediction by ZEFSAII (Michael W. Deem and Ramdas Pophale) SiO2 
 PCOD8199650
Probable space group: P M M M
;
_chemical_formula_sum "Si O2"
_cell_formula_units_Z 48
_cell_length_a 8.896012
_cell_length_b 29.423712
_cell_length_c 9.946693
_cell_angle_alpha 90.000000
_cell_angle_beta 90.000000
_cell_angle_gamma 90.000000
_cell_volume 2603.583646
_symmetry_space_group_name_H-M "P M M M"
_symmetry_group_IT_number 47
_symmetry_cell_setting 'orthorhombic'
loop_
_space_group_symop_operation_xyz
x,y,z
-x,-y,z
x,-y,-z
-x,y,-z
-x,-y,-z
x,y,-z
-x,y,z
x,-y,z
loop_
_atom_site_type_symbol
_atom_site_label
_atom_site_fract_x
_atom_site_fract_y
_atom_site_fract_z
Si Si1 0.676392 0.270655 0.844115
Si Si2 0.832163 0.946750 0.500000
Si Si3 0.331058 0.549850 0.840123
Si Si4 0.678323 0.897379 0.263822
Si Si5 0.677971 0.051199 0.000000
Si Si6 0.833519 0.362670 0.841143
Si Si7 0.822260 0.196405 0.344073
O O1 0.500000 0.264620 0.821183
O O2 0.723256 0.321549 0.802852
O O3 0.765168 0.238003 0.744574
O O4 0.719108 0.260366 0.000000
O O5 0.737104 0.931959 0.373368
O O6 0.000000 0.924507 0.500000
O O7 0.848033 0.000000 0.500000
O O8 0.500000 0.556045 0.785376
O O9 0.268629 0.500000 0.796419
O O10 0.229395 0.590195 0.778699
O O11 0.332685 0.553251 0.000000
O O12 0.500000 0.892438 0.272430
O O13 0.733886 0.919639 0.125840
O O14 0.750038 0.848317 0.281422
O O15 0.500000 0.046769 0.000000
O O16 0.747294 0.000000 0.000000
O O17 0.000000 0.353666 0.781796
O O18 0.842603 0.367585 0.000000
O O19 0.773046 0.202154 0.500000
O O20 0.000000 0.193055 0.331853
#
# Coordination Sequence:
#
# PCOD8199650 Si02
#       7
#     8   4   8   8   4   8   8
#     4  10  21  36  56  80 106 139 182 227 271 323
#     4  11  23  39  59  85 117 149 183 223 266 315
#     4   8  13  21  34  54  85 128 174 217 263 316
#     4  11  22  38  62  87 112 145 184 223 267 319
#     4   9  20  38  59  87 119 145 177 223 266 307
#     4   9  16  26  41  64  96 132 172 218 270 324
#     4  11  24  41  59  81 112 144 177 222 277 328
#
# _framework density 18.436126999999999
#
# number of rings (size 3 to 8) (size 9 to 14) (size 15 to 20)
#    0.000    2.167    0.833    3.250    1.167    5.667 
#    0.000    2.917    0.000    3.000    0.000    0.000 
#    0.000    0.667    0.000    7.000    0.000    9.667 
#
# Total GULP energy -595055.369305 kJ/mol
# GULP energy per Si atom -12396.986861 kJ/mol
# Density = 1.839417 g / cm^3
# Si number density = 18.436127 Si / 1000 Ang^3
#
#
#
# Elastic Constant Matrix: (Units=GPa)
#
#
# Indices 1 2 3 4 5 6 
#
# 1 82.9527 50.3205 39.1187 0.0000 0.0000 0.0000
# 2 50.3205 143.3509 59.5338 0.0000 0.0000 0.0000
# 3 39.1187 59.5338 100.5603 0.0000 0.0000 0.0000
# 4 0.0000 0.0000 0.0000 14.1375 0.0000 0.0000
# 5 0.0000 0.0000 0.0000 0.0000 18.4672 0.0000
# 6 0.0000 0.0000 0.0000 0.0000 0.0000 29.2264
#
#
#
# Elastic Compliance Matrix: (Units=1/GPa)
#
#
# Indices 1 2 3 4 5 6 
#
# 1 0.016417 -0.004125 -0.003944 0.000000 0.000000 0.000000
# 2 -0.004125 0.010287 -0.004485 0.000000 0.000000 0.000000
# 3 -0.003944 -0.004485 0.014134 0.000000 0.000000 0.000000
# 4 0.000000 0.000000 0.000000 0.070734 0.000000 0.000000
# 5 0.000000 0.000000 0.000000 0.000000 0.054150 0.000000
# 6 0.000000 0.000000 0.000000 0.000000 0.000000 0.034216
#
#
# Mechanical properties :
#
#
# Convention : Reuss Voigt Hill
#
# Bulk Modulus (GPa) = 63.57749 69.42334 66.50042
# Shear Modulus (GPa) = 21.71177 24.22562 22.96869
#
# Velocity S-wave (km/s) = 3.43545 3.62889 3.53349
# Velocity P-wave (km/s) = 7.09201 7.43615 7.26612
#
# Compressibility (1/GPa) = 0.01572884
#
# Stress axis : x y z
#
# Youngs Moduli (GPa) = 60.91096 97.21411 70.75092
#
# Poissons Ratio (x) = 0.40099 0.27908
# Poissons Ratio (y) = 0.25125 0.31734
# Poissons Ratio (z) = 0.24026 0.43603
#
# Static dielectric constant tensor:
#      x y z
#    x 3.557040 0.000000 0.000000 
#    y 0.000000 3.699580 0.000000 
#    z 0.000000 0.000000 3.043080 
# 
# 
# High freq. dielectric constant tensor:
#      x y z
#    x 1.720040 0.000000 0.000000 
#    y 0.000000 1.733600 0.000000 
#    z 0.000000 0.000000 1.673950 
# 
# From -- ./inp_files/2729.got.cif
#   From: 2010.03.12/outbox.cif.g09.slc.cpg/sg47_2_cif.got.tgz:2729.got - 2010.04.14 03:12:58.
