data_PCOD8199420
_publ_section_title
;
Structure prediction by ZEFSAII (Michael W. Deem and Ramdas Pophale) SiO2 
 PCOD8199420
Probable space group: P M M M
;
_chemical_formula_sum "Si O2"
_cell_formula_units_Z 40
_cell_length_a 8.857231
_cell_length_b 14.599685
_cell_length_c 16.054706
_cell_angle_alpha 90.000000
_cell_angle_beta 90.000000
_cell_angle_gamma 90.000000
_cell_volume 2076.078706
_symmetry_space_group_name_H-M "P M M M"
_symmetry_group_IT_number 47
_symmetry_cell_setting 'orthorhombic'
loop_
_space_group_symop_operation_xyz
x,y,z
-x,-y,z
x,-y,-z
-x,y,-z
-x,-y,-z
x,y,-z
-x,y,z
x,-y,z
loop_
_atom_site_type_symbol
_atom_site_label
_atom_site_fract_x
_atom_site_fract_y
_atom_site_fract_z
Si Si1 0.172121 0.746040 0.715776
Si Si2 0.327309 0.104440 0.175534
Si Si3 0.330342 0.663060 0.000000
Si Si4 0.822933 0.850022 0.000000
Si Si5 0.165469 0.597644 0.853940
Si Si6 0.325780 0.603061 0.597699
O O1 0.256331 0.837398 0.747841
O O2 0.185529 0.679609 0.792548
O O3 0.242194 0.690014 0.638824
O O4 0.000000 0.771598 0.693280
O O5 0.500000 0.136461 0.163047
O O6 0.246303 0.110321 0.085506
O O7 0.317685 0.000000 0.205946
O O8 0.300241 0.601092 0.079967
O O9 0.500000 0.701498 0.000000
O O10 0.206628 0.742659 0.000000
O O11 0.000000 0.871763 0.000000
O O12 0.181597 0.500000 0.806839
O O13 0.000000 0.603960 0.896780
O O14 0.303262 0.616021 0.500000
O O15 0.500000 0.609726 0.623251
O O16 0.266219 0.500000 0.622853
#
# Coordination Sequence:
#
# PCOD8199420 Si02
#       6
#     8   8   4   4   8   8
#     4  11  22  36  58  86 116 150 188 234 288 341
#     4  11  24  41  61  85 113 148 192 242 293 344
#     4  12  23  34  51  74 104 146 193 235 278 329
#     4  12  23  38  59  82 110 148 193 241 296 345
#     4  10  21  36  52  73 107 149 187 227 279 335
#     4   9  19  37  61  89 122 159 195 231 276 334
#
# _framework density 19.267092000000002
#
# number of rings (size 3 to 8) (size 9 to 14) (size 15 to 20)
#    0.000    1.400    2.000    4.800    0.000    6.800 
#    0.000    1.000    0.000    0.600    0.000    4.200 
#    0.000    0.000    0.000    0.000    0.000    0.000 
#
# Total GULP energy -495595.488823 kJ/mol
# GULP energy per Si atom -12389.887221 kJ/mol
# Density = 1.922324 g / cm^3
# Si number density = 19.267092 Si / 1000 Ang^3
#
#
#
# Elastic Constant Matrix: (Units=GPa)
#
#
# Indices 1 2 3 4 5 6 
#
# 1 131.0859 47.3789 46.8714 0.0000 0.0000 0.0000
# 2 47.3789 113.1436 35.5988 0.0000 0.0000 0.0000
# 3 46.8714 35.5988 69.4357 0.0000 0.0000 0.0000
# 4 0.0000 0.0000 0.0000 17.2696 0.0000 0.0000
# 5 0.0000 0.0000 0.0000 0.0000 31.1647 0.0000
# 6 0.0000 0.0000 0.0000 0.0000 0.0000 25.9286
#
#
#
# Elastic Compliance Matrix: (Units=1/GPa)
#
#
# Indices 1 2 3 4 5 6 
#
# 1 0.010672 -0.002626 -0.005858 0.000000 0.000000 0.000000
# 2 -0.002626 0.011184 -0.003961 0.000000 0.000000 0.000000
# 3 -0.005858 -0.003961 0.020387 0.000000 0.000000 0.000000
# 4 0.000000 0.000000 0.000000 0.057905 0.000000 0.000000
# 5 0.000000 0.000000 0.000000 0.000000 0.032088 0.000000
# 6 0.000000 0.000000 0.000000 0.000000 0.000000 0.038567
#
#
# Mechanical properties :
#
#
# Convention : Reuss Voigt Hill
#
# Bulk Modulus (GPa) = 57.62645 63.70704 60.66674
# Shear Modulus (GPa) = 24.81652 27.12700 25.97176
#
# Velocity S-wave (km/s) = 3.59280 3.75633 3.67548
# Velocity P-wave (km/s) = 6.86915 7.20766 7.04044
#
# Compressibility (1/GPa) = 0.01735314
#
# Stress axis : x y z
#
# Youngs Moduli (GPa) = 93.70120 89.41065 49.05072
#
# Poissons Ratio (x) = 0.23479 0.28733
# Poissons Ratio (y) = 0.24605 0.19431
# Poissons Ratio (z) = 0.54888 0.35420
#
# Static dielectric constant tensor:
#      x y z
#    x 3.713830 0.000000 0.000000 
#    y 0.000000 3.593620 0.000000 
#    z 0.000000 0.000000 3.383460 
# 
# 
# High freq. dielectric constant tensor:
#      x y z
#    x 1.756490 0.000000 0.000000 
#    y 0.000000 1.755580 0.000000 
#    z 0.000000 0.000000 1.724010 
# 
# From -- ./inp_files/5697.got.cif
#   From: 2010.03.12/outbox.cif.g09.slc.cpg/sg47_3_cif.got.tgz:5697.got - 2010.04.14 03:12:58.
