data_PCOD8199797
_publ_section_title
;
Structure prediction by ZEFSAII (Michael W. Deem and Ramdas Pophale) SiO2 
 PCOD8199797
Probable space group: P M M M
;
_chemical_formula_sum "Si O2"
_cell_formula_units_Z 56
_cell_length_a 13.844160
_cell_length_b 22.498590
_cell_length_c 9.899698
_cell_angle_alpha 90.000000
_cell_angle_beta 90.000000
_cell_angle_gamma 90.000000
_cell_volume 3083.499324
_symmetry_space_group_name_H-M "P M M M"
_symmetry_group_IT_number 47
_symmetry_cell_setting 'orthorhombic'
loop_
_space_group_symop_operation_xyz
x,y,z
-x,-y,z
x,-y,-z
-x,y,-z
-x,-y,-z
x,y,-z
-x,y,z
x,-y,z
loop_
_atom_site_type_symbol
_atom_site_label
_atom_site_fract_x
_atom_site_fract_y
_atom_site_fract_z
Si Si1 0.613660 0.934121 0.500000
Si Si2 0.614806 0.930779 0.000000
Si Si3 0.887359 0.674160 0.155765
Si Si4 0.249684 0.432727 0.846234
Si Si5 0.253848 0.741834 0.657985
Si Si6 0.388720 0.368996 0.345962
Si Si7 0.108712 0.931641 0.656537
Si Si8 0.708779 0.128788 0.745920
O O1 0.500000 0.938335 0.500000
O O2 0.647644 0.899798 0.371045
O O3 0.659706 0.000000 0.500000
O O4 0.656562 0.893712 0.122395
O O5 0.500000 0.928009 0.000000
O O6 0.648673 0.000000 0.000000
O O7 0.841749 0.609360 0.183374
O O8 0.840461 0.721168 0.258989
O O9 0.000000 0.669951 0.188940
O O10 0.869480 0.693908 0.000000
O O11 0.215970 0.500000 0.817807
O O12 0.339385 0.417453 0.749922
O O13 0.285527 0.424787 0.000000
O O14 0.226459 0.752242 0.500000
O O15 0.339463 0.694774 0.673634
O O16 0.294133 0.800644 0.729265
O O17 0.377358 0.390910 0.500000
O O18 0.500000 0.362553 0.304529
O O19 0.136367 0.923305 0.500000
O O20 0.179780 0.892204 0.746315
O O21 0.000000 0.909296 0.683377
O O22 0.118805 0.000000 0.699160
#
# Coordination Sequence:
#
# PCOD8199797 Si02
#       8
#     4   4   8   8   8   8   8   8
#     4  11  22  36  59  87 111 141 189 240 286 342
#     4  11  26  44  59  81 117 155 187 228 290 356
#     4   9  19  36  59  83 114 154 189 227 276 330
#     4   9  18  33  54  82 115 146 185 234 276 322
#     4  10  21  37  56  84 111 141 187 239 284 331
#     4   9  19  35  53  74 107 148 186 229 281 332
#     4   9  17  31  54  83 110 136 172 221 278 336
#     4  12  22  38  60  84 112 149 189 236 289 341
#
# _framework density 18.161185
#
# number of rings (size 3 to 8) (size 9 to 14) (size 15 to 20)
#    0.000    2.143    1.429    2.143    1.000    4.286 
#    0.000    3.214    0.000    1.286    0.000    4.000 
#    0.000    0.000    0.000    0.000    0.000    0.000 
#
# Total GULP energy -694403.803626 kJ/mol
# GULP energy per Si atom -12400.067922 kJ/mol
# Density = 1.811985 g / cm^3
# Si number density = 18.161185 Si / 1000 Ang^3
#
#
#
# Elastic Constant Matrix: (Units=GPa)
#
#
# Indices 1 2 3 4 5 6 
#
# 1 111.1830 43.4261 55.9990 0.0000 0.0000 0.0000
# 2 43.4261 121.4007 61.4013 0.0000 0.0000 0.0000
# 3 55.9990 61.4013 115.8762 0.0000 0.0000 0.0000
# 4 0.0000 0.0000 0.0000 38.1630 0.0000 0.0000
# 5 0.0000 0.0000 0.0000 0.0000 39.3213 0.0000
# 6 0.0000 0.0000 0.0000 0.0000 0.0000 33.0952
#
#
#
# Elastic Compliance Matrix: (Units=1/GPa)
#
#
# Indices 1 2 3 4 5 6 
#
# 1 0.012196 -0.001888 -0.004894 0.000000 0.000000 0.000000
# 2 -0.001888 0.011545 -0.005205 0.000000 0.000000 0.000000
# 3 -0.004894 -0.005205 0.013753 0.000000 0.000000 0.000000
# 4 0.000000 0.000000 0.000000 0.026203 0.000000 0.000000
# 5 0.000000 0.000000 0.000000 0.000000 0.025432 0.000000
# 6 0.000000 0.000000 0.000000 0.000000 0.000000 0.030216
#
#
# Mechanical properties :
#
#
# Convention : Reuss Voigt Hill
#
# Bulk Modulus (GPa) = 73.95911 74.45696 74.20803
# Shear Modulus (GPa) = 33.82352 34.62480 34.22416
#
# Velocity S-wave (km/s) = 4.32024 4.37112 4.34575
# Velocity P-wave (km/s) = 8.10544 8.15858 8.13205
#
# Compressibility (1/GPa) = 0.01352098
#
# Stress axis : x y z
#
# Youngs Moduli (GPa) = 81.99216 86.61637 72.71015
#
# Poissons Ratio (x) = 0.16349 0.35583
# Poissons Ratio (y) = 0.15476 0.37849
# Poissons Ratio (z) = 0.40126 0.45088
#
# Static dielectric constant tensor:
#      x y z
#    x 3.402990 0.000000 0.000000 
#    y 0.000000 3.396360 0.000000 
#    z 0.000000 0.000000 3.388280 
# 
# 
# High freq. dielectric constant tensor:
#      x y z
#    x 1.708660 0.000000 0.000000 
#    y 0.000000 1.703450 0.000000 
#    z 0.000000 0.000000 1.700990 
# 
# From -- ./inp_files/7449.got.cif
#   From: 2010.03.12/outbox.cif.g09.slc.cpg/sg47_4_cif.got.tgz:7449.got - 2010.04.14 03:12:58.
