data_PCOD8199673
_publ_section_title
;
Structure prediction by ZEFSAII (Michael W. Deem and Ramdas Pophale) SiO2 
 PCOD8199673
Probable space group: P M M M
;
_chemical_formula_sum "Si O2"
_cell_formula_units_Z 56
_cell_length_a 8.992027
_cell_length_b 20.162975
_cell_length_c 15.299536
_cell_angle_alpha 90.000000
_cell_angle_beta 90.000000
_cell_angle_gamma 90.000000
_cell_volume 2773.897913
_symmetry_space_group_name_H-M "P M M M"
_symmetry_group_IT_number 47
_symmetry_cell_setting 'orthorhombic'
loop_
_space_group_symop_operation_xyz
x,y,z
-x,-y,z
x,-y,-z
-x,y,-z
-x,-y,-z
x,y,-z
-x,y,z
x,-y,z
loop_
_atom_site_type_symbol
_atom_site_label
_atom_site_fract_x
_atom_site_fract_y
_atom_site_fract_z
Si Si1 0.671373 0.573300 0.732661
Si Si2 0.340536 0.742386 0.099186
Si Si3 0.175079 0.925479 0.500000
Si Si4 0.177037 0.175667 0.648152
Si Si5 0.176014 0.000000 0.099320
Si Si6 0.326869 0.874655 0.820691
Si Si7 0.673051 0.312651 0.599839
Si Si8 0.173714 0.617233 0.100524
O O1 0.500000 0.587337 0.751575
O O2 0.695175 0.500000 0.691028
O O3 0.730928 0.628736 0.664361
O O4 0.750751 0.570911 0.827495
O O5 0.500000 0.730717 0.148781
O O6 0.295558 0.819004 0.106383
O O7 0.214800 0.692081 0.132856
O O8 0.365649 0.724780 0.000000
O O9 0.225774 0.883381 0.416474
O O10 0.000000 0.933280 0.500000
O O11 0.246666 0.000000 0.500000
O O12 0.265755 0.158794 0.734332
O O13 0.229169 0.247054 0.614237
O O14 0.000000 0.177180 0.662580
O O15 0.232622 0.937555 0.152580
O O16 0.000000 0.000000 0.099536
O O17 0.238112 0.000000 0.000000
O O18 0.500000 0.894089 0.812166
O O19 0.695956 0.336754 0.500000
O O20 0.500000 0.296151 0.617271
O O21 0.000000 0.607666 0.106987
O O22 0.225396 0.601531 0.000000
#
# Coordination Sequence:
#
# PCOD8199673 Si02
#       8
#     8   8   4   8   4   8   8   8
#     4  10  22  39  59  85 116 154 201 248 298 360
#     4   9  18  34  56  80 108 146 190 234 283 342
#     4   9  20  38  59  83 114 153 191 235 288 344
#     4  11  22  38  62  90 119 155 199 244 295 357
#     4  11  25  43  61  84 117 160 207 251 298 356
#     4  11  23  38  58  85 117 153 195 244 300 354
#     4  10  21  39  63  89 121 158 198 251 309 366
#     4  10  21  36  56  84 117 152 191 239 298 360
#
# _framework density 20.188198
#
# number of rings (size 3 to 8) (size 9 to 14) (size 15 to 20)
#    0.000    1.857    0.714    2.786    1.000    8.000 
#    0.000    4.286    0.000    1.714    0.000    2.000 
#    0.000    0.000    0.000    0.000    0.000    0.000 
#
# Total GULP energy -694020.901801 kJ/mol
# GULP energy per Si atom -12393.230389 kJ/mol
# Density = 2.014225 g / cm^3
# Si number density = 20.188198 Si / 1000 Ang^3
#
#
#
# Elastic Constant Matrix: (Units=GPa)
#
#
# Indices 1 2 3 4 5 6 
#
# 1 58.7579 30.3144 33.3221 0.0000 0.0000 0.0000
# 2 30.3144 132.6323 41.3793 0.0000 0.0000 0.0000
# 3 33.3221 41.3793 93.0814 0.0000 0.0000 0.0000
# 4 0.0000 0.0000 0.0000 23.7761 0.0000 0.0000
# 5 0.0000 0.0000 0.0000 0.0000 6.3835 0.0000
# 6 0.0000 0.0000 0.0000 0.0000 0.0000 -117.7960
#
#
#
# Elastic Compliance Matrix: (Units=1/GPa)
#
#
# Indices 1 2 3 4 5 6 
#
# 1 0.022359 -0.003034 -0.006655 0.000000 0.000000 0.000000
# 2 -0.003034 0.009165 -0.002988 0.000000 0.000000 0.000000
# 3 -0.006655 -0.002988 0.014454 0.000000 0.000000 0.000000
# 4 0.000000 0.000000 0.000000 0.042059 0.000000 0.000000
# 5 0.000000 0.000000 0.000000 0.000000 0.156654 0.000000
# 6 0.000000 0.000000 0.000000 0.000000 0.000000 -0.008489
#
#
# Mechanical properties :
#
#
# Convention : Reuss Voigt Hill
#
# Bulk Modulus (GPa) = 48.48965 54.94481 51.71723
# Shear Modulus (GPa) = 18.62668 -5.56357 6.53155
#
# Velocity S-wave (km/s) = 3.04081 -1.66188 1.80065
# Velocity P-wave (km/s) = 6.03322 4.85726 5.47689
#
# Compressibility (1/GPa) = 0.02062296
#
# Stress axis : x y z
#
# Youngs Moduli (GPa) = 44.72560 109.10610 69.18338
#
# Poissons Ratio (x) = 0.33101 0.46044
# Poissons Ratio (y) = 0.13569 0.20675
# Poissons Ratio (z) = 0.29767 0.32605
#
# Static dielectric constant tensor:
#      x y z
#    x 3.644920 0.000000 0.000000 
#    y 0.000000 3.827610 0.000000 
#    z 0.000000 0.000000 3.820970 
# 
# 
# High freq. dielectric constant tensor:
#      x y z
#    x 1.777590 0.000000 0.000000 
#    y 0.000000 1.796960 0.000000 
#    z 0.000000 0.000000 1.791220 
# 
# From -- ./inp_files/21671.got.cif
#   From: 2010.03.12/outbox.cif.g09.slc.cpg/sg47_11_cif.got.tgz:21671.got - 2010.04.14 03:12:58.
