data_PCOD8199260
_publ_section_title
;
Structure prediction by ZEFSAII (Michael W. Deem and Ramdas Pophale) SiO2 
 PCOD8199260
Probable space group: P M M M
;
_chemical_formula_sum "Si O2"
_cell_formula_units_Z 48
_cell_length_a 9.274244
_cell_length_b 9.439351
_cell_length_c 31.241791
_cell_angle_alpha 90.000000
_cell_angle_beta 90.000000
_cell_angle_gamma 90.000000
_cell_volume 2734.995248
_symmetry_space_group_name_H-M "P M M M"
_symmetry_group_IT_number 47
_symmetry_cell_setting 'orthorhombic'
loop_
_space_group_symop_operation_xyz
x,y,z
-x,-y,z
x,-y,-z
-x,y,-z
-x,-y,-z
x,y,-z
-x,y,z
x,-y,z
loop_
_atom_site_type_symbol
_atom_site_label
_atom_site_fract_x
_atom_site_fract_y
_atom_site_fract_z
Si Si1 0.827191 0.839917 0.137066
Si Si2 0.835995 0.335972 0.450619
Si Si3 0.828293 0.339988 0.783784
Si Si4 0.831731 0.163885 0.297518
Si Si5 0.333087 0.835011 0.381936
Si Si6 0.838578 0.831743 0.045306
O O1 0.766471 0.737271 0.173930
O O2 0.766545 0.783581 0.090548
O O3 0.000000 0.837788 0.135764
O O4 0.773982 0.000000 0.146646
O O5 0.799830 0.306726 0.500000
O O6 0.814159 0.500000 0.439524
O O7 0.726282 0.245541 0.422950
O O8 0.000000 0.290226 0.440486
O O9 0.768664 0.500000 0.782392
O O10 0.773701 0.256103 0.742103
O O11 0.000000 0.337997 0.785013
O O12 0.748196 0.216923 0.339392
O O13 0.000000 0.189607 0.305770
O O14 0.799230 0.000000 0.287206
O O15 0.500000 0.798992 0.376294
O O16 0.305197 0.000000 0.389604
O O17 0.000000 0.770098 0.043507
O O18 0.845448 0.000000 0.047368
O O19 0.760393 0.785023 0.000000
#
# Coordination Sequence:
#
# PCOD8199260 Si02
#       6
#     8   8   8   8   8   8
#     4   8  12  18  29  44  63  89 122 162 208 255
#     4   9  19  36  56  77 101 130 164 198 229 264
#     4   9  16  24  35  53  75  98 129 173 220 260
#     4   9  17  30  47  64  84 113 148 183 220 265
#     4  10  21  35  51  74 102 128 155 190 233 279
#     4   7   9  13  22  37  56  80 115 158 199 241
#
# _framework density 17.550305000000002
#
# number of rings (size 3 to 8) (size 9 to 14) (size 15 to 20)
#    0.000    3.333    0.000    3.000    0.000    4.667 
#    0.000    4.167    0.000    0.500    0.000    3.500 
#    0.000    0.000    0.000    0.000    0.000    0.833 
#
# Total GULP energy -594714.218432 kJ/mol
# GULP energy per Si atom -12389.879551 kJ/mol
# Density = 1.751036 g / cm^3
# Si number density = 17.550305 Si / 1000 Ang^3
#
#
#
# Elastic Constant Matrix: (Units=GPa)
#
#
# Indices 1 2 3 4 5 6 
#
# 1 35.5233 25.4932 44.5243 0.0000 0.0000 0.0000
# 2 25.4932 74.8715 70.5180 0.0000 0.0000 0.0000
# 3 44.5243 70.5180 166.3218 0.0000 0.0000 0.0000
# 4 0.0000 0.0000 0.0000 8.0331 0.0000 0.0000
# 5 0.0000 0.0000 0.0000 0.0000 0.5562 0.0000
# 6 0.0000 0.0000 0.0000 0.0000 0.0000 13.3078
#
#
#
# Elastic Compliance Matrix: (Units=1/GPa)
#
#
# Indices 1 2 3 4 5 6 
#
# 1 0.044187 -0.006500 -0.009073 0.000000 0.000000 0.000000
# 2 -0.006500 0.023192 -0.008093 0.000000 0.000000 0.000000
# 3 -0.009073 -0.008093 0.011873 0.000000 0.000000 0.000000
# 4 0.000000 0.000000 0.000000 0.124485 0.000000 0.000000
# 5 0.000000 0.000000 0.000000 0.000000 1.797996 0.000000
# 6 0.000000 0.000000 0.000000 0.000000 0.000000 0.075144
#
#
# Mechanical properties :
#
#
# Convention : Reuss Voigt Hill
#
# Bulk Modulus (GPa) = 31.32868 61.97639 46.65253
# Shear Modulus (GPa) = 2.34209 13.45816 7.90012
#
# Velocity S-wave (km/s) = 1.15646 2.77218 2.12396
# Velocity P-wave (km/s) = 4.43540 6.75551 5.71444
#
# Compressibility (1/GPa) = 0.03191964
#
# Stress axis : x y z
#
# Youngs Moduli (GPa) = 22.63105 43.11876 84.22796
#
# Poissons Ratio (x) = 0.28027 0.76420
# Poissons Ratio (y) = 0.14710 0.68165
# Poissons Ratio (z) = 0.20533 0.34896
#
# Static dielectric constant tensor:
#      x y z
#    x 2.694580 0.000000 0.000000 
#    y 0.000000 3.112060 0.000000 
#    z 0.000000 0.000000 3.713630 
# 
# 
# High freq. dielectric constant tensor:
#      x y z
#    x 1.611550 0.000000 0.000000 
#    y 0.000000 1.655320 0.000000 
#    z 0.000000 0.000000 1.704700 
# 
# From -- ./inp_files/34029.got.cif
#   From: 2010.03.12/outbox.cif.g09.slc.cpg/sg47_18_cif.got.tgz:34029.got - 2010.04.14 03:12:58.
