data_PCOD8199804
_publ_section_title
;
Structure prediction by ZEFSAII (Michael W. Deem and Ramdas Pophale) SiO2 
 PCOD8199804
Probable space group: P M M M
;
_chemical_formula_sum "Si O2"
_cell_formula_units_Z 64
_cell_length_a 14.745943
_cell_length_b 24.813035
_cell_length_c 9.201689
_cell_angle_alpha 90.000000
_cell_angle_beta 90.000000
_cell_angle_gamma 90.000000
_cell_volume 3366.820709
_symmetry_space_group_name_H-M "P M M M"
_symmetry_group_IT_number 47
_symmetry_cell_setting 'orthorhombic'
loop_
_space_group_symop_operation_xyz
x,y,z
-x,-y,z
x,-y,-z
-x,y,-z
-x,-y,-z
x,y,-z
-x,y,z
x,-y,z
loop_
_atom_site_type_symbol
_atom_site_label
_atom_site_fract_x
_atom_site_fract_y
_atom_site_fract_z
Si Si1 0.900641 0.698570 0.837143
Si Si2 0.744999 0.124880 0.829385
Si Si3 0.291312 0.441538 0.327420
Si Si4 0.399137 0.063474 0.661225
Si Si5 0.281764 0.754729 0.832135
Si Si6 0.605029 0.335878 0.672324
Si Si7 0.895542 0.061181 0.329989
Si Si8 0.901519 0.590969 0.671834
O O1 0.823881 0.742088 0.806500
O O2 0.888960 0.651986 0.720496
O O3 0.000000 0.725957 0.819700
O O4 0.890091 0.674390 0.000000
O O5 0.664643 0.085102 0.787047
O O6 0.711367 0.183879 0.778004
O O7 0.837495 0.105613 0.754475
O O8 0.762315 0.124099 0.000000
O O9 0.293018 0.437206 0.500000
O O10 0.331961 0.500000 0.278591
O O11 0.349279 0.391212 0.265520
O O12 0.186581 0.441035 0.270658
O O13 0.363877 0.080253 0.500000
O O14 0.500000 0.086733 0.685270
O O15 0.400937 0.000000 0.674204
O O16 0.347060 0.716205 0.740064
O O17 0.310105 0.748282 0.000000
O O18 0.616109 0.332334 0.500000
O O19 0.500000 0.336485 0.718558
O O20 0.879127 0.069300 0.500000
O O21 0.000000 0.070881 0.289267
O O22 0.867025 0.000000 0.286190
O O23 0.902059 0.589683 0.500000
O O24 0.000000 0.568177 0.728479
#
# Coordination Sequence:
#
# PCOD8199804 Si02
#       8
#     8   8   8   8   8   8   8   8
#     4   9  17  31  52  73  95 130 172 208 246 296
#     4  11  23  35  52  82 114 143 179 225 276 327
#     4   9  17  30  50  78 110 138 166 210 268 324
#     4   9  19  37  59  80 104 138 178 219 268 326
#     4  10  22  38  54  75 106 143 177 214 265 320
#     4  10  21  37  57  79 102 133 178 228 272 318
#     4   9  19  37  59  82 112 152 193 229 268 317
#     4   9  16  27  47  75 104 133 165 203 249 302
#
# _framework density 19.009031
#
# number of rings (size 3 to 8) (size 9 to 14) (size 15 to 20)
#    0.000    2.500    1.250    1.500    0.000    5.250 
#    0.000    7.500    0.000    3.000    0.000    2.625 
#    0.000    0.000    0.000    0.000    0.000    0.000 
#
# Total GULP energy -793128.596903 kJ/mol
# GULP energy per Si atom -12392.634327 kJ/mol
# Density = 1.896577 g / cm^3
# Si number density = 19.009031 Si / 1000 Ang^3
#
#
#
# Elastic Constant Matrix: (Units=GPa)
#
#
# Indices 1 2 3 4 5 6 
#
# 1 126.3768 62.8809 37.6849 0.0000 0.0000 0.0000
# 2 62.8809 103.1340 37.2101 0.0000 0.0000 0.0000
# 3 37.6849 37.2101 29.9365 0.0000 0.0000 0.0000
# 4 0.0000 0.0000 0.0000 14.4766 0.0000 0.0000
# 5 0.0000 0.0000 0.0000 0.0000 18.0457 0.0000
# 6 0.0000 0.0000 0.0000 0.0000 0.0000 10.3405
#
#
#
# Elastic Compliance Matrix: (Units=1/GPa)
#
#
# Indices 1 2 3 4 5 6 
#
# 1 0.013438 -0.003789 -0.012206 0.000000 0.000000 0.000000
# 2 -0.003789 0.018648 -0.018409 0.000000 0.000000 0.000000
# 3 -0.012206 -0.018409 0.071652 0.000000 0.000000 0.000000
# 4 0.000000 0.000000 0.000000 0.069077 0.000000 0.000000
# 5 0.000000 0.000000 0.000000 0.000000 0.055415 0.000000
# 6 0.000000 0.000000 0.000000 0.000000 0.000000 0.096707
#
#
# Mechanical properties :
#
#
# Convention : Reuss Voigt Hill
#
# Bulk Modulus (GPa) = 28.62987 59.44434 44.03711
# Shear Modulus (GPa) = 12.33380 16.68399 14.50889
#
# Velocity S-wave (km/s) = 2.55000 2.96579 2.76572
# Velocity P-wave (km/s) = 4.87482 6.56258 5.78063
#
# Compressibility (1/GPa) = 0.03492856
#
# Stress axis : x y z
#
# Youngs Moduli (GPa) = 74.41523 53.62376 13.95636
#
# Poissons Ratio (x) = 0.20320 0.17036
# Poissons Ratio (y) = 0.28198 0.25693
# Poissons Ratio (z) = 0.90833 0.98718
#
# Static dielectric constant tensor:
#      x y z
#    x 3.786270 0.000000 0.000000 
#    y 0.000000 3.455240 0.000000 
#    z 0.000000 0.000000 3.267860 
# 
# 
# High freq. dielectric constant tensor:
#      x y z
#    x 1.751640 0.000000 0.000000 
#    y 0.000000 1.730120 0.000000 
#    z 0.000000 0.000000 1.713030 
# 
# From -- ./inp_files/7896.got.cif
#   From: 2010.03.12/outbox.cif.g09.slc.cpg/sg47_4_cif.got.tgz:7896.got - 2010.04.14 03:12:58.
