data_PCOD8199996
_publ_section_title
;
Structure prediction by ZEFSAII (Michael W. Deem and Ramdas Pophale) SiO2 
 PCOD8199996
Probable space group: P M M M
;
_chemical_formula_sum "Si O2"
_cell_formula_units_Z 48
_cell_length_a 9.057226
_cell_length_b 9.094635
_cell_length_c 30.846824
_cell_angle_alpha 90.000000
_cell_angle_beta 90.000000
_cell_angle_gamma 90.000000
_cell_volume 2540.919663
_symmetry_space_group_name_H-M "P M M M"
_symmetry_group_IT_number 47
_symmetry_cell_setting 'orthorhombic'
loop_
_space_group_symop_operation_xyz
x,y,z
-x,-y,z
x,-y,-z
-x,y,-z
-x,-y,-z
x,y,-z
-x,y,z
x,-y,z
loop_
_atom_site_type_symbol
_atom_site_label
_atom_site_fract_x
_atom_site_fract_y
_atom_site_fract_z
Si Si1 0.671676 0.327910 0.178511
Si Si2 0.671960 0.171342 0.578568
Si Si3 0.825581 0.168013 0.255216
Si Si4 0.675032 0.337799 0.918204
Si Si5 0.671526 0.670321 0.666976
Si Si6 0.174675 0.668672 0.500000
Si Si7 0.323488 0.163390 0.000000
O O1 0.500000 0.297141 0.187754
O O2 0.706147 0.500000 0.185743
O O3 0.768802 0.228344 0.209640
O O4 0.715863 0.278912 0.129677
O O5 0.500000 0.196813 0.568592
O O6 0.717347 0.240408 0.624353
O O7 0.765683 0.251210 0.542243
O O8 0.712297 0.000000 0.579163
O O9 0.763504 0.268284 0.293295
O O10 0.000000 0.179430 0.255818
O O11 0.772525 0.000000 0.261331
O O12 0.500000 0.345794 0.922021
O O13 0.741924 0.500000 0.924622
O O14 0.740734 0.237634 0.956434
O O15 0.500000 0.692101 0.677799
O O16 0.710465 0.500000 0.659613
O O17 0.228531 0.500000 0.500000
O O18 0.000000 0.679677 0.500000
O O19 0.500000 0.168446 0.000000
O O20 0.261761 0.000000 0.000000
#
# Coordination Sequence:
#
# PCOD8199996 Si02
#       7
#     8   8   8   8   8   4   4
#     4   9  18  33  53  76 100 130 172 217 259 307
#     4  10  21  38  61  87 113 143 180 221 267 317
#     4  11  24  38  52  75 107 141 175 212 259 314
#     4   8  14  25  41  62  91 126 161 200 249 302
#     4  10  21  38  61  86 109 137 176 220 265 314
#     4  11  24  39  56  82 116 153 190 225 264 310
#     4   9  15  21  33  59  94 127 160 199 244 296
#
# _framework density 18.890799000000001
#
# number of rings (size 3 to 8) (size 9 to 14) (size 15 to 20)
#    0.000    2.333    0.000    3.750    0.000    9.667 
#    0.000    1.667    0.000    0.000    0.000    0.583 
#    0.000    4.667    0.000    0.000    0.000    0.000 
#
# Total GULP energy -595218.481352 kJ/mol
# GULP energy per Si atom -12400.385028 kJ/mol
# Density = 1.884780 g / cm^3
# Si number density = 18.890799 Si / 1000 Ang^3
#
#
#
# Elastic Constant Matrix: (Units=GPa)
#
#
# Indices 1 2 3 4 5 6 
#
# 1 42.7660 42.3467 44.5232 0.0000 0.0000 0.0000
# 2 42.3467 135.3309 81.9112 0.0000 0.0000 0.0000
# 3 44.5232 81.9112 154.6528 0.0000 0.0000 0.0000
# 4 0.0000 0.0000 0.0000 120.2108 0.0000 0.0000
# 5 0.0000 0.0000 0.0000 0.0000 -20.4705 0.0000
# 6 0.0000 0.0000 0.0000 0.0000 0.0000 24.8057
#
#
#
# Elastic Compliance Matrix: (Units=1/GPa)
#
#
# Indices 1 2 3 4 5 6 
#
# 1 0.038287 -0.007814 -0.006884 0.000000 0.000000 0.000000
# 2 -0.007814 0.012471 -0.004355 0.000000 0.000000 0.000000
# 3 -0.006884 -0.004355 0.010755 0.000000 0.000000 0.000000
# 4 0.000000 0.000000 0.000000 0.008319 0.000000 0.000000
# 5 0.000000 0.000000 0.000000 0.000000 -0.048851 0.000000
# 6 0.000000 0.000000 0.000000 0.000000 0.000000 0.040313
#
#
# Mechanical properties :
#
#
# Convention : Reuss Voigt Hill
#
# Bulk Modulus (GPa) = 42.72424 74.47911 58.60168
# Shear Modulus (GPa) = 46.64083 35.84043 41.24063
#
# Velocity S-wave (km/s) = 4.97426 4.36046 4.67744
# Velocity P-wave (km/s) = 7.46034 8.05377 7.76273
#
# Compressibility (1/GPa) = 0.02340592
#
# Stress axis : x y z
#
# Youngs Moduli (GPa) = 26.11844 80.18897 92.98207
#
# Poissons Ratio (x) = 0.62659 0.64008
# Poissons Ratio (y) = 0.20409 0.40498
# Poissons Ratio (z) = 0.17980 0.34926
#
# Static dielectric constant tensor:
#      x y z
#    x 3.104560 0.000000 0.000000 
#    y 0.000000 3.679390 0.000000 
#    z 0.000000 0.000000 3.792620 
# 
# 
# High freq. dielectric constant tensor:
#      x y z
#    x 1.696840 0.000000 0.000000 
#    y 0.000000 1.743770 0.000000 
#    z 0.000000 0.000000 1.753180 
# 
# From -- ./inp_files/34078.got.cif
#   From: 2010.03.12/outbox.cif.g09.slc.cpg/sg47_18_cif.got.tgz:34078.got - 2010.04.14 03:12:58.
