data_PCOD8199711
_publ_section_title
;
Structure prediction by ZEFSAII (Michael W. Deem and Ramdas Pophale) SiO2 
 PCOD8199711
Probable space group: P M M M
;
_chemical_formula_sum "Si O2"
_cell_formula_units_Z 56
_cell_length_a 14.371682
_cell_length_b 21.133255
_cell_length_c 8.986187
_cell_angle_alpha 90.000000
_cell_angle_beta 90.000000
_cell_angle_gamma 90.000000
_cell_volume 2729.288494
_symmetry_space_group_name_H-M "P M M M"
_symmetry_group_IT_number 47
_symmetry_cell_setting 'orthorhombic'
loop_
_space_group_symop_operation_xyz
x,y,z
-x,-y,z
x,-y,-z
-x,y,-z
-x,-y,-z
x,y,-z
-x,y,z
x,-y,z
loop_
_atom_site_type_symbol
_atom_site_label
_atom_site_fract_x
_atom_site_fract_y
_atom_site_fract_z
Si Si1 0.889799 0.069225 0.666340
Si Si2 0.388896 0.000000 0.336032
Si Si3 0.604377 0.136004 0.322076
Si Si4 0.719467 0.620990 0.824460
Si Si5 0.895070 0.425821 0.670122
Si Si6 0.395013 0.500000 0.176919
Si Si7 0.728004 0.747739 0.323718
Si Si8 0.107824 0.193230 0.173298
O O1 0.855682 0.087839 0.500000
O O2 0.856888 0.123097 0.780081
O O3 0.000000 0.063968 0.668338
O O4 0.848118 0.000000 0.711180
O O5 0.358936 0.932881 0.259289
O O6 0.500000 0.000000 0.347222
O O7 0.344509 0.000000 0.500000
O O8 0.604651 0.133257 0.500000
O O9 0.500000 0.149396 0.264055
O O10 0.669391 0.192377 0.263997
O O11 0.826875 0.610468 0.781125
O O12 0.657614 0.562520 0.764519
O O13 0.682720 0.684555 0.745417
O O14 0.710844 0.628937 0.000000
O O15 0.868605 0.409467 0.500000
O O16 0.886023 0.500000 0.698973
O O17 0.000000 0.403393 0.704918
O O18 0.500000 0.500000 0.239610
O O19 0.394584 0.500000 0.000000
O O20 0.727383 0.742170 0.500000
O O21 0.833531 0.754992 0.264367
O O22 0.000000 0.202953 0.215251
O O23 0.126109 0.202491 0.000000
#
# Coordination Sequence:
#
# PCOD8199711 Si02
#       8
#     8   4   8   8   8   4   8   8
#     4   8  14  27  49  75 102 136 182 236 290 340
#     4   7  10  22  48  78 106 137 172 218 277 335
#     4   8  15  30  53  81 112 143 179 227 284 344
#     4  11  22  38  60  85 115 153 193 235 276 324
#     4   9  18  34  58  87 118 150 182 223 280 338
#     4   9  20  40  64  89 116 148 189 231 274 329
#     4  11  23  37  55  83 117 153 188 232 287 340
#     4  10  21  37  55  75 106 150 198 244 286 335
#
# _framework density 20.518166999999998
#
# number of rings (size 3 to 8) (size 9 to 14) (size 15 to 20)
#    0.000    2.714    0.714    3.000    0.000    2.571 
#    1.286    2.143    0.000    4.286    0.000    0.000 
#    0.000    6.857    0.000    0.000    0.000    0.000 
#
# Total GULP energy -694121.742584 kJ/mol
# GULP energy per Si atom -12395.031118 kJ/mol
# Density = 2.047147 g / cm^3
# Si number density = 20.518167 Si / 1000 Ang^3
#
#
#
# Elastic Constant Matrix: (Units=GPa)
#
#
# Indices 1 2 3 4 5 6 
#
# 1 82.6529 64.8771 27.3289 0.0000 0.0000 0.0000
# 2 64.8771 167.7857 44.1793 0.0000 0.0000 0.0000
# 3 27.3289 44.1793 60.4323 0.0000 0.0000 0.0000
# 4 0.0000 0.0000 0.0000 32.5187 0.0000 0.0000
# 5 0.0000 0.0000 0.0000 0.0000 12.8154 0.0000
# 6 0.0000 0.0000 0.0000 0.0000 0.0000 26.4612
#
#
#
# Elastic Compliance Matrix: (Units=1/GPa)
#
#
# Indices 1 2 3 4 5 6 
#
# 1 0.018045 -0.005980 -0.003789 0.000000 0.000000 0.000000
# 2 -0.005980 0.009362 -0.004140 0.000000 0.000000 0.000000
# 3 -0.003789 -0.004140 0.021288 0.000000 0.000000 0.000000
# 4 0.000000 0.000000 0.000000 0.030751 0.000000 0.000000
# 5 0.000000 0.000000 0.000000 0.000000 0.078031 0.000000
# 6 0.000000 0.000000 0.000000 0.000000 0.000000 0.037791
#
#
# Mechanical properties :
#
#
# Convention : Reuss Voigt Hill
#
# Bulk Modulus (GPa) = 47.89869 64.84905 56.37387
# Shear Modulus (GPa) = 21.73478 25.99144 23.86311
#
# Velocity S-wave (km/s) = 3.25821 3.56301 3.41401
# Velocity P-wave (km/s) = 6.12779 6.97144 6.56318
#
# Compressibility (1/GPa) = 0.02087740
#
# Stress axis : x y z
#
# Youngs Moduli (GPa) = 55.41570 106.81082 46.97581
#
# Poissons Ratio (x) = 0.63872 0.17799
# Poissons Ratio (y) = 0.33138 0.19449
# Poissons Ratio (z) = 0.20997 0.44221
#
# Static dielectric constant tensor:
#      x y z
#    x 3.686160 0.000000 0.000000 
#    y 0.000000 4.079040 0.000000 
#    z 0.000000 0.000000 3.293760 
# 
# 
# High freq. dielectric constant tensor:
#      x y z
#    x 1.793500 0.000000 0.000000 
#    y 0.000000 1.815310 0.000000 
#    z 0.000000 0.000000 1.758130 
# 
# From -- ./inp_files/7383.got.cif
#   From: 2010.03.12/outbox.cif.g09.slc.cpg/sg47_4_cif.got.tgz:7383.got - 2010.04.14 03:12:58.
