data_PCOD8199038
_publ_section_title
;
Structure prediction by ZEFSAII (Michael W. Deem and Ramdas Pophale) SiO2 
 PCOD8199038
Probable space group: P M M M
;
_chemical_formula_sum "Si O2"
_cell_formula_units_Z 64
_cell_length_a 14.269214
_cell_length_b 9.099663
_cell_length_c 31.162439
_cell_angle_alpha 90.000000
_cell_angle_beta 90.000000
_cell_angle_gamma 90.000000
_cell_volume 4046.288097
_symmetry_space_group_name_H-M "P M M M"
_symmetry_group_IT_number 47
_symmetry_cell_setting 'orthorhombic'
loop_
_space_group_symop_operation_xyz
x,y,z
-x,-y,z
x,-y,-z
-x,y,-z
-x,-y,-z
x,y,-z
-x,y,z
x,-y,z
loop_
_atom_site_type_symbol
_atom_site_label
_atom_site_fract_x
_atom_site_fract_y
_atom_site_fract_z
Si Si1 0.898347 0.325798 0.752317
Si Si2 0.609057 0.170268 0.204887
Si Si3 0.279524 0.827067 0.120660
Si Si4 0.105968 0.329786 0.150928
Si Si5 0.388865 0.835540 0.454652
Si Si6 0.608329 0.174892 0.638228
Si Si7 0.704170 0.325241 0.716579
Si Si8 0.608153 0.331801 0.049157
O O1 0.900858 0.500000 0.754307
O O2 0.883421 0.267987 0.800668
O O3 0.812008 0.272446 0.723091
O O4 0.000000 0.268697 0.734715
O O5 0.500000 0.196690 0.196057
O O6 0.664148 0.225278 0.162888
O O7 0.639532 0.266511 0.245322
O O8 0.629983 0.000000 0.215163
O O9 0.175377 0.760572 0.120624
O O10 0.330868 0.774573 0.078124
O O11 0.272342 0.000000 0.119047
O O12 0.134101 0.500000 0.148830
O O13 0.000000 0.305840 0.134463
O O14 0.357367 0.755500 0.500000
O O15 0.500000 0.842995 0.453100
O O16 0.357775 0.765101 0.409077
O O17 0.348383 0.000000 0.456280
O O18 0.500000 0.215218 0.646946
O O19 0.672644 0.257985 0.671800
O O20 0.622310 0.000000 0.641654
O O21 0.695241 0.500000 0.715174
O O22 0.500000 0.290599 0.055642
O O23 0.626134 0.500000 0.062594
O O24 0.637861 0.306636 0.000000
#
# Coordination Sequence:
#
# PCOD8199038 Si02
#       8
#     8   8   8   8   8   8   8   8
#     4   8  15  29  47  64  83 110 147 190 229 263
#     4  10  21  34  44  59  90 128 157 180 212 257
#     4  11  21  32  50  75 101 125 152 190 234 278
#     4   9  17  32  53  72  92 121 157 194 231 273
#     4   7  10  19  37  58  76 101 145 190 217 248
#     4   9  17  28  41  58  86 122 150 177 220 268
#     4  11  20  29  44  64  86 114 151 189 221 260
#     4   9  19  36  56  76  98 126 160 195 228 267
#
# _framework density 15.816966000000001
#
# number of rings (size 3 to 8) (size 9 to 14) (size 15 to 20)
#    0.000    2.750    1.250    3.750    0.000    3.750 
#    0.000    0.625    0.000    2.250    0.000    4.375 
#    0.000    0.500    0.000    6.250    0.000    0.250 
#
# Total GULP energy -793076.335840 kJ/mol
# GULP energy per Si atom -12391.817748 kJ/mol
# Density = 1.578097 g / cm^3
# Si number density = 15.816966 Si / 1000 Ang^3
#
#
#
# Elastic Constant Matrix: (Units=GPa)
#
#
# Indices 1 2 3 4 5 6 
#
# 1 89.5066 35.2785 50.0520 0.0000 0.0000 0.0000
# 2 35.2785 45.8045 38.0773 0.0000 0.0000 0.0000
# 3 50.0520 38.0773 106.6268 0.0000 0.0000 0.0000
# 4 0.0000 0.0000 0.0000 17.2072 0.0000 0.0000
# 5 0.0000 0.0000 0.0000 0.0000 10.7951 0.0000
# 6 0.0000 0.0000 0.0000 0.0000 0.0000 16.7323
#
#
#
# Elastic Compliance Matrix: (Units=1/GPa)
#
#
# Indices 1 2 3 4 5 6 
#
# 1 0.017666 -0.009547 -0.004883 0.000000 0.000000 0.000000
# 2 -0.009547 0.036208 -0.008449 0.000000 0.000000 0.000000
# 3 -0.004883 -0.008449 0.014688 0.000000 0.000000 0.000000
# 4 0.000000 0.000000 0.000000 0.058115 0.000000 0.000000
# 5 0.000000 0.000000 0.000000 0.000000 0.092634 0.000000
# 6 0.000000 0.000000 0.000000 0.000000 0.000000 0.059765
#
#
# Mechanical properties :
#
#
# Convention : Reuss Voigt Hill
#
# Bulk Modulus (GPa) = 43.85154 54.30596 49.07875
# Shear Modulus (GPa) = 15.04047 16.84891 15.94469
#
# Velocity S-wave (km/s) = 3.08702 3.26735 3.17846
# Velocity P-wave (km/s) = 6.36324 6.97443 6.67583
#
# Compressibility (1/GPa) = 0.02280422
#
# Stress axis : x y z
#
# Youngs Moduli (GPa) = 56.60605 27.61789 68.08258
#
# Poissons Ratio (x) = 0.26366 0.33248
# Poissons Ratio (y) = 0.54040 0.57523
# Poissons Ratio (z) = 0.27643 0.23334
#
# Static dielectric constant tensor:
#      x y z
#    x 3.069360 0.000000 0.000000 
#    y 0.000000 2.785090 0.000000 
#    z 0.000000 0.000000 3.188400 
# 
# 
# High freq. dielectric constant tensor:
#      x y z
#    x 1.591020 0.000000 0.000000 
#    y 0.000000 1.586430 0.000000 
#    z 0.000000 0.000000 1.602490 
# 
# From -- ./inp_files/14281.got.cif
#   From: 2010.03.12/outbox.cif.g09.slc.cpg/sg47_8_cif.got.tgz:14281.got - 2010.04.14 03:12:58.
