data_PCOD8199521
_publ_section_title
;
Structure prediction by ZEFSAII (Michael W. Deem and Ramdas Pophale) SiO2 
 PCOD8199521
Probable space group: P M M M
;
_chemical_formula_sum "Si O2"
_cell_formula_units_Z 48
_cell_length_a 30.862158
_cell_length_b 9.122133
_cell_length_c 9.059664
_cell_angle_alpha 90.000000
_cell_angle_beta 90.000000
_cell_angle_gamma 90.000000
_cell_volume 2550.555518
_symmetry_space_group_name_H-M "P M M M"
_symmetry_group_IT_number 47
_symmetry_cell_setting 'orthorhombic'
loop_
_space_group_symop_operation_xyz
x,y,z
-x,-y,z
x,-y,-z
-x,y,-z
-x,-y,-z
x,y,-z
-x,y,z
x,-y,z
loop_
_atom_site_type_symbol
_atom_site_label
_atom_site_fract_x
_atom_site_fract_y
_atom_site_fract_z
Si Si1 0.666879 0.331132 0.671642
Si Si2 0.000000 0.674969 0.833513
Si Si3 0.084315 0.325371 0.333638
Si Si4 0.421787 0.329694 0.172296
Si Si5 0.743315 0.827374 0.830956
Si Si6 0.830319 0.669082 0.171768
Si Si7 0.500000 0.173297 0.669769
O O1 0.658216 0.301581 0.500000
O O2 0.678683 0.500000 0.702266
O O3 0.624334 0.284683 0.761073
O O4 0.705978 0.231772 0.726014
O O5 0.042637 0.736997 0.752440
O O6 0.000000 0.500000 0.830437
O O7 0.000000 0.734272 0.000000
O O8 0.082562 0.266099 0.500000
O O9 0.083615 0.500000 0.328756
O O10 0.128248 0.267749 0.258221
O O11 0.431940 0.500000 0.201082
O O12 0.457683 0.234186 0.251664
O O13 0.421678 0.292230 0.000000
O O14 0.788601 0.759899 0.776985
O O15 0.746173 0.000000 0.813618
O O16 0.733756 0.780727 0.000000
O O17 0.821572 0.500000 0.211139
O O18 0.840102 0.690252 0.000000
O O19 0.500000 0.223902 0.500000
O O20 0.500000 0.000000 0.684881
#
# Coordination Sequence:
#
# PCOD8199521 Si02
#       7
#     8   4   8   8   8   8   4
#     4  10  21  37  58  83 109 139 176 218 265 315
#     4   9  15  23  37  59  90 125 158 195 244 300
#     4   9  16  25  39  62  92 124 159 201 248 297
#     4  10  21  38  61  86 110 140 180 222 264 312
#     4  10  21  36  54  77 105 138 175 215 261 312
#     4   9  17  30  48  69  95 129 168 208 250 299
#     4  11  24  39  56  82 116 151 184 219 262 310
#
# _framework density 18.819430000000001
#
# number of rings (size 3 to 8) (size 9 to 14) (size 15 to 20)
#    0.000    2.333    0.000    2.750    0.000    9.000 
#    0.000    1.667    0.000    0.000    0.000    0.583 
#    0.000    4.667    0.000    0.000    0.000    0.000 
#
# Total GULP energy -595356.219954 kJ/mol
# GULP energy per Si atom -12403.254582 kJ/mol
# Density = 1.877660 g / cm^3
# Si number density = 18.819430 Si / 1000 Ang^3
#
#
#
# Elastic Constant Matrix: (Units=GPa)
#
#
# Indices 1 2 3 4 5 6 
#
# 1 170.5313 53.7113 89.8333 0.0000 0.0000 0.0000
# 2 53.7113 49.4742 41.3693 0.0000 0.0000 0.0000
# 3 89.8333 41.3693 132.9794 0.0000 0.0000 0.0000
# 4 0.0000 0.0000 0.0000 21.0314 0.0000 0.0000
# 5 0.0000 0.0000 0.0000 0.0000 -69.8375 0.0000
# 6 0.0000 0.0000 0.0000 0.0000 0.0000 -10.0817
#
#
#
# Elastic Compliance Matrix: (Units=1/GPa)
#
#
# Indices 1 2 3 4 5 6 
#
# 1 0.010904 -0.007675 -0.004978 0.000000 0.000000 0.000000
# 2 -0.007675 0.032721 -0.004995 0.000000 0.000000 0.000000
# 3 -0.004978 -0.004995 0.012437 0.000000 0.000000 0.000000
# 4 0.000000 0.000000 0.000000 0.047548 0.000000 0.000000
# 5 0.000000 0.000000 0.000000 0.000000 -0.014319 0.000000
# 6 0.000000 0.000000 0.000000 0.000000 0.000000 -0.099189
#
#
# Mechanical properties :
#
#
# Convention : Reuss Voigt Hill
#
# Bulk Modulus (GPa) = 48.15567 80.31252 64.23410
# Shear Modulus (GPa) = 154.70509 -0.57281 77.06614
#
# Velocity S-wave (km/s) = 9.07653 -0.55230 6.40618
# Velocity P-wave (km/s) = 11.63995 6.50855 9.43000
#
# Compressibility (1/GPa) = 0.02076599
#
# Stress axis : x y z
#
# Youngs Moduli (GPa) = 91.71037 30.56127 80.40564
#
# Poissons Ratio (x) = 0.23455 0.40029
# Poissons Ratio (y) = 0.70386 0.40160
# Poissons Ratio (z) = 0.45657 0.15264
#
# Static dielectric constant tensor:
#      x y z
#    x 3.740160 0.000000 0.000000 
#    y 0.000000 3.103080 0.000000 
#    z 0.000000 0.000000 3.583000 
# 
# 
# High freq. dielectric constant tensor:
#      x y z
#    x 1.747440 0.000000 0.000000 
#    y 0.000000 1.693780 0.000000 
#    z 0.000000 0.000000 1.740420 
# 
# From -- ./inp_files/13862.got.cif
#   From: 2010.03.12/outbox.cif.g09.slc.cpg/sg47_7_cif.got.tgz:13862.got - 2010.04.14 03:12:58.
