data_PCOD8199493
_publ_section_title
;
Structure prediction by ZEFSAII (Michael W. Deem and Ramdas Pophale) SiO2 
 PCOD8199493
Probable space group: P M M M
;
_chemical_formula_sum "Si O2"
_cell_formula_units_Z 64
_cell_length_a 15.374107
_cell_length_b 23.103062
_cell_length_c 9.785841
_cell_angle_alpha 90.000000
_cell_angle_beta 90.000000
_cell_angle_gamma 90.000000
_cell_volume 3475.822562
_symmetry_space_group_name_H-M "P M M M"
_symmetry_group_IT_number 47
_symmetry_cell_setting 'orthorhombic'
loop_
_space_group_symop_operation_xyz
x,y,z
-x,-y,z
x,-y,-z
-x,y,-z
-x,-y,-z
x,y,-z
-x,y,z
x,-y,z
loop_
_atom_site_type_symbol
_atom_site_label
_atom_site_fract_x
_atom_site_fract_y
_atom_site_fract_z
Si Si1 0.906358 0.875451 0.846340
Si Si2 0.401546 0.276650 0.648629
Si Si3 0.775470 0.566427 0.842371
Si Si4 0.101453 0.353549 0.659920
Si Si5 0.400724 0.624446 0.156962
Si Si6 0.323532 0.163040 0.345948
Si Si7 0.859586 0.777729 0.344849
Si Si8 0.268046 0.934459 0.840221
O O1 0.915078 0.819266 0.751819
O O2 0.831842 0.920310 0.799977
O O3 0.000000 0.907676 0.839641
O O4 0.885884 0.854187 0.000000
O O5 0.353751 0.284323 0.500000
O O6 0.500000 0.295112 0.631156
O O7 0.363447 0.319908 0.761165
O O8 0.398921 0.208818 0.691316
O O9 0.796154 0.500000 0.810035
O O10 0.837914 0.603986 0.746693
O O11 0.671634 0.575368 0.814160
O O12 0.796178 0.581775 0.000000
O O13 0.119361 0.364613 0.500000
O O14 0.127161 0.288229 0.701003
O O15 0.000000 0.364617 0.694669
O O16 0.500000 0.604655 0.198405
O O17 0.401314 0.643227 0.000000
O O18 0.330639 0.138486 0.500000
O O19 0.239528 0.203306 0.326307
O O20 0.329866 0.108744 0.243975
O O21 0.892384 0.785981 0.500000
O O22 0.288017 0.000000 0.795502
O O23 0.286162 0.925749 0.000000
#
# Coordination Sequence:
#
# PCOD8199493 Si02
#       8
#     8   8   8   8   8   8   8   8
#     4   9  17  28  43  65  91 117 147 186 232 280
#     4   9  17  30  50  76 103 127 152 187 235 290
#     4  10  22  38  54  74 101 134 171 209 249 293
#     4  10  21  36  54  75  99 131 171 213 256 300
#     4   9  18  33  54  80 107 133 162 198 243 298
#     4   9  17  29  47  70  94 121 152 189 234 282
#     4   9  17  30  48  69  93 120 151 189 236 288
#     4   9  18  31  45  62  86 119 158 195 230 270
#
# _framework density 18.412908000000002
#
# number of rings (size 3 to 8) (size 9 to 14) (size 15 to 20)
#    0.000    2.750    0.000    1.125    0.000    4.750 
#    0.000    6.250    0.000    0.375    0.000    8.750 
#    0.000    0.000    0.000    0.000    0.000    0.000 
#
# Total GULP energy -793061.439002 kJ/mol
# GULP energy per Si atom -12391.584984 kJ/mol
# Density = 1.837100 g / cm^3
# Si number density = 18.412908 Si / 1000 Ang^3
#
#
#
# Elastic Constant Matrix: (Units=GPa)
#
#
# Indices 1 2 3 4 5 6 
#
# 1 51.2362 27.1854 26.5985 0.0000 0.0000 0.0000
# 2 27.1854 102.0107 49.0459 0.0000 0.0000 0.0000
# 3 26.5985 49.0459 64.0018 0.0000 0.0000 0.0000
# 4 0.0000 0.0000 0.0000 28.2461 0.0000 0.0000
# 5 0.0000 0.0000 0.0000 0.0000 20.9329 0.0000
# 6 0.0000 0.0000 0.0000 0.0000 0.0000 18.5628
#
#
#
# Elastic Compliance Matrix: (Units=1/GPa)
#
#
# Indices 1 2 3 4 5 6 
#
# 1 0.025340 -0.002676 -0.008481 0.000000 0.000000 0.000000
# 2 -0.002676 0.015804 -0.010999 0.000000 0.000000 0.000000
# 3 -0.008481 -0.010999 0.027578 0.000000 0.000000 0.000000
# 4 0.000000 0.000000 0.000000 0.035403 0.000000 0.000000
# 5 0.000000 0.000000 0.000000 0.000000 0.047772 0.000000
# 6 0.000000 0.000000 0.000000 0.000000 0.000000 0.053871
#
#
# Mechanical properties :
#
#
# Convention : Reuss Voigt Hill
#
# Bulk Modulus (GPa) = 40.96482 46.98980 43.97731
# Shear Modulus (GPa) = 19.36367 21.17627 20.26997
#
# Velocity S-wave (km/s) = 3.24641 3.39496 3.32152
# Velocity P-wave (km/s) = 6.02897 6.39868 6.21657
#
# Compressibility (1/GPa) = 0.02441119
#
# Stress axis : x y z
#
# Youngs Moduli (GPa) = 39.46387 63.27419 36.26089
#
# Poissons Ratio (x) = 0.16929 0.30751
# Poissons Ratio (y) = 0.10559 0.39884
# Poissons Ratio (z) = 0.33468 0.69597
#
# Static dielectric constant tensor:
#      x y z
#    x 3.415180 0.000000 0.000000 
#    y 0.000000 3.273530 0.000000 
#    z 0.000000 0.000000 3.559820 
# 
# 
# High freq. dielectric constant tensor:
#      x y z
#    x 1.708850 0.000000 0.000000 
#    y 0.000000 1.698490 0.000000 
#    z 0.000000 0.000000 1.711810 
# 
# From -- ./inp_files/7902.got.cif
#   From: 2010.03.12/outbox.cif.g09.slc.cpg/sg47_4_cif.got.tgz:7902.got - 2010.04.14 03:12:58.
