data_PCOD8199987
_publ_section_title
;
Structure prediction by ZEFSAII (Michael W. Deem and Ramdas Pophale) SiO2 
 PCOD8199987
Probable space group: P M M M
;
_chemical_formula_sum "Si O2"
_cell_formula_units_Z 44
_cell_length_a 9.405274
_cell_length_b 7.728423
_cell_length_c 31.952727
_cell_angle_alpha 90.000000
_cell_angle_beta 90.000000
_cell_angle_gamma 90.000000
_cell_volume 2322.577772
_symmetry_space_group_name_H-M "P M M M"
_symmetry_group_IT_number 47
_symmetry_cell_setting 'orthorhombic'
loop_
_space_group_symop_operation_xyz
x,y,z
-x,-y,z
x,-y,-z
-x,y,-z
-x,-y,-z
x,y,-z
-x,y,z
x,-y,z
loop_
_atom_site_type_symbol
_atom_site_label
_atom_site_fract_x
_atom_site_fract_y
_atom_site_fract_z
Si Si1 0.666026 0.000000 0.273430
Si Si2 0.157621 0.699153 0.867258
Si Si3 0.334528 0.699657 0.210750
Si Si4 0.666732 0.797641 0.500000
Si Si5 0.162458 0.796299 0.955389
Si Si6 0.165906 0.000000 0.358823
Si Si7 0.837614 0.694864 0.420061
O O1 0.708890 0.825266 0.248701
O O2 0.749812 0.000000 0.316180
O O3 0.500000 0.000000 0.283641
O O4 0.140507 0.500000 0.857832
O O5 0.254627 0.774343 0.830272
O O6 0.234020 0.724635 0.912787
O O7 0.000000 0.787490 0.866609
O O8 0.500000 0.715726 0.200548
O O9 0.294527 0.500000 0.221914
O O10 0.500000 0.757270 0.500000
O O11 0.735572 0.711691 0.459552
O O12 0.699702 0.000000 0.500000
O O13 0.000000 0.732574 0.954998
O O14 0.172871 0.000000 0.954095
O O15 0.231021 0.730899 0.000000
O O16 0.210537 0.170979 0.384477
O O17 0.000000 0.000000 0.348321
O O18 0.824023 0.500000 0.402108
O O19 0.000000 0.734499 0.433916
#
# Coordination Sequence:
#
# PCOD8199987 Si02
#       7
#     4   8   8   4   8   4   8
#     4  10  22  38  57  79 101 133 175 211 256 321
#     4   9  17  28  45  71  96 120 158 204 245 290
#     4   9  19  36  54  73 100 131 163 204 255 309
#     4  11  22  35  56  87 121 154 193 238 275 311
#     4   8  14  24  38  60  92 126 156 189 235 290
#     4  10  22  39  57  82 113 141 177 226 272 318
#     4  10  21  38  60  84 113 153 193 226 270 325
#
# _framework density 18.944468000000001
#
# number of rings (size 3 to 8) (size 9 to 14) (size 15 to 20)
#    0.000    2.636    0.909    1.091    1.273    4.364 
#    0.000    1.818    0.000    0.545    0.000    3.818 
#    0.000    0.000    0.000    0.000    0.000    0.000 
#
# Total GULP energy -545261.038044 kJ/mol
# GULP energy per Si atom -12392.296319 kJ/mol
# Density = 1.890135 g / cm^3
# Si number density = 18.944468 Si / 1000 Ang^3
#
#
#
# Elastic Constant Matrix: (Units=GPa)
#
#
# Indices 1 2 3 4 5 6 
#
# 1 54.0077 33.6586 65.6195 0.0000 0.0000 0.0000
# 2 33.6586 99.7025 67.2339 0.0000 0.0000 0.0000
# 3 65.6195 67.2339 186.2444 0.0000 0.0000 0.0000
# 4 0.0000 0.0000 0.0000 9.5332 0.0000 0.0000
# 5 0.0000 0.0000 0.0000 0.0000 -21.6603 0.0000
# 6 0.0000 0.0000 0.0000 0.0000 0.0000 17.1406
#
#
#
# Elastic Compliance Matrix: (Units=1/GPa)
#
#
# Indices 1 2 3 4 5 6 
#
# 1 0.033818 -0.004470 -0.010301 0.000000 0.000000 0.000000
# 2 -0.004470 0.013848 -0.003424 0.000000 0.000000 0.000000
# 3 -0.010301 -0.003424 0.010235 0.000000 0.000000 0.000000
# 4 0.000000 0.000000 0.000000 0.104897 0.000000 0.000000
# 5 0.000000 0.000000 0.000000 0.000000 -0.046167 0.000000
# 6 0.000000 0.000000 0.000000 0.000000 0.000000 0.058341
#
#
# Mechanical properties :
#
#
# Convention : Reuss Voigt Hill
#
# Bulk Modulus (GPa) = 46.49069 74.77539 60.63304
# Shear Modulus (GPa) = 22.87992 12.56553 17.72273
#
# Velocity S-wave (km/s) = 3.47902 2.57822 3.06193
# Velocity P-wave (km/s) = 6.38215 6.95841 6.67650
#
# Compressibility (1/GPa) = 0.02150968
#
# Stress axis : x y z
#
# Youngs Moduli (GPa) = 29.57023 72.21306 97.70473
#
# Poissons Ratio (x) = 0.32278 1.00650
# Poissons Ratio (y) = 0.13217 0.33456
# Poissons Ratio (z) = 0.30462 0.24727
#
# Static dielectric constant tensor:
#      x y z
#    x 3.354060 0.000000 0.000000 
#    y 0.000000 3.588720 0.000000 
#    z 0.000000 0.000000 3.538310 
# 
# 
# High freq. dielectric constant tensor:
#      x y z
#    x 1.700430 0.000000 0.000000 
#    y 0.000000 1.742060 0.000000 
#    z 0.000000 0.000000 1.739300 
# 
# From -- ./inp_files/33998.got.cif
#   From: 2010.03.12/outbox.cif.g09.slc.cpg/sg47_17_cif.got.tgz:33998.got - 2010.04.14 03:12:58.
