data_PCOD8199481
_publ_section_title
;
Structure prediction by ZEFSAII (Michael W. Deem and Ramdas Pophale) SiO2 
 PCOD8199481
Probable space group: P M M M
;
_chemical_formula_sum "Si O2"
_cell_formula_units_Z 48
_cell_length_a 9.188865
_cell_length_b 13.041201
_cell_length_c 19.588067
_cell_angle_alpha 90.000000
_cell_angle_beta 90.000000
_cell_angle_gamma 90.000000
_cell_volume 2347.313197
_symmetry_space_group_name_H-M "P M M M"
_symmetry_group_IT_number 47
_symmetry_cell_setting 'orthorhombic'
loop_
_space_group_symop_operation_xyz
x,y,z
-x,-y,z
x,-y,-z
-x,y,-z
-x,-y,-z
x,y,-z
-x,y,z
x,-y,z
loop_
_atom_site_type_symbol
_atom_site_label
_atom_site_fract_x
_atom_site_fract_y
_atom_site_fract_z
Si Si1 0.668249 0.266183 0.794516
Si Si2 0.163097 0.879303 0.131561
Si Si3 0.664327 0.122402 0.000000
Si Si4 0.671623 0.385738 0.925429
Si Si5 0.669866 0.306787 0.358072
Si Si6 0.166010 0.500000 0.580720
Si Si7 0.167826 0.882760 0.579942
O O1 0.500000 0.238560 0.804214
O O2 0.761272 0.161010 0.798790
O O3 0.734610 0.331494 0.857742
O O4 0.693723 0.322397 0.722823
O O5 0.000000 0.837198 0.124485
O O6 0.163633 0.000000 0.134474
O O7 0.255832 0.836567 0.067554
O O8 0.500000 0.165450 0.000000
O O9 0.666484 0.000000 0.000000
O O10 0.500000 0.391788 0.916102
O O11 0.737192 0.500000 0.926613
O O12 0.708513 0.332809 0.000000
O O13 0.500000 0.312556 0.377505
O O14 0.753919 0.397996 0.394633
O O15 0.730039 0.195719 0.379538
O O16 0.169210 0.500000 0.500000
O O17 0.000000 0.500000 0.607659
O O18 0.192611 0.864725 0.500000
O O19 0.000000 0.861280 0.598921
O O20 0.209425 0.000000 0.599400
#
# Coordination Sequence:
#
# PCOD8199481 Si02
#       7
#     8   8   4   8   8   4   8
#     4  10  22  36  55  84 116 152 192 238 291 350
#     4  10  21  36  53  76 110 151 195 243 295 349
#     4   9  17  31  53  77 102 139 190 247 301 354
#     4   8  15  30  54  80 103 134 183 237 282 331
#     4  11  24  39  59  92 130 163 198 249 309 366
#     4  11  25  45  69  93 120 161 210 252 292 358
#     4   9  19  38  64  91 120 158 204 250 296 357
#
# _framework density 20.448913000000001
#
# number of rings (size 3 to 8) (size 9 to 14) (size 15 to 20)
#    0.000    2.333    0.000    3.000    2.333    7.333 
#    0.000    4.167    0.000    0.000    0.000    1.167 
#    0.000    0.000    0.000    0.000    0.000    0.000 
#
# Total GULP energy -595030.715718 kJ/mol
# GULP energy per Si atom -12396.473244 kJ/mol
# Density = 2.040237 g / cm^3
# Si number density = 20.448913 Si / 1000 Ang^3
#
#
#
# Elastic Constant Matrix: (Units=GPa)
#
#
# Indices 1 2 3 4 5 6 
#
# 1 125.0142 56.6770 55.8910 0.0000 0.0000 0.0000
# 2 56.6770 87.6597 51.9015 0.0000 0.0000 0.0000
# 3 55.8910 51.9015 102.1189 0.0000 0.0000 0.0000
# 4 0.0000 0.0000 0.0000 28.2016 0.0000 0.0000
# 5 0.0000 0.0000 0.0000 0.0000 21.2379 0.0000
# 6 0.0000 0.0000 0.0000 0.0000 0.0000 20.5737
#
#
#
# Elastic Compliance Matrix: (Units=1/GPa)
#
#
# Indices 1 2 3 4 5 6 
#
# 1 0.012288 -0.005669 -0.003844 0.000000 0.000000 0.000000
# 2 -0.005669 0.018933 -0.006520 0.000000 0.000000 0.000000
# 3 -0.003844 -0.006520 0.015210 0.000000 0.000000 0.000000
# 4 0.000000 0.000000 0.000000 0.035459 0.000000 0.000000
# 5 0.000000 0.000000 0.000000 0.000000 0.047086 0.000000
# 6 0.000000 0.000000 0.000000 0.000000 0.000000 0.048606
#
#
# Mechanical properties :
#
#
# Convention : Reuss Voigt Hill
#
# Bulk Modulus (GPa) = 69.61232 71.52576 70.56904
# Shear Modulus (GPa) = 23.31694 24.02419 23.67056
#
# Velocity S-wave (km/s) = 3.38043 3.43131 3.40596
# Velocity P-wave (km/s) = 7.02512 7.12406 7.07476
#
# Compressibility (1/GPa) = 0.01436527
#
# Stress axis : x y z
#
# Youngs Moduli (GPa) = 81.38226 52.81676 65.74457
#
# Poissons Ratio (x) = 0.29940 0.25273
# Poissons Ratio (y) = 0.46133 0.42867
# Poissons Ratio (z) = 0.31285 0.34438
#
# Static dielectric constant tensor:
#      x y z
#    x 3.661860 0.000000 0.000000 
#    y 0.000000 3.876340 0.000000 
#    z 0.000000 0.000000 3.812860 
# 
# 
# High freq. dielectric constant tensor:
#      x y z
#    x 1.782820 0.000000 0.000000 
#    y 0.000000 1.810750 0.000000 
#    z 0.000000 0.000000 1.799710 
# 
# From -- ./inp_files/26545.got.cif
#   From: 2010.03.12/outbox.cif.g09.slc.cpg/sg47_14_cif.got.tgz:26545.got - 2010.04.14 03:12:58.
