data_PCOD8199230
_publ_section_title
;
Structure prediction by ZEFSAII (Michael W. Deem and Ramdas Pophale) SiO2 
 PCOD8199230
Probable space group: P M M M
;
_chemical_formula_sum "Si O2"
_cell_formula_units_Z 48
_cell_length_a 30.966542
_cell_length_b 9.168567
_cell_length_c 8.894019
_cell_angle_alpha 90.000000
_cell_angle_beta 90.000000
_cell_angle_gamma 90.000000
_cell_volume 2525.179336
_symmetry_space_group_name_H-M "P M M M"
_symmetry_group_IT_number 47
_symmetry_cell_setting 'orthorhombic'
loop_
_space_group_symop_operation_xyz
x,y,z
-x,-y,z
x,-y,-z
-x,y,-z
-x,-y,-z
x,y,-z
-x,y,z
x,-y,z
loop_
_atom_site_type_symbol
_atom_site_label
_atom_site_fract_x
_atom_site_fract_y
_atom_site_fract_z
Si Si1 0.907227 0.663976 0.179207
Si Si2 0.000000 0.327371 0.164015
Si Si3 0.420440 0.830328 0.323634
Si Si4 0.500000 0.332551 0.822047
Si Si5 0.830683 0.829845 0.326793
Si Si6 0.657107 0.669368 0.824788
Si Si7 0.254342 0.330884 0.672260
O O1 0.896085 0.500000 0.234693
O O2 0.871518 0.774904 0.235088
O O3 0.954537 0.714727 0.245344
O O4 0.909353 0.667478 0.000000
O O5 0.000000 0.500000 0.143381
O O6 0.000000 0.252314 0.000000
O O7 0.425889 0.804841 0.500000
O O8 0.457741 0.745212 0.238758
O O9 0.374723 0.768793 0.271057
O O10 0.423435 0.000000 0.281869
O O11 0.500000 0.500000 0.768438
O O12 0.500000 0.321493 0.000000
O O13 0.837667 0.788108 0.500000
O O14 0.786911 0.756317 0.266092
O O15 0.825912 0.000000 0.300718
O O16 0.647641 0.500000 0.788882
O O17 0.705302 0.712096 0.775727
O O18 0.651069 0.703074 0.000000
O O19 0.265118 0.288756 0.500000
O O20 0.243114 0.500000 0.687468
#
# Coordination Sequence:
#
# PCOD8199230 Si02
#       7
#     8   4   8   4   8   8   8
#     4   9  17  31  53  77  99 127 167 214 261 310
#     4   7  12  26  48  73  98 124 160 209 260 307
#     4  11  24  40  59  85 116 150 188 226 266 317
#     4  11  24  41  62  88 116 147 186 231 276 320
#     4  10  21  35  50  72 105 141 174 211 258 312
#     4  10  21  37  58  85 114 142 176 220 269 320
#     4   9  18  34  55  76 101 138 181 221 261 308
#
# _framework density 19.008551000000001
#
# number of rings (size 3 to 8) (size 9 to 14) (size 15 to 20)
#    0.000    2.333    0.000    3.500    0.000    8.667 
#    0.000    4.167    0.000    4.000    0.000    0.000 
#    0.000    0.000    0.000    0.000    0.000    0.000 
#
# Total GULP energy -595139.896002 kJ/mol
# GULP energy per Si atom -12398.747833 kJ/mol
# Density = 1.896529 g / cm^3
# Si number density = 19.008551 Si / 1000 Ang^3
#
#
#
# Elastic Constant Matrix: (Units=GPa)
#
#
# Indices 1 2 3 4 5 6 
#
# 1 146.7895 69.5402 36.1756 0.0000 0.0000 0.0000
# 2 69.5402 90.1851 38.8953 0.0000 0.0000 0.0000
# 3 36.1756 38.8953 46.0032 0.0000 0.0000 0.0000
# 4 0.0000 0.0000 0.0000 26.6578 0.0000 0.0000
# 5 0.0000 0.0000 0.0000 0.0000 32.5611 0.0000
# 6 0.0000 0.0000 0.0000 0.0000 0.0000 -17.5270
#
#
#
# Elastic Compliance Matrix: (Units=1/GPa)
#
#
# Indices 1 2 3 4 5 6 
#
# 1 0.010886 -0.007401 -0.002303 0.000000 0.000000 0.000000
# 2 -0.007401 0.022483 -0.013190 0.000000 0.000000 0.000000
# 3 -0.002303 -0.013190 0.034701 0.000000 0.000000 0.000000
# 4 0.000000 0.000000 0.000000 0.037512 0.000000 0.000000
# 5 0.000000 0.000000 0.000000 0.000000 0.030711 0.000000
# 6 0.000000 0.000000 0.000000 0.000000 0.000000 -0.057055
#
#
# Mechanical properties :
#
#
# Convention : Reuss Voigt Hill
#
# Bulk Modulus (GPa) = 44.87802 63.57776 54.22789
# Shear Modulus (GPa) = 37.74871 17.56282 27.65577
#
# Velocity S-wave (km/s) = 4.46116 3.04294 3.81847
# Velocity P-wave (km/s) = 7.08495 6.77241 6.93044
#
# Compressibility (1/GPa) = 0.02228262
#
# Stress axis : x y z
#
# Youngs Moduli (GPa) = 91.85990 44.47714 28.81784
#
# Poissons Ratio (x) = 0.32916 0.06638
# Poissons Ratio (y) = 0.67983 0.38010
# Poissons Ratio (z) = 0.21158 0.58665
#
# Static dielectric constant tensor:
#      x y z
#    x 3.788040 0.000000 0.000000 
#    y 0.000000 3.416010 0.000000 
#    z 0.000000 0.000000 3.355780 
# 
# 
# High freq. dielectric constant tensor:
#      x y z
#    x 1.759600 0.000000 0.000000 
#    y 0.000000 1.728760 0.000000 
#    z 0.000000 0.000000 1.724600 
# 
# From -- ./inp_files/2584.got.cif
#   From: 2010.03.12/outbox.cif.g09.slc.cpg/sg47_2_cif.got.tgz:2584.got - 2010.04.14 03:12:58.
