data_PCOD8199264
_publ_section_title
;
Structure prediction by ZEFSAII (Michael W. Deem and Ramdas Pophale) SiO2 
 PCOD8199264
Probable space group: P M M M
;
_chemical_formula_sum "Si O2"
_cell_formula_units_Z 44
_cell_length_a 28.209191
_cell_length_b 9.459256
_cell_length_c 9.510135
_cell_angle_alpha 90.000000
_cell_angle_beta 90.000000
_cell_angle_gamma 90.000000
_cell_volume 2537.665015
_symmetry_space_group_name_H-M "P M M M"
_symmetry_group_IT_number 47
_symmetry_cell_setting 'orthorhombic'
loop_
_space_group_symop_operation_xyz
x,y,z
-x,-y,z
x,-y,-z
-x,y,-z
-x,-y,-z
x,y,-z
-x,y,z
x,-y,z
loop_
_atom_site_type_symbol
_atom_site_label
_atom_site_fract_x
_atom_site_fract_y
_atom_site_fract_z
Si Si1 0.689851 0.835367 0.662457
Si Si2 0.872149 0.663776 0.835436
Si Si3 0.780408 0.163421 0.836772
Si Si4 0.398533 0.341366 0.668135
Si Si5 0.500000 0.331904 0.345719
Si Si6 0.055180 0.839382 0.338023
O O1 0.698638 0.796602 0.500000
O O2 0.735278 0.783375 0.749152
O O3 0.643393 0.758193 0.723810
O O4 0.681036 0.000000 0.684518
O O5 0.867050 0.500000 0.795302
O O6 0.824759 0.743881 0.786563
O O7 0.916771 0.728788 0.756137
O O8 0.880886 0.685611 0.000000
O O9 0.792053 0.000000 0.804292
O O10 0.769050 0.187545 0.000000
O O11 0.401628 0.336641 0.500000
O O12 0.387431 0.500000 0.719924
O O13 0.450091 0.288748 0.729816
O O14 0.500000 0.500000 0.361494
O O15 0.500000 0.261503 0.500000
O O16 0.068911 0.815627 0.500000
O O17 0.000000 0.809562 0.313964
O O18 0.067597 0.000000 0.293213
#
# Coordination Sequence:
#
# PCOD8199264 Si02
#       6
#     8   8   8   8   4   8
#     4   9  17  28  42  63  89 112 139 182 230 268
#     4  10  21  35  51  74 102 128 157 197 241 282
#     4   9  18  33  50  65  86 121 159 189 223 273
#     4   8  13  22  37  57  82 112 143 174 212 262
#     4   7  10  18  33  53  78 109 142 172 206 255
#     4   9  19  36  56  77 101 130 164 198 231 273
#
# _framework density 17.338774000000001
#
# number of rings (size 3 to 8) (size 9 to 14) (size 15 to 20)
#    0.000    3.182    0.000    2.182    0.000    3.636 
#    0.000    5.000    0.000    2.727    0.000    0.636 
#    0.000    5.091    0.000    0.000    0.000    0.000 
#
# Total GULP energy -545366.243850 kJ/mol
# GULP energy per Si atom -12394.687360 kJ/mol
# Density = 1.729931 g / cm^3
# Si number density = 17.338774 Si / 1000 Ang^3
#
#
#
# Elastic Constant Matrix: (Units=GPa)
#
#
# Indices 1 2 3 4 5 6 
#
# 1 146.0003 74.2212 48.8801 0.0000 0.0000 0.0000
# 2 74.2212 83.1491 33.5773 0.0000 0.0000 0.0000
# 3 48.8801 33.5773 36.2153 0.0000 0.0000 0.0000
# 4 0.0000 0.0000 0.0000 19.2522 0.0000 0.0000
# 5 0.0000 0.0000 0.0000 0.0000 1.3172 0.0000
# 6 0.0000 0.0000 0.0000 0.0000 0.0000 34.6111
#
#
#
# Elastic Compliance Matrix: (Units=1/GPa)
#
#
# Indices 1 2 3 4 5 6 
#
# 1 0.015633 -0.008686 -0.013047 0.000000 0.000000 0.000000
# 2 -0.008686 0.024050 -0.010575 0.000000 0.000000 0.000000
# 3 -0.013047 -0.010575 0.055027 0.000000 0.000000 0.000000
# 4 0.000000 0.000000 0.000000 0.051942 0.000000 0.000000
# 5 0.000000 0.000000 0.000000 0.000000 0.759188 0.000000
# 6 0.000000 0.000000 0.000000 0.000000 0.000000 0.028892
#
#
# Mechanical properties :
#
#
# Convention : Reuss Voigt Hill
#
# Bulk Modulus (GPa) = 33.22858 64.30244 48.76551
# Shear Modulus (GPa) = 4.95354 18.28183 11.61769
#
# Velocity S-wave (km/s) = 1.69208 3.25066 2.59132
# Velocity P-wave (km/s) = 4.79827 7.15929 6.09421
#
# Compressibility (1/GPa) = 0.03009458
#
# Stress axis : x y z
#
# Youngs Moduli (GPa) = 63.96828 41.57971 18.17305
#
# Poissons Ratio (x) = 0.36115 0.23710
# Poissons Ratio (y) = 0.55561 0.19218
# Poissons Ratio (z) = 0.83457 0.43971
#
# Static dielectric constant tensor:
#      x y z
#    x 3.513310 0.000000 0.000000 
#    y 0.000000 3.156390 0.000000 
#    z 0.000000 0.000000 2.896980 
# 
# 
# High freq. dielectric constant tensor:
#      x y z
#    x 1.686120 0.000000 0.000000 
#    y 0.000000 1.657850 0.000000 
#    z 0.000000 0.000000 1.630200 
# 
# From -- ./inp_files/12330.got.cif
#   From: 2010.03.12/outbox.cif.g09.slc.cpg/sg47_7_cif.got.tgz:12330.got - 2010.04.14 03:12:58.
