data_PCOD8199037
_publ_section_title
;
Structure prediction by ZEFSAII (Michael W. Deem and Ramdas Pophale) SiO2 
 PCOD8199037
Probable space group: P M M M
;
_chemical_formula_sum "Si O2"
_cell_formula_units_Z 64
_cell_length_a 31.178046
_cell_length_b 14.284512
_cell_length_c 9.069295
_cell_angle_alpha 90.000000
_cell_angle_beta 90.000000
_cell_angle_gamma 90.000000
_cell_volume 4039.129991
_symmetry_space_group_name_H-M "P M M M"
_symmetry_group_IT_number 47
_symmetry_cell_setting 'orthorhombic'
loop_
_space_group_symop_operation_xyz
x,y,z
-x,-y,z
x,-y,-z
-x,y,-z
-x,-y,-z
x,y,-z
-x,y,z
x,-y,z
loop_
_atom_site_type_symbol
_atom_site_label
_atom_site_fract_x
_atom_site_fract_y
_atom_site_fract_z
Si Si1 0.950775 0.607478 0.170063
Si Si2 0.286712 0.719142 0.825911
Si Si3 0.124332 0.705444 0.325167
Si Si4 0.545339 0.611076 0.334805
Si Si5 0.797702 0.391575 0.829046
Si Si6 0.159712 0.101334 0.674891
Si Si7 0.256985 0.106048 0.670732
Si Si8 0.638020 0.392077 0.675325
O O1 0.942613 0.500000 0.214402
O O2 0.922150 0.673890 0.270936
O O3 0.000000 0.634767 0.198542
O O4 0.938499 0.622809 0.000000
O O5 0.243528 0.666221 0.774385
O O6 0.286126 0.825417 0.767829
O O7 0.327317 0.669537 0.756491
O O8 0.291536 0.717601 0.000000
O O9 0.126225 0.699845 0.500000
O O10 0.160799 0.637968 0.262521
O O11 0.131085 0.812268 0.267773
O O12 0.543588 0.651151 0.500000
O O13 0.500000 0.642470 0.254575
O O14 0.547082 0.500000 0.341567
O O15 0.590855 0.642824 0.264299
O O16 0.788087 0.500000 0.798934
O O17 0.807442 0.372418 0.000000
O O18 0.159948 0.098829 0.500000
O O19 0.208323 0.115872 0.729054
O O20 0.142393 0.000000 0.733796
O O21 0.260278 0.135336 0.500000
O O22 0.273395 0.000000 0.693546
O O23 0.640978 0.378199 0.500000
O O24 0.646097 0.500000 0.717351
#
# Coordination Sequence:
#
# PCOD8199037 Si02
#       8
#     8   8   8   8   8   8   8   8
#     4   9  19  36  54  69  91 126 157 178 213 269
#     4  11  21  31  44  63  92 126 157 191 227 269
#     4  11  20  30  50  76  95 112 145 192 231 261
#     4   7  10  19  37  60  83 108 145 194 239 272
#     4  10  21  34  44  58  88 129 161 181 211 261
#     4   8  15  29  48  69  93 118 143 177 224 273
#     4   9  17  32  52  68  86 116 153 192 232 273
#     4   9  17  28  43  63  88 122 161 196 230 273
#
# _framework density 15.844996999999999
#
# number of rings (size 3 to 8) (size 9 to 14) (size 15 to 20)
#    0.000    2.750    1.250    3.750    0.000    3.750 
#    0.000    0.625    0.000    2.250    0.000    4.375 
#    0.000    0.500    0.000    5.750    0.000    1.875 
#
# Total GULP energy -793077.688941 kJ/mol
# GULP energy per Si atom -12391.838890 kJ/mol
# Density = 1.580893 g / cm^3
# Si number density = 15.844997 Si / 1000 Ang^3
#
#
#
# Elastic Constant Matrix: (Units=GPa)
#
#
# Indices 1 2 3 4 5 6 
#
# 1 109.5006 52.5483 35.2336 0.0000 0.0000 0.0000
# 2 52.5483 94.5020 33.5839 0.0000 0.0000 0.0000
# 3 35.2336 33.5839 38.2516 0.0000 0.0000 0.0000
# 4 0.0000 0.0000 0.0000 15.9829 0.0000 0.0000
# 5 0.0000 0.0000 0.0000 0.0000 16.9752 0.0000
# 6 0.0000 0.0000 0.0000 0.0000 0.0000 7.8997
#
#
#
# Elastic Compliance Matrix: (Units=1/GPa)
#
#
# Indices 1 2 3 4 5 6 
#
# 1 0.014314 -0.004759 -0.009007 0.000000 0.000000 0.000000
# 2 -0.004759 0.016963 -0.010510 0.000000 0.000000 0.000000
# 3 -0.009007 -0.010510 0.043666 0.000000 0.000000 0.000000
# 4 0.000000 0.000000 0.000000 0.062567 0.000000 0.000000
# 5 0.000000 0.000000 0.000000 0.000000 0.058909 0.000000
# 6 0.000000 0.000000 0.000000 0.000000 0.000000 0.126587
#
#
# Mechanical properties :
#
#
# Convention : Reuss Voigt Hill
#
# Bulk Modulus (GPa) = 37.88914 53.88729 45.88822
# Shear Modulus (GPa) = 13.14568 16.23081 14.68824
#
# Velocity S-wave (km/s) = 2.88348 3.20402 3.04796
# Velocity P-wave (km/s) = 5.92032 6.91162 6.43509
#
# Compressibility (1/GPa) = 0.02639278
#
# Stress axis : x y z
#
# Youngs Moduli (GPa) = 69.86144 58.95278 22.90105
#
# Poissons Ratio (x) = 0.28053 0.20626
# Poissons Ratio (y) = 0.33244 0.24068
# Poissons Ratio (z) = 0.62923 0.61957
#
# Static dielectric constant tensor:
#      x y z
#    x 3.185910 0.000000 0.000000 
#    y 0.000000 3.083270 0.000000 
#    z 0.000000 0.000000 2.781970 
# 
# 
# High freq. dielectric constant tensor:
#      x y z
#    x 1.603770 0.000000 0.000000 
#    y 0.000000 1.592560 0.000000 
#    z 0.000000 0.000000 1.586700 
# 
# From -- ./inp_files/14327.got.cif
#   From: 2010.03.12/outbox.cif.g09.slc.cpg/sg47_8_cif.got.tgz:14327.got - 2010.04.14 03:12:58.
