data_PCOD8199974
_publ_section_title
;
Structure prediction by ZEFSAII (Michael W. Deem and Ramdas Pophale) SiO2 
 PCOD8199974
Probable space group: P M M M
;
_chemical_formula_sum "Si O2"
_cell_formula_units_Z 48
_cell_length_a 15.668421
_cell_length_b 9.158660
_cell_length_c 16.874728
_cell_angle_alpha 90.000000
_cell_angle_beta 90.000000
_cell_angle_gamma 90.000000
_cell_volume 2421.552841
_symmetry_space_group_name_H-M "P M M M"
_symmetry_group_IT_number 47
_symmetry_cell_setting 'orthorhombic'
loop_
_space_group_symop_operation_xyz
x,y,z
-x,-y,z
x,-y,-z
-x,y,-z
-x,-y,-z
x,y,-z
-x,y,z
x,-y,z
loop_
_atom_site_type_symbol
_atom_site_label
_atom_site_fract_x
_atom_site_fract_y
_atom_site_fract_z
Si Si1 0.905254 0.331880 0.693814
Si Si2 0.402964 0.327868 0.000000
Si Si3 0.343571 0.836087 0.151447
Si Si4 0.253656 0.672750 0.409936
Si Si5 0.596215 0.830063 0.319653
Si Si6 0.851861 0.165671 0.156308
Si Si7 0.100801 0.666565 0.000000
O O1 0.887275 0.500000 0.715922
O O2 0.833033 0.274044 0.633452
O O3 0.905458 0.239857 0.774264
O O4 0.000000 0.314708 0.655462
O O5 0.356919 0.270646 0.921773
O O6 0.395757 0.500000 0.000000
O O7 0.500000 0.273084 0.000000
O O8 0.398870 0.785351 0.226973
O O9 0.246605 0.829890 0.180763
O O10 0.368650 0.000000 0.124657
O O11 0.247338 0.727613 0.500000
O O12 0.262052 0.500000 0.405199
O O13 0.338251 0.738730 0.371580
O O14 0.500000 0.797282 0.349254
O O15 0.619397 0.000000 0.328924
O O16 0.884163 0.000000 0.144463
O O17 0.862760 0.253013 0.075857
O O18 0.133474 0.500000 0.000000
O O19 0.000000 0.674279 0.000000
#
# Coordination Sequence:
#
# PCOD8199974 Si02
#       7
#     8   4   8   8   8   8   4
#     4  10  21  38  61  88 119 157 198 239 291 354
#     4  11  24  37  52  82 118 151 194 244 291 341
#     4  10  21  38  59  82 112 153 197 240 290 346
#     4  10  22  40  62  89 121 155 192 240 296 352
#     4  10  21  39  63  89 118 156 200 243 291 350
#     4  11  22  37  59  86 115 150 197 248 294 342
#     4  11  24  39  54  78 116 159 200 240 287 345
#
# _framework density 19.821992000000002
#
# number of rings (size 3 to 8) (size 9 to 14) (size 15 to 20)
#    0.000    1.667    1.667    2.500    0.000    9.667 
#    0.000    3.333    0.000    0.000    0.000    2.333 
#    0.000    0.000    0.000    0.000    0.000    0.000 
#
# Total GULP energy -595337.490426 kJ/mol
# GULP energy per Si atom -12402.864384 kJ/mol
# Density = 1.977688 g / cm^3
# Si number density = 19.821992 Si / 1000 Ang^3
#
#
#
# Elastic Constant Matrix: (Units=GPa)
#
#
# Indices 1 2 3 4 5 6 
#
# 1 113.3389 32.0403 49.3068 0.0000 0.0000 0.0000
# 2 32.0403 73.1644 43.3983 0.0000 0.0000 0.0000
# 3 49.3068 43.3983 127.1094 0.0000 0.0000 0.0000
# 4 0.0000 0.0000 0.0000 24.2044 0.0000 0.0000
# 5 0.0000 0.0000 0.0000 0.0000 17.9818 0.0000
# 6 0.0000 0.0000 0.0000 0.0000 0.0000 28.2679
#
#
#
# Elastic Compliance Matrix: (Units=1/GPa)
#
#
# Indices 1 2 3 4 5 6 
#
# 1 0.011080 -0.002888 -0.003312 0.000000 0.000000 0.000000
# 2 -0.002888 0.017891 -0.004988 0.000000 0.000000 0.000000
# 3 -0.003312 -0.004988 0.010855 0.000000 0.000000 0.000000
# 4 0.000000 0.000000 0.000000 0.041315 0.000000 0.000000
# 5 0.000000 0.000000 0.000000 0.000000 0.055612 0.000000
# 6 0.000000 0.000000 0.000000 0.000000 0.000000 0.035376
#
#
# Mechanical properties :
#
#
# Convention : Reuss Voigt Hill
#
# Bulk Modulus (GPa) = 57.30539 62.56705 59.93622
# Shear Modulus (GPa) = 24.95972 26.68197 25.82085
#
# Velocity S-wave (km/s) = 3.55236 3.67288 3.61312
# Velocity P-wave (km/s) = 6.76746 7.04412 6.90717
#
# Compressibility (1/GPa) = 0.01745037
#
# Stress axis : x y z
#
# Youngs Moduli (GPa) = 90.24968 55.89294 92.12124
#
# Poissons Ratio (x) = 0.16140 0.30513
# Poissons Ratio (y) = 0.26061 0.45954
# Poissons Ratio (z) = 0.29893 0.27882
#
# Static dielectric constant tensor:
#      x y z
#    x 3.794450 0.000000 0.000000 
#    y 0.000000 3.601200 0.000000 
#    z 0.000000 0.000000 3.576440 
# 
# 
# High freq. dielectric constant tensor:
#      x y z
#    x 1.788090 0.000000 0.000000 
#    y 0.000000 1.768490 0.000000 
#    z 0.000000 0.000000 1.767740 
# 
# From -- ./inp_files/26508.got.cif
#   From: 2010.03.12/outbox.cif.g09.slc.cpg/sg47_14_cif.got.tgz:26508.got - 2010.04.14 03:12:58.
