data_PCOD8199723
_publ_section_title
;
Structure prediction by ZEFSAII (Michael W. Deem and Ramdas Pophale) SiO2 
 PCOD8199723
Probable space group: P M M M
;
_chemical_formula_sum "Si O2"
_cell_formula_units_Z 48
_cell_length_a 14.427877
_cell_length_b 18.365355
_cell_length_c 8.852901
_cell_angle_alpha 90.000000
_cell_angle_beta 90.000000
_cell_angle_gamma 90.000000
_cell_volume 2345.780471
_symmetry_space_group_name_H-M "P M M M"
_symmetry_group_IT_number 47
_symmetry_cell_setting 'orthorhombic'
loop_
_space_group_symop_operation_xyz
x,y,z
-x,-y,z
x,-y,-z
-x,y,-z
-x,-y,-z
x,y,-z
-x,y,z
x,-y,z
loop_
_atom_site_type_symbol
_atom_site_label
_atom_site_fract_x
_atom_site_fract_y
_atom_site_fract_z
Si Si1 0.609678 0.500000 0.331330
Si Si2 0.895920 0.580565 0.320863
Si Si3 0.217951 0.860676 0.177695
Si Si4 0.606400 0.647749 0.821897
Si Si5 0.395596 0.914672 0.673379
Si Si6 0.226530 0.286317 0.679205
Si Si7 0.895315 0.000000 0.179649
O O1 0.500000 0.500000 0.341851
O O2 0.653732 0.500000 0.500000
O O3 0.643211 0.429057 0.242463
O O4 0.897938 0.585924 0.500000
O O5 0.858633 0.500000 0.272315
O O6 0.831512 0.644948 0.256327
O O7 0.000000 0.591429 0.257677
O O8 0.325643 0.872710 0.217452
O O9 0.180651 0.787960 0.259502
O O10 0.157213 0.928202 0.239606
O O11 0.206880 0.850932 0.000000
O O12 0.500000 0.662291 0.776043
O O13 0.669118 0.709701 0.745395
O O14 0.619382 0.647902 0.000000
O O15 0.371286 0.896237 0.500000
O O16 0.500000 0.888949 0.711634
O O17 0.386322 0.000000 0.703493
O O18 0.229924 0.284870 0.500000
O O19 0.000000 0.000000 0.242708
O O20 0.894362 0.000000 0.000000
#
# Coordination Sequence:
#
# PCOD8199723 Si02
#       7
#     4   8   8   8   8   8   4
#     4   9  17  31  53  79 108 147 196 245 289 338
#     4   8  16  34  59  85 113 145 185 236 292 349
#     4  11  22  38  59  85 118 154 194 238 283 338
#     4  10  21  37  55  79 115 158 201 244 289 338
#     4   9  18  34  58  86 116 150 186 231 287 340
#     4  11  23  36  57  88 119 153 192 239 293 346
#     4   9  20  40  64  87 112 150 195 235 284 347
#
# _framework density 20.462274000000001
#
# number of rings (size 3 to 8) (size 9 to 14) (size 15 to 20)
#    0.000    2.333    0.833    2.750    1.167    3.667 
#    0.000    0.833    0.000    5.000    0.000    4.667 
#    0.000    0.000    0.000    0.000    0.000    0.000 
#
# Total GULP energy -595193.719582 kJ/mol
# GULP energy per Si atom -12399.869158 kJ/mol
# Density = 2.041570 g / cm^3
# Si number density = 20.462274 Si / 1000 Ang^3
#
#
#
# Elastic Constant Matrix: (Units=GPa)
#
#
# Indices 1 2 3 4 5 6 
#
# 1 100.8496 71.0717 29.4931 0.0000 0.0000 0.0000
# 2 71.0717 155.8163 40.4847 0.0000 0.0000 0.0000
# 3 29.4931 40.4847 67.1579 0.0000 0.0000 0.0000
# 4 0.0000 0.0000 0.0000 33.9854 0.0000 0.0000
# 5 0.0000 0.0000 0.0000 0.0000 15.6578 0.0000
# 6 0.0000 0.0000 0.0000 0.0000 0.0000 22.6780
#
#
#
# Elastic Compliance Matrix: (Units=1/GPa)
#
#
# Indices 1 2 3 4 5 6 
#
# 1 0.015086 -0.006118 -0.002937 0.000000 0.000000 0.000000
# 2 -0.006118 0.010091 -0.003396 0.000000 0.000000 0.000000
# 3 -0.002937 -0.003396 0.018228 0.000000 0.000000 0.000000
# 4 0.000000 0.000000 0.000000 0.029424 0.000000 0.000000
# 5 0.000000 0.000000 0.000000 0.000000 0.063866 0.000000
# 6 0.000000 0.000000 0.000000 0.000000 0.000000 0.044096
#
#
# Mechanical properties :
#
#
# Convention : Reuss Voigt Hill
#
# Bulk Modulus (GPa) = 54.04903 67.32476 60.68690
# Shear Modulus (GPa) = 23.60040 26.64919 25.12480
#
# Velocity S-wave (km/s) = 3.39980 3.61273 3.50788
# Velocity P-wave (km/s) = 6.47170 7.09759 6.79186
#
# Compressibility (1/GPa) = 0.01850172
#
# Stress axis : x y z
#
# Youngs Moduli (GPa) = 66.28524 99.09960 54.86215
#
# Poissons Ratio (x) = 0.60630 0.16114
# Poissons Ratio (y) = 0.40554 0.18632
# Poissons Ratio (z) = 0.19469 0.33657
#
# Static dielectric constant tensor:
#      x y z
#    x 3.796070 0.000000 0.000000 
#    y 0.000000 3.897300 0.000000 
#    z 0.000000 0.000000 3.379240 
# 
# 
# High freq. dielectric constant tensor:
#      x y z
#    x 1.795030 0.000000 0.000000 
#    y 0.000000 1.806670 0.000000 
#    z 0.000000 0.000000 1.772710 
# 
# From -- ./inp_files/6555.got.cif
#   From: 2010.03.12/outbox.cif.g09.slc.cpg/sg47_4_cif.got.tgz:6555.got - 2010.04.14 03:12:58.
