data_PCOD8199497
_publ_section_title
;
Structure prediction by ZEFSAII (Michael W. Deem and Ramdas Pophale) SiO2 
 PCOD8199497
Probable space group: P M M M
;
_chemical_formula_sum "Si O2"
_cell_formula_units_Z 48
_cell_length_a 9.168757
_cell_length_b 9.217013
_cell_length_c 30.919615
_cell_angle_alpha 90.000000
_cell_angle_beta 90.000000
_cell_angle_gamma 90.000000
_cell_volume 2612.971906
_symmetry_space_group_name_H-M "P M M M"
_symmetry_group_IT_number 47
_symmetry_cell_setting 'orthorhombic'
loop_
_space_group_symop_operation_xyz
x,y,z
-x,-y,z
x,-y,-z
-x,y,-z
-x,-y,-z
x,y,-z
-x,y,z
x,-y,z
loop_
_atom_site_type_symbol
_atom_site_label
_atom_site_fract_x
_atom_site_fract_y
_atom_site_fract_z
Si Si1 0.831178 0.331493 0.583662
Si Si2 0.164946 0.326830 0.000000
Si Si3 0.168104 0.829702 0.254401
Si Si4 0.335418 0.672741 0.916585
Si Si5 0.169272 0.667727 0.832011
Si Si6 0.328569 0.333135 0.329594
Si Si7 0.826476 0.836236 0.500000
O O1 0.808153 0.500000 0.573389
O O2 0.741595 0.281574 0.625466
O O3 0.767989 0.243614 0.542825
O O4 0.000000 0.295086 0.592358
O O5 0.247174 0.266045 0.042310
O O6 0.165732 0.500000 0.000000
O O7 0.000000 0.267597 0.000000
O O8 0.218420 0.759175 0.209425
O O9 0.267247 0.766601 0.291972
O O10 0.000000 0.790915 0.264139
O O11 0.193789 0.000000 0.251207
O O12 0.500000 0.732607 0.918413
O O13 0.333558 0.500000 0.917725
O O14 0.259771 0.727781 0.872704
O O15 0.204787 0.500000 0.822468
O O16 0.000000 0.690149 0.842915
O O17 0.500000 0.310760 0.332869
O O18 0.286874 0.500000 0.319974
O O19 0.000000 0.829506 0.500000
O O20 0.767613 0.000000 0.500000
#
# Coordination Sequence:
#
# PCOD8199497 Si02
#       7
#     8   4   8   8   8   8   4
#     4   9  17  31  52  75  99 129 165 204 247 295
#     4   9  15  23  37  59  90 125 158 195 242 292
#     4  10  21  36  54  76 101 131 168 209 253 301
#     4   9  16  25  39  62  92 124 158 197 241 289
#     4   9  17  30  48  69  94 125 161 200 242 290
#     4  10  21  36  54  77 104 134 169 209 254 303
#     4   9  17  29  48  75 102 128 164 209 250 289
#
# _framework density 18.369886999999999
#
# number of rings (size 3 to 8) (size 9 to 14) (size 15 to 20)
#    0.000    2.667    0.000    2.000    0.000    7.333 
#    0.000    3.750    0.000    2.500    0.000    0.583 
#    0.000    4.667    0.000    0.000    0.000    0.000 
#
# Total GULP energy -595293.814316 kJ/mol
# GULP energy per Si atom -12401.954465 kJ/mol
# Density = 1.832808 g / cm^3
# Si number density = 18.369887 Si / 1000 Ang^3
#
#
#
# Elastic Constant Matrix: (Units=GPa)
#
#
# Indices 1 2 3 4 5 6 
#
# 1 96.8549 35.9812 82.9161 0.0000 0.0000 0.0000
# 2 35.9812 59.2890 63.8264 0.0000 0.0000 0.0000
# 3 82.9161 63.8264 189.0195 0.0000 0.0000 0.0000
# 4 0.0000 0.0000 0.0000 0.2810 0.0000 0.0000
# 5 0.0000 0.0000 0.0000 0.0000 7.1650 0.0000
# 6 0.0000 0.0000 0.0000 0.0000 0.0000 15.0646
#
#
#
# Elastic Compliance Matrix: (Units=1/GPa)
#
#
# Indices 1 2 3 4 5 6 
#
# 1 0.017009 -0.003598 -0.006246 0.000000 0.000000 0.000000
# 2 -0.003598 0.027261 -0.007627 0.000000 0.000000 0.000000
# 3 -0.006246 -0.007627 0.010606 0.000000 0.000000 0.000000
# 4 0.000000 0.000000 0.000000 3.558612 0.000000 0.000000
# 5 0.000000 0.000000 0.000000 0.000000 0.139567 0.000000
# 6 0.000000 0.000000 0.000000 0.000000 0.000000 0.066381
#
#
# Mechanical properties :
#
#
# Convention : Reuss Voigt Hill
#
# Bulk Modulus (GPa) = 50.16788 78.95674 64.56231
# Shear Modulus (GPa) = 1.29499 15.33146 8.31322
#
# Velocity S-wave (km/s) = 0.84053 2.89207 2.12962
# Velocity P-wave (km/s) = 5.32082 7.36390 6.42410
#
# Compressibility (1/GPa) = 0.01993307
#
# Stress axis : x y z
#
# Youngs Moduli (GPa) = 58.79395 36.68311 94.28854
#
# Poissons Ratio (x) = 0.13199 0.58894
# Poissons Ratio (y) = 0.21154 0.71912
# Poissons Ratio (z) = 0.36723 0.27977
#
# Static dielectric constant tensor:
#      x y z
#    x 3.329760 0.000000 0.000000 
#    y 0.000000 3.081380 0.000000 
#    z 0.000000 0.000000 3.573800 
# 
# 
# High freq. dielectric constant tensor:
#      x y z
#    x 1.703560 0.000000 0.000000 
#    y 0.000000 1.676870 0.000000 
#    z 0.000000 0.000000 1.728270 
# 
# From -- ./inp_files/34167.got.cif
#   From: 2010.03.12/outbox.cif.g09.slc.cpg/sg47_18_cif.got.tgz:34167.got - 2010.04.14 03:12:58.
