data_PCOD8199843
_publ_section_title
;
Structure prediction by ZEFSAII (Michael W. Deem and Ramdas Pophale) SiO2 
 PCOD8199843
Probable space group: P M M M
;
_chemical_formula_sum "Si O2"
_cell_formula_units_Z 44
_cell_length_a 28.526832
_cell_length_b 9.013852
_cell_length_c 9.094446
_cell_angle_alpha 90.000000
_cell_angle_beta 90.000000
_cell_angle_gamma 90.000000
_cell_volume 2338.515302
_symmetry_space_group_name_H-M "P M M M"
_symmetry_group_IT_number 47
_symmetry_cell_setting 'orthorhombic'
loop_
_space_group_symop_operation_xyz
x,y,z
-x,-y,z
x,-y,-z
-x,y,-z
-x,-y,-z
x,y,-z
-x,y,z
x,-y,z
loop_
_atom_site_type_symbol
_atom_site_label
_atom_site_fract_x
_atom_site_fract_y
_atom_site_fract_z
Si Si1 0.051064 0.676371 0.666333
Si Si2 0.586751 0.674292 0.828338
Si Si3 0.500000 0.175269 0.670994
Si Si4 0.765899 0.826649 0.832638
Si Si5 0.671584 0.172922 0.328053
Si Si6 0.858884 0.672145 0.170969
O O1 0.057200 0.730698 0.500000
O O2 0.052493 0.500000 0.675832
O O3 0.094282 0.743488 0.758354
O O4 0.000000 0.730882 0.726472
O O5 0.580651 0.500000 0.802532
O O6 0.545609 0.759017 0.746404
O O7 0.635502 0.727160 0.761011
O O8 0.585271 0.714562 0.000000
O O9 0.500000 0.218961 0.500000
O O10 0.500000 0.000000 0.692607
O O11 0.722780 0.781544 0.729203
O O12 0.812137 0.749070 0.766776
O O13 0.775169 0.000000 0.827969
O O14 0.755536 0.773836 0.000000
O O15 0.667867 0.209108 0.500000
O O16 0.661176 0.000000 0.296736
O O17 0.854831 0.500000 0.209688
O O18 0.863096 0.703491 0.000000
#
# Coordination Sequence:
#
# PCOD8199843 Si02
#       6
#     8   8   4   8   8   8
#     4   8  14  25  41  62  89 120 153 191 239 295
#     4  11  24  40  59  85 115 146 181 220 263 311
#     4  11  24  41  62  88 116 147 184 223 262 308
#     4   9  18  33  51  70  97 134 169 202 248 305
#     4  10  21  37  57  81 107 137 177 220 261 310
#     4   9  17  28  44  68  94 119 154 202 248 290
#
# _framework density 18.815356999999999
#
# number of rings (size 3 to 8) (size 9 to 14) (size 15 to 20)
#    0.000    2.455    0.000    2.727    0.000    8.364 
#    0.000    3.636    0.000    0.545    0.000    3.818 
#    0.000    0.000    0.000    0.000    0.000    0.000 
#
# Total GULP energy -545555.262680 kJ/mol
# GULP energy per Si atom -12398.983243 kJ/mol
# Density = 1.877253 g / cm^3
# Si number density = 18.815357 Si / 1000 Ang^3
#
#
#
# Elastic Constant Matrix: (Units=GPa)
#
#
# Indices 1 2 3 4 5 6 
#
# 1 176.0799 54.3169 79.5087 0.0000 0.0000 0.0000
# 2 54.3169 44.2550 50.2954 0.0000 0.0000 0.0000
# 3 79.5087 50.2954 105.4062 0.0000 0.0000 0.0000
# 4 0.0000 0.0000 0.0000 21.7959 0.0000 0.0000
# 5 0.0000 0.0000 0.0000 0.0000 47.1599 0.0000
# 6 0.0000 0.0000 0.0000 0.0000 0.0000 44.5661
#
#
#
# Elastic Compliance Matrix: (Units=1/GPa)
#
#
# Indices 1 2 3 4 5 6 
#
# 1 0.009722 -0.007861 -0.003582 0.000000 0.000000 0.000000
# 2 -0.007861 0.055724 -0.020660 0.000000 0.000000 0.000000
# 3 -0.003582 -0.020660 0.022047 0.000000 0.000000 0.000000
# 4 0.000000 0.000000 0.000000 0.045880 0.000000 0.000000
# 5 0.000000 0.000000 0.000000 0.000000 0.021204 0.000000
# 6 0.000000 0.000000 0.000000 0.000000 0.000000 0.022439
#
#
# Mechanical properties :
#
#
# Convention : Reuss Voigt Hill
#
# Bulk Modulus (GPa) = 42.94188 77.10925 60.02557
# Shear Modulus (GPa) = 20.08162 32.14570 26.11366
#
# Velocity S-wave (km/s) = 3.27050 4.13786 3.72948
# Velocity P-wave (km/s) = 6.09376 7.99376 7.10754
#
# Compressibility (1/GPa) = 0.02328729
#
# Stress axis : x y z
#
# Youngs Moduli (GPa) = 102.86236 17.94563 45.35731
#
# Poissons Ratio (x) = 0.14107 0.16248
# Poissons Ratio (y) = 0.80858 0.93706
# Poissons Ratio (z) = 0.36849 0.37075
#
# Static dielectric constant tensor:
#      x y z
#    x 4.018500 0.000000 0.000000 
#    y 0.000000 3.240550 0.000000 
#    z 0.000000 0.000000 3.531100 
# 
# 
# High freq. dielectric constant tensor:
#      x y z
#    x 1.752070 0.000000 0.000000 
#    y 0.000000 1.704610 0.000000 
#    z 0.000000 0.000000 1.730280 
# 
# From -- ./inp_files/13628.got.cif
#   From: 2010.03.12/outbox.cif.g09.slc.cpg/sg47_7_cif.got.tgz:13628.got - 2010.04.14 03:12:58.
