data_PCOD8199562
_publ_section_title
;
Structure prediction by ZEFSAII (Michael W. Deem and Ramdas Pophale) SiO2 
 PCOD8199562
Probable space group: P M M M
;
_chemical_formula_sum "Si O2"
_cell_formula_units_Z 40
_cell_length_a 8.063129
_cell_length_b 27.439588
_cell_length_c 9.350167
_cell_angle_alpha 90.000000
_cell_angle_beta 90.000000
_cell_angle_gamma 90.000000
_cell_volume 2068.714517
_symmetry_space_group_name_H-M "P M M M"
_symmetry_group_IT_number 47
_symmetry_cell_setting 'orthorhombic'
loop_
_space_group_symop_operation_xyz
x,y,z
-x,-y,z
x,-y,-z
-x,y,-z
-x,-y,-z
x,y,-z
-x,y,z
x,-y,z
loop_
_atom_site_type_symbol
_atom_site_label
_atom_site_fract_x
_atom_site_fract_y
_atom_site_fract_z
Si Si1 0.805046 0.694558 0.339808
Si Si2 0.308069 0.119982 0.331619
Si Si3 0.305748 0.785329 0.841246
Si Si4 0.694352 0.590015 0.659538
Si Si5 0.000000 0.945635 0.330725
Si Si6 0.192473 0.500000 0.843455
O O1 0.731394 0.702836 0.500000
O O2 0.743572 0.735591 0.233599
O O3 0.745070 0.642657 0.278227
O O4 0.000000 0.695666 0.345912
O O5 0.295128 0.129668 0.500000
O O6 0.500000 0.104899 0.292313
O O7 0.248367 0.168956 0.253275
O O8 0.172634 0.079902 0.281106
O O9 0.500000 0.786907 0.856734
O O10 0.224791 0.788081 0.000000
O O11 0.770558 0.583735 0.500000
O O12 0.500000 0.585277 0.652325
O O13 0.760902 0.548407 0.760543
O O14 0.000000 0.947861 0.500000
O O15 0.000000 0.000000 0.265003
O O16 0.000000 0.500000 0.866208
O O17 0.279519 0.500000 0.000000
#
# Coordination Sequence:
#
# PCOD8199562 Si02
#       6
#     8   8   8   8   4   4
#     4  10  21  36  56  82 110 141 178 222 272 325
#     4   9  18  33  54  79 109 146 186 230 280 333
#     4  10  21  36  54  78 109 145 183 225 274 327
#     4  10  21  38  60  83 106 137 179 223 268 322
#     4   9  18  32  53  83 113 141 183 236 283 330
#     4  11  24  39  56  80 110 143 178 219 268 322
#
# _framework density 19.335678000000001
#
# number of rings (size 3 to 8) (size 9 to 14) (size 15 to 20)
#    0.000    2.200    0.000    2.400    1.400    6.800 
#    0.000    2.000    0.000    1.200    0.000    2.800 
#    0.000    0.000    0.000    0.000    0.000    0.000 
#
# Total GULP energy -495863.128187 kJ/mol
# GULP energy per Si atom -12396.578205 kJ/mol
# Density = 1.929167 g / cm^3
# Si number density = 19.335678 Si / 1000 Ang^3
#
#
#
# Elastic Constant Matrix: (Units=GPa)
#
#
# Indices 1 2 3 4 5 6 
#
# 1 69.0765 50.2892 32.5071 0.0000 0.0000 0.0000
# 2 50.2892 185.4966 78.5720 0.0000 0.0000 0.0000
# 3 32.5071 78.5720 95.0638 0.0000 0.0000 0.0000
# 4 0.0000 0.0000 0.0000 -7.9226 0.0000 0.0000
# 5 0.0000 0.0000 0.0000 0.0000 18.0209 0.0000
# 6 0.0000 0.0000 0.0000 0.0000 0.0000 38.4333
#
#
#
# Elastic Compliance Matrix: (Units=1/GPa)
#
#
# Indices 1 2 3 4 5 6 
#
# 1 0.018723 -0.003638 -0.003396 0.000000 0.000000 0.000000
# 2 -0.003638 0.009002 -0.006196 0.000000 0.000000 0.000000
# 3 -0.003396 -0.006196 0.016802 0.000000 0.000000 0.000000
# 4 0.000000 0.000000 0.000000 -0.126221 0.000000 0.000000
# 5 0.000000 0.000000 0.000000 0.000000 0.055491 0.000000
# 6 0.000000 0.000000 0.000000 0.000000 0.000000 0.026019
#
#
# Mechanical properties :
#
#
# Convention : Reuss Voigt Hill
#
# Bulk Modulus (GPa) = 55.34876 74.70816 65.02846
# Shear Modulus (GPa) = 154.81293 22.25756 88.53524
#
# Velocity S-wave (km/s) = 8.95766 3.39649 6.77406
# Velocity P-wave (km/s) = 11.64790 7.35546 9.74106
#
# Compressibility (1/GPa) = 0.01806725
#
# Stress axis : x y z
#
# Youngs Moduli (GPa) = 53.41035 111.09095 59.51774
#
# Poissons Ratio (x) = 0.40409 0.20211
# Poissons Ratio (y) = 0.19428 0.36878
# Poissons Ratio (z) = 0.18137 0.68834
#
# Static dielectric constant tensor:
#      x y z
#    x 3.664520 0.000000 0.000000 
#    y 0.000000 3.549190 0.000000 
#    z 0.000000 0.000000 5.054210 
# 
# 
# High freq. dielectric constant tensor:
#      x y z
#    x 1.759470 0.000000 0.000000 
#    y 0.000000 1.755920 0.000000 
#    z 0.000000 0.000000 1.738670 
# 
# From -- ./inp_files/1835.got.cif
#   From: 2010.03.12/outbox.cif.g09.slc.cpg/sg47_1_cif.got.tgz:1835.got - 2010.04.14 03:12:58.
