data_PCOD8199857
_publ_section_title
;
Structure prediction by ZEFSAII (Michael W. Deem and Ramdas Pophale) SiO2 
 PCOD8199857
Probable space group: P M M M
;
_chemical_formula_sum "Si O2"
_cell_formula_units_Z 48
_cell_length_a 9.036167
_cell_length_b 8.881689
_cell_length_c 30.884313
_cell_angle_alpha 90.000000
_cell_angle_beta 90.000000
_cell_angle_gamma 90.000000
_cell_volume 2478.664551
_symmetry_space_group_name_H-M "P M M M"
_symmetry_group_IT_number 47
_symmetry_cell_setting 'orthorhombic'
loop_
_space_group_symop_operation_xyz
x,y,z
-x,-y,z
x,-y,-z
-x,y,-z
-x,-y,-z
x,y,-z
-x,y,z
x,-y,z
loop_
_atom_site_type_symbol
_atom_site_label
_atom_site_fract_x
_atom_site_fract_y
_atom_site_fract_z
Si Si1 0.826629 0.324644 0.838925
Si Si2 0.171120 0.675824 0.585951
Si Si3 0.327448 0.175162 0.239872
Si Si4 0.672130 0.823589 0.080851
Si Si5 0.327131 0.328698 0.328229
Si Si6 0.824081 0.829417 0.500000
Si Si7 0.168998 0.678154 0.000000
O O1 0.791610 0.500000 0.845988
O O2 0.770965 0.274189 0.792096
O O3 0.740222 0.226912 0.873949
O O4 0.000000 0.291761 0.843207
O O5 0.199388 0.500000 0.580828
O O6 0.249596 0.737802 0.629058
O O7 0.240584 0.752659 0.543294
O O8 0.000000 0.716877 0.590519
O O9 0.500000 0.209179 0.231096
O O10 0.281784 0.224101 0.288080
O O11 0.291397 0.000000 0.233415
O O12 0.500000 0.781797 0.080348
O O13 0.697465 0.000000 0.074608
O O14 0.751391 0.737430 0.042403
O O15 0.500000 0.322586 0.336832
O O16 0.275043 0.500000 0.318798
O O17 0.000000 0.810960 0.500000
O O18 0.771286 0.000000 0.500000
O O19 0.177362 0.500000 0.000000
O O20 0.000000 0.734554 0.000000
#
# Coordination Sequence:
#
# PCOD8199857 Si02
#       7
#     8   8   8   8   8   4   4
#     4  11  24  40  59  85 115 147 186 231 277 326
#     4   9  17  30  49  71  95 126 166 210 254 304
#     4  10  21  37  57  81 109 143 182 222 268 325
#     4  11  24  41  62  89 119 152 192 234 278 332
#     4   9  18  33  52  74 102 136 172 212 261 315
#     4   9  17  29  46  69  96 126 162 205 254 308
#     4  11  24  41  62  90 122 155 194 237 280 328
#
# _framework density 19.365268
#
# number of rings (size 3 to 8) (size 9 to 14) (size 15 to 20)
#    0.000    2.000    0.000    3.250    0.000   11.667 
#    0.000    2.083    0.000    2.500    0.000    0.000 
#    0.000    0.000    0.000    0.000    0.000    0.000 
#
# Total GULP energy -595375.315738 kJ/mol
# GULP energy per Si atom -12403.652411 kJ/mol
# Density = 1.932119 g / cm^3
# Si number density = 19.365268 Si / 1000 Ang^3
#
#
#
# Elastic Constant Matrix: (Units=GPa)
#
#
# Indices 1 2 3 4 5 6 
#
# 1 82.0414 44.3409 55.4108 0.0000 0.0000 0.0000
# 2 44.3409 55.4112 34.1109 0.0000 0.0000 0.0000
# 3 55.4108 34.1109 137.5969 0.0000 0.0000 0.0000
# 4 0.0000 0.0000 0.0000 29.5796 0.0000 0.0000
# 5 0.0000 0.0000 0.0000 0.0000 39.3794 0.0000
# 6 0.0000 0.0000 0.0000 0.0000 0.0000 24.7462
#
#
#
# Elastic Compliance Matrix: (Units=1/GPa)
#
#
# Indices 1 2 3 4 5 6 
#
# 1 0.025138 -0.016385 -0.006061 0.000000 0.000000 0.000000
# 2 -0.016385 0.031976 -0.001329 0.000000 0.000000 0.000000
# 3 -0.006061 -0.001329 0.010038 0.000000 0.000000 0.000000
# 4 0.000000 0.000000 0.000000 0.033807 0.000000 0.000000
# 5 0.000000 0.000000 0.000000 0.000000 0.025394 0.000000
# 6 0.000000 0.000000 0.000000 0.000000 0.000000 0.040410
#
#
# Mechanical properties :
#
#
# Convention : Reuss Voigt Hill
#
# Bulk Modulus (GPa) = 51.01383 60.30830 55.66107
# Shear Modulus (GPa) = 22.64000 28.15349 25.39675
#
# Velocity S-wave (km/s) = 3.42292 3.81703 3.62534
# Velocity P-wave (km/s) = 6.48244 7.11592 6.80656
#
# Compressibility (1/GPa) = 0.01960253
#
# Stress axis : x y z
#
# Youngs Moduli (GPa) = 39.77991 31.27326 99.62121
#
# Poissons Ratio (x) = 0.51240 0.60385
# Poissons Ratio (y) = 0.65178 0.13238
# Poissons Ratio (z) = 0.24113 0.04156
#
# Static dielectric constant tensor:
#      x y z
#    x 3.494870 0.000000 0.000000 
#    y 0.000000 3.560580 0.000000 
#    z 0.000000 0.000000 3.886500 
# 
# 
# High freq. dielectric constant tensor:
#      x y z
#    x 1.743250 0.000000 0.000000 
#    y 0.000000 1.756800 0.000000 
#    z 0.000000 0.000000 1.772330 
# 
# From -- ./inp_files/2630.got.cif
#   From: 2010.03.12/outbox.cif.g09.slc.cpg/sg47_2_cif.got.tgz:2630.got - 2010.04.14 03:12:58.
