data_PCOD8199762
_publ_section_title
;
Structure prediction by ZEFSAII (Michael W. Deem and Ramdas Pophale) SiO2 
 PCOD8199762
Probable space group: P M M M
;
_chemical_formula_sum "Si O2"
_cell_formula_units_Z 40
_cell_length_a 9.162433
_cell_length_b 13.523400
_cell_length_c 16.482284
_cell_angle_alpha 90.000000
_cell_angle_beta 90.000000
_cell_angle_gamma 90.000000
_cell_volume 2042.274425
_symmetry_space_group_name_H-M "P M M M"
_symmetry_group_IT_number 47
_symmetry_cell_setting 'orthorhombic'
loop_
_space_group_symop_operation_xyz
x,y,z
-x,-y,z
x,-y,-z
-x,y,-z
-x,-y,-z
x,y,-z
-x,y,z
x,-y,z
loop_
_atom_site_type_symbol
_atom_site_label
_atom_site_fract_x
_atom_site_fract_y
_atom_site_fract_z
Si Si1 0.166101 0.117098 0.000000
Si Si2 0.834537 0.751226 0.288629
Si Si3 0.667457 0.611685 0.404410
Si Si4 0.338826 0.618590 0.000000
Si Si5 0.668984 0.883059 0.163817
Si Si6 0.160729 0.391314 0.856095
O O1 0.248849 0.153226 0.918266
O O2 0.000000 0.158979 0.000000
O O3 0.163025 0.000000 0.000000
O O4 0.758699 0.703495 0.367370
O O5 0.743620 0.838487 0.245137
O O6 0.839336 0.660089 0.228837
O O7 0.000000 0.787812 0.308983
O O8 0.682085 0.624237 0.500000
O O9 0.500000 0.623529 0.376466
O O10 0.721759 0.500000 0.380120
O O11 0.262940 0.664406 0.079273
O O12 0.324297 0.500000 0.000000
O O13 0.500000 0.658849 0.000000
O O14 0.500000 0.849785 0.158987
O O15 0.681771 0.000000 0.172894
O O16 0.224063 0.500000 0.839866
O O17 0.000000 0.395555 0.894478
#
# Coordination Sequence:
#
# PCOD8199762 Si02
#       6
#     4   8   8   4   8   8
#     4   9  17  32  55  80 106 138 180 232 285 330
#     4  11  22  34  53  81 109 138 175 222 274 324
#     4   9  19  37  60  85 114 147 180 216 263 322
#     4   9  17  28  43  64  90 126 172 214 249 289
#     4  10  21  37  56  78 107 145 188 232 278 329
#     4   9  18  32  47  65  95 133 168 203 248 303
#
# _framework density 19.586006999999999
#
# number of rings (size 3 to 8) (size 9 to 14) (size 15 to 20)
#    0.000    2.400    0.000    3.000    0.000    7.600 
#    0.000    4.000    0.000    0.600    0.000    4.200 
#    0.000    0.000    0.000    0.000    0.000    0.000 
#
# Total GULP energy -495684.371328 kJ/mol
# GULP energy per Si atom -12392.109283 kJ/mol
# Density = 1.954143 g / cm^3
# Si number density = 19.586007 Si / 1000 Ang^3
#
#
#
# Elastic Constant Matrix: (Units=GPa)
#
#
# Indices 1 2 3 4 5 6 
#
# 1 138.9621 38.5664 43.5489 0.0000 0.0000 0.0000
# 2 38.5664 62.1842 23.0610 0.0000 0.0000 0.0000
# 3 43.5489 23.0610 71.4236 0.0000 0.0000 0.0000
# 4 0.0000 0.0000 0.0000 48.3088 0.0000 0.0000
# 5 0.0000 0.0000 0.0000 0.0000 33.7905 0.0000
# 6 0.0000 0.0000 0.0000 0.0000 0.0000 27.5456
#
#
#
# Elastic Compliance Matrix: (Units=1/GPa)
#
#
# Indices 1 2 3 4 5 6 
#
# 1 0.009858 -0.004413 -0.004586 0.000000 0.000000 0.000000
# 2 -0.004413 0.020245 -0.003846 0.000000 0.000000 0.000000
# 3 -0.004586 -0.003846 0.018039 0.000000 0.000000 0.000000
# 4 0.000000 0.000000 0.000000 0.020700 0.000000 0.000000
# 5 0.000000 0.000000 0.000000 0.000000 0.029594 0.000000
# 6 0.000000 0.000000 0.000000 0.000000 0.000000 0.036303
#
#
# Mechanical properties :
#
#
# Convention : Reuss Voigt Hill
#
# Bulk Modulus (GPa) = 44.53953 53.65807 49.09880
# Shear Modulus (GPa) = 29.77738 33.08855 31.43297
#
# Velocity S-wave (km/s) = 3.90338 4.11469 4.01043
# Velocity P-wave (km/s) = 6.56544 7.07317 6.82403
#
# Compressibility (1/GPa) = 0.02245197
#
# Stress axis : x y z
#
# Youngs Moduli (GPa) = 101.43844 49.39602 55.43627
#
# Poissons Ratio (x) = 0.21800 0.25422
# Poissons Ratio (y) = 0.44768 0.21318
# Poissons Ratio (z) = 0.46518 0.18996
#
# Static dielectric constant tensor:
#      x y z
#    x 3.933130 0.000000 0.000000 
#    y 0.000000 3.431050 0.000000 
#    z 0.000000 0.000000 3.357710 
# 
# 
# High freq. dielectric constant tensor:
#      x y z
#    x 1.770530 0.000000 0.000000 
#    y 0.000000 1.758940 0.000000 
#    z 0.000000 0.000000 1.741830 
# 
# From -- ./inp_files/20677.got.cif
#   From: 2010.03.12/outbox.cif.g09.slc.cpg/sg47_11_cif.got.tgz:20677.got - 2010.04.14 03:12:58.
