data_PCOD8199316
_publ_section_title
;
Structure prediction by ZEFSAII (Michael W. Deem and Ramdas Pophale) SiO2 
 PCOD8199316
Probable space group: P M M M
;
_chemical_formula_sum "Si O2"
_cell_formula_units_Z 44
_cell_length_a 9.288554
_cell_length_b 18.945349
_cell_length_c 14.155411
_cell_angle_alpha 90.000000
_cell_angle_beta 90.000000
_cell_angle_gamma 90.000000
_cell_volume 2490.996996
_symmetry_space_group_name_H-M "P M M M"
_symmetry_group_IT_number 47
_symmetry_cell_setting 'orthorhombic'
loop_
_space_group_symop_operation_xyz
x,y,z
-x,-y,z
x,-y,-z
-x,y,-z
-x,-y,-z
x,y,-z
-x,y,z
x,-y,z
loop_
_atom_site_type_symbol
_atom_site_label
_atom_site_fract_x
_atom_site_fract_y
_atom_site_fract_z
Si Si1 0.664706 0.293755 0.266106
Si Si2 0.668071 0.835910 0.608407
Si Si3 0.833444 0.917249 0.762954
Si Si4 0.332937 0.183857 0.891914
Si Si5 0.155390 0.582648 0.000000
Si Si6 0.828448 0.579634 0.204039
O O1 0.500000 0.317877 0.268662
O O2 0.701495 0.242665 0.353652
O O3 0.701762 0.253444 0.168681
O O4 0.760559 0.364270 0.276393
O O5 0.715490 0.840050 0.500000
O O6 0.500000 0.853242 0.622473
O O7 0.758335 0.893390 0.665863
O O8 0.760786 0.881117 0.853770
O O9 0.000000 0.895375 0.758690
O O10 0.812969 0.000000 0.774937
O O11 0.500000 0.163008 0.880775
O O12 0.291134 0.199588 0.000000
O O13 0.235321 0.600015 0.900905
O O14 0.125726 0.500000 0.000000
O O15 0.000000 0.621417 0.000000
O O16 0.782571 0.500000 0.232832
O O17 0.000000 0.586036 0.204189
#
# Coordination Sequence:
#
# PCOD8199316 Si02
#       6
#     8   8   8   8   4   8
#     4   9  18  31  49  73  98 123 158 208 255 292
#     4   9  19  37  58  76  96 127 166 205 248 301
#     4  10  21  35  51  76 108 134 160 201 250 297
#     4   9  19  35  52  71  99 137 177 211 243 285
#     4   7  12  24  39  57  85 121 158 191 222 265
#     4   9  17  29  45  66  95 131 168 202 239 288
#
# _framework density 17.663609999999998
#
# number of rings (size 3 to 8) (size 9 to 14) (size 15 to 20)
#    0.000    3.000    0.000    2.727    1.273    6.182 
#    0.000    3.636    0.000    2.182    0.000    3.818 
#    0.000    0.000    0.000    0.000    0.000    0.000 
#
# Total GULP energy -545356.163030 kJ/mol
# GULP energy per Si atom -12394.458251 kJ/mol
# Density = 1.762341 g / cm^3
# Si number density = 17.663610 Si / 1000 Ang^3
#
#
#
# Elastic Constant Matrix: (Units=GPa)
#
#
# Indices 1 2 3 4 5 6 
#
# 1 60.0526 44.2293 23.2128 0.0000 0.0000 0.0000
# 2 44.2293 84.4972 17.5478 0.0000 0.0000 0.0000
# 3 23.2128 17.5478 79.6931 0.0000 0.0000 0.0000
# 4 0.0000 0.0000 0.0000 15.8145 0.0000 0.0000
# 5 0.0000 0.0000 0.0000 0.0000 3.3348 0.0000
# 6 0.0000 0.0000 0.0000 0.0000 0.0000 32.6812
#
#
#
# Elastic Compliance Matrix: (Units=1/GPa)
#
#
# Indices 1 2 3 4 5 6 
#
# 1 0.029143 -0.014138 -0.005376 0.000000 0.000000 0.000000
# 2 -0.014138 0.019261 -0.000123 0.000000 0.000000 0.000000
# 3 -0.005376 -0.000123 0.014141 0.000000 0.000000 0.000000
# 4 0.000000 0.000000 0.000000 0.063233 0.000000 0.000000
# 5 0.000000 0.000000 0.000000 0.000000 0.299871 0.000000
# 6 0.000000 0.000000 0.000000 0.000000 0.000000 0.030599
#
#
# Mechanical properties :
#
#
# Convention : Reuss Voigt Hill
#
# Bulk Modulus (GPa) = 42.97149 43.80253 43.38701
# Shear Modulus (GPa) = 9.93487 19.64962 14.79225
#
# Velocity S-wave (km/s) = 2.37417 3.33894 2.89700
# Velocity P-wave (km/s) = 5.64766 6.30212 5.98384
#
# Compressibility (1/GPa) = 0.02327124
#
# Stress axis : x y z
#
# Youngs Moduli (GPa) = 34.31377 51.91906 70.71647
#
# Poissons Ratio (x) = 0.73404 0.38014
# Poissons Ratio (y) = 0.48513 0.00869
# Poissons Ratio (z) = 0.18445 0.00638
#
# Static dielectric constant tensor:
#      x y z
#    x 3.150680 0.000000 0.000000 
#    y 0.000000 3.126120 0.000000 
#    z 0.000000 0.000000 3.397220 
# 
# 
# High freq. dielectric constant tensor:
#      x y z
#    x 1.671490 0.000000 0.000000 
#    y 0.000000 1.677440 0.000000 
#    z 0.000000 0.000000 1.668110 
# 
# From -- ./inp_files/8941.got.cif
#   From: 2010.03.12/outbox.cif.g09.slc.cpg/sg47_5_cif.got.tgz:8941.got - 2010.04.14 03:12:58.
