data_PCOD8199166
_publ_section_title
;
Structure prediction by ZEFSAII (Michael W. Deem and Ramdas Pophale) SiO2 
 PCOD8199166
Probable space group: P M M M
;
_chemical_formula_sum "Si O2"
_cell_formula_units_Z 40
_cell_length_a 9.402589
_cell_length_b 9.261110
_cell_length_c 25.877426
_cell_angle_alpha 90.000000
_cell_angle_beta 90.000000
_cell_angle_gamma 90.000000
_cell_volume 2253.365137
_symmetry_space_group_name_H-M "P M M M"
_symmetry_group_IT_number 47
_symmetry_cell_setting 'orthorhombic'
loop_
_space_group_symop_operation_xyz
x,y,z
-x,-y,z
x,-y,-z
-x,y,-z
-x,-y,-z
x,y,-z
-x,y,z
x,-y,z
loop_
_atom_site_type_symbol
_atom_site_label
_atom_site_fract_x
_atom_site_fract_y
_atom_site_fract_z
Si Si1 0.330201 0.665210 0.611772
Si Si2 0.334346 0.667460 0.099615
Si Si3 0.164769 0.666826 0.800330
Si Si4 0.164145 0.169230 0.301815
Si Si5 0.669222 0.836930 0.000000
Si Si6 0.654587 0.329738 0.500000
O O1 0.500000 0.682896 0.613469
O O2 0.287713 0.500000 0.624597
O O3 0.258548 0.771687 0.651904
O O4 0.269683 0.711054 0.554446
O O5 0.500000 0.697418 0.108737
O O6 0.304112 0.500000 0.088379
O O7 0.252553 0.721434 0.150352
O O8 0.273844 0.756335 0.050974
O O9 0.197389 0.500000 0.788354
O O10 0.216017 0.758127 0.751231
O O11 0.000000 0.693422 0.812433
O O12 0.000000 0.207899 0.312672
O O13 0.189036 0.000000 0.296816
O O14 0.500000 0.831718 0.000000
O O15 0.727143 0.000000 0.000000
O O16 0.631939 0.500000 0.500000
O O17 0.500000 0.254494 0.500000
#
# Coordination Sequence:
#
# PCOD8199166 Si02
#       6
#     8   8   8   8   4   4
#     4   9  17  31  53  77  98 123 159 202 244 287
#     4   9  17  30  49  71  93 118 151 191 232 275
#     4   9  18  33  51  69  91 122 159 198 240 283
#     4  10  21  35  49  68  98 134 166 197 239 290
#     4   9  17  29  46  69  96 124 152 183 224 274
#     4   7  12  26  48  73  98 122 152 195 244 287
#
# _framework density 17.751228999999999
#
# number of rings (size 3 to 8) (size 9 to 14) (size 15 to 20)
#    0.000    3.000    0.000    2.100    0.000    4.400 
#    0.000    3.500    0.000    7.800    0.000    0.000 
#    0.000    0.000    0.000    0.000    0.000    0.000 
#
# Total GULP energy -495832.133874 kJ/mol
# GULP energy per Si atom -12395.803347 kJ/mol
# Density = 1.771083 g / cm^3
# Si number density = 17.751229 Si / 1000 Ang^3
#
#
#
# Elastic Constant Matrix: (Units=GPa)
#
#
# Indices 1 2 3 4 5 6 
#
# 1 37.4072 29.9456 54.2220 0.0000 0.0000 0.0000
# 2 29.9456 78.0003 76.6247 0.0000 0.0000 0.0000
# 3 54.2220 76.6247 189.7068 0.0000 0.0000 0.0000
# 4 0.0000 0.0000 0.0000 5.4446 0.0000 0.0000
# 5 0.0000 0.0000 0.0000 0.0000 -11.2138 0.0000
# 6 0.0000 0.0000 0.0000 0.0000 0.0000 20.6657
#
#
#
# Elastic Compliance Matrix: (Units=1/GPa)
#
#
# Indices 1 2 3 4 5 6 
#
# 1 0.048700 -0.008327 -0.010556 0.000000 0.000000 0.000000
# 2 -0.008327 0.022677 -0.006780 0.000000 0.000000 0.000000
# 3 -0.010556 -0.006780 0.011027 0.000000 0.000000 0.000000
# 4 0.000000 0.000000 0.000000 0.183670 0.000000 0.000000
# 5 0.000000 0.000000 0.000000 0.000000 -0.089176 0.000000
# 6 0.000000 0.000000 0.000000 0.000000 0.000000 0.048389
#
#
# Mechanical properties :
#
#
# Convention : Reuss Voigt Hill
#
# Bulk Modulus (GPa) = 32.17613 69.63320 50.90467
# Shear Modulus (GPa) = 17.42333 12.60077 15.01205
#
# Velocity S-wave (km/s) = 3.13633 2.66720 2.91123
# Velocity P-wave (km/s) = 5.59294 6.98553 6.32766
#
# Compressibility (1/GPa) = 0.03107894
#
# Stress axis : x y z
#
# Youngs Moduli (GPa) = 20.53401 44.09686 90.68780
#
# Poissons Ratio (x) = 0.36718 0.95731
# Poissons Ratio (y) = 0.17098 0.61484
# Poissons Ratio (z) = 0.21676 0.29896
#
# Static dielectric constant tensor:
#      x y z
#    x 3.008800 0.000000 0.000000 
#    y 0.000000 3.168450 0.000000 
#    z 0.000000 0.000000 3.602310 
# 
# 
# High freq. dielectric constant tensor:
#      x y z
#    x 1.655130 0.000000 0.000000 
#    y 0.000000 1.673180 0.000000 
#    z 0.000000 0.000000 1.704810 
# 
# From -- ./inp_files/1799.got.cif
#   From: 2010.03.12/outbox.cif.g09.slc.cpg/sg47_1_cif.got.tgz:1799.got - 2010.04.14 03:12:58.
