data_PCOD8199317
_publ_section_title
;
Structure prediction by ZEFSAII (Michael W. Deem and Ramdas Pophale) SiO2 
 PCOD8199317
Probable space group: P M M M
;
_chemical_formula_sum "Si O2"
_cell_formula_units_Z 52
_cell_length_a 21.660653
_cell_length_b 14.119115
_cell_length_c 8.981589
_cell_angle_alpha 90.000000
_cell_angle_beta 90.000000
_cell_angle_gamma 90.000000
_cell_volume 2746.832634
_symmetry_space_group_name_H-M "P M M M"
_symmetry_group_IT_number 47
_symmetry_cell_setting 'orthorhombic'
loop_
_space_group_symop_operation_xyz
x,y,z
-x,-y,z
x,-y,-z
-x,y,-z
-x,-y,-z
x,y,-z
-x,y,z
x,-y,z
loop_
_atom_site_type_symbol
_atom_site_label
_atom_site_fract_x
_atom_site_fract_y
_atom_site_fract_z
Si Si1 0.572906 0.893775 0.332629
Si Si2 0.866590 0.392510 0.824131
Si Si3 0.611950 0.284710 0.825228
Si Si4 0.928791 0.222966 0.327771
Si Si5 0.251882 0.718763 0.824901
Si Si6 0.173755 0.107339 0.176181
Si Si7 0.500000 0.388897 0.328361
O O1 0.594824 0.867727 0.500000
O O2 0.500000 0.883070 0.323411
O O3 0.602819 0.825718 0.210782
O O4 0.593502 0.000000 0.291993
O O5 0.877222 0.500000 0.771491
O O6 0.915825 0.325702 0.743778
O O7 0.797219 0.361367 0.778035
O O8 0.875717 0.381527 0.000000
O O9 0.680563 0.309765 0.763249
O O10 0.561969 0.348522 0.743197
O O11 0.604609 0.302234 0.000000
O O12 0.910576 0.227842 0.500000
O O13 0.890264 0.139646 0.250091
O O14 0.000000 0.197643 0.304347
O O15 0.228184 0.822010 0.767932
O O16 0.258843 0.725477 0.000000
O O17 0.189810 0.000000 0.224729
O O18 0.164669 0.115583 0.000000
O O19 0.500000 0.500000 0.303562
O O20 0.500000 0.359329 0.500000
#
# Coordination Sequence:
#
# PCOD8199317 Si02
#       7
#     8   8   8   8   8   8   4
#     4   9  18  33  52  73 103 142 173 201 247 308
#     4   9  18  35  58  79 101 135 178 221 265 315
#     4  11  21  34  57  85 108 133 170 220 271 315
#     4  10  21  35  51  76 112 148 178 215 265 314
#     4   8  17  33  53  80 110 136 167 214 270 320
#     4   9  18  35  58  80 106 143 183 220 257 303
#     4  11  25  43  58  73 102 143 179 214 262 321
#
# _framework density 18.930895
#
# number of rings (size 3 to 8) (size 9 to 14) (size 15 to 20)
#    0.000    2.538    0.769    2.538    0.000    4.615 
#    0.000   13.077    0.000    0.000    0.000    0.000 
#    0.000    0.000    0.000    0.000    0.000    0.000 
#
# Total GULP energy -644650.000317 kJ/mol
# GULP energy per Si atom -12397.115391 kJ/mol
# Density = 1.888781 g / cm^3
# Si number density = 18.930895 Si / 1000 Ang^3
#
#
#
# Elastic Constant Matrix: (Units=GPa)
#
#
# Indices 1 2 3 4 5 6 
#
# 1 100.9244 24.0759 34.8298 0.0000 0.0000 0.0000
# 2 24.0759 81.8588 32.1031 0.0000 0.0000 0.0000
# 3 34.8298 32.1031 61.3162 0.0000 0.0000 0.0000
# 4 0.0000 0.0000 0.0000 21.3620 0.0000 0.0000
# 5 0.0000 0.0000 0.0000 0.0000 1.7354 0.0000
# 6 0.0000 0.0000 0.0000 0.0000 0.0000 14.1304
#
#
#
# Elastic Compliance Matrix: (Units=1/GPa)
#
#
# Indices 1 2 3 4 5 6 
#
# 1 0.012405 -0.001114 -0.006463 0.000000 0.000000 0.000000
# 2 -0.001114 0.015473 -0.007468 0.000000 0.000000 0.000000
# 3 -0.006463 -0.007468 0.023890 0.000000 0.000000 0.000000
# 4 0.000000 0.000000 0.000000 0.046812 0.000000 0.000000
# 5 0.000000 0.000000 0.000000 0.000000 0.576220 0.000000
# 6 0.000000 0.000000 0.000000 0.000000 0.000000 0.070770
#
#
# Mechanical properties :
#
#
# Convention : Reuss Voigt Hill
#
# Bulk Modulus (GPa) = 46.13135 47.34634 46.73885
# Shear Modulus (GPa) = 6.38663 17.65160 12.01911
#
# Velocity S-wave (km/s) = 1.83874 3.05687 2.52244
# Velocity P-wave (km/s) = 5.37858 6.12566 5.76424
#
# Compressibility (1/GPa) = 0.02167723
#
# Stress axis : x y z
#
# Youngs Moduli (GPa) = 80.61549 64.63029 41.85783
#
# Poissons Ratio (x) = 0.07198 0.27053
# Poissons Ratio (y) = 0.08978 0.31261
# Poissons Ratio (z) = 0.52103 0.48268
#
# Static dielectric constant tensor:
#      x y z
#    x 3.604170 0.000000 0.000000 
#    y 0.000000 3.618550 0.000000 
#    z 0.000000 0.000000 3.348780 
# 
# 
# High freq. dielectric constant tensor:
#      x y z
#    x 1.734360 0.000000 0.000000 
#    y 0.000000 1.737960 0.000000 
#    z 0.000000 0.000000 1.719450 
# 
# From -- ./inp_files/11045.got.cif
#   From: 2010.03.12/outbox.cif.g09.slc.cpg/sg47_6_cif.got.tgz:11045.got - 2010.04.14 03:12:58.
