data_PCOD8199164
_publ_section_title
;
Structure prediction by ZEFSAII (Michael W. Deem and Ramdas Pophale) SiO2 
 PCOD8199164
Probable space group: P M M M
;
_chemical_formula_sum "Si O2"
_cell_formula_units_Z 48
_cell_length_a 8.962011
_cell_length_b 16.400782
_cell_length_c 18.430645
_cell_angle_alpha 90.000000
_cell_angle_beta 90.000000
_cell_angle_gamma 90.000000
_cell_volume 2709.009716
_symmetry_space_group_name_H-M "P M M M"
_symmetry_group_IT_number 47
_symmetry_cell_setting 'orthorhombic'
loop_
_space_group_symop_operation_xyz
x,y,z
-x,-y,z
x,-y,-z
-x,y,-z
-x,-y,-z
x,y,-z
-x,y,z
x,-y,z
loop_
_atom_site_type_symbol
_atom_site_label
_atom_site_fract_x
_atom_site_fract_y
_atom_site_fract_z
Si Si1 0.176817 0.324797 0.584180
Si Si2 0.826223 0.907914 0.216624
Si Si3 0.324530 0.660104 0.851772
Si Si4 0.675390 0.239581 0.288289
Si Si5 0.174692 0.500000 0.416684
Si Si6 0.822644 0.500000 0.915270
Si Si7 0.169322 0.193931 0.080642
O O1 0.220473 0.311634 0.500000
O O2 0.258872 0.258996 0.632959
O O3 0.235187 0.413894 0.614156
O O4 0.000000 0.316903 0.593653
O O5 0.735952 0.849749 0.270058
O O6 0.794447 0.880576 0.134062
O O7 0.000000 0.901323 0.235822
O O8 0.768057 0.000000 0.226102
O O9 0.500000 0.643235 0.856568
O O10 0.276599 0.692730 0.771700
O O11 0.238521 0.578056 0.872301
O O12 0.279855 0.730188 0.908403
O O13 0.500000 0.234481 0.293439
O O14 0.216856 0.500000 0.500000
O O15 0.000000 0.500000 0.405895
O O16 0.000000 0.500000 0.910553
O O17 0.770973 0.500000 0.000000
O O18 0.000000 0.225599 0.092787
O O19 0.192294 0.159513 0.000000
#
# Coordination Sequence:
#
# PCOD8199164 Si02
#       7
#     8   8   8   8   4   4   8
#     4   9  17  31  53  79 105 134 169 206 244 290
#     4   9  18  33  53  75  98 127 163 201 245 299
#     4  10  21  35  49  68  97 134 173 208 246 295
#     4  10  21  35  51  73 102 134 166 202 246 297
#     4   7  12  25  45  70  98 125 154 189 228 270
#     4  11  23  36  51  72  97 129 174 223 263 295
#     4   9  17  30  49  73 100 127 158 201 250 297
#
# _framework density 17.718651999999999
#
# number of rings (size 3 to 8) (size 9 to 14) (size 15 to 20)
#    0.000    2.667    0.000    2.750    0.000    6.667 
#    0.000    3.750    0.000    2.000    0.000    8.167 
#    0.000    0.000    0.000    0.000    0.000    0.000 
#
# Total GULP energy -594905.607188 kJ/mol
# GULP energy per Si atom -12393.866816 kJ/mol
# Density = 1.767832 g / cm^3
# Si number density = 17.718652 Si / 1000 Ang^3
#
#
#
# Elastic Constant Matrix: (Units=GPa)
#
#
# Indices 1 2 3 4 5 6 
#
# 1 57.3480 51.7820 40.8667 0.0000 0.0000 0.0000
# 2 51.7820 142.2278 75.0155 0.0000 0.0000 0.0000
# 3 40.8667 75.0155 105.2643 0.0000 0.0000 0.0000
# 4 0.0000 0.0000 0.0000 18.4115 0.0000 0.0000
# 5 0.0000 0.0000 0.0000 0.0000 22.4622 0.0000
# 6 0.0000 0.0000 0.0000 0.0000 0.0000 19.1145
#
#
#
# Elastic Compliance Matrix: (Units=1/GPa)
#
#
# Indices 1 2 3 4 5 6 
#
# 1 0.028012 -0.007150 -0.005780 0.000000 0.000000 0.000000
# 2 -0.007150 0.013090 -0.006553 0.000000 0.000000 0.000000
# 3 -0.005780 -0.006553 0.016413 0.000000 0.000000 0.000000
# 4 0.000000 0.000000 0.000000 0.054314 0.000000 0.000000
# 5 0.000000 0.000000 0.000000 0.000000 0.044519 0.000000
# 6 0.000000 0.000000 0.000000 0.000000 0.000000 0.052316
#
#
# Mechanical properties :
#
#
# Convention : Reuss Voigt Hill
#
# Bulk Modulus (GPa) = 53.90603 71.12981 62.51792
# Shear Modulus (GPa) = 19.69942 21.14270 20.42106
#
# Velocity S-wave (km/s) = 3.33797 3.45809 3.39856
# Velocity P-wave (km/s) = 6.73390 7.49504 7.12464
#
# Compressibility (1/GPa) = 0.01855080
#
# Stress axis : x y z
#
# Youngs Moduli (GPa) = 35.69859 76.39201 60.92560
#
# Poissons Ratio (x) = 0.54623 0.35213
# Poissons Ratio (y) = 0.25526 0.39923
# Poissons Ratio (z) = 0.20632 0.50058
#
# Static dielectric constant tensor:
#      x y z
#    x 3.162010 0.000000 0.000000 
#    y 0.000000 3.345210 0.000000 
#    z 0.000000 0.000000 3.245550 
# 
# 
# High freq. dielectric constant tensor:
#      x y z
#    x 1.676150 0.000000 0.000000 
#    y 0.000000 1.680450 0.000000 
#    z 0.000000 0.000000 1.674660 
# 
# From -- ./inp_files/26542.got.cif
#   From: 2010.03.12/outbox.cif.g09.slc.cpg/sg47_14_cif.got.tgz:26542.got - 2010.04.14 03:12:58.
