data_PCOD8199884
_publ_section_title
;
Structure prediction by ZEFSAII (Michael W. Deem and Ramdas Pophale) SiO2 
 PCOD8199884
Probable space group: P M M M
;
_chemical_formula_sum "Si O2"
_cell_formula_units_Z 56
_cell_length_a 20.889366
_cell_length_b 8.958009
_cell_length_c 15.195072
_cell_angle_alpha 90.000000
_cell_angle_beta 90.000000
_cell_angle_gamma 90.000000
_cell_volume 2843.410193
_symmetry_space_group_name_H-M "P M M M"
_symmetry_group_IT_number 47
_symmetry_cell_setting 'orthorhombic'
loop_
_space_group_symop_operation_xyz
x,y,z
-x,-y,z
x,-y,-z
-x,y,-z
-x,-y,-z
x,y,-z
-x,y,z
x,-y,z
loop_
_atom_site_type_symbol
_atom_site_label
_atom_site_fract_x
_atom_site_fract_y
_atom_site_fract_z
Si Si1 0.924677 0.335556 0.000000
Si Si2 0.927442 0.176205 0.825390
Si Si3 0.378830 0.664604 0.398294
Si Si4 0.250813 0.828242 0.399232
Si Si5 0.191463 0.674757 0.759310
Si Si6 0.299468 0.676289 0.898588
Si Si7 0.500000 0.831940 0.394300
Si Si8 0.429276 0.169863 0.104344
O O1 0.902148 0.243196 0.083316
O O2 0.891936 0.500000 0.000000
O O3 0.000000 0.353899 0.000000
O O4 0.876654 0.240650 0.757615
O O5 0.000000 0.228360 0.802461
O O6 0.924374 0.000000 0.830253
O O7 0.393167 0.638329 0.500000
O O8 0.364040 0.500000 0.355952
O O9 0.324138 0.785973 0.385685
O O10 0.440155 0.741733 0.354285
O O11 0.228966 0.803421 0.500000
O O12 0.213518 0.712778 0.338573
O O13 0.240451 0.000000 0.370781
O O14 0.179627 0.500000 0.770043
O O15 0.241885 0.731995 0.834104
O O16 0.303995 0.500000 0.894272
O O17 0.367641 0.737090 0.861203
O O18 0.286049 0.728930 0.000000
O O19 0.500000 0.837001 0.500000
O O20 0.500000 0.000000 0.356798
O O21 0.500000 0.227182 0.138030
O O22 0.419576 0.000000 0.135130
O O23 0.429321 0.181501 0.000000
#
# Coordination Sequence:
#
# PCOD8199884 Si02
#       8
#     4   8   8   8   8   8   4   8
#     4   9  17  31  53  81 115 155 194 229 268 319
#     4  10  21  37  57  84 118 154 193 233 275 330
#     4   9  16  27  46  72 101 133 172 220 274 333
#     4  10  21  38  59  81 107 141 183 234 290 345
#     4  11  23  37  58  85 115 151 189 233 283 339
#     4   9  19  34  51  77 113 149 185 226 274 329
#     4   9  15  23  39  67 101 135 172 213 266 333
#     4   8  14  26  46  72 101 137 183 231 277 325
#
# _framework density 19.694662000000001
#
# number of rings (size 3 to 8) (size 9 to 14) (size 15 to 20)
#    0.000    2.571    0.000    2.571    1.000    6.571 
#    0.000    1.429    1.571    0.429    0.000    3.000 
#    0.000    0.000    0.000    0.000    0.000    0.000 
#
# Total GULP energy -693938.303260 kJ/mol
# GULP energy per Si atom -12391.755415 kJ/mol
# Density = 1.964984 g / cm^3
# Si number density = 19.694662 Si / 1000 Ang^3
#
#
#
# Elastic Constant Matrix: (Units=GPa)
#
#
# Indices 1 2 3 4 5 6 
#
# 1 115.5023 37.2202 35.3247 0.0000 0.0000 0.0000
# 2 37.2202 76.7138 18.7900 0.0000 0.0000 0.0000
# 3 35.3247 18.7900 50.7006 0.0000 0.0000 0.0000
# 4 0.0000 0.0000 0.0000 21.9012 0.0000 0.0000
# 5 0.0000 0.0000 0.0000 0.0000 15.1154 0.0000
# 6 0.0000 0.0000 0.0000 0.0000 0.0000 27.5890
#
#
#
# Elastic Compliance Matrix: (Units=1/GPa)
#
#
# Indices 1 2 3 4 5 6 
#
# 1 0.012115 -0.004191 -0.006888 0.000000 0.000000 0.000000
# 2 -0.004191 0.015787 -0.002931 0.000000 0.000000 0.000000
# 3 -0.006888 -0.002931 0.025609 0.000000 0.000000 0.000000
# 4 0.000000 0.000000 0.000000 0.045660 0.000000 0.000000
# 5 0.000000 0.000000 0.000000 0.000000 0.066158 0.000000
# 6 0.000000 0.000000 0.000000 0.000000 0.000000 0.036246
#
#
# Mechanical properties :
#
#
# Convention : Reuss Voigt Hill
#
# Bulk Modulus (GPa) = 39.22855 47.28739 43.25797
# Shear Modulus (GPa) = 21.00052 23.02657 22.01354
#
# Velocity S-wave (km/s) = 3.26898 3.42303 3.34689
# Velocity P-wave (km/s) = 5.84892 6.29962 6.07845
#
# Compressibility (1/GPa) = 0.02549164
#
# Stress axis : x y z
#
# Youngs Moduli (GPa) = 82.54365 63.34467 39.04939
#
# Poissons Ratio (x) = 0.26547 0.26896
# Poissons Ratio (y) = 0.34593 0.11444
# Poissons Ratio (z) = 0.56853 0.18565
#
# Static dielectric constant tensor:
#      x y z
#    x 3.808100 0.000000 0.000000 
#    y 0.000000 3.740800 0.000000 
#    z 0.000000 0.000000 3.252450 
# 
# 
# High freq. dielectric constant tensor:
#      x y z
#    x 1.764280 0.000000 0.000000 
#    y 0.000000 1.772160 0.000000 
#    z 0.000000 0.000000 1.735390 
# 
# From -- ./inp_files/25227.got.cif
#   From: 2010.03.12/outbox.cif.g09.slc.cpg/sg47_13_cif.got.tgz:25227.got - 2010.04.14 03:12:58.
