data_PCOD8199691
_publ_section_title
;
Structure prediction by ZEFSAII (Michael W. Deem and Ramdas Pophale) SiO2 
 PCOD8199691
Probable space group: P M M M
;
_chemical_formula_sum "Si O2"
_cell_formula_units_Z 40
_cell_length_a 16.489307
_cell_length_b 13.820234
_cell_length_c 9.090536
_cell_angle_alpha 90.000000
_cell_angle_beta 90.000000
_cell_angle_gamma 90.000000
_cell_volume 2071.606625
_symmetry_space_group_name_H-M "P M M M"
_symmetry_group_IT_number 47
_symmetry_cell_setting 'orthorhombic'
loop_
_space_group_symop_operation_xyz
x,y,z
-x,-y,z
x,-y,-z
-x,y,-z
-x,-y,-z
x,y,-z
-x,y,z
x,-y,z
loop_
_atom_site_type_symbol
_atom_site_label
_atom_site_fract_x
_atom_site_fract_y
_atom_site_fract_z
Si Si1 0.000000 0.694456 0.657838
Si Si2 0.856052 0.389800 0.166977
Si Si3 0.727452 0.281786 0.324927
Si Si4 0.405123 0.389639 0.830870
Si Si5 0.000000 0.894200 0.736888
Si Si6 0.180388 0.108544 0.833501
O O1 0.922953 0.673413 0.754941
O O2 0.000000 0.639056 0.500000
O O3 0.000000 0.808472 0.617890
O O4 0.883785 0.500000 0.170072
O O5 0.774759 0.374584 0.259244
O O6 0.844629 0.353042 0.000000
O O7 0.730028 0.279594 0.500000
O O8 0.636968 0.305356 0.267694
O O9 0.769133 0.183246 0.267265
O O10 0.500000 0.370568 0.814266
O O11 0.384620 0.500000 0.779573
O O12 0.377516 0.377308 0.000000
O O13 0.082501 0.880986 0.831134
O O14 0.000000 0.000000 0.659840
O O15 0.204350 0.000000 0.781661
O O16 0.208634 0.126595 0.000000
#
# Coordination Sequence:
#
# PCOD8199691 Si02
#       6
#     4   8   8   8   4   8
#     4  12  24  37  55  81 111 147 186 237 299 348
#     4  11  24  40  57  76 105 151 199 239 281 335
#     4  12  24  36  56  87 121 153 185 232 291 344
#     4   9  19  38  64  91 118 151 192 235 280 338
#     4  10  21  36  59  87 113 146 193 245 297 345
#     4  10  21  38  61  86 113 150 198 248 293 342
#
# _framework density 19.308686000000002
#
# number of rings (size 3 to 8) (size 9 to 14) (size 15 to 20)
#    0.000    1.400    2.000    4.500    0.000    8.600 
#    0.000    3.000    0.000    0.600    0.000    4.200 
#    0.000    0.000    0.000    0.000    0.000    0.000 
#
# Total GULP energy -495628.481922 kJ/mol
# GULP energy per Si atom -12390.712048 kJ/mol
# Density = 1.926474 g / cm^3
# Si number density = 19.308686 Si / 1000 Ang^3
#
#
#
# Elastic Constant Matrix: (Units=GPa)
#
#
# Indices 1 2 3 4 5 6 
#
# 1 88.9866 48.4706 55.6257 0.0000 0.0000 0.0000
# 2 48.4706 121.6728 58.1380 0.0000 0.0000 0.0000
# 3 55.6257 58.1380 151.2041 0.0000 0.0000 0.0000
# 4 0.0000 0.0000 0.0000 11.0568 0.0000 0.0000
# 5 0.0000 0.0000 0.0000 0.0000 22.4987 0.0000
# 6 0.0000 0.0000 0.0000 0.0000 0.0000 30.1305
#
#
#
# Elastic Compliance Matrix: (Units=1/GPa)
#
#
# Indices 1 2 3 4 5 6 
#
# 1 0.016357 -0.004460 -0.004302 0.000000 0.000000 0.000000
# 2 -0.004460 0.011285 -0.002698 0.000000 0.000000 0.000000
# 3 -0.004302 -0.002698 0.009234 0.000000 0.000000 0.000000
# 4 0.000000 0.000000 0.000000 0.090442 0.000000 0.000000
# 5 0.000000 0.000000 0.000000 0.000000 0.044447 0.000000
# 6 0.000000 0.000000 0.000000 0.000000 0.000000 0.033189
#
#
# Mechanical properties :
#
#
# Convention : Reuss Voigt Hill
#
# Bulk Modulus (GPa) = 71.66566 76.25913 73.96239
# Shear Modulus (GPa) = 21.50303 26.04583 23.77443
#
# Velocity S-wave (km/s) = 3.34075 3.67675 3.51277
# Velocity P-wave (km/s) = 7.21645 7.58980 7.40548
#
# Compressibility (1/GPa) = 0.01395369
#
# Stress axis : x y z
#
# Youngs Moduli (GPa) = 61.13774 88.61485 108.29760
#
# Poissons Ratio (x) = 0.39523 0.46594
# Poissons Ratio (y) = 0.27268 0.29221
# Poissons Ratio (z) = 0.26304 0.23910
#
# Static dielectric constant tensor:
#      x y z
#    x 3.171740 0.000000 0.000000 
#    y 0.000000 3.669370 0.000000 
#    z 0.000000 0.000000 3.439070 
# 
# 
# High freq. dielectric constant tensor:
#      x y z
#    x 1.737770 0.000000 0.000000 
#    y 0.000000 1.755770 0.000000 
#    z 0.000000 0.000000 1.748930 
# 
# From -- ./inp_files/5716.got.cif
#   From: 2010.03.12/outbox.cif.g09.slc.cpg/sg47_3_cif.got.tgz:5716.got - 2010.04.14 03:12:58.
