data_PCOD8199070
_publ_section_title
;
Structure prediction by ZEFSAII (Michael W. Deem and Ramdas Pophale) SiO2 
 PCOD8199070
Probable space group: P M M M
;
_chemical_formula_sum "Si O2"
_cell_formula_units_Z 64
_cell_length_a 9.019571
_cell_length_b 29.074227
_cell_length_c 14.533123
_cell_angle_alpha 90.000000
_cell_angle_beta 90.000000
_cell_angle_gamma 90.000000
_cell_volume 3811.123371
_symmetry_space_group_name_H-M "P M M M"
_symmetry_group_IT_number 47
_symmetry_cell_setting 'orthorhombic'
loop_
_space_group_symop_operation_xyz
x,y,z
-x,-y,z
x,-y,-z
-x,y,-z
-x,-y,-z
x,y,-z
-x,y,z
x,-y,z
loop_
_atom_site_type_symbol
_atom_site_label
_atom_site_fract_x
_atom_site_fract_y
_atom_site_fract_z
Si Si1 0.175238 0.730916 0.271929
Si Si2 0.671727 0.090272 0.603934
Si Si3 0.165731 0.548664 0.390818
Si Si4 0.177420 0.352608 0.396123
Si Si5 0.674757 0.228813 0.105391
Si Si6 0.828621 0.865653 0.106384
Si Si7 0.330043 0.196344 0.393957
Si Si8 0.825069 0.949271 0.772195
O O1 0.235136 0.685809 0.325317
O O2 0.251237 0.733047 0.171433
O O3 0.218571 0.775154 0.331293
O O4 0.000000 0.729495 0.258878
O O5 0.714911 0.077378 0.500000
O O6 0.500000 0.080635 0.621879
O O7 0.708762 0.143378 0.623299
O O8 0.766564 0.058037 0.669568
O O9 0.157561 0.550422 0.500000
O O10 0.246150 0.500000 0.360238
O O11 0.240644 0.597313 0.360771
O O12 0.000000 0.546998 0.350173
O O13 0.234160 0.341402 0.500000
O O14 0.000000 0.354309 0.397208
O O15 0.500000 0.229343 0.119315
O O16 0.734327 0.178793 0.135005
O O17 0.719159 0.240049 0.000000
O O18 0.763272 0.909746 0.160238
O O19 0.000000 0.855669 0.130578
O O20 0.808095 0.877303 0.000000
O O21 0.303517 0.209485 0.500000
O O22 0.500000 0.206808 0.366142
O O23 0.000000 0.946274 0.770080
O O24 0.774538 0.000000 0.806640
#
# Coordination Sequence:
#
# PCOD8199070 Si02
#       8
#     8   8   8   8   8   8   8   8
#     4  11  20  28  43  67  95 123 148 180 224 270
#     4   9  19  35  51  65  83 112 150 186 216 246
#     4   7   9  15  29  48  74 114 158 190 215 248
#     4   8  14  23  34  55  90 125 154 184 218 257
#     4  10  21  36  52  68  87 113 146 184 223 263
#     4   9  18  34  55  75  93 113 138 169 208 258
#     4   9  18  32  48  66  90 120 153 186 217 254
#     4  10  21  34  48  70  96 117 138 167 207 254
#
# _framework density 16.792950000000001
#
# number of rings (size 3 to 8) (size 9 to 14) (size 15 to 20)
#    0.000    2.875    0.000    3.750    0.000    5.500 
#    0.000    3.750    0.000    0.000    0.000    2.625 
#    0.000    2.500    0.000   20.375    0.000   12.750 
#
# Total GULP energy -793111.715506 kJ/mol
# GULP energy per Si atom -12392.370555 kJ/mol
# Density = 1.675473 g / cm^3
# Si number density = 16.792950 Si / 1000 Ang^3
#
#
#
# Elastic Constant Matrix: (Units=GPa)
#
#
# Indices 1 2 3 4 5 6 
#
# 1 25.7681 25.7933 22.4644 0.0000 0.0000 0.0000
# 2 25.7933 111.1721 60.7099 0.0000 0.0000 0.0000
# 3 22.4644 60.7099 81.9605 0.0000 0.0000 0.0000
# 4 0.0000 0.0000 0.0000 15.9626 0.0000 0.0000
# 5 0.0000 0.0000 0.0000 0.0000 23.8379 0.0000
# 6 0.0000 0.0000 0.0000 0.0000 0.0000 3.8936
#
#
#
# Elastic Compliance Matrix: (Units=1/GPa)
#
#
# Indices 1 2 3 4 5 6 
#
# 1 0.054510 -0.007537 -0.009358 0.000000 0.000000 0.000000
# 2 -0.007537 0.016147 -0.009895 0.000000 0.000000 0.000000
# 3 -0.009358 -0.009895 0.022095 0.000000 0.000000 0.000000
# 4 0.000000 0.000000 0.000000 0.062646 0.000000 0.000000
# 5 0.000000 0.000000 0.000000 0.000000 0.041950 0.000000
# 6 0.000000 0.000000 0.000000 0.000000 0.000000 0.256832
#
#
# Mechanical properties :
#
#
# Convention : Reuss Voigt Hill
#
# Bulk Modulus (GPa) = 25.52752 48.53732 37.03242
# Shear Modulus (GPa) = 9.60029 16.06768 12.83399
#
# Velocity S-wave (km/s) = 2.39359 3.09659 2.76750
# Velocity P-wave (km/s) = 4.78261 6.46153 5.68439
#
# Compressibility (1/GPa) = 0.03917341
#
# Stress axis : x y z
#
# Youngs Moduli (GPa) = 18.34524 61.93052 45.25868
#
# Poissons Ratio (x) = 0.46675 0.42353
# Poissons Ratio (y) = 0.13826 0.44783
# Poissons Ratio (z) = 0.17167 0.61279
#
# Static dielectric constant tensor:
#      x y z
#    x 2.861730 0.000000 0.000000 
#    y 0.000000 3.557250 0.000000 
#    z 0.000000 0.000000 3.114670 
# 
# 
# High freq. dielectric constant tensor:
#      x y z
#    x 1.619750 0.000000 0.000000 
#    y 0.000000 1.645180 0.000000 
#    z 0.000000 0.000000 1.628910 
# 
# From -- ./inp_files/14365.got.cif
#   From: 2010.03.12/outbox.cif.g09.slc.cpg/sg47_8_cif.got.tgz:14365.got - 2010.04.14 03:12:58.
