data_PCOD8199283
_publ_section_title
;
Structure prediction by ZEFSAII (Michael W. Deem and Ramdas Pophale) SiO2 
 PCOD8199283
Probable space group: P M M M
;
_chemical_formula_sum "Si O2"
_cell_formula_units_Z 64
_cell_length_a 20.250685
_cell_length_b 18.447579
_cell_length_c 9.156309
_cell_angle_alpha 90.000000
_cell_angle_beta 90.000000
_cell_angle_gamma 90.000000
_cell_volume 3420.578310
_symmetry_space_group_name_H-M "P M M M"
_symmetry_group_IT_number 47
_symmetry_cell_setting 'orthorhombic'
loop_
_space_group_symop_operation_xyz
x,y,z
-x,-y,z
x,-y,-z
-x,y,-z
-x,-y,-z
x,y,-z
-x,y,z
x,-y,z
loop_
_atom_site_type_symbol
_atom_site_label
_atom_site_fract_x
_atom_site_fract_y
_atom_site_fract_z
Si Si1 0.183842 0.831344 0.671577
Si Si2 0.689689 0.081858 0.325719
Si Si3 0.307978 0.415403 0.167994
Si Si4 0.923777 0.918328 0.169120
Si Si5 0.076012 0.416155 0.168341
Si Si6 0.189878 0.335537 0.327719
Si Si7 0.572709 0.180329 0.673565
Si Si8 0.576407 0.655571 0.330642
O O1 0.177553 0.840720 0.500000
O O2 0.245177 0.877941 0.732765
O O3 0.116807 0.860114 0.740642
O O4 0.194080 0.748384 0.715824
O O5 0.688174 0.082771 0.500000
O O6 0.625999 0.124177 0.262202
O O7 0.688756 0.000000 0.265231
O O8 0.294207 0.500000 0.184308
O O9 0.251546 0.374230 0.255009
O O10 0.379567 0.397643 0.233984
O O11 0.306200 0.391096 0.000000
O O12 0.000000 0.901379 0.198351
O O13 0.906714 0.000000 0.220905
O O14 0.906502 0.909568 0.000000
O O15 0.089147 0.500000 0.205071
O O16 0.120903 0.367199 0.271233
O O17 0.000000 0.396095 0.199326
O O18 0.093924 0.400734 0.000000
O O19 0.193932 0.347296 0.500000
O O20 0.571416 0.176616 0.500000
O O21 0.500000 0.159621 0.734434
O O22 0.591314 0.262057 0.719556
O O23 0.594943 0.645116 0.500000
O O24 0.500000 0.636037 0.303737
#
# Coordination Sequence:
#
# PCOD8199283 Si02
#       8
#     8   8   8   8   8   8   8   8
#     4  10  21  35  51  74 105 139 174 215 263 312
#     4   9  16  26  43  68  98 132 169 208 249 294
#     4  11  24  39  55  77 106 139 175 219 271 323
#     4   9  19  36  56  78 105 137 174 216 260 308
#     4   9  19  37  59  81 107 139 172 209 260 321
#     4  11  23  37  55  79 107 140 179 223 267 314
#     4   8  14  26  45  70 101 134 166 203 248 297
#     4   9  18  34  56  79 105 140 177 213 260 318
#
# _framework density 18.710287000000001
#
# number of rings (size 3 to 8) (size 9 to 14) (size 15 to 20)
#    0.000    2.500    0.000    3.750    0.000    8.250 
#    0.000    6.250    0.000    0.000    0.000    0.000 
#    0.000    0.000    0.000    9.125    0.000    8.750 
#
# Total GULP energy -793656.714468 kJ/mol
# GULP energy per Si atom -12400.886164 kJ/mol
# Density = 1.866770 g / cm^3
# Si number density = 18.710287 Si / 1000 Ang^3
#
#
#
# Elastic Constant Matrix: (Units=GPa)
#
#
# Indices 1 2 3 4 5 6 
#
# 1 109.1388 64.0471 42.5351 0.0000 0.0000 0.0000
# 2 64.0471 105.9428 53.0900 0.0000 0.0000 0.0000
# 3 42.5351 53.0900 51.8190 0.0000 0.0000 0.0000
# 4 0.0000 0.0000 0.0000 20.7576 0.0000 0.0000
# 5 0.0000 0.0000 0.0000 0.0000 17.7480 0.0000
# 6 0.0000 0.0000 0.0000 0.0000 0.0000 42.0061
#
#
#
# Elastic Compliance Matrix: (Units=1/GPa)
#
#
# Indices 1 2 3 4 5 6 
#
# 1 0.015129 -0.006007 -0.006264 0.000000 0.000000 0.000000
# 2 -0.006007 0.021784 -0.017387 0.000000 0.000000 0.000000
# 3 -0.006264 -0.017387 0.042253 0.000000 0.000000 0.000000
# 4 0.000000 0.000000 0.000000 0.048175 0.000000 0.000000
# 5 0.000000 0.000000 0.000000 0.000000 0.056344 0.000000
# 6 0.000000 0.000000 0.000000 0.000000 0.000000 0.023806
#
#
# Mechanical properties :
#
#
# Convention : Reuss Voigt Hill
#
# Bulk Modulus (GPa) = 50.37915 65.13834 57.75874
# Shear Modulus (GPa) = 18.28654 23.25090 20.76872
#
# Velocity S-wave (km/s) = 3.12966 3.52899 3.33530
# Velocity P-wave (km/s) = 6.32803 7.17599 6.76531
#
# Compressibility (1/GPa) = 0.01984948
#
# Stress axis : x y z
#
# Youngs Moduli (GPa) = 66.09692 45.90586 23.66679
#
# Poissons Ratio (x) = 0.27577 0.14825
# Poissons Ratio (y) = 0.39706 0.41150
# Poissons Ratio (z) = 0.41404 0.79817
#
# Static dielectric constant tensor:
#      x y z
#    x 3.601050 0.000000 0.000000 
#    y 0.000000 3.518080 0.000000 
#    z 0.000000 0.000000 3.132510 
# 
# 
# High freq. dielectric constant tensor:
#      x y z
#    x 1.741430 0.000000 0.000000 
#    y 0.000000 1.730770 0.000000 
#    z 0.000000 0.000000 1.694650 
# 
# From -- ./inp_files/11568.got.cif
#   From: 2010.03.12/outbox.cif.g09.slc.cpg/sg47_6_cif.got.tgz:11568.got - 2010.04.14 03:12:58.
