data_PCOD8199103
_publ_section_title
;
Structure prediction by ZEFSAII (Michael W. Deem and Ramdas Pophale) SiO2 
 PCOD8199103
Probable space group: P M M M
;
_chemical_formula_sum "Si O2"
_cell_formula_units_Z 48
_cell_length_a 32.342976
_cell_length_b 9.668588
_cell_length_c 8.125596
_cell_angle_alpha 90.000000
_cell_angle_beta 90.000000
_cell_angle_gamma 90.000000
_cell_volume 2540.962517
_symmetry_space_group_name_H-M "P M M M"
_symmetry_group_IT_number 47
_symmetry_cell_setting 'orthorhombic'
loop_
_space_group_symop_operation_xyz
x,y,z
-x,-y,z
x,-y,-z
-x,y,-z
-x,-y,-z
x,y,-z
-x,y,z
x,-y,z
loop_
_atom_site_type_symbol
_atom_site_label
_atom_site_fract_x
_atom_site_fract_y
_atom_site_fract_z
Si Si1 0.177137 0.153197 0.309582
Si Si2 0.046071 0.663490 0.000000
Si Si3 0.898643 0.662471 0.308256
Si Si4 0.736305 0.153546 0.811414
Si Si5 0.500000 0.153493 0.807828
Si Si6 0.427540 0.653138 0.305221
Si Si7 0.664932 0.339828 0.310593
O O1 0.170042 0.135552 0.500000
O O2 0.142675 0.259770 0.246631
O O3 0.223004 0.214301 0.277874
O O4 0.172767 0.000000 0.226123
O O5 0.067436 0.710451 0.827280
O O6 0.044004 0.500000 0.000000
O O7 0.000000 0.727625 0.000000
O O8 0.911359 0.698682 0.500000
O O9 0.889858 0.500000 0.294943
O O10 0.696947 0.250689 0.791637
O O11 0.725844 0.000000 0.742252
O O12 0.748084 0.145482 0.000000
O O13 0.459002 0.232858 0.756038
O O14 0.500000 0.000000 0.727136
O O15 0.500000 0.138298 0.000000
O O16 0.428087 0.647857 0.500000
O O17 0.439785 0.500000 0.238144
O O18 0.381397 0.692022 0.245155
O O19 0.668943 0.297492 0.500000
O O20 0.675392 0.500000 0.284481
#
# Coordination Sequence:
#
# PCOD8199103 Si02
#       7
#     8   4   8   8   4   8   8
#     4   9  18  33  52  73  99 134 173 212 256 304
#     4   9  18  32  51  77 107 137 171 215 267 318
#     4   9  18  32  51  76 103 133 173 218 262 311
#     4  10  21  34  49  74 106 138 172 209 252 306
#     4  11  24  37  50  76 110 137 164 203 252 304
#     4   9  19  37  59  79  99 128 169 213 254 301
#     4   9  19  36  56  77 101 131 169 212 256 302
#
# _framework density 18.890478999999999
#
# number of rings (size 3 to 8) (size 9 to 14) (size 15 to 20)
#    0.000    2.667    0.000    2.000    1.167    5.667 
#    0.000    8.333    0.000    1.000    0.000    2.333 
#    0.000    0.000    0.000    0.000    0.000    0.000 
#
# Total GULP energy -594872.232655 kJ/mol
# GULP energy per Si atom -12393.171514 kJ/mol
# Density = 1.884748 g / cm^3
# Si number density = 18.890479 Si / 1000 Ang^3
#
#
#
# Elastic Constant Matrix: (Units=GPa)
#
#
# Indices 1 2 3 4 5 6 
#
# 1 153.7127 73.3953 41.9896 0.0000 0.0000 0.0000
# 2 73.3953 81.1122 27.7202 0.0000 0.0000 0.0000
# 3 41.9896 27.7202 56.5177 0.0000 0.0000 0.0000
# 4 0.0000 0.0000 0.0000 11.1480 0.0000 0.0000
# 5 0.0000 0.0000 0.0000 0.0000 20.8431 0.0000
# 6 0.0000 0.0000 0.0000 0.0000 0.0000 0.6500
#
#
#
# Elastic Compliance Matrix: (Units=1/GPa)
#
#
# Indices 1 2 3 4 5 6 
#
# 1 0.012312 -0.009628 -0.004425 0.000000 0.000000 0.000000
# 2 -0.009628 0.022341 -0.003804 0.000000 0.000000 0.000000
# 3 -0.004425 -0.003804 0.022847 0.000000 0.000000 0.000000
# 4 0.000000 0.000000 0.000000 0.089702 0.000000 0.000000
# 5 0.000000 0.000000 0.000000 0.000000 0.047977 0.000000
# 6 0.000000 0.000000 0.000000 0.000000 0.000000 1.538371
#
#
# Mechanical properties :
#
#
# Convention : Reuss Voigt Hill
#
# Bulk Modulus (GPa) = 45.90287 64.17253 55.03770
# Shear Modulus (GPa) = 2.81448 16.41072 9.61260
#
# Velocity S-wave (km/s) = 1.22194 2.95062 2.25824
# Velocity P-wave (km/s) = 5.13255 6.75668 5.99983
#
# Compressibility (1/GPa) = 0.02178513
#
# Stress axis : x y z
#
# Youngs Moduli (GPa) = 81.22419 44.76088 43.77008
#
# Poissons Ratio (x) = 0.43097 0.19366
# Poissons Ratio (y) = 0.78204 0.16651
# Poissons Ratio (z) = 0.35938 0.17028
#
# Static dielectric constant tensor:
#      x y z
#    x 3.449580 0.000000 0.000000 
#    y 0.000000 -0.195710 0.000000 
#    z 0.000000 0.000000 3.425040 
# 
# 
# High freq. dielectric constant tensor:
#      x y z
#    x 1.734600 0.000000 0.000000 
#    y 0.000000 1.720480 0.000000 
#    z 0.000000 0.000000 1.730850 
# 
# From -- ./inp_files/13880.got.cif
#   From: 2010.03.12/outbox.cif.g09.slc.cpg/sg47_7_cif.got.tgz:13880.got - 2010.04.14 03:12:58.
