data_PCOD8199622
_publ_section_title
;
Structure prediction by ZEFSAII (Michael W. Deem and Ramdas Pophale) SiO2 
 PCOD8199622
Probable space group: P M M M
;
_chemical_formula_sum "Si O2"
_cell_formula_units_Z 40
_cell_length_a 9.330646
_cell_length_b 9.061806
_cell_length_c 25.181244
_cell_angle_alpha 90.000000
_cell_angle_beta 90.000000
_cell_angle_gamma 90.000000
_cell_volume 2129.137232
_symmetry_space_group_name_H-M "P M M M"
_symmetry_group_IT_number 47
_symmetry_cell_setting 'orthorhombic'
loop_
_space_group_symop_operation_xyz
x,y,z
-x,-y,z
x,-y,-z
-x,y,-z
-x,-y,-z
x,y,-z
-x,y,z
x,-y,z
loop_
_atom_site_type_symbol
_atom_site_label
_atom_site_fract_x
_atom_site_fract_y
_atom_site_fract_z
Si Si1 0.834593 0.826411 0.756313
Si Si2 0.164683 0.169488 0.061627
Si Si3 0.834220 0.329496 0.350402
Si Si4 0.332607 0.167409 0.560646
Si Si5 0.332339 0.671730 0.849967
O O1 0.779791 0.760328 0.700717
O O2 0.739695 0.761288 0.802838
O O3 0.000000 0.783457 0.766489
O O4 0.812345 0.000000 0.754457
O O5 0.267406 0.276663 0.094182
O O6 0.000000 0.204851 0.075763
O O7 0.198634 0.000000 0.076204
O O8 0.194586 0.199206 0.000000
O O9 0.803462 0.500000 0.339296
O O10 0.750174 0.280388 0.402363
O O11 0.000000 0.297198 0.361087
O O12 0.295128 0.207083 0.500000
O O13 0.500000 0.186007 0.571172
O O14 0.284767 0.000000 0.573247
O O15 0.500000 0.706096 0.850191
O O16 0.300056 0.500000 0.842008
#
# Coordination Sequence:
#
# PCOD8199622 Si02
#       5
#     8   8   8   8   8
#     4  10  21  38  60  82 104 136 180 225 268 318
#     4   9  19  37  60  84 109 140 181 225 267 315
#     4  10  21  36  55  81 111 141 175 218 269 322
#     4   9  19  36  56  78 106 142 183 223 264 314
#     4  11  24  38  53  79 114 147 179 218 266 319
#
# _framework density 18.786954000000001
#
# number of rings (size 3 to 8) (size 9 to 14) (size 15 to 20)
#    0.000    2.200    0.000    3.600    0.000    9.600 
#    0.000    6.000    0.000    0.000    0.000    0.000 
#    0.000    0.000    0.000    0.000    0.000    0.000 
#
# Total GULP energy -496165.173572 kJ/mol
# GULP energy per Si atom -12404.129339 kJ/mol
# Density = 1.874419 g / cm^3
# Si number density = 18.786954 Si / 1000 Ang^3
#
#
#
# Elastic Constant Matrix: (Units=GPa)
#
#
# Indices 1 2 3 4 5 6 
#
# 1 74.2635 53.3381 59.9179 0.0000 0.0000 0.0000
# 2 53.3381 90.6048 59.5271 0.0000 0.0000 0.0000
# 3 59.9179 59.5271 119.1268 0.0000 0.0000 0.0000
# 4 0.0000 0.0000 0.0000 20.3341 0.0000 0.0000
# 5 0.0000 0.0000 0.0000 0.0000 2054.3586 0.0000
# 6 0.0000 0.0000 0.0000 0.0000 0.0000 34.3899
#
#
#
# Elastic Compliance Matrix: (Units=1/GPa)
#
#
# Indices 1 2 3 4 5 6 
#
# 1 0.028465 -0.010943 -0.008849 0.000000 0.000000 0.000000
# 2 -0.010943 0.020639 -0.004809 0.000000 0.000000 0.000000
# 3 -0.008849 -0.004809 0.015248 0.000000 0.000000 0.000000
# 4 0.000000 0.000000 0.000000 0.049178 0.000000 0.000000
# 5 0.000000 0.000000 0.000000 0.000000 0.000487 0.000000
# 6 0.000000 0.000000 0.000000 0.000000 0.000000 0.029078
#
#
# Mechanical properties :
#
#
# Convention : Reuss Voigt Hill
#
# Bulk Modulus (GPa) = 66.00805 69.95127 67.97966
# Shear Modulus (GPa) = 25.33615 429.23064 227.28339
#
# Velocity S-wave (km/s) = 3.67632 15.13171 11.01099
# Velocity P-wave (km/s) = 7.29601 18.50963 14.06837
#
# Compressibility (1/GPa) = 0.01514967
#
# Stress axis : x y z
#
# Youngs Moduli (GPa) = 35.13111 48.45312 65.58217
#
# Poissons Ratio (x) = 0.53024 0.58032
# Poissons Ratio (y) = 0.38445 0.31537
# Poissons Ratio (z) = 0.31087 0.23300
#
# Static dielectric constant tensor:
#      x y z
#    x 3.377320 0.000000 0.000000 
#    y 0.000000 3.478970 0.000000 
#    z 0.000000 0.000000 3.509860 
# 
# 
# High freq. dielectric constant tensor:
#      x y z
#    x 1.723310 0.000000 0.000000 
#    y 0.000000 1.735930 0.000000 
#    z 0.000000 0.000000 1.741770 
# 
# From -- ./inp_files/1350.got.cif
#   From: 2010.03.12/outbox.cif.g09.slc.cpg/sg47_1_cif.got.tgz:1350.got - 2010.04.14 03:12:58.
