data_PCOD8199082
_publ_section_title
;
Structure prediction by ZEFSAII (Michael W. Deem and Ramdas Pophale) SiO2 
 PCOD8199082
Probable space group: P M M M
;
_chemical_formula_sum "Si O2"
_cell_formula_units_Z 52
_cell_length_a 8.788327
_cell_length_b 14.358449
_cell_length_c 20.590053
_cell_angle_alpha 90.000000
_cell_angle_beta 90.000000
_cell_angle_gamma 90.000000
_cell_volume 2598.191768
_symmetry_space_group_name_H-M "P M M M"
_symmetry_group_IT_number 47
_symmetry_cell_setting 'orthorhombic'
loop_
_space_group_symop_operation_xyz
x,y,z
-x,-y,z
x,-y,-z
-x,y,-z
-x,-y,-z
x,y,-z
-x,y,z
x,-y,z
loop_
_atom_site_type_symbol
_atom_site_label
_atom_site_fract_x
_atom_site_fract_y
_atom_site_fract_z
Si Si1 0.673964 0.606901 0.226045
Si Si2 0.319689 0.607095 0.000000
Si Si3 0.822265 0.719450 0.882474
Si Si4 0.175126 0.892019 0.692677
Si Si5 0.675895 0.394908 0.624130
Si Si6 0.820892 0.779068 0.570965
Si Si7 0.679187 0.893599 0.828261
O O1 0.500000 0.638308 0.212969
O O2 0.694064 0.500000 0.204587
O O3 0.789106 0.670802 0.186158
O O4 0.718085 0.619786 0.300752
O O5 0.260932 0.660203 0.062910
O O6 0.261163 0.500000 0.000000
O O7 0.500000 0.609401 0.000000
O O8 0.760108 0.825627 0.880135
O O9 0.000000 0.721842 0.897368
O O10 0.247123 0.839948 0.630059
O O11 0.272246 0.864201 0.755635
O O12 0.000000 0.863702 0.705813
O O13 0.189943 0.000000 0.676890
O O14 0.500000 0.371751 0.612478
O O15 0.712568 0.500000 0.602880
O O16 0.777270 0.328438 0.580033
O O17 0.759913 0.812399 0.500000
O O18 0.000000 0.790082 0.572251
O O19 0.500000 0.882067 0.834954
O O20 0.730279 0.000000 0.842828
#
# Coordination Sequence:
#
# PCOD8199082 Si02
#       7
#     8   4   8   8   8   8   8
#     4   9  18  34  56  81 109 142 182 228 278 333
#     4  11  25  45  66  87 118 161 201 232 266 315
#     4  12  24  37  58  88 121 153 186 229 277 325
#     4   9  18  34  56  81 109 140 176 223 278 332
#     4   9  19  35  53  73  98 132 177 227 276 326
#     4  10  21  34  48  71 103 139 179 221 270 331
#     4  10  21  38  61  87 114 146 186 231 278 330
#
# _framework density 20.013919999999999
#
# number of rings (size 3 to 8) (size 9 to 14) (size 15 to 20)
#    0.000    2.077    0.000    4.385    0.000    8.615 
#    0.000    5.000    0.000    2.308    0.000    3.231 
#    0.000    0.000    0.000    0.000    0.000    0.000 
#
# Total GULP energy -644847.761676 kJ/mol
# GULP energy per Si atom -12400.918494 kJ/mol
# Density = 1.996837 g / cm^3
# Si number density = 20.013920 Si / 1000 Ang^3
#
#
#
# Elastic Constant Matrix: (Units=GPa)
#
#
# Indices 1 2 3 4 5 6 
#
# 1 58.4518 33.7447 29.3653 0.0000 0.0000 0.0000
# 2 33.7447 110.5391 56.6181 0.0000 0.0000 0.0000
# 3 29.3653 56.6181 78.0535 0.0000 0.0000 0.0000
# 4 0.0000 0.0000 0.0000 26.3463 0.0000 0.0000
# 5 0.0000 0.0000 0.0000 0.0000 26.6891 0.0000
# 6 0.0000 0.0000 0.0000 0.0000 0.0000 30.9654
#
#
#
# Elastic Compliance Matrix: (Units=1/GPa)
#
#
# Indices 1 2 3 4 5 6 
#
# 1 0.022136 -0.003965 -0.005452 0.000000 0.000000 0.000000
# 2 -0.003965 0.015105 -0.009465 0.000000 0.000000 0.000000
# 3 -0.005452 -0.009465 0.021729 0.000000 0.000000 0.000000
# 4 0.000000 0.000000 0.000000 0.037956 0.000000 0.000000
# 5 0.000000 0.000000 0.000000 0.000000 0.037469 0.000000
# 6 0.000000 0.000000 0.000000 0.000000 0.000000 0.032294
#
#
# Mechanical properties :
#
#
# Convention : Reuss Voigt Hill
#
# Bulk Modulus (GPa) = 47.15730 54.05563 50.60647
# Shear Modulus (GPa) = 23.63830 25.28790 24.46310
#
# Velocity S-wave (km/s) = 3.44043 3.55845 3.49994
# Velocity P-wave (km/s) = 6.27658 6.62956 6.45549
#
# Compressibility (1/GPa) = 0.02120562
#
# Stress axis : x y z
#
# Youngs Moduli (GPa) = 45.17494 66.20306 46.02239
#
# Poissons Ratio (x) = 0.26251 0.25091
# Poissons Ratio (y) = 0.17913 0.43560
# Poissons Ratio (z) = 0.24629 0.62662
#
# Static dielectric constant tensor:
#      x y z
#    x 3.463460 0.000000 0.000000 
#    y 0.000000 3.816230 0.000000 
#    z 0.000000 0.000000 3.729840 
# 
# 
# High freq. dielectric constant tensor:
#      x y z
#    x 1.768640 0.000000 0.000000 
#    y 0.000000 1.791000 0.000000 
#    z 0.000000 0.000000 1.773910 
# 
# From -- ./inp_files/29613.got.cif
#   From: 2010.03.12/outbox.cif.g09.slc.cpg/sg47_15_cif.got.tgz:29613.got - 2010.04.14 03:12:58.
