data_PCOD8199461
_publ_section_title
;
Structure prediction by ZEFSAII (Michael W. Deem and Ramdas Pophale) SiO2 
 PCOD8199461
Probable space group: P M M M
;
_chemical_formula_sum "Si O2"
_cell_formula_units_Z 44
_cell_length_a 9.183634
_cell_length_b 14.057617
_cell_length_c 17.894544
_cell_angle_alpha 90.000000
_cell_angle_beta 90.000000
_cell_angle_gamma 90.000000
_cell_volume 2310.185799
_symmetry_space_group_name_H-M "P M M M"
_symmetry_group_IT_number 47
_symmetry_cell_setting 'orthorhombic'
loop_
_space_group_symop_operation_xyz
x,y,z
-x,-y,z
x,-y,-z
-x,y,-z
-x,-y,-z
x,y,-z
-x,y,z
x,-y,z
loop_
_atom_site_type_symbol
_atom_site_label
_atom_site_fract_x
_atom_site_fract_y
_atom_site_fract_z
Si Si1 0.329982 0.610389 0.274296
Si Si2 0.829922 0.109191 0.646123
Si Si3 0.333325 0.113448 0.500000
Si Si4 0.837473 0.612776 0.418258
Si Si5 0.666238 0.890301 0.913771
Si Si6 0.828786 0.774318 0.792550
O O1 0.500000 0.629935 0.269831
O O2 0.292166 0.500000 0.261029
O O3 0.273892 0.647101 0.355118
O O4 0.248015 0.671156 0.211107
O O5 0.745664 0.152959 0.574612
O O6 0.782604 0.165136 0.720113
O O7 0.000000 0.119382 0.629518
O O8 0.785507 0.000000 0.659586
O O9 0.500000 0.147458 0.500000
O O10 0.319389 0.000000 0.500000
O O11 0.787906 0.651373 0.500000
O O12 0.841090 0.500000 0.421042
O O13 0.000000 0.651061 0.398740
O O14 0.500000 0.870801 0.889311
O O15 0.775457 0.826546 0.866556
O O16 0.706301 0.000000 0.900347
O O17 0.688048 0.863143 0.000000
O O18 0.000000 0.759583 0.798069
#
# Coordination Sequence:
#
# PCOD8199461 Si02
#       6
#     8   8   4   8   8   8
#     4  10  21  36  53  74 103 141 185 232 282 333
#     4   9  18  33  51  72 102 139 176 215 262 317
#     4   9  17  29  47  71  98 133 178 223 265 308
#     4   8  14  27  48  71  95 127 170 222 279 333
#     4   9  19  37  61  89 121 153 179 209 259 322
#     4  11  22  35  55  83 111 143 183 226 273 325
#
# _framework density 19.046088000000001
#
# number of rings (size 3 to 8) (size 9 to 14) (size 15 to 20)
#    0.000    2.636    0.000    3.000    0.000    5.455 
#    1.636    4.545    0.000    0.545    0.000    3.818 
#    0.000    0.000    0.000    0.000    0.000    0.000 
#
# Total GULP energy -545616.912186 kJ/mol
# GULP energy per Si atom -12400.384368 kJ/mol
# Density = 1.900274 g / cm^3
# Si number density = 19.046088 Si / 1000 Ang^3
#
#
#
# Elastic Constant Matrix: (Units=GPa)
#
#
# Indices 1 2 3 4 5 6 
#
# 1 99.2597 45.9813 59.1791 0.0000 0.0000 0.0000
# 2 45.9813 69.5304 49.2911 0.0000 0.0000 0.0000
# 3 59.1791 49.2911 98.7607 0.0000 0.0000 0.0000
# 4 0.0000 0.0000 0.0000 26.8812 0.0000 0.0000
# 5 0.0000 0.0000 0.0000 0.0000 36.5441 0.0000
# 6 0.0000 0.0000 0.0000 0.0000 0.0000 23.2927
#
#
#
# Elastic Compliance Matrix: (Units=1/GPa)
#
#
# Indices 1 2 3 4 5 6 
#
# 1 0.017307 -0.006335 -0.007209 0.000000 0.000000 0.000000
# 2 -0.006335 0.024576 -0.008470 0.000000 0.000000 0.000000
# 3 -0.007209 -0.008470 0.018673 0.000000 0.000000 0.000000
# 4 0.000000 0.000000 0.000000 0.037201 0.000000 0.000000
# 5 0.000000 0.000000 0.000000 0.000000 0.027364 0.000000
# 6 0.000000 0.000000 0.000000 0.000000 0.000000 0.042932
#
#
# Mechanical properties :
#
#
# Convention : Reuss Voigt Hill
#
# Bulk Modulus (GPa) = 60.50266 64.05041 62.27654
# Shear Modulus (GPa) = 22.97909 24.88358 23.93133
#
# Velocity S-wave (km/s) = 3.47724 3.61847 3.54855
# Velocity P-wave (km/s) = 6.92510 7.15261 7.03978
#
# Compressibility (1/GPa) = 0.01652820
#
# Stress axis : x y z
#
# Youngs Moduli (GPa) = 57.77929 40.69037 53.55463
#
# Poissons Ratio (x) = 0.25777 0.38608
# Poissons Ratio (y) = 0.36602 0.45359
# Poissons Ratio (z) = 0.41654 0.34464
#
# Static dielectric constant tensor:
#      x y z
#    x 3.422750 0.000000 0.000000 
#    y 0.000000 3.422530 0.000000 
#    z 0.000000 0.000000 3.413080 
# 
# 
# High freq. dielectric constant tensor:
#      x y z
#    x 1.738790 0.000000 0.000000 
#    y 0.000000 1.737300 0.000000 
#    z 0.000000 0.000000 1.722810 
# 
# From -- ./inp_files/6180.got.cif
#   From: 2010.03.12/outbox.cif.g09.slc.cpg/sg47_4_cif.got.tgz:6180.got - 2010.04.14 03:12:58.
