data_PCOD8199128
_publ_section_title
;
Structure prediction by ZEFSAII (Michael W. Deem and Ramdas Pophale) SiO2 
 PCOD8199128
Probable space group: P M M M
;
_chemical_formula_sum "Si O2"
_cell_formula_units_Z 64
_cell_length_a 14.509270
_cell_length_b 8.990497
_cell_length_c 25.763243
_cell_angle_alpha 90.000000
_cell_angle_beta 90.000000
_cell_angle_gamma 90.000000
_cell_volume 3360.700362
_symmetry_space_group_name_H-M "P M M M"
_symmetry_group_IT_number 47
_symmetry_cell_setting 'orthorhombic'
loop_
_space_group_symop_operation_xyz
x,y,z
-x,-y,z
x,-y,-z
-x,y,-z
-x,-y,-z
x,y,-z
-x,y,z
x,-y,z
loop_
_atom_site_type_symbol
_atom_site_label
_atom_site_fract_x
_atom_site_fract_y
_atom_site_fract_z
Si Si1 0.391045 0.665778 0.788052
Si Si2 0.103327 0.323839 0.261581
Si Si3 0.605869 0.825601 0.108827
Si Si4 0.897031 0.323691 0.853665
Si Si5 0.774389 0.675798 0.356574
Si Si6 0.105925 0.829592 0.560169
Si Si7 0.762286 0.327314 0.057997
Si Si8 0.394541 0.824336 0.683217
O O1 0.500000 0.655321 0.790777
O O2 0.347247 0.500000 0.784616
O O3 0.354835 0.747151 0.839353
O O4 0.361234 0.759466 0.738247
O O5 0.098898 0.500000 0.265912
O O6 0.139561 0.277467 0.203937
O O7 0.170948 0.261835 0.306035
O O8 0.000000 0.259773 0.270364
O O9 0.500000 0.783993 0.097753
O O10 0.666471 0.762913 0.061643
O O11 0.618418 0.000000 0.115527
O O12 0.900393 0.500000 0.858253
O O13 0.833171 0.259654 0.899677
O O14 0.000000 0.259438 0.861432
O O15 0.760768 0.500000 0.354831
O O16 0.829696 0.719086 0.407898
O O17 0.673740 0.753251 0.359293
O O18 0.127904 0.803604 0.500000
O O19 0.000000 0.790037 0.572122
O O20 0.126394 0.000000 0.575625
O O21 0.741842 0.500000 0.068928
O O22 0.802452 0.304492 0.000000
O O23 0.500000 0.778322 0.670345
O O24 0.384079 0.000000 0.684447
#
# Coordination Sequence:
#
# PCOD8199128 Si02
#       8
#     8   8   8   8   8   8   8   8
#     4   9  17  31  52  76 101 131 170 217 267 317
#     4   8  15  28  46  73 108 140 170 208 261 324
#     4  10  21  36  53  73  99 134 173 211 260 325
#     4   8  15  30  51  73 101 135 168 209 262 318
#     4  11  21  31  52  85 115 147 188 234 282 329
#     4   9  19  37  59  82 113 155 197 234 277 333
#     4  10  21  34  51  77 102 128 171 223 269 316
#     4  10  21  36  52  74 110 153 193 230 270 322
#
# _framework density 19.04365
#
# number of rings (size 3 to 8) (size 9 to 14) (size 15 to 20)
#    0.000    2.625    0.000    3.000    1.750    4.750 
#    0.000    3.125    0.000    0.750    0.000    5.250 
#    0.000    0.000    0.000    0.000    0.000    0.000 
#
# Total GULP energy -793475.638051 kJ/mol
# GULP energy per Si atom -12398.056845 kJ/mol
# Density = 1.900031 g / cm^3
# Si number density = 19.043650 Si / 1000 Ang^3
#
#
#
# Elastic Constant Matrix: (Units=GPa)
#
#
# Indices 1 2 3 4 5 6 
#
# 1 89.6226 36.8896 56.3988 0.0000 0.0000 0.0000
# 2 36.8896 64.2873 33.1130 0.0000 0.0000 0.0000
# 3 56.3988 33.1130 96.8960 0.0000 0.0000 0.0000
# 4 0.0000 0.0000 0.0000 26.5773 0.0000 0.0000
# 5 0.0000 0.0000 0.0000 0.0000 30.9659 0.0000
# 6 0.0000 0.0000 0.0000 0.0000 0.0000 22.1439
#
#
#
# Elastic Compliance Matrix: (Units=1/GPa)
#
#
# Indices 1 2 3 4 5 6 
#
# 1 0.019632 -0.006529 -0.009196 0.000000 0.000000 0.000000
# 2 -0.006529 0.021049 -0.003393 0.000000 0.000000 0.000000
# 3 -0.009196 -0.003393 0.016832 0.000000 0.000000 0.000000
# 4 0.000000 0.000000 0.000000 0.037626 0.000000 0.000000
# 5 0.000000 0.000000 0.000000 0.000000 0.032294 0.000000
# 6 0.000000 0.000000 0.000000 0.000000 0.000000 0.045159
#
#
# Mechanical properties :
#
#
# Convention : Reuss Voigt Hill
#
# Bulk Modulus (GPa) = 51.87226 55.95655 53.91441
# Shear Modulus (GPa) = 23.01450 24.23105 23.62278
#
# Velocity S-wave (km/s) = 3.48014 3.57094 3.52583
# Velocity P-wave (km/s) = 6.59138 6.81537 6.70431
#
# Compressibility (1/GPa) = 0.01927813
#
# Stress axis : x y z
#
# Youngs Moduli (GPa) = 50.93704 47.50744 59.40921
#
# Poissons Ratio (x) = 0.31017 0.54632
# Poissons Ratio (y) = 0.33256 0.20159
# Poissons Ratio (z) = 0.46841 0.16120
#
# Static dielectric constant tensor:
#      x y z
#    x 3.589660 0.000000 0.000000 
#    y 0.000000 3.204100 0.000000 
#    z 0.000000 0.000000 3.435610 
# 
# 
# High freq. dielectric constant tensor:
#      x y z
#    x 1.741020 0.000000 0.000000 
#    y 0.000000 1.714990 0.000000 
#    z 0.000000 0.000000 1.727190 
# 
# From -- ./inp_files/32148.got.cif
#   From: 2010.03.12/outbox.cif.g09.slc.cpg/sg47_17_cif.got.tgz:32148.got - 2010.04.14 03:12:58.
