data_PCOD8199455
_publ_section_title
;
Structure prediction by ZEFSAII (Michael W. Deem and Ramdas Pophale) SiO2 
 PCOD8199455
Probable space group: P M M M
;
_chemical_formula_sum "Si O2"
_cell_formula_units_Z 48
_cell_length_a 8.981598
_cell_length_b 30.399568
_cell_length_c 9.739334
_cell_angle_alpha 90.000000
_cell_angle_beta 90.000000
_cell_angle_gamma 90.000000
_cell_volume 2659.195607
_symmetry_space_group_name_H-M "P M M M"
_symmetry_group_IT_number 47
_symmetry_cell_setting 'orthorhombic'
loop_
_space_group_symop_operation_xyz
x,y,z
-x,-y,z
x,-y,-z
-x,y,-z
-x,-y,-z
x,y,-z
-x,y,z
x,-y,z
loop_
_atom_site_type_symbol
_atom_site_label
_atom_site_fract_x
_atom_site_fract_y
_atom_site_fract_z
Si Si1 0.674866 0.283314 0.341635
Si Si2 0.327632 0.119903 0.842177
Si Si3 0.823065 0.548609 0.845821
Si Si4 0.825858 0.790192 0.840896
Si Si5 0.829646 0.050902 0.342047
Si Si6 0.826230 0.373357 0.341707
O O1 0.716406 0.274144 0.500000
O O2 0.500000 0.283974 0.317818
O O3 0.745439 0.245893 0.249529
O O4 0.740337 0.329928 0.293735
O O5 0.500000 0.130476 0.817236
O O6 0.233943 0.162250 0.795941
O O7 0.280653 0.078565 0.751746
O O8 0.295058 0.108006 0.000000
O O9 0.764780 0.500000 0.802218
O O10 0.759882 0.585591 0.743569
O O11 0.000000 0.548664 0.839155
O O12 0.769214 0.559552 0.000000
O O13 0.000000 0.788475 0.810882
O O14 0.788908 0.781062 0.000000
O O15 0.802142 0.063611 0.500000
O O16 0.000000 0.060842 0.301035
O O17 0.792377 0.000000 0.317474
O O18 0.795791 0.384062 0.500000
O O19 0.000000 0.365743 0.311943
#
# Coordination Sequence:
#
# PCOD8199455 Si02
#       6
#     8   8   8   8   8   8
#     4  10  21  36  53  74 102 135 169 206 251 303
#     4  10  21  36  54  78 108 139 171 209 254 305
#     4   8  14  25  42  66  95 124 156 198 246 293
#     4  10  21  37  57  79 102 131 169 211 254 301
#     4   9  19  36  56  78 105 138 177 218 257 299
#     4   9  17  29  46  69  96 125 160 203 247 292
#
# _framework density 18.050571999999999
#
# number of rings (size 3 to 8) (size 9 to 14) (size 15 to 20)
#    0.000    2.667    0.000    2.500    0.000    5.667 
#    0.000    5.833    0.000    0.500    0.000    3.500 
#    0.000    0.000    0.000    0.000    0.000    0.000 
#
# Total GULP energy -595248.732886 kJ/mol
# GULP energy per Si atom -12401.015268 kJ/mol
# Density = 1.800949 g / cm^3
# Si number density = 18.050572 Si / 1000 Ang^3
#
#
#
# Elastic Constant Matrix: (Units=GPa)
#
#
# Indices 1 2 3 4 5 6 
#
# 1 49.2031 38.9108 32.3399 0.0000 0.0000 0.0000
# 2 38.9108 125.0900 70.7825 0.0000 0.0000 0.0000
# 3 32.3399 70.7825 76.5875 0.0000 0.0000 0.0000
# 4 0.0000 0.0000 0.0000 42.8425 0.0000 0.0000
# 5 0.0000 0.0000 0.0000 0.0000 25.8176 0.0000
# 6 0.0000 0.0000 0.0000 0.0000 0.0000 -7.2699
#
#
#
# Elastic Compliance Matrix: (Units=1/GPa)
#
#
# Indices 1 2 3 4 5 6 
#
# 1 0.029254 -0.004423 -0.008265 0.000000 0.000000 0.000000
# 2 -0.004423 0.017427 -0.014238 0.000000 0.000000 0.000000
# 3 -0.008265 -0.014238 0.029706 0.000000 0.000000 0.000000
# 4 0.000000 0.000000 0.000000 0.023341 0.000000 0.000000
# 5 0.000000 0.000000 0.000000 0.000000 0.038733 0.000000
# 6 0.000000 0.000000 0.000000 0.000000 0.000000 -0.137554
#
#
# Mechanical properties :
#
#
# Convention : Reuss Voigt Hill
#
# Bulk Modulus (GPa) = 44.37690 59.43855 51.90772
# Shear Modulus (GPa) = 80.29261 19.53454 49.91357
#
# Velocity S-wave (km/s) = 6.67672 3.29327 5.26423
# Velocity P-wave (km/s) = 9.16931 6.88921 8.10979
#
# Compressibility (1/GPa) = 0.02253425
#
# Stress axis : x y z
#
# Youngs Moduli (GPa) = 34.18310 57.38270 33.66312
#
# Poissons Ratio (x) = 0.25381 0.27823
# Poissons Ratio (y) = 0.15119 0.47931
# Poissons Ratio (z) = 0.28253 0.81703
#
# Static dielectric constant tensor:
#      x y z
#    x 3.190870 0.000000 0.000000 
#    y 0.000000 3.521490 0.000000 
#    z 0.000000 0.000000 3.365470 
# 
# 
# High freq. dielectric constant tensor:
#      x y z
#    x 1.685520 0.000000 0.000000 
#    y 0.000000 1.708020 0.000000 
#    z 0.000000 0.000000 1.696990 
# 
# From -- ./inp_files/2424.got.cif
#   From: 2010.03.12/outbox.cif.g09.slc.cpg/sg47_2_cif.got.tgz:2424.got - 2010.04.14 03:12:58.
