data_PCOD8199877
_publ_section_title
;
Structure prediction by ZEFSAII (Michael W. Deem and Ramdas Pophale) SiO2 
 PCOD8199877
Probable space group: P M M M
;
_chemical_formula_sum "Si O2"
_cell_formula_units_Z 64
_cell_length_a 14.023838
_cell_length_b 25.909601
_cell_length_c 9.020989
_cell_angle_alpha 90.000000
_cell_angle_beta 90.000000
_cell_angle_gamma 90.000000
_cell_volume 3277.794820
_symmetry_space_group_name_H-M "P M M M"
_symmetry_group_IT_number 47
_symmetry_cell_setting 'orthorhombic'
loop_
_space_group_symop_operation_xyz
x,y,z
-x,-y,z
x,-y,-z
-x,y,-z
-x,-y,-z
x,y,-z
-x,y,z
x,-y,z
loop_
_atom_site_type_symbol
_atom_site_label
_atom_site_fract_x
_atom_site_fract_y
_atom_site_fract_z
Si Si1 0.886938 0.850259 0.329975
Si Si2 0.113032 0.252692 0.169633
Si Si3 0.390579 0.904450 0.325275
Si Si4 0.109415 0.559011 0.171796
Si Si5 0.204708 0.349459 0.329770
Si Si6 0.782408 0.057565 0.829167
Si Si7 0.606733 0.701846 0.330821
Si Si8 0.386833 0.197747 0.834006
O O1 0.853197 0.848772 0.500000
O O2 0.846371 0.798917 0.249113
O O3 0.848942 0.902194 0.255250
O O4 0.000000 0.851572 0.316198
O O5 0.151936 0.304170 0.243838
O O6 0.000000 0.254377 0.183419
O O7 0.146686 0.251023 0.000000
O O8 0.377908 0.908745 0.500000
O O9 0.500000 0.914566 0.278401
O O10 0.323322 0.945225 0.242940
O O11 0.352505 0.848591 0.271233
O O12 0.135350 0.500000 0.208441
O O13 0.177324 0.594829 0.268247
O O14 0.000000 0.570367 0.213349
O O15 0.126815 0.571041 0.000000
O O16 0.173554 0.345475 0.500000
O O17 0.319620 0.345241 0.311728
O O18 0.826335 0.000000 0.814153
O O19 0.774280 0.074085 0.000000
O O20 0.603961 0.721466 0.500000
O O21 0.500000 0.684670 0.280686
O O22 0.649328 0.748202 0.231781
O O23 0.500000 0.198972 0.834242
O O24 0.346323 0.190306 0.000000
#
# Coordination Sequence:
#
# PCOD8199877 Si02
#       8
#     8   8   8   8   8   8   8   8
#     4  10  22  41  64  87 112 143 181 229 282 336
#     4  10  21  37  57  82 115 152 184 218 271 339
#     4  10  21  37  58  82 110 145 182 225 279 336
#     4   9  19  37  59  82 112 151 191 231 280 340
#     4  11  22  33  53  85 116 149 190 237 283 327
#     4  11  25  42  60  83 110 143 184 230 279 336
#     4   9  19  35  51  71 107 152 192 229 274 328
#     4   9  17  30  50  76 104 136 178 225 271 324
#
# _framework density 19.525321999999999
#
# number of rings (size 3 to 8) (size 9 to 14) (size 15 to 20)
#    0.000    2.125    0.000    3.000    1.750    8.250 
#    0.000    3.125    0.000    0.375    0.000    2.625 
#    0.000    0.000    0.000    0.000    0.000    0.000 
#
# Total GULP energy -793655.960608 kJ/mol
# GULP energy per Si atom -12400.874384 kJ/mol
# Density = 1.948088 g / cm^3
# Si number density = 19.525322 Si / 1000 Ang^3
#
#
#
# Elastic Constant Matrix: (Units=GPa)
#
#
# Indices 1 2 3 4 5 6 
#
# 1 28.5269 40.0973 34.4596 0.0000 0.0000 0.0000
# 2 40.0973 116.7386 63.5206 0.0000 0.0000 0.0000
# 3 34.4596 63.5206 132.6047 0.0000 0.0000 0.0000
# 4 0.0000 0.0000 0.0000 31.0529 0.0000 0.0000
# 5 0.0000 0.0000 0.0000 0.0000 26.1173 0.0000
# 6 0.0000 0.0000 0.0000 0.0000 0.0000 30.3114
#
#
#
# Elastic Compliance Matrix: (Units=1/GPa)
#
#
# Indices 1 2 3 4 5 6 
#
# 1 0.076194 -0.020825 -0.009825 0.000000 0.000000 0.000000
# 2 -0.020825 0.017278 -0.002865 0.000000 0.000000 0.000000
# 3 -0.009825 -0.002865 0.011467 0.000000 0.000000 0.000000
# 4 0.000000 0.000000 0.000000 0.032203 0.000000 0.000000
# 5 0.000000 0.000000 0.000000 0.000000 0.038289 0.000000
# 6 0.000000 0.000000 0.000000 0.000000 0.000000 0.032991
#
#
# Mechanical properties :
#
#
# Convention : Reuss Voigt Hill
#
# Bulk Modulus (GPa) = 26.37857 61.55837 43.96847
# Shear Modulus (GPa) = 17.35583 26.81581 22.08582
#
# Velocity S-wave (km/s) = 2.98466 3.70994 3.36689
# Velocity P-wave (km/s) = 5.04151 7.06735 6.13858
#
# Compressibility (1/GPa) = 0.03790956
#
# Stress axis : x y z
#
# Youngs Moduli (GPa) = 13.12434 57.87712 87.21001
#
# Poissons Ratio (x) = 1.20531 0.85681
# Poissons Ratio (y) = 0.27332 0.24983
# Poissons Ratio (z) = 0.12894 0.16580
#
# Static dielectric constant tensor:
#      x y z
#    x 3.603530 0.000000 0.000000 
#    y 0.000000 3.419170 0.000000 
#    z 0.000000 0.000000 3.712170 
# 
# 
# High freq. dielectric constant tensor:
#      x y z
#    x 1.761780 0.000000 0.000000 
#    y 0.000000 1.744310 0.000000 
#    z 0.000000 0.000000 1.771260 
# 
# From -- ./inp_files/7829.got.cif
#   From: 2010.03.12/outbox.cif.g09.slc.cpg/sg47_4_cif.got.tgz:7829.got - 2010.04.14 03:12:58.
