data_PCOD8199345
_publ_section_title
;
Structure prediction by ZEFSAII (Michael W. Deem and Ramdas Pophale) SiO2 
 PCOD8199345
Probable space group: P M M M
;
_chemical_formula_sum "Si O2"
_cell_formula_units_Z 56
_cell_length_a 9.462429
_cell_length_b 20.949540
_cell_length_c 14.315837
_cell_angle_alpha 90.000000
_cell_angle_beta 90.000000
_cell_angle_gamma 90.000000
_cell_volume 2837.878973
_symmetry_space_group_name_H-M "P M M M"
_symmetry_group_IT_number 47
_symmetry_cell_setting 'orthorhombic'
loop_
_space_group_symop_operation_xyz
x,y,z
-x,-y,z
x,-y,-z
-x,y,-z
-x,-y,-z
x,y,-z
-x,y,z
x,-y,z
loop_
_atom_site_type_symbol
_atom_site_label
_atom_site_fract_x
_atom_site_fract_y
_atom_site_fract_z
Si Si1 0.334716 0.187242 0.607213
Si Si2 0.334293 0.387605 0.106225
Si Si3 0.835281 0.872884 0.108964
Si Si4 0.838070 0.570217 0.271594
Si Si5 0.164978 0.690196 0.391569
Si Si6 0.662079 0.929106 0.737114
Si Si7 0.345429 0.754875 0.889792
O O1 0.292126 0.175381 0.500000
O O2 0.500000 0.201089 0.617985
O O3 0.251742 0.248844 0.647722
O O4 0.288129 0.123539 0.662212
O O5 0.500000 0.401459 0.114411
O O6 0.249555 0.432871 0.175560
O O7 0.298064 0.315665 0.139936
O O8 0.283838 0.399855 0.000000
O O9 0.757538 0.926640 0.169512
O O10 0.771201 0.805265 0.143307
O O11 0.000000 0.872592 0.131407
O O12 0.805927 0.886180 0.000000
O O13 0.821407 0.500000 0.319033
O O14 0.783017 0.625391 0.341008
O O15 0.000000 0.583635 0.245497
O O16 0.199735 0.680198 0.500000
O O17 0.000000 0.703345 0.374736
O O18 0.500000 0.917453 0.766325
O O19 0.680979 0.000000 0.693550
O O20 0.500000 0.772174 0.846194
O O21 0.361218 0.755616 0.000000
#
# Coordination Sequence:
#
# PCOD8199345 Si02
#       7
#     8   8   8   8   8   8   8
#     4   9  19  37  61  87 112 139 175 223 276 328
#     4   9  19  35  54  77 107 145 187 229 274 326
#     4  10  21  35  52  77 110 147 186 229 275 321
#     4  10  22  37  53  79 113 148 187 229 274 323
#     4   9  19  37  60  84 110 142 180 223 273 330
#     4  10  22  38  56  81 112 148 187 224 269 325
#     4   8  15  30  51  74 100 133 177 226 273 320
#
# _framework density 19.733046999999999
#
# number of rings (size 3 to 8) (size 9 to 14) (size 15 to 20)
#    0.000    2.714    0.000    1.286    2.000    4.571 
#    0.000    7.143    0.000    0.000    0.000    6.000 
#    0.000    0.000    0.000    0.000    0.000    0.000 
#
# Total GULP energy -694276.360799 kJ/mol
# GULP energy per Si atom -12397.792157 kJ/mol
# Density = 1.968813 g / cm^3
# Si number density = 19.733047 Si / 1000 Ang^3
#
#
#
# Elastic Constant Matrix: (Units=GPa)
#
#
# Indices 1 2 3 4 5 6 
#
# 1 66.8031 52.9495 39.3279 0.0000 0.0000 0.0000
# 2 52.9495 148.9644 59.5699 0.0000 0.0000 0.0000
# 3 39.3279 59.5699 73.2693 0.0000 0.0000 0.0000
# 4 0.0000 0.0000 0.0000 26.9902 0.0000 0.0000
# 5 0.0000 0.0000 0.0000 0.0000 24.7797 0.0000
# 6 0.0000 0.0000 0.0000 0.0000 0.0000 29.7997
#
#
#
# Elastic Compliance Matrix: (Units=1/GPa)
#
#
# Indices 1 2 3 4 5 6 
#
# 1 0.024203 -0.005050 -0.008886 0.000000 0.000000 0.000000
# 2 -0.005050 0.011001 -0.006233 0.000000 0.000000 0.000000
# 3 -0.008886 -0.006233 0.023486 0.000000 0.000000 0.000000
# 4 0.000000 0.000000 0.000000 0.037051 0.000000 0.000000
# 5 0.000000 0.000000 0.000000 0.000000 0.040356 0.000000
# 6 0.000000 0.000000 0.000000 0.000000 0.000000 0.033557
#
#
# Mechanical properties :
#
#
# Convention : Reuss Voigt Hill
#
# Bulk Modulus (GPa) = 54.49034 65.85905 60.17470
# Shear Modulus (GPa) = 23.13668 25.45988 24.29828
#
# Velocity S-wave (km/s) = 3.42787 3.59585 3.51287
# Velocity P-wave (km/s) = 6.58337 7.11953 6.85669
#
# Compressibility (1/GPa) = 0.01835188
#
# Stress axis : x y z
#
# Youngs Moduli (GPa) = 41.31736 90.90428 42.57929
#
# Poissons Ratio (x) = 0.45903 0.37834
# Poissons Ratio (y) = 0.20864 0.26541
# Poissons Ratio (z) = 0.36713 0.56664
#
# Static dielectric constant tensor:
#      x y z
#    x 3.476840 0.000000 0.000000 
#    y 0.000000 3.749820 0.000000 
#    z 0.000000 0.000000 3.475140 
# 
# 
# High freq. dielectric constant tensor:
#      x y z
#    x 1.757940 0.000000 0.000000 
#    y 0.000000 1.772780 0.000000 
#    z 0.000000 0.000000 1.759080 
# 
# From -- ./inp_files/7357.got.cif
#   From: 2010.03.12/outbox.cif.g09.slc.cpg/sg47_4_cif.got.tgz:7357.got - 2010.04.14 03:12:58.
