data_PCOD8199506
_publ_section_title
;
Structure prediction by ZEFSAII (Michael W. Deem and Ramdas Pophale) SiO2 
 PCOD8199506
Probable space group: P M M M
;
_chemical_formula_sum "Si O2"
_cell_formula_units_Z 36
_cell_length_a 14.815103
_cell_length_b 9.302870
_cell_length_c 14.173088
_cell_angle_alpha 90.000000
_cell_angle_beta 90.000000
_cell_angle_gamma 90.000000
_cell_volume 1953.377185
_symmetry_space_group_name_H-M "P M M M"
_symmetry_group_IT_number 47
_symmetry_cell_setting 'orthorhombic'
loop_
_space_group_symop_operation_xyz
x,y,z
-x,-y,z
x,-y,-z
-x,y,-z
-x,-y,-z
x,y,-z
-x,y,z
x,-y,z
loop_
_atom_site_type_symbol
_atom_site_label
_atom_site_fract_x
_atom_site_fract_y
_atom_site_fract_z
Si Si1 0.271799 0.333822 0.607798
Si Si2 0.400741 0.837389 0.255234
Si Si3 0.500000 0.669931 0.110439
Si Si4 0.899136 0.665272 0.278943
Si Si5 0.107289 0.838392 0.102847
O O1 0.286089 0.287668 0.500000
O O2 0.298498 0.500000 0.623730
O O3 0.332412 0.234584 0.672815
O O4 0.166358 0.308535 0.632519
O O5 0.500000 0.841444 0.304074
O O6 0.410705 0.743151 0.158422
O O7 0.368516 0.000000 0.231209
O O8 0.500000 0.500000 0.130271
O O9 0.500000 0.704854 0.000000
O O10 0.904691 0.500000 0.251253
O O11 0.854802 0.742121 0.187686
O O12 0.000000 0.723291 0.304017
O O13 0.000000 0.832640 0.104883
O O14 0.141862 0.000000 0.118955
O O15 0.141171 0.782617 0.000000
#
# Coordination Sequence:
#
# PCOD8199506 Si02
#       5
#     8   8   4   8   8
#     4  10  21  36  54  76 104 141 184 228 274 324
#     4   9  20  36  56  83 112 141 173 216 264 314
#     4   9  17  33  60  89 116 145 173 206 252 311
#     4   9  18  32  50  74 104 137 177 226 274 319
#     4   8  14  26  45  68  94 126 164 206 255 311
#
# _framework density 18.429621000000001
#
# number of rings (size 3 to 8) (size 9 to 14) (size 15 to 20)
#    0.667    2.333    0.000    1.333    0.000    3.556 
#    0.000    7.778    0.000    1.333    0.000    4.667 
#    0.000    0.000    0.000    0.000    0.000    0.000 
#
# Total GULP energy -446043.400866 kJ/mol
# GULP energy per Si atom -12390.094469 kJ/mol
# Density = 1.838767 g / cm^3
# Si number density = 18.429621 Si / 1000 Ang^3
#
#
#
# Elastic Constant Matrix: (Units=GPa)
#
#
# Indices 1 2 3 4 5 6 
#
# 1 60.1212 40.3529 47.0304 0.0000 0.0000 0.0000
# 2 40.3529 103.7583 73.5754 0.0000 0.0000 0.0000
# 3 47.0304 73.5754 133.0986 0.0000 0.0000 0.0000
# 4 0.0000 0.0000 0.0000 12.3309 0.0000 0.0000
# 5 0.0000 0.0000 0.0000 0.0000 28.7331 0.0000
# 6 0.0000 0.0000 0.0000 0.0000 0.0000 20.3140
#
#
#
# Elastic Compliance Matrix: (Units=1/GPa)
#
#
# Indices 1 2 3 4 5 6 
#
# 1 0.024853 -0.005655 -0.005656 0.000000 0.000000 0.000000
# 2 -0.005655 0.017138 -0.007475 0.000000 0.000000 0.000000
# 3 -0.005656 -0.007475 0.013644 0.000000 0.000000 0.000000
# 4 0.000000 0.000000 0.000000 0.081097 0.000000 0.000000
# 5 0.000000 0.000000 0.000000 0.000000 0.034803 0.000000
# 6 0.000000 0.000000 0.000000 0.000000 0.000000 0.049227
#
#
# Mechanical properties :
#
#
# Convention : Reuss Voigt Hill
#
# Bulk Modulus (GPa) = 55.36360 68.76618 62.06489
# Shear Modulus (GPa) = 18.91393 21.34358 20.12875
#
# Velocity S-wave (km/s) = 3.20703 3.40680 3.30842
# Velocity P-wave (km/s) = 6.61961 7.27110 6.95299
#
# Compressibility (1/GPa) = 0.01806241
#
# Stress axis : x y z
#
# Youngs Moduli (GPa) = 40.23655 58.34983 73.29221
#
# Poissons Ratio (x) = 0.32998 0.41452
# Poissons Ratio (y) = 0.22754 0.54789
# Poissons Ratio (z) = 0.22757 0.43619
#
# Static dielectric constant tensor:
#      x y z
#    x 3.196730 0.000000 0.000000 
#    y 0.000000 3.456990 0.000000 
#    z 0.000000 0.000000 3.487830 
# 
# 
# High freq. dielectric constant tensor:
#      x y z
#    x 1.690830 0.000000 0.000000 
#    y 0.000000 1.714870 0.000000 
#    z 0.000000 0.000000 1.706460 
# 
# From -- ./inp_files/23261.got.cif
#   From: 2010.03.12/outbox.cif.g09.slc.cpg/sg47_12_cif.got.tgz:23261.got - 2010.04.14 03:12:58.
