data_PCOD8199668
_publ_section_title
;
Structure prediction by ZEFSAII (Michael W. Deem and Ramdas Pophale) SiO2 
 PCOD8199668
Probable space group: P M M M
;
_chemical_formula_sum "Si O2"
_cell_formula_units_Z 64
_cell_length_a 14.844053
_cell_length_b 9.045443
_cell_length_c 24.899165
_cell_angle_alpha 90.000000
_cell_angle_beta 90.000000
_cell_angle_gamma 90.000000
_cell_volume 3343.236663
_symmetry_space_group_name_H-M "P M M M"
_symmetry_group_IT_number 47
_symmetry_cell_setting 'orthorhombic'
loop_
_space_group_symop_operation_xyz
x,y,z
-x,-y,z
x,-y,-z
-x,y,-z
-x,-y,-z
x,y,-z
-x,y,z
x,-y,z
loop_
_atom_site_type_symbol
_atom_site_label
_atom_site_fract_x
_atom_site_fract_y
_atom_site_fract_z
Si Si1 0.746142 0.824523 0.633423
Si Si2 0.792320 0.826928 0.940454
Si Si3 0.225815 0.669635 0.256711
Si Si4 0.402075 0.826529 0.913161
Si Si5 0.104239 0.325424 0.156604
Si Si6 0.394996 0.327861 0.439295
Si Si7 0.097856 0.824622 0.559417
Si Si8 0.598627 0.663858 0.806309
O O1 0.777967 0.772010 0.691682
O O2 0.654541 0.760112 0.608455
O O3 0.824965 0.759190 0.596362
O O4 0.738103 0.000000 0.634158
O O5 0.688085 0.768147 0.942557
O O6 0.852063 0.744343 0.896506
O O7 0.793835 0.000000 0.925989
O O8 0.832971 0.798086 0.000000
O O9 0.203103 0.500000 0.271243
O O10 0.157483 0.726527 0.210150
O O11 0.328568 0.688715 0.239084
O O12 0.500000 0.761245 0.933852
O O13 0.389314 0.787602 0.851095
O O14 0.407067 0.000000 0.920340
O O15 0.113278 0.500000 0.150149
O O16 0.000000 0.275815 0.161417
O O17 0.365912 0.277748 0.500000
O O18 0.500000 0.295136 0.431657
O O19 0.374036 0.500000 0.431907
O O20 0.110996 0.759027 0.500000
O O21 0.000000 0.777067 0.582134
O O22 0.104964 0.000000 0.557480
O O23 0.500000 0.677853 0.779289
O O24 0.611070 0.500000 0.832312
#
# Coordination Sequence:
#
# PCOD8199668 Si02
#       8
#     8   8   8   8   8   8   8   8
#     4  11  22  33  52  84 115 142 180 230 278 325
#     4  10  21  36  56  84 116 146 178 221 275 336
#     4  10  21  37  54  75 106 144 182 221 272 331
#     4   9  17  30  51  79 110 142 173 208 255 312
#     4  10  22  41  62  81 104 140 188 237 282 330
#     4   9  19  37  59  81 110 153 198 234 276 332
#     4   8  15  30  51  74 103 138 172 209 260 321
#     4   9  17  31  53  76  97 129 174 218 260 309
#
# _framework density 19.143125000000001
#
# number of rings (size 3 to 8) (size 9 to 14) (size 15 to 20)
#    0.000    2.500    1.250    1.500    0.000    4.000 
#    0.000    4.375    0.000    1.125    0.000    7.000 
#    0.000    0.000    0.000    0.000    0.000    0.000 
#
# Total GULP energy -793006.860332 kJ/mol
# GULP energy per Si atom -12390.732193 kJ/mol
# Density = 1.909955 g / cm^3
# Si number density = 19.143125 Si / 1000 Ang^3
#
#
#
# Elastic Constant Matrix: (Units=GPa)
#
#
# Indices 1 2 3 4 5 6 
#
# 1 133.1546 37.8940 69.5129 0.0000 0.0000 0.0000
# 2 37.8940 38.1403 39.5468 0.0000 0.0000 0.0000
# 3 69.5129 39.5468 124.4401 0.0000 0.0000 0.0000
# 4 0.0000 0.0000 0.0000 27.5467 0.0000 0.0000
# 5 0.0000 0.0000 0.0000 0.0000 9.6015 0.0000
# 6 0.0000 0.0000 0.0000 0.0000 0.0000 22.3808
#
#
#
# Elastic Compliance Matrix: (Units=1/GPa)
#
#
# Indices 1 2 3 4 5 6 
#
# 1 0.011826 -0.007308 -0.004284 0.000000 0.000000 0.000000
# 2 -0.007308 0.043621 -0.009780 0.000000 0.000000 0.000000
# 3 -0.004284 -0.009780 0.013537 0.000000 0.000000 0.000000
# 4 0.000000 0.000000 0.000000 0.036302 0.000000 0.000000
# 5 0.000000 0.000000 0.000000 0.000000 0.104150 0.000000
# 6 0.000000 0.000000 0.000000 0.000000 0.000000 0.044681
#
#
# Mechanical properties :
#
#
# Convention : Reuss Voigt Hill
#
# Bulk Modulus (GPa) = 38.10990 65.51582 51.81286
# Shear Modulus (GPa) = 16.36085 21.82456 19.09271
#
# Velocity S-wave (km/s) = 2.92663 3.38016 3.16154
# Velocity P-wave (km/s) = 5.60101 7.03793 6.36018
#
# Compressibility (1/GPa) = 0.02623990
#
# Stress axis : x y z
#
# Youngs Moduli (GPa) = 84.55860 22.92483 73.87172
#
# Poissons Ratio (x) = 0.16754 0.31644
# Poissons Ratio (y) = 0.61797 0.72248
# Poissons Ratio (z) = 0.36222 0.22421
#
# Static dielectric constant tensor:
#      x y z
#    x 3.907530 0.000000 0.000000 
#    y 0.000000 3.272680 0.000000 
#    z 0.000000 0.000000 3.424670 
# 
# 
# High freq. dielectric constant tensor:
#      x y z
#    x 1.758770 0.000000 0.000000 
#    y 0.000000 1.719440 0.000000 
#    z 0.000000 0.000000 1.736150 
# 
# From -- ./inp_files/12656.got.cif
#   From: 2010.03.12/outbox.cif.g09.slc.cpg/sg47_7_cif.got.tgz:12656.got - 2010.04.14 03:12:58.
