data_PCOD8199140
_publ_section_title
;
Structure prediction by ZEFSAII (Michael W. Deem and Ramdas Pophale) SiO2 
 PCOD8199140
Probable space group: P M M M
;
_chemical_formula_sum "Si O2"
_cell_formula_units_Z 56
_cell_length_a 29.278884
_cell_length_b 9.261664
_cell_length_c 13.564615
_cell_angle_alpha 90.000000
_cell_angle_beta 90.000000
_cell_angle_gamma 90.000000
_cell_volume 3678.332736
_symmetry_space_group_name_H-M "P M M M"
_symmetry_group_IT_number 47
_symmetry_cell_setting 'orthorhombic'
loop_
_space_group_symop_operation_xyz
x,y,z
-x,-y,z
x,-y,-z
-x,y,-z
-x,-y,-z
x,y,-z
-x,y,z
x,-y,z
loop_
_atom_site_type_symbol
_atom_site_label
_atom_site_fract_x
_atom_site_fract_y
_atom_site_fract_z
Si Si1 0.448264 0.329845 0.803229
Si Si2 0.684827 0.330618 0.723719
Si Si3 0.365221 0.166379 0.113037
Si Si4 0.864479 0.161987 0.617434
Si Si5 0.596298 0.330747 0.607107
Si Si6 0.775911 0.331127 0.613226
Si Si7 0.949632 0.662186 0.617233
O O1 0.500000 0.292763 0.833373
O O2 0.437932 0.500000 0.814473
O O3 0.414239 0.243540 0.873872
O O4 0.439923 0.279858 0.689777
O O5 0.683163 0.500000 0.748785
O O6 0.674305 0.242642 0.823133
O O7 0.647186 0.289921 0.641951
O O8 0.733553 0.283571 0.680744
O O9 0.369947 0.000000 0.145236
O O10 0.350246 0.180311 0.000000
O O11 0.866269 0.164300 0.500000
O O12 0.820066 0.247971 0.654193
O O13 0.910314 0.235087 0.661418
O O14 0.861893 0.000000 0.658634
O O15 0.586680 0.257308 0.500000
O O16 0.592043 0.500000 0.593708
O O17 0.765149 0.289630 0.500000
O O18 0.785957 0.500000 0.622240
O O19 0.946983 0.662477 0.500000
O O20 0.941335 0.500000 0.656282
O O21 0.000000 0.716961 0.650874
#
# Coordination Sequence:
#
# PCOD8199140 Si02
#       7
#     8   8   8   8   8   8   8
#     4   9  18  31  47  68  89 108 133 163 193 226
#     4   9  17  29  46  66  83 102 132 166 198 233
#     4  10  21  35  49  64  82 105 131 160 198 242
#     4   9  16  23  31  47  72 101 133 168 205 243
#     4   8  13  23  41  64  87 107 129 159 191 224
#     4   9  16  26  41  60  82 107 134 165 200 238
#     4   8  13  21  32  44  60  88 129 175 217 250
#
# _framework density 15.224289000000001
#
# number of rings (size 3 to 8) (size 9 to 14) (size 15 to 20)
#    0.000    3.143    0.000    2.571    0.000    6.286 
#    0.000    4.286    0.000   10.286    0.000    4.000 
#    0.000    0.000    0.000    0.000    0.000    0.714 
#
# Total GULP energy -694088.238269 kJ/mol
# GULP energy per Si atom -12394.432826 kJ/mol
# Density = 1.518964 g / cm^3
# Si number density = 15.224289 Si / 1000 Ang^3
#
#
#
# Elastic Constant Matrix: (Units=GPa)
#
#
# Indices 1 2 3 4 5 6 
#
# 1 126.8476 56.7005 26.1623 0.0000 0.0000 0.0000
# 2 56.7005 70.7082 27.0081 0.0000 0.0000 0.0000
# 3 26.1623 27.0081 53.3592 0.0000 0.0000 0.0000
# 4 0.0000 0.0000 0.0000 13.5494 0.0000 0.0000
# 5 0.0000 0.0000 0.0000 0.0000 12.0717 0.0000
# 6 0.0000 0.0000 0.0000 0.0000 0.0000 14.5267
#
#
#
# Elastic Compliance Matrix: (Units=1/GPa)
#
#
# Indices 1 2 3 4 5 6 
#
# 1 0.012360 -0.009417 -0.001293 0.000000 0.000000 0.000000
# 2 -0.009417 0.024707 -0.007889 0.000000 0.000000 0.000000
# 3 -0.001293 -0.007889 0.023368 0.000000 0.000000 0.000000
# 4 0.000000 0.000000 0.000000 0.073804 0.000000 0.000000
# 5 0.000000 0.000000 0.000000 0.000000 0.082838 0.000000
# 6 0.000000 0.000000 0.000000 0.000000 0.000000 0.068839
#
#
# Mechanical properties :
#
#
# Convention : Reuss Voigt Hill
#
# Bulk Modulus (GPa) = 43.03532 52.29520 47.66526
# Shear Modulus (GPa) = 15.11216 17.43251 16.27233
#
# Velocity S-wave (km/s) = 3.15403 3.38752 3.27286
# Velocity P-wave (km/s) = 6.44925 7.05158 6.75713
#
# Compressibility (1/GPa) = 0.02323673
#
# Stress axis : x y z
#
# Youngs Moduli (GPa) = 80.90837 40.47393 42.79364
#
# Poissons Ratio (x) = 0.38115 0.05535
# Poissons Ratio (y) = 0.76192 0.33758
# Poissons Ratio (z) = 0.10465 0.31928
#
# Static dielectric constant tensor:
#      x y z
#    x 3.066390 0.000000 0.000000 
#    y 0.000000 2.882910 0.000000 
#    z 0.000000 0.000000 2.646530 
# 
# 
# High freq. dielectric constant tensor:
#      x y z
#    x 1.584990 0.000000 0.000000 
#    y 0.000000 1.572960 0.000000 
#    z 0.000000 0.000000 1.533620 
# 
# From -- ./inp_files/25798.got.cif
#   From: 2010.03.12/outbox.cif.g09.slc.cpg/sg47_13_cif.got.tgz:25798.got - 2010.04.14 03:12:58.
