data_PCOD8199751
_publ_section_title
;
Structure prediction by ZEFSAII (Michael W. Deem and Ramdas Pophale) SiO2 
 PCOD8199751
Probable space group: P M M M
;
_chemical_formula_sum "Si O2"
_cell_formula_units_Z 40
_cell_length_a 9.106117
_cell_length_b 29.844231
_cell_length_c 7.714298
_cell_angle_alpha 90.000000
_cell_angle_beta 90.000000
_cell_angle_gamma 90.000000
_cell_volume 2096.476653
_symmetry_space_group_name_H-M "P M M M"
_symmetry_group_IT_number 47
_symmetry_cell_setting 'orthorhombic'
loop_
_space_group_symop_operation_xyz
x,y,z
-x,-y,z
x,-y,-z
-x,y,-z
-x,-y,-z
x,y,-z
-x,y,z
x,-y,z
loop_
_atom_site_type_symbol
_atom_site_label
_atom_site_fract_x
_atom_site_fract_y
_atom_site_fract_z
Si Si1 0.172640 0.824065 0.800459
Si Si2 0.175270 0.341275 0.500000
Si Si3 0.840500 0.500000 0.795542
Si Si4 0.163244 0.000000 0.702917
Si Si5 0.175912 0.403677 0.805716
Si Si6 0.173853 0.241125 0.500000
Si Si7 0.662236 0.911870 0.797927
O O1 0.225901 0.783909 0.675482
O O2 0.250809 0.868725 0.727909
O O3 0.000000 0.832610 0.783269
O O4 0.214664 0.812481 0.000000
O O5 0.234072 0.366476 0.671778
O O6 0.241027 0.291096 0.500000
O O7 0.000000 0.340387 0.500000
O O8 0.760183 0.547092 0.746874
O O9 0.000000 0.500000 0.703963
O O10 0.862750 0.500000 0.000000
O O11 0.249112 0.956510 0.761977
O O12 0.149499 0.000000 0.500000
O O13 0.000000 0.000000 0.786433
O O14 0.000000 0.406466 0.803425
O O15 0.229947 0.390955 0.000000
O O16 0.000000 0.244183 0.500000
O O17 0.500000 0.914574 0.711445
O O18 0.644102 0.905886 0.000000
#
# Coordination Sequence:
#
# PCOD8199751 Si02
#       7
#     8   4   4   4   8   4   8
#     4   9  18  33  52  71  93 125 160 195 240 290
#     4   9  16  23  32  50  70  94 131 178 233 279
#     4   7  10  17  27  39  58  89 127 166 213 269
#     4  11  24  37  52  78 110 141 168 193 228 282
#     4   8  13  20  29  42  64  93 127 171 222 274
#     4   9  18  30  44  62  85 111 149 198 240 289
#     4  10  21  37  56  78 103 129 161 203 244 284
#
# _framework density 19.079630000000002
#
# number of rings (size 3 to 8) (size 9 to 14) (size 15 to 20)
#    0.000    3.000    0.000    2.400    1.400    4.400 
#    0.000    6.000    0.000    0.000    0.000    0.000 
#    0.000    0.000    0.000    0.000    0.000    0.000 
#
# Total GULP energy -495606.245704 kJ/mol
# GULP energy per Si atom -12390.156143 kJ/mol
# Density = 1.903620 g / cm^3
# Si number density = 19.079630 Si / 1000 Ang^3
#
#
#
# Elastic Constant Matrix: (Units=GPa)
#
#
# Indices 1 2 3 4 5 6 
#
# 1 53.2651 39.9452 19.8727 0.0000 0.0000 0.0000
# 2 39.9452 207.2468 77.5983 0.0000 0.0000 0.0000
# 3 19.8727 77.5983 95.8778 0.0000 0.0000 0.0000
# 4 0.0000 0.0000 0.0000 45.7223 0.0000 0.0000
# 5 0.0000 0.0000 0.0000 0.0000 5.7012 0.0000
# 6 0.0000 0.0000 0.0000 0.0000 0.0000 -2.5902
#
#
#
# Elastic Compliance Matrix: (Units=1/GPa)
#
#
# Indices 1 2 3 4 5 6 
#
# 1 0.022122 -0.003654 -0.001628 0.000000 0.000000 0.000000
# 2 -0.003654 0.007527 -0.005334 0.000000 0.000000 0.000000
# 3 -0.001628 -0.005334 0.015085 0.000000 0.000000 0.000000
# 4 0.000000 0.000000 0.000000 0.021871 0.000000 0.000000
# 5 0.000000 0.000000 0.000000 0.000000 0.175402 0.000000
# 6 0.000000 0.000000 0.000000 0.000000 0.000000 -0.386066
#
#
# Mechanical properties :
#
#
# Convention : Reuss Voigt Hill
#
# Bulk Modulus (GPa) = 42.55200 70.13581 56.34390
# Shear Modulus (GPa) = -43.48054 24.36488 -9.55783
#
# Velocity S-wave (km/s) = -4.77896 3.57740 -2.24061
# Velocity P-wave (km/s) = 2.84615 7.34187 4.78553
#
# Compressibility (1/GPa) = 0.02350066
#
# Stress axis : x y z
#
# Youngs Moduli (GPa) = 45.20428 132.85773 66.29262
#
# Poissons Ratio (x) = 0.48552 0.10789
# Poissons Ratio (y) = 0.16520 0.35363
# Poissons Ratio (z) = 0.07357 0.70871
#
# Static dielectric constant tensor:
#      x y z
#    x 3.193760 0.000000 0.000000 
#    y 0.000000 3.868480 0.000000 
#    z 0.000000 0.000000 3.581750 
# 
# 
# High freq. dielectric constant tensor:
#      x y z
#    x 1.676040 0.000000 0.000000 
#    y 0.000000 1.750400 0.000000 
#    z 0.000000 0.000000 1.743010 
# 
# From -- ./inp_files/1922.got.cif
#   From: 2010.03.12/outbox.cif.g09.slc.cpg/sg47_1_cif.got.tgz:1922.got - 2010.04.14 03:12:58.
