data_PCOD8199589
_publ_section_title
;
Structure prediction by ZEFSAII (Michael W. Deem and Ramdas Pophale) SiO2 
 PCOD8199589
Probable space group: P M M M
;
_chemical_formula_sum "Si O2"
_cell_formula_units_Z 44
_cell_length_a 8.061476
_cell_length_b 29.763646
_cell_length_c 9.473397
_cell_angle_alpha 90.000000
_cell_angle_beta 90.000000
_cell_angle_gamma 90.000000
_cell_volume 2273.036625
_symmetry_space_group_name_H-M "P M M M"
_symmetry_group_IT_number 47
_symmetry_cell_setting 'orthorhombic'
loop_
_space_group_symop_operation_xyz
x,y,z
-x,-y,z
x,-y,-z
-x,y,-z
-x,-y,-z
x,y,-z
-x,y,z
x,-y,z
loop_
_atom_site_type_symbol
_atom_site_label
_atom_site_fract_x
_atom_site_fract_y
_atom_site_fract_z
Si Si1 0.190442 0.289130 0.843197
Si Si2 0.692056 0.805219 0.156115
Si Si3 0.000000 0.050180 0.667206
Si Si4 0.310093 0.630853 0.658945
Si Si5 0.307649 0.110605 0.333886
Si Si6 0.806091 0.551276 0.839409
O O1 0.276169 0.244440 0.780017
O O2 0.210739 0.331344 0.741869
O O3 0.000000 0.277412 0.855204
O O4 0.262581 0.300386 0.000000
O O5 0.500000 0.813062 0.139052
O O6 0.756863 0.843593 0.261028
O O7 0.776189 0.809086 0.000000
O O8 0.172871 0.073564 0.716880
O O9 0.000000 0.048499 0.500000
O O10 0.000000 0.000000 0.731371
O O11 0.239808 0.627223 0.500000
O O12 0.500000 0.645425 0.657630
O O13 0.293535 0.582765 0.733544
O O14 0.296524 0.118590 0.500000
O O15 0.500000 0.097400 0.293250
O O16 0.763277 0.500000 0.800649
O O17 0.000000 0.560717 0.821647
O O18 0.751903 0.561601 0.000000
#
# Coordination Sequence:
#
# PCOD8199589 Si02
#       6
#     8   8   4   8   8   8
#     4  10  21  36  55  79 104 134 175 218 260 313
#     4   9  18  33  53  77 105 137 171 210 260 315
#     4   9  18  32  51  77 107 139 179 225 270 317
#     4  11  24  38  52  75 108 142 175 214 260 310
#     4   9  18  32  51  76 105 138 177 221 267 317
#     4   9  19  37  60  83 105 132 170 215 261 312
#
# _framework density 19.357364
#
# number of rings (size 3 to 8) (size 9 to 14) (size 15 to 20)
#    0.000    2.455    0.000    2.182    1.273    6.909 
#    0.000    6.364    0.000    1.091    0.000    2.545 
#    0.000    0.000    0.000    0.000    0.000    0.000 
#
# Total GULP energy -545407.165153 kJ/mol
# GULP energy per Si atom -12395.617390 kJ/mol
# Density = 1.931331 g / cm^3
# Si number density = 19.357364 Si / 1000 Ang^3
#
#
#
# Elastic Constant Matrix: (Units=GPa)
#
#
# Indices 1 2 3 4 5 6 
#
# 1 62.6062 37.9356 27.2041 0.0000 0.0000 0.0000
# 2 37.9356 145.0666 62.5687 0.0000 0.0000 0.0000
# 3 27.2041 62.5687 82.2986 0.0000 0.0000 0.0000
# 4 0.0000 0.0000 0.0000 30.6326 0.0000 0.0000
# 5 0.0000 0.0000 0.0000 0.0000 20.0579 0.0000
# 6 0.0000 0.0000 0.0000 0.0000 0.0000 35.1067
#
#
#
# Elastic Compliance Matrix: (Units=1/GPa)
#
#
# Indices 1 2 3 4 5 6 
#
# 1 0.019778 -0.003500 -0.003877 0.000000 0.000000 0.000000
# 2 -0.003500 0.010876 -0.007112 0.000000 0.000000 0.000000
# 3 -0.003877 -0.007112 0.018839 0.000000 0.000000 0.000000
# 4 0.000000 0.000000 0.000000 0.032645 0.000000 0.000000
# 5 0.000000 0.000000 0.000000 0.000000 0.049856 0.000000
# 6 0.000000 0.000000 0.000000 0.000000 0.000000 0.028485
#
#
# Mechanical properties :
#
#
# Convention : Reuss Voigt Hill
#
# Bulk Modulus (GPa) = 48.74172 60.59869 54.67021
# Shear Modulus (GPa) = 25.47194 27.97698 26.72446
#
# Velocity S-wave (km/s) = 3.63144 3.80582 3.71965
# Velocity P-wave (km/s) = 6.54353 7.11938 6.83752
#
# Compressibility (1/GPa) = 0.02051630
#
# Stress axis : x y z
#
# Youngs Moduli (GPa) = 50.56068 91.94567 53.08093
#
# Poissons Ratio (x) = 0.32181 0.20579
# Poissons Ratio (y) = 0.17696 0.37750
# Poissons Ratio (z) = 0.19602 0.65389
#
# Static dielectric constant tensor:
#      x y z
#    x 3.518280 0.000000 0.000000 
#    y 0.000000 3.563460 0.000000 
#    z 0.000000 0.000000 3.671440 
# 
# 
# High freq. dielectric constant tensor:
#      x y z
#    x 1.753190 0.000000 0.000000 
#    y 0.000000 1.753580 0.000000 
#    z 0.000000 0.000000 1.735390 
# 
# From -- ./inp_files/2235.got.cif
#   From: 2010.03.12/outbox.cif.g09.slc.cpg/sg47_2_cif.got.tgz:2235.got - 2010.04.14 03:12:58.
