data_PCOD8199504
_publ_section_title
;
Structure prediction by ZEFSAII (Michael W. Deem and Ramdas Pophale) SiO2 
 PCOD8199504
Probable space group: P M M M
;
_chemical_formula_sum "Si O2"
_cell_formula_units_Z 64
_cell_length_a 14.290662
_cell_length_b 8.908994
_cell_length_c 25.815567
_cell_angle_alpha 90.000000
_cell_angle_beta 90.000000
_cell_angle_gamma 90.000000
_cell_volume 3286.719807
_symmetry_space_group_name_H-M "P M M M"
_symmetry_group_IT_number 47
_symmetry_cell_setting 'orthorhombic'
loop_
_space_group_symop_operation_xyz
x,y,z
-x,-y,z
x,-y,-z
-x,y,-z
-x,-y,-z
x,y,-z
-x,y,z
x,-y,z
loop_
_atom_site_type_symbol
_atom_site_label
_atom_site_fract_x
_atom_site_fract_y
_atom_site_fract_z
Si Si1 0.781723 0.176561 0.352606
Si Si2 0.109661 0.675673 0.742092
Si Si3 0.606909 0.677103 0.316304
Si Si4 0.108500 0.328548 0.559488
Si Si5 0.892876 0.823803 0.847577
Si Si6 0.393023 0.324286 0.891576
Si Si7 0.233213 0.173691 0.057581
Si Si8 0.610802 0.167727 0.211746
O O1 0.837310 0.247496 0.305004
O O2 0.676304 0.243013 0.356693
O O3 0.831824 0.215089 0.406293
O O4 0.776826 0.000000 0.345198
O O5 0.130483 0.500000 0.740525
O O6 0.147653 0.741400 0.796592
O O7 0.000000 0.711606 0.735889
O O8 0.500000 0.727564 0.327567
O O9 0.617145 0.500000 0.320194
O O10 0.641553 0.729621 0.259687
O O11 0.136953 0.303568 0.500000
O O12 0.128900 0.500000 0.576243
O O13 0.000000 0.291512 0.567908
O O14 0.840078 0.769270 0.899410
O O15 0.000000 0.777056 0.856011
O O16 0.881582 0.000000 0.838629
O O17 0.500000 0.279018 0.903360
O O18 0.384049 0.500000 0.882429
O O19 0.329125 0.268842 0.938823
O O20 0.351594 0.241200 0.840877
O O21 0.257765 0.000000 0.066407
O O22 0.191138 0.199648 0.000000
O O23 0.500000 0.161982 0.208978
O O24 0.652740 0.000000 0.217885
#
# Coordination Sequence:
#
# PCOD8199504 Si02
#       8
#     8   8   8   8   8   8   8   8
#     4  12  24  35  55  87 122 159 195 237 288 340
#     4  10  21  37  57  82 114 150 187 229 280 339
#     4  10  21  37  56  79 111 152 197 241 284 334
#     4   9  19  38  63  89 120 159 201 245 291 339
#     4   9  19  37  59  81 107 138 174 221 278 340
#     4  10  21  36  54  76 104 140 179 220 269 328
#     4  10  22  38  56  79 105 135 175 225 280 338
#     4   9  17  31  52  77 105 137 175 221 273 330
#
# _framework density 19.472301999999999
#
# number of rings (size 3 to 8) (size 9 to 14) (size 15 to 20)
#    0.000    2.125    0.000    3.375    1.750    7.000 
#    0.000    3.125    0.000    0.375    0.000    5.250 
#    0.000    0.000    0.000    0.000    0.000    0.000 
#
# Total GULP energy -793727.168843 kJ/mol
# GULP energy per Si atom -12401.987013 kJ/mol
# Density = 1.942798 g / cm^3
# Si number density = 19.472302 Si / 1000 Ang^3
#
#
#
# Elastic Constant Matrix: (Units=GPa)
#
#
# Indices 1 2 3 4 5 6 
#
# 1 75.3280 41.2650 55.5066 0.0000 0.0000 0.0000
# 2 41.2650 92.8241 44.8439 0.0000 0.0000 0.0000
# 3 55.5066 44.8439 109.7556 0.0000 0.0000 0.0000
# 4 0.0000 0.0000 0.0000 31.7239 0.0000 0.0000
# 5 0.0000 0.0000 0.0000 0.0000 31.1331 0.0000
# 6 0.0000 0.0000 0.0000 0.0000 0.0000 27.3485
#
#
#
# Elastic Compliance Matrix: (Units=1/GPa)
#
#
# Indices 1 2 3 4 5 6 
#
# 1 0.023463 -0.005853 -0.009474 0.000000 0.000000 0.000000
# 2 -0.005853 0.014883 -0.003121 0.000000 0.000000 0.000000
# 3 -0.009474 -0.003121 0.015178 0.000000 0.000000 0.000000
# 4 0.000000 0.000000 0.000000 0.031522 0.000000 0.000000
# 5 0.000000 0.000000 0.000000 0.000000 0.032120 0.000000
# 6 0.000000 0.000000 0.000000 0.000000 0.000000 0.036565
#
#
# Mechanical properties :
#
#
# Convention : Reuss Voigt Hill
#
# Bulk Modulus (GPa) = 60.14385 62.34872 61.24628
# Shear Modulus (GPa) = 25.48813 27.12726 26.30770
#
# Velocity S-wave (km/s) = 3.62186 3.73650 3.67963
# Velocity P-wave (km/s) = 6.96020 7.12067 7.04089
#
# Compressibility (1/GPa) = 0.01662680
#
# Stress axis : x y z
#
# Youngs Moduli (GPa) = 42.61996 67.19185 65.88639
#
# Poissons Ratio (x) = 0.39330 0.62424
# Poissons Ratio (y) = 0.24947 0.20560
# Poissons Ratio (z) = 0.40380 0.20968
#
# Static dielectric constant tensor:
#      x y z
#    x 3.644580 0.000000 0.000000 
#    y 0.000000 3.533000 0.000000 
#    z 0.000000 0.000000 3.494800 
# 
# 
# High freq. dielectric constant tensor:
#      x y z
#    x 1.759270 0.000000 0.000000 
#    y 0.000000 1.759490 0.000000 
#    z 0.000000 0.000000 1.744370 
# 
# From -- ./inp_files/7900.got.cif
#   From: 2010.03.12/outbox.cif.g09.slc.cpg/sg47_4_cif.got.tgz:7900.got - 2010.04.14 03:12:58.
