data_PCOD8199221
_publ_section_title
;
Structure prediction by ZEFSAII (Michael W. Deem and Ramdas Pophale) SiO2 
 PCOD8199221
Probable space group: P M M M
;
_chemical_formula_sum "Si O2"
_cell_formula_units_Z 40
_cell_length_a 9.469712
_cell_length_b 9.188921
_cell_length_c 25.656000
_cell_angle_alpha 90.000000
_cell_angle_beta 90.000000
_cell_angle_gamma 90.000000
_cell_volume 2232.493668
_symmetry_space_group_name_H-M "P M M M"
_symmetry_group_IT_number 47
_symmetry_cell_setting 'orthorhombic'
loop_
_space_group_symop_operation_xyz
x,y,z
-x,-y,z
x,-y,-z
-x,y,-z
-x,-y,-z
x,y,-z
-x,y,z
x,-y,z
loop_
_atom_site_type_symbol
_atom_site_label
_atom_site_fract_x
_atom_site_fract_y
_atom_site_fract_z
Si Si1 0.843615 0.827339 0.905459
Si Si2 0.662941 0.330170 0.297333
Si Si3 0.662904 0.170275 0.598262
Si Si4 0.159983 0.173114 0.500000
Si Si5 0.166424 0.166133 0.211198
Si Si6 0.658384 0.826084 0.000000
O O1 0.792866 0.784401 0.847467
O O2 0.736139 0.764769 0.948469
O O3 0.000000 0.763538 0.916510
O O4 0.851481 0.000000 0.909322
O O5 0.500000 0.293918 0.286089
O O6 0.689947 0.500000 0.304114
O O7 0.713524 0.252397 0.350062
O O8 0.753490 0.273048 0.249487
O O9 0.500000 0.204325 0.584882
O O10 0.758316 0.230120 0.551028
O O11 0.686894 0.000000 0.607642
O O12 0.000000 0.233478 0.500000
O O13 0.161564 0.000000 0.500000
O O14 0.000000 0.181152 0.219995
O O15 0.214511 0.000000 0.221321
O O16 0.500000 0.764481 0.000000
O O17 0.658742 0.000000 0.000000
#
# Coordination Sequence:
#
# PCOD8199221 Si02
#       6
#     8   8   8   4   8   4
#     4   8  14  25  40  59  87 122 155 188 231 283
#     4  10  21  35  50  71  99 130 164 201 243 290
#     4   9  17  31  51  72  95 126 161 194 232 281
#     4   9  17  29  48  75 100 120 150 195 240 279
#     4   9  18  32  50  72  96 125 164 205 243 286
#     4   9  15  21  33  59  92 121 150 187 232 280
#
# _framework density 17.917185
#
# number of rings (size 3 to 8) (size 9 to 14) (size 15 to 20)
#    0.000    3.000    0.000    2.400    0.000    5.600 
#    0.000    4.500    0.000    3.000    0.000    0.700 
#    0.000    5.600    0.000    0.000    0.000    0.000 
#
# Total GULP energy -495940.998475 kJ/mol
# GULP energy per Si atom -12398.524962 kJ/mol
# Density = 1.787640 g / cm^3
# Si number density = 17.917185 Si / 1000 Ang^3
#
#
#
# Elastic Constant Matrix: (Units=GPa)
#
#
# Indices 1 2 3 4 5 6 
#
# 1 98.0017 27.5209 87.9829 0.0000 0.0000 0.0000
# 2 27.5209 36.9382 41.6389 0.0000 0.0000 0.0000
# 3 87.9829 41.6389 173.1030 0.0000 0.0000 0.0000
# 4 0.0000 0.0000 0.0000 -0.0963 0.0000 0.0000
# 5 0.0000 0.0000 0.0000 0.0000 35.2385 0.0000
# 6 0.0000 0.0000 0.0000 0.0000 0.0000 17.1114
#
#
#
# Elastic Compliance Matrix: (Units=1/GPa)
#
#
# Indices 1 2 3 4 5 6 
#
# 1 0.019312 -0.004560 -0.008719 0.000000 0.000000 0.000000
# 2 -0.004560 0.038221 -0.006876 0.000000 0.000000 0.000000
# 3 -0.008719 -0.006876 0.011862 0.000000 0.000000 0.000000
# 4 0.000000 0.000000 0.000000-10.383144 0.000000 0.000000
# 5 0.000000 0.000000 0.000000 0.000000 0.028378 0.000000
# 6 0.000000 0.000000 0.000000 0.000000 0.000000 0.058441
#
#
# Mechanical properties :
#
#
# Convention : Reuss Voigt Hill
#
# Bulk Modulus (GPa) = 34.38162 69.14760 51.76461
# Shear Modulus (GPa) = -0.49131 20.51073 10.00971
#
# Velocity S-wave (km/s) = -0.52422 3.38709 2.36617
# Velocity P-wave (km/s) = 4.34332 7.34664 6.03480
#
# Compressibility (1/GPa) = 0.02908531
#
# Stress axis : x y z
#
# Youngs Moduli (GPa) = 51.78159 26.16378 84.30024
#
# Poissons Ratio (x) = 0.11931 0.73499
# Poissons Ratio (y) = 0.23613 0.57965
# Poissons Ratio (z) = 0.45147 0.17990
#
# Static dielectric constant tensor:
#      x y z
#    x 3.414440 0.000000 0.000000 
#    y 0.000000 2.841130 0.000000 
#    z 0.000000 0.000000 3.535520 
# 
# 
# High freq. dielectric constant tensor:
#      x y z
#    x 1.691750 0.000000 0.000000 
#    y 0.000000 1.642780 0.000000 
#    z 0.000000 0.000000 1.708300 
# 
# From -- ./inp_files/33068.got.cif
#   From: 2010.03.12/outbox.cif.g09.slc.cpg/sg47_17_cif.got.tgz:33068.got - 2010.04.14 03:12:58.
