data_PCOD8199611
_publ_section_title
;
Structure prediction by ZEFSAII (Michael W. Deem and Ramdas Pophale) SiO2 
 PCOD8199611
Probable space group: P M M M
;
_chemical_formula_sum "Si O2"
_cell_formula_units_Z 52
_cell_length_a 9.199076
_cell_length_b 15.941095
_cell_length_c 17.524545
_cell_angle_alpha 90.000000
_cell_angle_beta 90.000000
_cell_angle_gamma 90.000000
_cell_volume 2569.857888
_symmetry_space_group_name_H-M "P M M M"
_symmetry_group_IT_number 47
_symmetry_cell_setting 'orthorhombic'
loop_
_space_group_symop_operation_xyz
x,y,z
-x,-y,z
x,-y,-z
-x,y,-z
-x,-y,-z
x,y,-z
-x,y,z
x,-y,z
loop_
_atom_site_type_symbol
_atom_site_label
_atom_site_fract_x
_atom_site_fract_y
_atom_site_fract_z
Si Si1 0.831264 0.197350 0.912570
Si Si2 0.329265 0.347509 0.144875
Si Si3 0.341782 0.903533 0.185425
Si Si4 0.158287 0.406580 0.000000
Si Si5 0.830482 0.095724 0.665980
Si Si6 0.669607 0.595062 0.313308
Si Si7 0.170098 0.734455 0.413459
O O1 0.747437 0.256908 0.852530
O O2 0.754139 0.109838 0.891791
O O3 0.000000 0.192104 0.894261
O O4 0.801054 0.225120 0.000000
O O5 0.500000 0.340632 0.128369
O O6 0.296841 0.394826 0.223515
O O7 0.252479 0.393665 0.075181
O O8 0.500000 0.857785 0.181758
O O9 0.254218 0.873633 0.259429
O O10 0.371340 0.000000 0.192474
O O11 0.106762 0.500000 0.000000
O O12 0.000000 0.355359 0.000000
O O13 0.791416 0.167670 0.604164
O O14 0.000000 0.096742 0.685737
O O15 0.786857 0.000000 0.639160
O O16 0.500000 0.607726 0.329162
O O17 0.717467 0.500000 0.336530
O O18 0.751848 0.665947 0.360827
O O19 0.219323 0.717739 0.500000
O O20 0.000000 0.719668 0.402242
#
# Coordination Sequence:
#
# PCOD8199611 Si02
#       7
#     8   8   8   4   8   8   8
#     4  11  23  37  54  78 112 150 191 241 297 357
#     4  11  22  38  61  85 112 148 193 244 295 350
#     4  10  21  36  55  80 111 148 193 244 292 343
#     4  11  23  37  55  83 118 151 184 227 281 341
#     4   9  18  35  60  88 119 156 194 235 290 355
#     4  10  23  42  62  86 116 154 202 251 301 358
#     4  10  22  39  60  90 124 156 195 244 298 358
#
# _framework density 20.234580999999999
#
# number of rings (size 3 to 8) (size 9 to 14) (size 15 to 20)
#    0.000    1.769    0.769    3.000    0.000    8.923 
#    0.000    4.615    0.000    0.000    0.000    3.231 
#    0.000    0.000    0.000    0.000    0.000    0.000 
#
# Total GULP energy -644354.786578 kJ/mol
# GULP energy per Si atom -12391.438203 kJ/mol
# Density = 2.018853 g / cm^3
# Si number density = 20.234581 Si / 1000 Ang^3
#
#
#
# Elastic Constant Matrix: (Units=GPa)
#
#
# Indices 1 2 3 4 5 6 
#
# 1 114.0095 50.2710 69.0338 0.0000 0.0000 0.0000
# 2 50.2710 96.6226 70.8516 0.0000 0.0000 0.0000
# 3 69.0338 70.8516 107.2521 0.0000 0.0000 0.0000
# 4 0.0000 0.0000 0.0000 24.7424 0.0000 0.0000
# 5 0.0000 0.0000 0.0000 0.0000 31.3590 0.0000
# 6 0.0000 0.0000 0.0000 0.0000 0.0000 29.2583
#
#
#
# Elastic Compliance Matrix: (Units=1/GPa)
#
#
# Indices 1 2 3 4 5 6 
#
# 1 0.014464 -0.001355 -0.008415 0.000000 0.000000 0.000000
# 2 -0.001355 0.020200 -0.012472 0.000000 0.000000 0.000000
# 3 -0.008415 -0.012472 0.022979 0.000000 0.000000 0.000000
# 4 0.000000 0.000000 0.000000 0.040417 0.000000 0.000000
# 5 0.000000 0.000000 0.000000 0.000000 0.031889 0.000000
# 6 0.000000 0.000000 0.000000 0.000000 0.000000 0.034178
#
#
# Mechanical properties :
#
#
# Convention : Reuss Voigt Hill
#
# Bulk Modulus (GPa) = 75.99075 77.57745 76.78410
# Shear Modulus (GPa) = 23.47446 25.58711 24.53079
#
# Velocity S-wave (km/s) = 3.40974 3.55987 3.48562
# Velocity P-wave (km/s) = 7.28960 7.43769 7.36401
#
# Compressibility (1/GPa) = 0.01315950
#
# Stress axis : x y z
#
# Youngs Moduli (GPa) = 69.13806 49.50435 43.51731
#
# Poissons Ratio (x) = 0.06707 0.36618
# Poissons Ratio (y) = 0.09368 0.54276
# Poissons Ratio (z) = 0.58178 0.61744
#
# Static dielectric constant tensor:
#      x y z
#    x 4.895520 0.000000 0.000000 
#    y 0.000000 3.982220 0.000000 
#    z 0.000000 0.000000 3.673810 
# 
# 
# High freq. dielectric constant tensor:
#      x y z
#    x 1.798560 0.000000 0.000000 
#    y 0.000000 1.803480 0.000000 
#    z 0.000000 0.000000 1.777000 
# 
# From -- ./inp_files/26742.got.cif
#   From: 2010.03.12/outbox.cif.g09.slc.cpg/sg47_14_cif.got.tgz:26742.got - 2010.04.14 03:12:58.
