data_PCOD8199122
_publ_section_title
;
Structure prediction by ZEFSAII (Michael W. Deem and Ramdas Pophale) SiO2 
 PCOD8199122
Probable space group: P M M M
;
_chemical_formula_sum "Si O2"
_cell_formula_units_Z 48
_cell_length_a 9.153440
_cell_length_b 33.928257
_cell_length_c 7.635707
_cell_angle_alpha 90.000000
_cell_angle_beta 90.000000
_cell_angle_gamma 90.000000
_cell_volume 2371.347188
_symmetry_space_group_name_H-M "P M M M"
_symmetry_group_IT_number 47
_symmetry_cell_setting 'orthorhombic'
loop_
_space_group_symop_operation_xyz
x,y,z
-x,-y,z
x,-y,-z
-x,y,-z
-x,-y,-z
x,y,-z
-x,y,z
x,-y,z
loop_
_atom_site_type_symbol
_atom_site_label
_atom_site_fract_x
_atom_site_fract_y
_atom_site_fract_z
Si Si1 0.825055 0.824371 0.000000
Si Si2 0.158243 0.618282 0.799832
Si Si3 0.664698 0.543798 0.706062
Si Si4 0.330202 0.777315 0.301304
Si Si5 0.167019 0.046231 0.700537
Si Si6 0.664805 0.308828 0.792359
Si Si7 0.674044 0.091662 0.000000
O O1 0.771384 0.802657 0.825113
O O2 0.756191 0.867224 0.000000
O O3 0.000000 0.826514 0.000000
O O4 0.235968 0.576295 0.794452
O O5 0.246388 0.654238 0.711361
O O6 0.000000 0.614806 0.707809
O O7 0.138780 0.630000 0.000000
O O8 0.670947 0.549348 0.500000
O O9 0.500000 0.549484 0.774331
O O10 0.720458 0.500000 0.758264
O O11 0.309234 0.792501 0.500000
O O12 0.500000 0.780968 0.242586
O O13 0.278720 0.731888 0.290894
O O14 0.200854 0.058148 0.500000
O O15 0.000000 0.057622 0.748173
O O16 0.190218 0.000000 0.727506
O O17 0.279480 0.068455 0.825665
O O18 0.500000 0.316739 0.733703
O O19 0.678834 0.305342 0.000000
O O20 0.500000 0.097577 0.000000
#
# Coordination Sequence:
#
# PCOD8199122 Si02
#       7
#     4   8   8   8   8   8   4
#     4  12  26  43  63  86 122 165 205 255 306 364
#     4  10  21  34  50  78 113 143 173 213 265 322
#     4   9  19  36  55  73  96 131 177 225 269 318
#     4  10  21  40  66  92 118 151 195 247 304 363
#     4   9  19  38  64  93 127 167 210 258 312 370
#     4   9  17  33  57  82 112 146 182 225 276 337
#     4  12  25  39  60  89 124 166 212 259 311 366
#
# _framework density 20.24166
#
# number of rings (size 3 to 8) (size 9 to 14) (size 15 to 20)
#    0.000    2.167    0.833    3.250    0.000    6.000 
#    0.000    5.000    0.000    0.000    0.000    0.000 
#    0.000    0.000    0.000    0.000    0.000    0.000 
#
# Total GULP energy -595106.963322 kJ/mol
# GULP energy per Si atom -12398.061736 kJ/mol
# Density = 2.019559 g / cm^3
# Si number density = 20.241660 Si / 1000 Ang^3
#
#
#
# Elastic Constant Matrix: (Units=GPa)
#
#
# Indices 1 2 3 4 5 6 
#
# 1 131.8190 79.5661 44.7767 0.0000 0.0000 0.0000
# 2 79.5661 125.2876 51.6523 0.0000 0.0000 0.0000
# 3 44.7767 51.6523 76.9712 0.0000 0.0000 0.0000
# 4 0.0000 0.0000 0.0000 -6.7910 0.0000 0.0000
# 5 0.0000 0.0000 0.0000 0.0000 16.0405 0.0000
# 6 0.0000 0.0000 0.0000 0.0000 0.0000 2.9256
#
#
#
# Elastic Compliance Matrix: (Units=1/GPa)
#
#
# Indices 1 2 3 4 5 6 
#
# 1 0.012704 -0.006942 -0.002732 0.000000 0.000000 0.000000
# 2 -0.006942 0.014827 -0.005912 0.000000 0.000000 0.000000
# 3 -0.002732 -0.005912 0.018548 0.000000 0.000000 0.000000
# 4 0.000000 0.000000 0.000000 -0.147254 0.000000 0.000000
# 5 0.000000 0.000000 0.000000 0.000000 0.062342 0.000000
# 6 0.000000 0.000000 0.000000 0.000000 0.000000 0.341812
#
#
# Mechanical properties :
#
#
# Convention : Reuss Voigt Hill
#
# Bulk Modulus (GPa) = 67.07514 76.22979 71.65246
# Shear Modulus (GPa) = 14.74400 12.97386 13.85893
#
# Velocity S-wave (km/s) = 2.70181 2.53444 2.61947
# Velocity P-wave (km/s) = 6.55303 6.80486 6.68013
#
# Compressibility (1/GPa) = 0.01490865
#
# Stress axis : x y z
#
# Youngs Moduli (GPa) = 78.71399 67.44298 53.91273
#
# Poissons Ratio (x) = 0.46817 0.14730
# Poissons Ratio (y) = 0.54640 0.31872
# Poissons Ratio (z) = 0.21506 0.39871
#
# Static dielectric constant tensor:
#      x y z
#    x 3.810730 0.000000 0.000000 
#    y 0.000000 3.829260 0.000000 
#    z 0.000000 0.000000 3.614000 
# 
# 
# High freq. dielectric constant tensor:
#      x y z
#    x 1.780870 0.000000 0.000000 
#    y 0.000000 1.794380 0.000000 
#    z 0.000000 0.000000 1.788820 
# 
# From -- ./inp_files/2588.got.cif
#   From: 2010.03.12/outbox.cif.g09.slc.cpg/sg47_2_cif.got.tgz:2588.got - 2010.04.14 03:12:58.
