data_PCOD8199117
_publ_section_title
;
Structure prediction by ZEFSAII (Michael W. Deem and Ramdas Pophale) SiO2 
 PCOD8199117
Probable space group: P M M M
;
_chemical_formula_sum "Si O2"
_cell_formula_units_Z 48
_cell_length_a 8.996176
_cell_length_b 9.949965
_cell_length_c 29.661326
_cell_angle_alpha 90.000000
_cell_angle_beta 90.000000
_cell_angle_gamma 90.000000
_cell_volume 2655.033826
_symmetry_space_group_name_H-M "P M M M"
_symmetry_group_IT_number 47
_symmetry_cell_setting 'orthorhombic'
loop_
_space_group_symop_operation_xyz
x,y,z
-x,-y,z
x,-y,-z
-x,y,-z
-x,-y,-z
x,y,-z
-x,y,z
x,-y,z
loop_
_atom_site_type_symbol
_atom_site_label
_atom_site_fract_x
_atom_site_fract_y
_atom_site_fract_z
Si Si1 0.666571 0.160065 0.356160
Si Si2 0.175208 0.153621 0.266716
Si Si3 0.673877 0.254826 0.905692
Si Si4 0.176609 0.000000 0.052072
Si Si5 0.672716 0.345046 0.804658
Si Si6 0.835242 0.500000 0.052390
Si Si7 0.676758 0.150682 0.452264
O O1 0.500000 0.213389 0.346101
O O2 0.772096 0.206588 0.315589
O O3 0.728537 0.218572 0.404639
O O4 0.664740 0.000000 0.360371
O O5 0.237782 0.253435 0.229633
O O6 0.000000 0.159957 0.265142
O O7 0.230948 0.000000 0.258072
O O8 0.500000 0.237124 0.915565
O O9 0.761704 0.124605 0.920524
O O10 0.704745 0.285787 0.853695
O O11 0.737903 0.373097 0.935321
O O12 0.000000 0.000000 0.054055
O O13 0.231027 0.000000 0.000000
O O14 0.500000 0.336039 0.792510
O O15 0.726995 0.500000 0.802405
O O16 0.000000 0.500000 0.075661
O O17 0.862118 0.500000 0.000000
O O18 0.725554 0.223487 0.500000
O O19 0.500000 0.145568 0.449737
O O20 0.740655 0.000000 0.454462
#
# Coordination Sequence:
#
# PCOD8199117 Si02
#       7
#     8   8   8   4   8   4   8
#     4   8  13  23  40  62  90 128 170 211 258 306
#     4  10  21  34  50  76 106 138 176 216 260 313
#     4  11  23  41  63  88 114 145 185 227 269 315
#     4  11  25  43  61  87 123 155 183 219 264 315
#     4  10  22  41  60  80 106 135 172 220 270 316
#     4  11  23  39  61  89 119 151 183 217 264 319
#     4   7   9  14  28  53  84 118 160 208 253 299
#
# _framework density 18.078866000000001
#
# number of rings (size 3 to 8) (size 9 to 14) (size 15 to 20)
#    0.000    2.500    0.833    3.500    1.167    6.000 
#    0.000    0.000    0.000    0.500    0.000    3.500 
#    0.000    0.667    0.000    7.667    0.000    8.833 
#
# Total GULP energy -594684.934110 kJ/mol
# GULP energy per Si atom -12389.269461 kJ/mol
# Density = 1.803772 g / cm^3
# Si number density = 18.078866 Si / 1000 Ang^3
#
#
#
# Elastic Constant Matrix: (Units=GPa)
#
#
# Indices 1 2 3 4 5 6 
#
# 1 63.9043 39.6936 60.9031 0.0000 0.0000 0.0000
# 2 39.6936 95.8972 53.4840 0.0000 0.0000 0.0000
# 3 60.9031 53.4840 137.1436 0.0000 0.0000 0.0000
# 4 0.0000 0.0000 0.0000 15.1677 0.0000 0.0000
# 5 0.0000 0.0000 0.0000 0.0000 -2.9499 0.0000
# 6 0.0000 0.0000 0.0000 0.0000 0.0000 -279.2239
#
#
#
# Elastic Compliance Matrix: (Units=1/GPa)
#
#
# Indices 1 2 3 4 5 6 
#
# 1 0.029876 -0.006347 -0.010792 0.000000 0.000000 0.000000
# 2 -0.006347 0.014675 -0.002904 0.000000 0.000000 0.000000
# 3 -0.010792 -0.002904 0.013217 0.000000 0.000000 0.000000
# 4 0.000000 0.000000 0.000000 0.065930 0.000000 0.000000
# 5 0.000000 0.000000 0.000000 0.000000 -0.338995 0.000000
# 6 0.000000 0.000000 0.000000 0.000000 0.000000 -0.003581
#
#
# Mechanical properties :
#
#
# Convention : Reuss Voigt Hill
#
# Bulk Modulus (GPa) = 56.55934 67.23405 61.89670
# Shear Modulus (GPa) = -28.91880 -43.87692 -36.39786
#
# Velocity S-wave (km/s) = -4.00383 -4.93178 -4.49183
# Velocity P-wave (km/s) = 3.15888 2.20004 2.72201
#
# Compressibility (1/GPa) = 0.01768055
#
# Stress axis : x y z
#
# Youngs Moduli (GPa) = 33.47137 68.14378 75.66088
#
# Poissons Ratio (x) = 0.43253 0.81655
# Poissons Ratio (y) = 0.21245 0.21974
# Poissons Ratio (z) = 0.36123 0.19791
#
# Static dielectric constant tensor:
#      x y z
#    x 3.277390 0.000000 0.000000 
#    y 0.000000 3.046280 0.000000 
#    z 0.000000 0.000000 3.925010 
# 
# 
# High freq. dielectric constant tensor:
#      x y z
#    x 1.686030 0.000000 0.000000 
#    y 0.000000 1.658690 0.000000 
#    z 0.000000 0.000000 1.725840 
# 
# From -- ./inp_files/34185.got.cif
#   From: 2010.03.12/outbox.cif.g09.slc.cpg/sg47_18_cif.got.tgz:34185.got - 2010.04.14 03:12:58.
