data_PCOD8199551
_publ_section_title
;
Structure prediction by ZEFSAII (Michael W. Deem and Ramdas Pophale) SiO2 
 PCOD8199551
Probable space group: P M M M
;
_chemical_formula_sum "Si O2"
_cell_formula_units_Z 40
_cell_length_a 9.036619
_cell_length_b 25.649309
_cell_length_c 9.136334
_cell_angle_alpha 90.000000
_cell_angle_beta 90.000000
_cell_angle_gamma 90.000000
_cell_volume 2117.647205
_symmetry_space_group_name_H-M "P M M M"
_symmetry_group_IT_number 47
_symmetry_cell_setting 'orthorhombic'
loop_
_space_group_symop_operation_xyz
x,y,z
-x,-y,z
x,-y,-z
-x,y,-z
-x,-y,-z
x,y,-z
-x,y,z
x,-y,z
loop_
_atom_site_type_symbol
_atom_site_label
_atom_site_fract_x
_atom_site_fract_y
_atom_site_fract_z
Si Si1 0.327233 0.102505 0.668370
Si Si2 0.170238 0.500000 0.827042
Si Si3 0.327167 0.405854 0.330138
Si Si4 0.669764 0.206792 0.172300
Si Si5 0.827761 0.701065 0.668423
Si Si6 0.832962 0.000000 0.325897
O O1 0.283434 0.112316 0.500000
O O2 0.500000 0.092109 0.686312
O O3 0.275002 0.152570 0.759284
O O4 0.245706 0.051942 0.734428
O O5 0.248480 0.550962 0.765926
O O6 0.000000 0.500000 0.777127
O O7 0.186364 0.500000 0.000000
O O8 0.297065 0.418095 0.500000
O O9 0.500000 0.405735 0.293842
O O10 0.260883 0.350310 0.284953
O O11 0.500000 0.217973 0.218104
O O12 0.773548 0.252127 0.231328
O O13 0.688027 0.203072 0.000000
O O14 0.795686 0.715368 0.500000
O O15 0.000000 0.690780 0.696615
O O16 0.821542 0.000000 0.500000
O O17 0.000000 0.000000 0.269071
#
# Coordination Sequence:
#
# PCOD8199551 Si02
#       6
#     8   4   8   8   8   4
#     4   9  17  31  52  75 100 133 173 216 262 313
#     4  11  24  39  56  82 116 151 184 219 264 318
#     4  10  21  38  61  86 110 140 181 226 270 317
#     4  10  21  36  54  78 108 142 179 219 266 319
#     4  10  21  37  58  83 109 140 179 222 269 319
#     4   9  17  29  48  75 102 128 166 217 266 311
#
# _framework density 18.888887
#
# number of rings (size 3 to 8) (size 9 to 14) (size 15 to 20)
#    0.000    2.200    0.000    2.700    0.000    8.400 
#    0.000    2.500    0.000    3.000    0.000    0.000 
#    0.000    0.000    0.000    0.000    0.000    0.000 
#
# Total GULP energy -496170.156995 kJ/mol
# GULP energy per Si atom -12404.253925 kJ/mol
# Density = 1.884589 g / cm^3
# Si number density = 18.888887 Si / 1000 Ang^3
#
#
#
# Elastic Constant Matrix: (Units=GPa)
#
#
# Indices 1 2 3 4 5 6 
#
# 1 110.9102 80.7006 46.8294 0.0000 0.0000 0.0000
# 2 80.7006 165.0154 62.6487 0.0000 0.0000 0.0000
# 3 46.8294 62.6487 64.6509 0.0000 0.0000 0.0000
# 4 0.0000 0.0000 0.0000 -22.1711 0.0000 0.0000
# 5 0.0000 0.0000 0.0000 0.0000 25.1681 0.0000
# 6 0.0000 0.0000 0.0000 0.0000 0.0000 138.4093
#
#
#
# Elastic Compliance Matrix: (Units=1/GPa)
#
#
# Indices 1 2 3 4 5 6 
#
# 1 0.015378 -0.005207 -0.006093 0.000000 0.000000 0.000000
# 2 -0.005207 0.011350 -0.007227 0.000000 0.000000 0.000000
# 3 -0.006093 -0.007227 0.026884 0.000000 0.000000 0.000000
# 4 0.000000 0.000000 0.000000 -0.045104 0.000000 0.000000
# 5 0.000000 0.000000 0.000000 0.000000 0.039733 0.000000
# 6 0.000000 0.000000 0.000000 0.000000 0.000000 0.007225
#
#
# Mechanical properties :
#
#
# Convention : Reuss Voigt Hill
#
# Bulk Modulus (GPa) = 60.39314 80.10376 70.24845
# Shear Modulus (GPa) = 50.99964 38.30778 44.65371
#
# Velocity S-wave (km/s) = 5.20177 4.50828 4.86739
# Velocity P-wave (km/s) = 8.25349 8.34263 8.29818
#
# Compressibility (1/GPa) = 0.01655817
#
# Stress axis : x y z
#
# Youngs Moduli (GPa) = 65.02882 88.10205 37.19677
#
# Poissons Ratio (x) = 0.45878 0.22663
# Poissons Ratio (y) = 0.33863 0.26882
# Poissons Ratio (z) = 0.39620 0.63672
#
# Static dielectric constant tensor:
#      x y z
#    x 3.541250 0.000000 0.000000 
#    y 0.000000 3.923260 0.000000 
#    z 0.000000 0.000000 3.290280 
# 
# 
# High freq. dielectric constant tensor:
#      x y z
#    x 1.739650 0.000000 0.000000 
#    y 0.000000 1.749180 0.000000 
#    z 0.000000 0.000000 1.715860 
# 
# From -- ./inp_files/1751.got.cif
#   From: 2010.03.12/outbox.cif.g09.slc.cpg/sg47_1_cif.got.tgz:1751.got - 2010.04.14 03:12:58.
