data_PCOD8199624
_publ_section_title
;
Structure prediction by ZEFSAII (Michael W. Deem and Ramdas Pophale) SiO2 
 PCOD8199624
Probable space group: P M M M
;
_chemical_formula_sum "Si O2"
_cell_formula_units_Z 52
_cell_length_a 21.549599
_cell_length_b 8.779120
_cell_length_c 14.018570
_cell_angle_alpha 90.000000
_cell_angle_beta 90.000000
_cell_angle_gamma 90.000000
_cell_volume 2652.124412
_symmetry_space_group_name_H-M "P M M M"
_symmetry_group_IT_number 47
_symmetry_cell_setting 'orthorhombic'
loop_
_space_group_symop_operation_xyz
x,y,z
-x,-y,z
x,-y,-z
-x,y,-z
-x,-y,-z
x,y,-z
-x,y,z
x,-y,z
loop_
_atom_site_type_symbol
_atom_site_label
_atom_site_fract_x
_atom_site_fract_y
_atom_site_fract_z
Si Si1 0.880339 0.819584 0.297705
Si Si2 0.000000 0.670972 0.387742
Si Si3 0.429792 0.679646 0.206831
Si Si4 0.753028 0.320549 0.717256
Si Si5 0.069117 0.819429 0.897252
Si Si6 0.685305 0.179349 0.109524
Si Si7 0.632402 0.320625 0.395231
O O1 0.815406 0.747462 0.329493
O O2 0.887036 0.764851 0.187725
O O3 0.938158 0.758797 0.357197
O O4 0.878216 0.000000 0.309911
O O5 0.000000 0.500000 0.344971
O O6 0.000000 0.664511 0.500000
O O7 0.500000 0.721580 0.178639
O O8 0.416789 0.500000 0.198482
O O9 0.383893 0.763610 0.134471
O O10 0.417732 0.733584 0.316377
O O11 0.759498 0.500000 0.727899
O O12 0.736854 0.253952 0.821767
O O13 0.700095 0.272976 0.642425
O O14 0.000000 0.753273 0.880500
O O15 0.064992 0.000000 0.896411
O O16 0.095099 0.762660 0.000000
O O17 0.688145 0.000000 0.124659
O O18 0.700180 0.223469 0.000000
O O19 0.620094 0.245955 0.500000
O O20 0.628405 0.500000 0.406431
#
# Coordination Sequence:
#
# PCOD8199624 Si02
#       7
#     8   4   8   8   8   8   8
#     4  11  21  36  59  85 111 142 181 227 279 334
#     4  11  25  43  60  79 108 148 191 235 284 336
#     4   9  18  32  52  81 113 143 178 223 278 336
#     4  10  21  36  55  81 111 144 181 224 276 332
#     4   8  14  27  49  76 103 131 163 201 251 313
#     4  10  21  37  56  78 107 147 193 235 273 316
#     4   8  15  30  52  76 103 137 178 222 266 318
#
# _framework density 19.606923999999999
#
# number of rings (size 3 to 8) (size 9 to 14) (size 15 to 20)
#    0.000    2.538    0.769    3.000    0.000    4.000 
#    0.000    6.154    0.000   12.923    0.000    4.308 
#    0.000    0.000    0.000    0.000    0.000    0.000 
#
# Total GULP energy -644505.151598 kJ/mol
# GULP energy per Si atom -12394.329838 kJ/mol
# Density = 1.956230 g / cm^3
# Si number density = 19.606924 Si / 1000 Ang^3
#
#
#
# Elastic Constant Matrix: (Units=GPa)
#
#
# Indices 1 2 3 4 5 6 
#
# 1 97.9116 31.5097 9.5925 0.0000 0.0000 0.0000
# 2 31.5097 66.7047 26.3555 0.0000 0.0000 0.0000
# 3 9.5925 26.3555 72.6410 0.0000 0.0000 0.0000
# 4 0.0000 0.0000 0.0000 20.8443 0.0000 0.0000
# 5 0.0000 0.0000 0.0000 0.0000 13.1972 0.0000
# 6 0.0000 0.0000 0.0000 0.0000 0.0000 24.9217
#
#
#
# Elastic Compliance Matrix: (Units=1/GPa)
#
#
# Indices 1 2 3 4 5 6 
#
# 1 0.012063 -0.005917 0.000554 0.000000 0.000000 0.000000
# 2 -0.005917 0.020403 -0.006621 0.000000 0.000000 0.000000
# 3 0.000554 -0.006621 0.016095 0.000000 0.000000 0.000000
# 4 0.000000 0.000000 0.000000 0.047975 0.000000 0.000000
# 5 0.000000 0.000000 0.000000 0.000000 0.075774 0.000000
# 6 0.000000 0.000000 0.000000 0.000000 0.000000 0.040126
#
#
# Mechanical properties :
#
#
# Convention : Reuss Voigt Hill
#
# Bulk Modulus (GPa) = 40.66277 41.35253 41.00765
# Shear Modulus (GPa) = 20.44137 23.11261 21.77699
#
# Velocity S-wave (km/s) = 3.23237 3.43709 3.33630
# Velocity P-wave (km/s) = 5.89194 6.07355 5.98343
#
# Compressibility (1/GPa) = 0.02459252
#
# Stress axis : x y z
#
# Youngs Moduli (GPa) = 82.89600 49.01327 62.12940
#
# Poissons Ratio (x) = 0.29002 -0.03441
# Poissons Ratio (y) = 0.49052 0.41136
# Poissons Ratio (z) = -0.04592 0.32452
#
# Static dielectric constant tensor:
#      x y z
#    x 3.584260 0.000000 0.000000 
#    y 0.000000 3.330660 0.000000 
#    z 0.000000 0.000000 3.912380 
# 
# 
# High freq. dielectric constant tensor:
#      x y z
#    x 1.762940 0.000000 0.000000 
#    y 0.000000 1.737040 0.000000 
#    z 0.000000 0.000000 1.767960 
# 
# From -- ./inp_files/25003.got.cif
#   From: 2010.03.12/outbox.cif.g09.slc.cpg/sg47_13_cif.got.tgz:25003.got - 2010.04.14 03:12:58.
