data_PCOD8199077
_publ_section_title
;
Structure prediction by ZEFSAII (Michael W. Deem and Ramdas Pophale) SiO2 
 PCOD8199077
Probable space group: P M M M
;
_chemical_formula_sum "Si O2"
_cell_formula_units_Z 40
_cell_length_a 27.265616
_cell_length_b 8.105657
_cell_length_c 9.634960
_cell_angle_alpha 90.000000
_cell_angle_beta 90.000000
_cell_angle_gamma 90.000000
_cell_volume 2129.381380
_symmetry_space_group_name_H-M "P M M M"
_symmetry_group_IT_number 47
_symmetry_cell_setting 'orthorhombic'
loop_
_space_group_symop_operation_xyz
x,y,z
-x,-y,z
x,-y,-z
-x,y,-z
-x,-y,-z
x,y,-z
-x,y,z
x,-y,z
loop_
_atom_site_type_symbol
_atom_site_label
_atom_site_fract_x
_atom_site_fract_y
_atom_site_fract_z
Si Si1 0.055653 0.500000 0.665474
Si Si2 0.412927 0.808797 0.155087
Si Si3 0.309980 0.310848 0.154234
Si Si4 0.500000 0.802746 0.656628
Si Si5 0.885071 0.183637 0.334804
Si Si6 0.225467 0.190875 0.656507
O O1 0.058263 0.500000 0.500000
O O2 0.081090 0.332286 0.723580
O O3 0.000000 0.500000 0.719116
O O4 0.357860 0.782476 0.213553
O O5 0.452263 0.732537 0.262135
O O6 0.424368 0.000000 0.143240
O O7 0.417791 0.729353 0.000000
O O8 0.324541 0.500000 0.148915
O O9 0.262857 0.290103 0.249664
O O10 0.297256 0.243771 0.000000
O O11 0.500000 0.731579 0.500000
O O12 0.500000 0.000000 0.650996
O O13 0.886596 0.181365 0.500000
O O14 0.829522 0.218537 0.285694
O O15 0.902121 0.000000 0.281913
O O16 0.229363 0.259136 0.500000
O O17 0.239590 0.000000 0.661154
#
# Coordination Sequence:
#
# PCOD8199077 Si02
#       6
#     4   8   8   4   8   8
#     4   9  16  24  38  62  91 129 171 204 245 298
#     4   9  17  31  50  68  89 121 157 192 236 289
#     4  10  21  34  48  71 101 129 160 200 245 294
#     4   9  17  29  48  73  94 114 150 201 244 279
#     4   8  15  27  41  61  91 124 162 207 250 298
#     4   9  18  32  50  71  94 126 166 203 245 297
#
# _framework density 18.784799
#
# number of rings (size 3 to 8) (size 9 to 14) (size 15 to 20)
#    0.000    3.000    0.000    2.100    1.400    4.000 
#    0.000    4.500    0.000    3.000    0.000    0.000 
#    0.000    1.600    0.000    4.400    0.000    4.400 
#
# Total GULP energy -495750.421349 kJ/mol
# GULP energy per Si atom -12393.760534 kJ/mol
# Density = 1.874204 g / cm^3
# Si number density = 18.784799 Si / 1000 Ang^3
#
#
#
# Elastic Constant Matrix: (Units=GPa)
#
#
# Indices 1 2 3 4 5 6 
#
# 1 141.1542 52.5216 52.0143 0.0000 0.0000 0.0000
# 2 52.5216 73.0515 24.6884 0.0000 0.0000 0.0000
# 3 52.0143 24.6884 61.9155 0.0000 0.0000 0.0000
# 4 0.0000 0.0000 0.0000 13.5345 0.0000 0.0000
# 5 0.0000 0.0000 0.0000 0.0000 5.4308 0.0000
# 6 0.0000 0.0000 0.0000 0.0000 0.0000 12.1253
#
#
#
# Elastic Compliance Matrix: (Units=1/GPa)
#
#
# Indices 1 2 3 4 5 6 
#
# 1 0.012273 -0.006171 -0.007850 0.000000 0.000000 0.000000
# 2 -0.006171 0.018924 -0.002361 0.000000 0.000000 0.000000
# 3 -0.007850 -0.002361 0.023687 0.000000 0.000000 0.000000
# 4 0.000000 0.000000 0.000000 0.073885 0.000000 0.000000
# 5 0.000000 0.000000 0.000000 0.000000 0.184136 0.000000
# 6 0.000000 0.000000 0.000000 0.000000 0.000000 0.082472
#
#
# Mechanical properties :
#
#
# Convention : Reuss Voigt Hill
#
# Bulk Modulus (GPa) = 45.20922 59.39663 52.30293
# Shear Modulus (GPa) = 11.48063 16.01124 13.74593
#
# Velocity S-wave (km/s) = 2.47486 2.92267 2.70804
# Velocity P-wave (km/s) = 5.68205 6.56335 6.13854
#
# Compressibility (1/GPa) = 0.02211938
#
# Stress axis : x y z
#
# Youngs Moduli (GPa) = 81.47777 52.84323 42.21673
#
# Poissons Ratio (x) = 0.32610 0.33140
# Poissons Ratio (y) = 0.50281 0.09969
# Poissons Ratio (z) = 0.63959 0.12479
#
# Static dielectric constant tensor:
#      x y z
#    x 3.475270 0.000000 0.000000 
#    y 0.000000 3.420150 0.000000 
#    z 0.000000 0.000000 3.226900 
# 
# 
# High freq. dielectric constant tensor:
#      x y z
#    x 1.731860 0.000000 0.000000 
#    y 0.000000 1.721360 0.000000 
#    z 0.000000 0.000000 1.683050 
# 
# From -- ./inp_files/1703.got.cif
#   From: 2010.03.12/outbox.cif.g09.slc.cpg/sg47_1_cif.got.tgz:1703.got - 2010.04.14 03:12:58.
