data_PCOD8199734
_publ_section_title
;
Structure prediction by ZEFSAII (Michael W. Deem and Ramdas Pophale) SiO2 
 PCOD8199734
Probable space group: P M M M
;
_chemical_formula_sum "Si O2"
_cell_formula_units_Z 44
_cell_length_a 8.834029
_cell_length_b 9.467329
_cell_length_c 28.549492
_cell_angle_alpha 90.000000
_cell_angle_beta 90.000000
_cell_angle_gamma 90.000000
_cell_volume 2387.727026
_symmetry_space_group_name_H-M "P M M M"
_symmetry_group_IT_number 47
_symmetry_cell_setting 'orthorhombic'
loop_
_space_group_symop_operation_xyz
x,y,z
-x,-y,z
x,-y,-z
-x,y,-z
-x,-y,-z
x,y,-z
-x,y,z
x,-y,z
loop_
_atom_site_type_symbol
_atom_site_label
_atom_site_fract_x
_atom_site_fract_y
_atom_site_fract_z
Si Si1 0.325656 0.336038 0.637868
Si Si2 0.321957 0.163053 0.183173
Si Si3 0.835417 0.333420 0.000000
Si Si4 0.180944 0.339646 0.101058
Si Si5 0.679915 0.159026 0.448586
Si Si6 0.176968 0.663596 0.734464
O O1 0.500000 0.293954 0.647307
O O2 0.309490 0.500000 0.626995
O O3 0.255739 0.257028 0.592730
O O4 0.227841 0.291084 0.682659
O O5 0.500000 0.180747 0.178940
O O6 0.246671 0.231146 0.137884
O O7 0.266959 0.240773 0.229518
O O8 0.273102 0.000000 0.185971
O O9 0.753703 0.294017 0.950692
O O10 0.859273 0.500000 0.000000
O O11 0.000000 0.259454 0.000000
O O12 0.231439 0.500000 0.113609
O O13 0.000000 0.331028 0.100978
O O14 0.737768 0.210048 0.500000
O O15 0.500000 0.165962 0.448067
O O16 0.735967 0.000000 0.439327
O O17 0.217596 0.500000 0.743844
O O18 0.000000 0.691420 0.740501
#
# Coordination Sequence:
#
# PCOD8199734 Si02
#       6
#     8   8   4   8   8   8
#     4   9  17  29  47  72  99 125 156 198 246 293
#     4  11  24  38  51  72 103 136 169 206 250 299
#     4   7  12  26  50  79 106 130 162 205 246 287
#     4   9  17  32  56  82 105 132 168 208 249 293
#     4   8  14  25  42  66  96 128 161 197 237 282
#     4  10  21  37  56  76  98 127 165 208 254 304
#
# _framework density 18.427567
#
# number of rings (size 3 to 8) (size 9 to 14) (size 15 to 20)
#    0.000    2.818    0.000    3.273    0.000    6.182 
#    0.000    4.545    0.000    4.909    0.000    3.818 
#    0.000    0.000    0.000    0.000    0.000    0.000 
#
# Total GULP energy -545330.588139 kJ/mol
# GULP energy per Si atom -12393.877003 kJ/mol
# Density = 1.838563 g / cm^3
# Si number density = 18.427567 Si / 1000 Ang^3
#
#
#
# Elastic Constant Matrix: (Units=GPa)
#
#
# Indices 1 2 3 4 5 6 
#
# 1 26.1179 23.7033 19.2764 0.0000 0.0000 0.0000
# 2 23.7033 81.8648 71.6834 0.0000 0.0000 0.0000
# 3 19.2764 71.6834 152.8164 0.0000 0.0000 0.0000
# 4 0.0000 0.0000 0.0000 -3.1866 0.0000 0.0000
# 5 0.0000 0.0000 0.0000 0.0000 22.5738 0.0000
# 6 0.0000 0.0000 0.0000 0.0000 0.0000 20.2830
#
#
#
# Elastic Compliance Matrix: (Units=1/GPa)
#
#
# Indices 1 2 3 4 5 6 
#
# 1 0.052001 -0.015804 0.000854 0.000000 0.000000 0.000000
# 2 -0.015804 0.025533 -0.009984 0.000000 0.000000 0.000000
# 3 0.000854 -0.009984 0.011119 0.000000 0.000000 0.000000
# 4 0.000000 0.000000 0.000000 -0.313811 0.000000 0.000000
# 5 0.000000 0.000000 0.000000 0.000000 0.044299 0.000000
# 6 0.000000 0.000000 0.000000 0.000000 0.000000 0.049302
#
#
# Mechanical properties :
#
#
# Convention : Reuss Voigt Hill
#
# Bulk Modulus (GPa) = 25.78281 54.45837 40.12059
# Shear Modulus (GPa) = -72.71623 17.67644 -27.51990
#
# Velocity S-wave (km/s) = -6.28858 3.10052 -3.86866
# Velocity P-wave (km/s) = 6.22146 6.51417 1.36527
#
# Compressibility (1/GPa) = 0.03878554
#
# Stress axis : x y z
#
# Youngs Moduli (GPa) = 19.23054 39.16473 89.93459
#
# Poissons Ratio (x) = 0.61897 -0.07681
# Poissons Ratio (y) = 0.30392 0.89787
# Poissons Ratio (z) = -0.01642 0.39100
#
# Static dielectric constant tensor:
#      x y z
#    x 3.088590 0.000000 0.000000 
#    y 0.000000 3.378860 0.000000 
#    z 0.000000 0.000000 3.895900 
# 
# 
# High freq. dielectric constant tensor:
#      x y z
#    x 1.680510 0.000000 0.000000 
#    y 0.000000 1.699140 0.000000 
#    z 0.000000 0.000000 1.737870 
# 
# From -- ./inp_files/33908.got.cif
#   From: 2010.03.12/outbox.cif.g09.slc.cpg/sg47_17_cif.got.tgz:33908.got - 2010.04.14 03:12:58.
