data_PCOD8199319
_publ_section_title
;
Structure prediction by ZEFSAII (Michael W. Deem and Ramdas Pophale) SiO2 
 PCOD8199319
Probable space group: P M M M
;
_chemical_formula_sum "Si O2"
_cell_formula_units_Z 64
_cell_length_a 25.634691
_cell_length_b 9.350457
_cell_length_c 14.259977
_cell_angle_alpha 90.000000
_cell_angle_beta 90.000000
_cell_angle_gamma 90.000000
_cell_volume 3418.060529
_symmetry_space_group_name_H-M "P M M M"
_symmetry_group_IT_number 47
_symmetry_cell_setting 'orthorhombic'
loop_
_space_group_symop_operation_xyz
x,y,z
-x,-y,z
x,-y,-z
-x,y,-z
-x,-y,-z
x,y,-z
-x,y,z
x,-y,z
loop_
_atom_site_type_symbol
_atom_site_label
_atom_site_fract_x
_atom_site_fract_y
_atom_site_fract_z
Si Si1 0.941834 0.664695 0.737877
Si Si2 0.891838 0.166035 0.890574
Si Si3 0.746310 0.166605 0.608660
Si Si4 0.794463 0.656574 0.110514
Si Si5 0.356645 0.168953 0.278637
Si Si6 0.847612 0.332320 0.607141
Si Si7 0.322433 0.668211 0.107232
Si Si8 0.440057 0.662121 0.390779
O O1 0.932590 0.500000 0.764590
O O2 0.937441 0.757005 0.832904
O O3 0.899419 0.716907 0.662159
O O4 0.000000 0.687590 0.696381
O O5 0.836854 0.230153 0.853705
O O6 0.891526 0.000000 0.867357
O O7 0.901391 0.195704 0.000000
O O8 0.735910 0.204616 0.500000
O O9 0.695615 0.215039 0.666393
O O10 0.796374 0.253166 0.647696
O O11 0.758000 0.000000 0.622167
O O12 0.805951 0.500000 0.155826
O O13 0.736709 0.709849 0.135815
O O14 0.798096 0.640278 0.000000
O O15 0.358938 0.240997 0.175938
O O16 0.406424 0.223831 0.334647
O O17 0.360740 0.000000 0.267381
O O18 0.856769 0.286054 0.500000
O O19 0.837749 0.500000 0.616564
O O20 0.331932 0.500000 0.121104
O O21 0.334600 0.712186 0.000000
O O22 0.432290 0.692957 0.500000
O O23 0.500000 0.684154 0.361930
O O24 0.422471 0.500000 0.366972
#
# Coordination Sequence:
#
# PCOD8199319 Si02
#       8
#     8   8   8   8   8   8   8   8
#     4  10  22  38  55  76 100 129 169 216 265 320
#     4  10  21  35  52  75 103 134 168 210 260 315
#     4   9  19  35  52  75 111 147 174 206 256 320
#     4   8  15  30  51  73  98 131 172 215 259 310
#     4  11  22  33  52  84 118 152 187 226 275 329
#     4   9  19  36  57  79 101 129 168 214 264 316
#     4   9  19  35  53  75 107 148 191 232 273 319
#     4   9  19  37  60  85 114 150 193 238 279 322
#
# _framework density 18.724067999999999
#
# number of rings (size 3 to 8) (size 9 to 14) (size 15 to 20)
#    0.000    2.625    0.000    2.250    1.750    4.750 
#    0.000    5.625    0.000    0.375    0.000    5.250 
#    0.000    0.000    0.000    0.000    0.000    0.000 
#
# Total GULP energy -793604.654950 kJ/mol
# GULP energy per Si atom -12400.072734 kJ/mol
# Density = 1.868145 g / cm^3
# Si number density = 18.724068 Si / 1000 Ang^3
#
#
#
# Elastic Constant Matrix: (Units=GPa)
#
#
# Indices 1 2 3 4 5 6 
#
# 1 105.1079 51.1848 55.0202 0.0000 0.0000 0.0000
# 2 51.1848 72.4957 46.1029 0.0000 0.0000 0.0000
# 3 55.0202 46.1029 79.4950 0.0000 0.0000 0.0000
# 4 0.0000 0.0000 0.0000 24.9618 0.0000 0.0000
# 5 0.0000 0.0000 0.0000 0.0000 30.0723 0.0000
# 6 0.0000 0.0000 0.0000 0.0000 0.0000 8.8805
#
#
#
# Elastic Compliance Matrix: (Units=1/GPa)
#
#
# Indices 1 2 3 4 5 6 
#
# 1 0.016976 -0.007151 -0.007602 0.000000 0.000000 0.000000
# 2 -0.007151 0.024866 -0.009472 0.000000 0.000000 0.000000
# 3 -0.007602 -0.009472 0.023334 0.000000 0.000000 0.000000
# 4 0.000000 0.000000 0.000000 0.040061 0.000000 0.000000
# 5 0.000000 0.000000 0.000000 0.000000 0.033253 0.000000
# 6 0.000000 0.000000 0.000000 0.000000 0.000000 0.112607
#
#
# Mechanical properties :
#
#
# Convention : Reuss Voigt Hill
#
# Bulk Modulus (GPa) = 59.78568 62.41268 61.09918
# Shear Modulus (GPa) = 16.38685 19.76897 18.07791
#
# Velocity S-wave (km/s) = 2.96155 3.25284 3.11060
# Velocity P-wave (km/s) = 6.61011 6.89298 6.75303
#
# Compressibility (1/GPa) = 0.01672641
#
# Stress axis : x y z
#
# Youngs Moduli (GPa) = 58.90715 40.21498 42.85583
#
# Poissons Ratio (x) = 0.28758 0.32579
# Poissons Ratio (y) = 0.42125 0.40592
# Poissons Ratio (z) = 0.44782 0.38090
#
# Static dielectric constant tensor:
#      x y z
#    x 3.376760 0.000000 0.000000 
#    y 0.000000 3.358240 0.000000 
#    z 0.000000 0.000000 3.383480 
# 
# 
# High freq. dielectric constant tensor:
#      x y z
#    x 1.713160 0.000000 0.000000 
#    y 0.000000 1.721950 0.000000 
#    z 0.000000 0.000000 1.724760 
# 
# From -- ./inp_files/7937.got.cif
#   From: 2010.03.12/outbox.cif.g09.slc.cpg/sg47_4_cif.got.tgz:7937.got - 2010.04.14 03:12:58.
