data_PCOD8199524
_publ_section_title
;
Structure prediction by ZEFSAII (Michael W. Deem and Ramdas Pophale) SiO2 
 PCOD8199524
Probable space group: P M M M
;
_chemical_formula_sum "Si O2"
_cell_formula_units_Z 48
_cell_length_a 9.131941
_cell_length_b 30.773810
_cell_length_c 9.158237
_cell_angle_alpha 90.000000
_cell_angle_beta 90.000000
_cell_angle_gamma 90.000000
_cell_volume 2573.690048
_symmetry_space_group_name_H-M "P M M M"
_symmetry_group_IT_number 47
_symmetry_cell_setting 'orthorhombic'
loop_
_space_group_symop_operation_xyz
x,y,z
-x,-y,z
x,-y,-z
-x,y,-z
-x,-y,-z
x,y,-z
-x,y,z
x,-y,z
loop_
_atom_site_type_symbol
_atom_site_label
_atom_site_fract_x
_atom_site_fract_y
_atom_site_fract_z
Si Si1 0.674214 0.500000 0.164779
Si Si2 0.669849 0.415259 0.670155
Si Si3 0.831124 0.835258 0.167737
Si Si4 0.170378 0.922600 0.670120
Si Si5 0.326923 0.000000 0.831646
Si Si6 0.668801 0.251458 0.171044
Si Si7 0.168234 0.671120 0.328028
O O1 0.500000 0.500000 0.171590
O O2 0.733111 0.543000 0.245129
O O3 0.733217 0.500000 0.000000
O O4 0.695155 0.424007 0.500000
O O5 0.500000 0.407061 0.705891
O O6 0.758177 0.373473 0.726000
O O7 0.786871 0.875450 0.269125
O O8 0.733853 0.794818 0.219100
O O9 0.000000 0.822304 0.189472
O O10 0.798878 0.847924 0.000000
O O11 0.209315 0.924502 0.500000
O O12 0.000000 0.932644 0.697984
O O13 0.265268 0.957509 0.754704
O O14 0.500000 0.000000 0.815277
O O15 0.277797 0.000000 0.000000
O O16 0.500000 0.252693 0.216814
O O17 0.753102 0.288853 0.253880
O O18 0.691353 0.258805 0.000000
O O19 0.187220 0.676321 0.500000
O O20 0.000000 0.670490 0.279885
#
# Coordination Sequence:
#
# PCOD8199524 Si02
#       7
#     4   8   8   8   4   8   8
#     4   9  17  29  48  75 102 128 164 211 258 305
#     4   9  17  31  51  73  99 133 171 210 256 311
#     4   9  18  34  55  78 107 144 182 218 259 311
#     4  10  21  37  58  84 112 142 178 220 266 317
#     4  11  24  39  56  80 110 145 184 225 268 314
#     4  10  21  36  55  80 109 141 177 218 264 314
#     4  10  21  36  54  77 105 138 177 220 265 313
#
# _framework density 18.650264
#
# number of rings (size 3 to 8) (size 9 to 14) (size 15 to 20)
#    0.000    2.333    0.000    2.250    0.000    7.667 
#    0.000    5.417    0.000    2.500    0.000    0.000 
#    0.000    0.000    0.000    0.000    0.000    0.000 
#
# Total GULP energy -595376.168673 kJ/mol
# GULP energy per Si atom -12403.670181 kJ/mol
# Density = 1.860781 g / cm^3
# Si number density = 18.650264 Si / 1000 Ang^3
#
#
#
# Elastic Constant Matrix: (Units=GPa)
#
#
# Indices 1 2 3 4 5 6 
#
# 1 99.6741 86.0505 54.3230 0.0000 0.0000 0.0000
# 2 86.0505 172.7997 81.1857 0.0000 0.0000 0.0000
# 3 54.3230 81.1857 89.5873 0.0000 0.0000 0.0000
# 4 0.0000 0.0000 0.0000 40.2291 0.0000 0.0000
# 5 0.0000 0.0000 0.0000 0.0000 24.6758 0.0000
# 6 0.0000 0.0000 0.0000 0.0000 0.0000 38.1228
#
#
#
# Elastic Compliance Matrix: (Units=1/GPa)
#
#
# Indices 1 2 3 4 5 6 
#
# 1 0.018843 -0.006992 -0.005089 0.000000 0.000000 0.000000
# 2 -0.006992 0.012673 -0.007244 0.000000 0.000000 0.000000
# 3 -0.005089 -0.007244 0.020813 0.000000 0.000000 0.000000
# 4 0.000000 0.000000 0.000000 0.024858 0.000000 0.000000
# 5 0.000000 0.000000 0.000000 0.000000 0.040526 0.000000
# 6 0.000000 0.000000 0.000000 0.000000 0.000000 0.026231
#
#
# Mechanical properties :
#
#
# Convention : Reuss Voigt Hill
#
# Bulk Modulus (GPa) = 73.11477 89.46437 81.28957
# Shear Modulus (GPa) = 26.71604 29.97232 28.34418
#
# Velocity S-wave (km/s) = 3.78891 4.01318 3.90266
# Velocity P-wave (km/s) = 7.64391 8.33953 7.99928
#
# Compressibility (1/GPa) = 0.01367713
#
# Stress axis : x y z
#
# Youngs Moduli (GPa) = 53.07015 78.91047 48.04673
#
# Poissons Ratio (x) = 0.55177 0.24452
# Poissons Ratio (y) = 0.37108 0.34806
# Poissons Ratio (z) = 0.27009 0.57164
#
# Static dielectric constant tensor:
#      x y z
#    x 3.401810 0.000000 0.000000 
#    y 0.000000 3.574840 0.000000 
#    z 0.000000 0.000000 3.442560 
# 
# 
# High freq. dielectric constant tensor:
#      x y z
#    x 1.715260 0.000000 0.000000 
#    y 0.000000 1.738780 0.000000 
#    z 0.000000 0.000000 1.722110 
# 
# From -- ./inp_files/2554.got.cif
#   From: 2010.03.12/outbox.cif.g09.slc.cpg/sg47_2_cif.got.tgz:2554.got - 2010.04.14 03:12:58.
