data_PCOD8199817
_publ_section_title
;
Structure prediction by ZEFSAII (Michael W. Deem and Ramdas Pophale) SiO2 
 PCOD8199817
Probable space group: P M M M
;
_chemical_formula_sum "Si O2"
_cell_formula_units_Z 40
_cell_length_a 9.200416
_cell_length_b 9.264403
_cell_length_c 26.083922
_cell_angle_alpha 90.000000
_cell_angle_beta 90.000000
_cell_angle_gamma 90.000000
_cell_volume 2223.298607
_symmetry_space_group_name_H-M "P M M M"
_symmetry_group_IT_number 47
_symmetry_cell_setting 'orthorhombic'
loop_
_space_group_symop_operation_xyz
x,y,z
-x,-y,z
x,-y,-z
-x,y,-z
-x,-y,-z
x,y,-z
-x,y,z
x,-y,z
loop_
_atom_site_type_symbol
_atom_site_label
_atom_site_fract_x
_atom_site_fract_y
_atom_site_fract_z
Si Si1 0.163340 0.327299 0.609615
Si Si2 0.170038 0.831823 0.090193
Si Si3 0.669986 0.334020 0.707629
Si Si4 0.330394 0.329405 0.000000
Si Si5 0.333814 0.832160 0.192906
Si Si6 0.826781 0.341090 0.500000
O O1 0.170966 0.500000 0.606680
O O2 0.260164 0.267338 0.656147
O O3 0.219146 0.264349 0.553996
O O4 0.000000 0.274977 0.620381
O O5 0.231461 0.789668 0.145700
O O6 0.000000 0.794775 0.087936
O O7 0.198054 0.000000 0.078033
O O8 0.255373 0.736187 0.049758
O O9 0.500000 0.312610 0.701709
O O10 0.714973 0.500000 0.714379
O O11 0.727414 0.250857 0.757583
O O12 0.306811 0.500000 0.000000
O O13 0.500000 0.288222 0.000000
O O14 0.500000 0.786649 0.180218
O O15 0.324113 0.000000 0.205390
O O16 0.756173 0.500000 0.500000
O O17 0.000000 0.355202 0.500000
#
# Coordination Sequence:
#
# PCOD8199817 Si02
#       6
#     8   8   8   4   8   4
#     4   8  13  22  37  57  82 113 147 181 222 275
#     4  10  21  37  57  80 104 130 163 204 246 286
#     4   9  17  28  42  63  91 118 146 187 235 276
#     4  11  24  39  56  80 108 137 168 199 234 282
#     4   9  18  33  51  69  92 126 163 193 227 278
#     4   7  10  18  33  53  78 109 144 180 218 267
#
# _framework density 17.991285999999999
#
# number of rings (size 3 to 8) (size 9 to 14) (size 15 to 20)
#    0.000    3.000    0.000    2.400    0.000    4.800 
#    0.000    2.500    0.000    3.000    0.000    0.700 
#    0.000    5.600    0.000    0.000    0.000    0.000 
#
# Total GULP energy -495733.573164 kJ/mol
# GULP energy per Si atom -12393.339329 kJ/mol
# Density = 1.795034 g / cm^3
# Si number density = 17.991286 Si / 1000 Ang^3
#
#
#
# Elastic Constant Matrix: (Units=GPa)
#
#
# Indices 1 2 3 4 5 6 
#
# 1 84.1057 38.0767 80.8689 0.0000 0.0000 0.0000
# 2 38.0767 41.6471 61.7019 0.0000 0.0000 0.0000
# 3 80.8689 61.7019 198.8697 0.0000 0.0000 0.0000
# 4 0.0000 0.0000 0.0000 -8.0489 0.0000 0.0000
# 5 0.0000 0.0000 0.0000 0.0000 37.7791 0.0000
# 6 0.0000 0.0000 0.0000 0.0000 0.0000 16.9917
#
#
#
# Elastic Compliance Matrix: (Units=1/GPa)
#
#
# Indices 1 2 3 4 5 6 
#
# 1 0.022869 -0.013197 -0.005205 0.000000 0.000000 0.000000
# 2 -0.013197 0.052054 -0.010784 0.000000 0.000000 0.000000
# 3 -0.005205 -0.010784 0.010491 0.000000 0.000000 0.000000
# 4 0.000000 0.000000 0.000000 -0.124241 0.000000 0.000000
# 5 0.000000 0.000000 0.000000 0.000000 0.026470 0.000000
# 6 0.000000 0.000000 0.000000 0.000000 0.000000 0.058852
#
#
# Mechanical properties :
#
#
# Convention : Reuss Voigt Hill
#
# Bulk Modulus (GPa) = 36.97986 76.21305 56.59645
# Shear Modulus (GPa) = 43.90563 18.94272 31.42418
#
# Velocity S-wave (km/s) = 4.94538 3.24834 4.18381
# Velocity P-wave (km/s) = 7.29438 7.51811 7.40709
#
# Compressibility (1/GPa) = 0.02704175
#
# Stress axis : x y z
#
# Youngs Moduli (GPa) = 43.72706 19.21091 95.32168
#
# Poissons Ratio (x) = 0.25353 0.49615
# Poissons Ratio (y) = 0.57707 1.02793
# Poissons Ratio (z) = 0.22760 0.20717
#
# Static dielectric constant tensor:
#      x y z
#    x 3.262590 0.000000 0.000000 
#    y 0.000000 2.981970 0.000000 
#    z 0.000000 0.000000 3.800170 
# 
# 
# High freq. dielectric constant tensor:
#      x y z
#    x 1.683720 0.000000 0.000000 
#    y 0.000000 1.651620 0.000000 
#    z 0.000000 0.000000 1.720770 
# 
# From -- ./inp_files/1850.got.cif
#   From: 2010.03.12/outbox.cif.g09.slc.cpg/sg47_1_cif.got.tgz:1850.got - 2010.04.14 03:12:58.
