data_PCOD8199852
_publ_section_title
;
Structure prediction by ZEFSAII (Michael W. Deem and Ramdas Pophale) SiO2 
 PCOD8199852
Probable space group: P M M M
;
_chemical_formula_sum "Si O2"
_cell_formula_units_Z 48
_cell_length_a 8.998461
_cell_length_b 9.026303
_cell_length_c 30.781108
_cell_angle_alpha 90.000000
_cell_angle_beta 90.000000
_cell_angle_gamma 90.000000
_cell_volume 2500.128872
_symmetry_space_group_name_H-M "P M M M"
_symmetry_group_IT_number 47
_symmetry_cell_setting 'orthorhombic'
loop_
_space_group_symop_operation_xyz
x,y,z
-x,-y,z
x,-y,-z
-x,y,-z
-x,-y,-z
x,y,-z
-x,y,z
x,-y,z
loop_
_atom_site_type_symbol
_atom_site_label
_atom_site_fract_x
_atom_site_fract_y
_atom_site_fract_z
Si Si1 0.326862 0.828060 0.579375
Si Si2 0.826541 0.170792 0.668825
Si Si3 0.332313 0.676182 0.000000
Si Si4 0.173522 0.330356 0.914385
Si Si5 0.671700 0.673215 0.252476
Si Si6 0.170995 0.174466 0.826397
Si Si7 0.169246 0.675130 0.500000
O O1 0.500000 0.790217 0.580486
O O2 0.257345 0.781741 0.625210
O O3 0.250439 0.732733 0.542527
O O4 0.297888 0.000000 0.569308
O O5 0.768470 0.272425 0.707277
O O6 0.000000 0.199426 0.661850
O O7 0.794013 0.000000 0.680621
O O8 0.254112 0.737391 0.956611
O O9 0.319759 0.500000 0.000000
O O10 0.500000 0.733298 0.000000
O O11 0.221047 0.500000 0.905716
O O12 0.222490 0.234556 0.873052
O O13 0.000000 0.317521 0.923416
O O14 0.500000 0.711240 0.261207
O O15 0.698228 0.500000 0.246166
O O16 0.723527 0.754518 0.209235
O O17 0.000000 0.218912 0.816930
O O18 0.192472 0.000000 0.825532
O O19 0.177127 0.500000 0.500000
O O20 0.000000 0.732328 0.500000
#
# Coordination Sequence:
#
# PCOD8199852 Si02
#       7
#     8   8   4   8   8   8   4
#     4  10  21  38  61  87 114 147 187 229 276 330
#     4  10  21  38  61  87 113 144 183 226 273 326
#     4   9  17  29  48  75 104 134 172 219 266 313
#     4   9  17  31  52  76 103 137 176 217 264 319
#     4  11  24  39  56  81 112 146 183 223 270 324
#     4  10  21  37  57  81 108 140 180 225 273 324
#     4  11  24  39  56  82 116 153 192 233 278 326
#
# _framework density 19.199010999999999
#
# number of rings (size 3 to 8) (size 9 to 14) (size 15 to 20)
#    0.000    2.000    0.000    3.250    0.000   10.333 
#    0.000    2.083    0.000    2.500    0.000    0.000 
#    0.000    0.000    0.000    0.000    0.000    0.000 
#
# Total GULP energy -595426.391203 kJ/mol
# GULP energy per Si atom -12404.716483 kJ/mol
# Density = 1.915531 g / cm^3
# Si number density = 19.199011 Si / 1000 Ang^3
#
#
#
# Elastic Constant Matrix: (Units=GPa)
#
#
# Indices 1 2 3 4 5 6 
#
# 1 101.6767 41.6162 68.3445 0.0000 0.0000 0.0000
# 2 41.6162 64.9919 52.1885 0.0000 0.0000 0.0000
# 3 68.3445 52.1885 148.6543 0.0000 0.0000 0.0000
# 4 0.0000 0.0000 0.0000 29.1941 0.0000 0.0000
# 5 0.0000 0.0000 0.0000 0.0000 68.6261 0.0000
# 6 0.0000 0.0000 0.0000 0.0000 0.0000 26.7793
#
#
#
# Elastic Compliance Matrix: (Units=1/GPa)
#
#
# Indices 1 2 3 4 5 6 
#
# 1 0.015723 -0.005937 -0.005144 0.000000 0.000000 0.000000
# 2 -0.005937 0.023669 -0.005580 0.000000 0.000000 0.000000
# 3 -0.005144 -0.005580 0.011051 0.000000 0.000000 0.000000
# 4 0.000000 0.000000 0.000000 0.034253 0.000000 0.000000
# 5 0.000000 0.000000 0.000000 0.000000 0.014572 0.000000
# 6 0.000000 0.000000 0.000000 0.000000 0.000000 0.037342
#
#
# Mechanical properties :
#
#
# Convention : Reuss Voigt Hill
#
# Bulk Modulus (GPa) = 58.40990 71.06902 64.73946
# Shear Modulus (GPa) = 28.46732 35.13147 31.79940
#
# Velocity S-wave (km/s) = 3.85483 4.28232 4.07419
# Velocity P-wave (km/s) = 7.09241 7.84528 7.47833
#
# Compressibility (1/GPa) = 0.01712039
#
# Stress axis : x y z
#
# Youngs Moduli (GPa) = 63.60088 42.24972 90.48815
#
# Poissons Ratio (x) = 0.25083 0.46551
# Poissons Ratio (y) = 0.37759 0.50492
# Poissons Ratio (z) = 0.32719 0.23575
#
# Static dielectric constant tensor:
#      x y z
#    x 3.629480 0.000000 0.000000 
#    y 0.000000 3.406760 0.000000 
#    z 0.000000 0.000000 3.475170 
# 
# 
# High freq. dielectric constant tensor:
#      x y z
#    x 1.754810 0.000000 0.000000 
#    y 0.000000 1.734670 0.000000 
#    z 0.000000 0.000000 1.763230 
# 
# From -- ./inp_files/2546.got.cif
#   From: 2010.03.12/outbox.cif.g09.slc.cpg/sg47_2_cif.got.tgz:2546.got - 2010.04.14 03:12:58.
