data_PCOD8199502
_publ_section_title
;
Structure prediction by ZEFSAII (Michael W. Deem and Ramdas Pophale) SiO2 
 PCOD8199502
Probable space group: P M M M
;
_chemical_formula_sum "Si O2"
_cell_formula_units_Z 52
_cell_length_a 9.143938
_cell_length_b 21.606292
_cell_length_c 13.979742
_cell_angle_alpha 90.000000
_cell_angle_beta 90.000000
_cell_angle_gamma 90.000000
_cell_volume 2761.930018
_symmetry_space_group_name_H-M "P M M M"
_symmetry_group_IT_number 47
_symmetry_cell_setting 'orthorhombic'
loop_
_space_group_symop_operation_xyz
x,y,z
-x,-y,z
x,-y,-z
-x,y,-z
-x,-y,-z
x,y,-z
-x,y,z
x,-y,z
loop_
_atom_site_type_symbol
_atom_site_label
_atom_site_fract_x
_atom_site_fract_y
_atom_site_fract_z
Si Si1 0.831948 0.000000 0.612609
Si Si2 0.329012 0.430111 0.232200
Si Si3 0.328032 0.682599 0.105445
Si Si4 0.169990 0.642318 0.610309
Si Si5 0.670270 0.749731 0.708080
Si Si6 0.834834 0.072002 0.108353
Si Si7 0.669311 0.109636 0.715695
O O1 0.758720 0.062231 0.651166
O O2 0.814324 0.000000 0.500000
O O3 0.000000 0.000000 0.645473
O O4 0.500000 0.422791 0.254619
O O5 0.288523 0.500000 0.202703
O O6 0.282009 0.385066 0.145324
O O7 0.243406 0.411957 0.328234
O O8 0.500000 0.685895 0.092575
O O9 0.277294 0.734442 0.182737
O O10 0.255404 0.693317 0.000000
O O11 0.196896 0.626321 0.500000
O O12 0.240258 0.708957 0.633200
O O13 0.000000 0.645844 0.635600
O O14 0.500000 0.732217 0.698970
O O15 0.697563 0.820837 0.679786
O O16 0.721921 0.108031 0.174781
O O17 0.000000 0.096091 0.124403
O O18 0.827370 0.000000 0.134815
O O19 0.784909 0.083593 0.000000
O O20 0.500000 0.091400 0.710778
#
# Coordination Sequence:
#
# PCOD8199502 Si02
#       7
#     4   8   8   8   8   8   8
#     4  11  25  43  60  77 102 139 179 220 270 333
#     4   9  18  32  51  78 110 143 179 217 262 315
#     4   8  14  28  51  77 107 141 175 212 251 296
#     4  10  21  36  54  76 102 135 177 224 270 316
#     4   9  20  36  54  79 108 138 173 215 265 319
#     4   9  18  33  53  77 108 145 178 208 251 313
#     4  11  22  36  57  84 111 138 173 224 278 323
#
# _framework density 18.827414000000001
#
# number of rings (size 3 to 8) (size 9 to 14) (size 15 to 20)
#    0.000    2.538    0.769    2.538    0.000    5.538 
#    0.000    8.462    0.000    7.385    0.000    4.308 
#    0.000    0.000    0.000    0.000    0.000    0.000 
#
# Total GULP energy -644692.506347 kJ/mol
# GULP energy per Si atom -12397.932814 kJ/mol
# Density = 1.878456 g / cm^3
# Si number density = 18.827414 Si / 1000 Ang^3
#
#
#
# Elastic Constant Matrix: (Units=GPa)
#
#
# Indices 1 2 3 4 5 6 
#
# 1 74.0256 36.1979 32.1872 0.0000 0.0000 0.0000
# 2 36.1979 97.0915 22.2611 0.0000 0.0000 0.0000
# 3 32.1872 22.2611 72.6314 0.0000 0.0000 0.0000
# 4 0.0000 0.0000 0.0000 13.4257 0.0000 0.0000
# 5 0.0000 0.0000 0.0000 0.0000 26.2121 0.0000
# 6 0.0000 0.0000 0.0000 0.0000 0.0000 14.1830
#
#
#
# Elastic Compliance Matrix: (Units=1/GPa)
#
#
# Indices 1 2 3 4 5 6 
#
# 1 0.019201 -0.005601 -0.006792 0.000000 0.000000 0.000000
# 2 -0.005601 0.012712 -0.001414 0.000000 0.000000 0.000000
# 3 -0.006792 -0.001414 0.017212 0.000000 0.000000 0.000000
# 4 0.000000 0.000000 0.000000 0.074484 0.000000 0.000000
# 5 0.000000 0.000000 0.000000 0.000000 0.038150 0.000000
# 6 0.000000 0.000000 0.000000 0.000000 0.000000 0.070507
#
#
# Mechanical properties :
#
#
# Convention : Reuss Voigt Hill
#
# Bulk Modulus (GPa) = 46.49074 47.22676 46.85875
# Shear Modulus (GPa) = 18.72301 20.97100 19.84701
#
# Velocity S-wave (km/s) = 3.15692 3.34107 3.25030
# Velocity P-wave (km/s) = 6.16724 6.32630 6.24728
#
# Compressibility (1/GPa) = 0.02150966
#
# Stress axis : x y z
#
# Youngs Moduli (GPa) = 52.07992 78.66565 58.10024
#
# Poissons Ratio (x) = 0.44063 0.39464
# Poissons Ratio (y) = 0.29172 0.08215
# Poissons Ratio (z) = 0.35375 0.11123
#
# Static dielectric constant tensor:
#      x y z
#    x 3.316630 0.000000 0.000000 
#    y 0.000000 3.446320 0.000000 
#    z 0.000000 0.000000 3.555600 
# 
# 
# High freq. dielectric constant tensor:
#      x y z
#    x 1.715220 0.000000 0.000000 
#    y 0.000000 1.728690 0.000000 
#    z 0.000000 0.000000 1.732520 
# 
# From -- ./inp_files/21436.got.cif
#   From: 2010.03.12/outbox.cif.g09.slc.cpg/sg47_11_cif.got.tgz:21436.got - 2010.04.14 03:12:58.
