data_PCOD8199933
_publ_section_title
;
Structure prediction by ZEFSAII (Michael W. Deem and Ramdas Pophale) SiO2 
 PCOD8199933
Probable space group: P M M M
;
_chemical_formula_sum "Si O2"
_cell_formula_units_Z 48
_cell_length_a 9.646775
_cell_length_b 8.861990
_cell_length_c 27.467232
_cell_angle_alpha 90.000000
_cell_angle_beta 90.000000
_cell_angle_gamma 90.000000
_cell_volume 2348.163325
_symmetry_space_group_name_H-M "P M M M"
_symmetry_group_IT_number 47
_symmetry_cell_setting 'orthorhombic'
loop_
_space_group_symop_operation_xyz
x,y,z
-x,-y,z
x,-y,-z
-x,y,-z
-x,-y,-z
x,y,-z
-x,y,z
x,-y,z
loop_
_atom_site_type_symbol
_atom_site_label
_atom_site_fract_x
_atom_site_fract_y
_atom_site_fract_z
Si Si1 0.342166 0.177841 0.191327
Si Si2 0.650940 0.171729 0.352081
Si Si3 0.659166 0.324371 0.910241
Si Si4 0.000000 0.833052 0.443075
Si Si5 0.839968 0.678203 0.274401
Si Si6 0.842582 0.320704 0.000000
Si Si7 0.720067 0.678370 0.444647
O O1 0.500000 0.227953 0.203381
O O2 0.302437 0.229332 0.137276
O O3 0.235207 0.253868 0.227741
O O4 0.325527 0.000000 0.195813
O O5 0.500000 0.177789 0.325637
O O6 0.764934 0.265645 0.323085
O O7 0.621699 0.241312 0.405753
O O8 0.702739 0.000000 0.356463
O O9 0.500000 0.297511 0.926355
O O10 0.685336 0.500000 0.898983
O O11 0.760236 0.263463 0.952514
O O12 0.870544 0.733238 0.427386
O O13 0.000000 0.857228 0.500000
O O14 0.000000 0.000000 0.418246
O O15 0.828010 0.500000 0.272039
O O16 0.000000 0.730807 0.275179
O O17 0.843480 0.500000 0.000000
O O18 0.000000 0.257026 0.000000
O O19 0.683641 0.729066 0.500000
O O20 0.708280 0.500000 0.440381
#
# Coordination Sequence:
#
# PCOD8199933 Si02
#       7
#     8   8   8   4   8   4   8
#     4  10  21  38  61  89 120 154 194 241 295 354
#     4  11  25  43  63  88 119 156 195 238 292 351
#     4   9  17  31  53  80 111 151 197 242 291 348
#     4   9  17  31  53  81 113 149 187 229 279 332
#     4  11  25  43  64  90 118 150 191 240 293 351
#     4   9  17  29  48  77 112 150 196 251 300 341
#     4  10  21  37  59  87 119 155 195 239 287 342
#
# _framework density 20.441509
#
# number of rings (size 3 to 8) (size 9 to 14) (size 15 to 20)
#    0.000    2.000    0.000    3.000    1.167    9.667 
#    0.000    3.750    0.000    2.500    0.000    0.000 
#    0.000    0.000    0.000    0.000    0.000    0.000 
#
# Total GULP energy -595105.235173 kJ/mol
# GULP energy per Si atom -12398.025733 kJ/mol
# Density = 2.039498 g / cm^3
# Si number density = 20.441509 Si / 1000 Ang^3
#
#
#
# Elastic Constant Matrix: (Units=GPa)
#
#
# Indices 1 2 3 4 5 6 
#
# 1 136.4423 44.0778 75.0076 0.0000 0.0000 0.0000
# 2 44.0778 75.6201 44.6745 0.0000 0.0000 0.0000
# 3 75.0076 44.6745 135.2130 0.0000 0.0000 0.0000
# 4 0.0000 0.0000 0.0000 16.4689 0.0000 0.0000
# 5 0.0000 0.0000 0.0000 0.0000 31.7960 0.0000
# 6 0.0000 0.0000 0.0000 0.0000 0.0000 25.5145
#
#
#
# Elastic Compliance Matrix: (Units=1/GPa)
#
#
# Indices 1 2 3 4 5 6 
#
# 1 0.011272 -0.003574 -0.005072 0.000000 0.000000 0.000000
# 2 -0.003574 0.017564 -0.003821 0.000000 0.000000 0.000000
# 3 -0.005072 -0.003821 0.011472 0.000000 0.000000 0.000000
# 4 0.000000 0.000000 0.000000 0.060721 0.000000 0.000000
# 5 0.000000 0.000000 0.000000 0.000000 0.031450 0.000000
# 6 0.000000 0.000000 0.000000 0.000000 0.000000 0.039193
#
#
# Mechanical properties :
#
#
# Convention : Reuss Voigt Hill
#
# Bulk Modulus (GPa) = 65.04193 74.97725 70.00959
# Shear Modulus (GPa) = 24.78548 26.99024 25.88786
#
# Velocity S-wave (km/s) = 3.48588 3.63762 3.56256
# Velocity P-wave (km/s) = 6.93466 7.37575 7.15860
#
# Compressibility (1/GPa) = 0.01537470
#
# Stress axis : x y z
#
# Youngs Moduli (GPa) = 88.71544 56.93363 87.16971
#
# Poissons Ratio (x) = 0.20347 0.44214
# Poissons Ratio (y) = 0.31705 0.33306
# Poissons Ratio (z) = 0.44998 0.21753
#
# Static dielectric constant tensor:
#      x y z
#    x 3.854660 0.000000 0.000000 
#    y 0.000000 3.591150 0.000000 
#    z 0.000000 0.000000 3.720900 
# 
# 
# High freq. dielectric constant tensor:
#      x y z
#    x 1.805150 0.000000 0.000000 
#    y 0.000000 1.792940 0.000000 
#    z 0.000000 0.000000 1.800210 
# 
# From -- ./inp_files/34115.got.cif
#   From: 2010.03.12/outbox.cif.g09.slc.cpg/sg47_18_cif.got.tgz:34115.got - 2010.04.14 03:12:58.
