data_PCOD8199075
_publ_section_title
;
Structure prediction by ZEFSAII (Michael W. Deem and Ramdas Pophale) SiO2 
 PCOD8199075
Probable space group: P M M M
;
_chemical_formula_sum "Si O2"
_cell_formula_units_Z 48
_cell_length_a 19.061755
_cell_length_b 9.503338
_cell_length_c 15.114193
_cell_angle_alpha 90.000000
_cell_angle_beta 90.000000
_cell_angle_gamma 90.000000
_cell_volume 2737.940606
_symmetry_space_group_name_H-M "P M M M"
_symmetry_group_IT_number 47
_symmetry_cell_setting 'orthorhombic'
loop_
_space_group_symop_operation_xyz
x,y,z
-x,-y,z
x,-y,-z
-x,y,-z
-x,-y,-z
x,y,-z
-x,y,z
x,-y,z
loop_
_atom_site_type_symbol
_atom_site_label
_atom_site_fract_x
_atom_site_fract_y
_atom_site_fract_z
Si Si1 0.179982 0.167498 0.902248
Si Si2 0.180518 0.163095 0.600797
Si Si3 0.337870 0.836934 0.102775
Si Si4 0.419475 0.663797 0.244763
Si Si5 0.683678 0.663363 0.399394
Si Si6 0.921791 0.833085 0.247954
O O1 0.258625 0.215315 0.876684
O O2 0.124073 0.229859 0.832810
O O3 0.178390 0.000000 0.902271
O O4 0.160056 0.223804 0.000000
O O5 0.159303 0.194805 0.500000
O O6 0.248364 0.249770 0.630164
O O7 0.114611 0.210198 0.660020
O O8 0.198800 0.000000 0.616115
O O9 0.391278 0.747832 0.160783
O O10 0.346551 0.000000 0.127718
O O11 0.355777 0.812247 0.000000
O O12 0.500000 0.704109 0.260174
O O13 0.409823 0.500000 0.223720
O O14 0.379502 0.706279 0.334819
O O15 0.661473 0.701196 0.500000
O O16 0.702845 0.500000 0.390900
O O17 0.000000 0.767979 0.245150
O O18 0.926003 0.000000 0.239258
#
# Coordination Sequence:
#
# PCOD8199075 Si02
#       6
#     8   8   8   8   8   8
#     4   8  14  25  41  61  85 114 149 187 223 260
#     4   9  17  29  46  67  90 118 152 189 227 266
#     4   9  18  33  52  71  92 123 161 195 228 271
#     4  10  21  34  48  70  98 124 150 186 235 283
#     4   9  18  33  52  71  91 119 156 194 230 274
#     4   9  16  24  37  61  91 120 148 180 222 270
#
# _framework density 17.531424999999999
#
# number of rings (size 3 to 8) (size 9 to 14) (size 15 to 20)
#    0.000    3.000    0.000    2.000    0.000    4.000 
#    0.000    6.667    0.000    0.500    0.000    5.833 
#    0.000    0.000    0.000   14.333    0.000   11.667 
#
# Total GULP energy -595114.193026 kJ/mol
# GULP energy per Si atom -12398.212355 kJ/mol
# Density = 1.749152 g / cm^3
# Si number density = 17.531425 Si / 1000 Ang^3
#
#
#
# Elastic Constant Matrix: (Units=GPa)
#
#
# Indices 1 2 3 4 5 6 
#
# 1 137.7792 37.2152 79.5822 0.0000 0.0000 0.0000
# 2 37.2152 29.3251 33.0667 0.0000 0.0000 0.0000
# 3 79.5822 33.0667 111.6556 0.0000 0.0000 0.0000
# 4 0.0000 0.0000 0.0000 20.4214 0.0000 0.0000
# 5 0.0000 0.0000 0.0000 0.0000 23.2936 0.0000
# 6 0.0000 0.0000 0.0000 0.0000 0.0000 14.7461
#
#
#
# Elastic Compliance Matrix: (Units=1/GPa)
#
#
# Indices 1 2 3 4 5 6 
#
# 1 0.013982 -0.009769 -0.007072 0.000000 0.000000 0.000000
# 2 -0.009769 0.058022 -0.010221 0.000000 0.000000 0.000000
# 3 -0.007072 -0.010221 0.017024 0.000000 0.000000 0.000000
# 4 0.000000 0.000000 0.000000 0.048968 0.000000 0.000000
# 5 0.000000 0.000000 0.000000 0.000000 0.042930 0.000000
# 6 0.000000 0.000000 0.000000 0.000000 0.000000 0.067815
#
#
# Mechanical properties :
#
#
# Convention : Reuss Voigt Hill
#
# Bulk Modulus (GPa) = 28.64983 64.27647 46.46315
# Shear Modulus (GPa) = 15.89829 20.28525 18.09177
#
# Velocity S-wave (km/s) = 3.01465 3.40528 3.21590
# Velocity P-wave (km/s) = 5.33807 7.22526 6.35214
#
# Compressibility (1/GPa) = 0.03490422
#
# Stress axis : x y z
#
# Youngs Moduli (GPa) = 71.52217 17.23474 58.74145
#
# Poissons Ratio (x) = 0.16836 0.41544
# Poissons Ratio (y) = 0.69869 0.60037
# Poissons Ratio (z) = 0.50583 0.17615
#
# Static dielectric constant tensor:
#      x y z
#    x 3.386530 0.000000 0.000000 
#    y 0.000000 2.886350 0.000000 
#    z 0.000000 0.000000 3.451320 
# 
# 
# High freq. dielectric constant tensor:
#      x y z
#    x 1.675770 0.000000 0.000000 
#    y 0.000000 1.633680 0.000000 
#    z 0.000000 0.000000 1.691760 
# 
# From -- ./inp_files/6342.got.cif
#   From: 2010.03.12/outbox.cif.g09.slc.cpg/sg47_4_cif.got.tgz:6342.got - 2010.04.14 03:12:58.
