data_PCOD8199068
_publ_section_title
;
Structure prediction by ZEFSAII (Michael W. Deem and Ramdas Pophale) SiO2 
 PCOD8199068
Probable space group: P M M M
;
_chemical_formula_sum "Si O2"
_cell_formula_units_Z 56
_cell_length_a 20.233854
_cell_length_b 9.239055
_cell_length_c 15.472200
_cell_angle_alpha 90.000000
_cell_angle_beta 90.000000
_cell_angle_gamma 90.000000
_cell_volume 2892.399216
_symmetry_space_group_name_H-M "P M M M"
_symmetry_group_IT_number 47
_symmetry_cell_setting 'orthorhombic'
loop_
_space_group_symop_operation_xyz
x,y,z
-x,-y,z
x,-y,-z
-x,y,-z
-x,-y,-z
x,y,-z
-x,y,z
x,-y,z
loop_
_atom_site_type_symbol
_atom_site_label
_atom_site_fract_x
_atom_site_fract_y
_atom_site_fract_z
Si Si1 0.173346 0.672338 0.095358
Si Si2 0.304502 0.335765 0.822368
Si Si3 0.254344 0.661147 0.631072
Si Si4 0.573371 0.833241 0.763054
Si Si5 0.873037 0.831930 0.597083
Si Si6 0.925062 0.332464 0.241873
Si Si7 0.400128 0.334339 0.594213
O O1 0.170555 0.500000 0.100153
O O2 0.249614 0.722506 0.110112
O O3 0.122934 0.734248 0.167765
O O4 0.151732 0.727140 0.000000
O O5 0.325905 0.500000 0.842761
O O6 0.266382 0.324765 0.732494
O O7 0.371890 0.242807 0.823542
O O8 0.227919 0.500000 0.609056
O O9 0.202243 0.778409 0.599754
O O10 0.322360 0.692513 0.582492
O O11 0.500000 0.814830 0.804252
O O12 0.569764 0.768615 0.666570
O O13 0.593243 0.000000 0.755248
O O14 0.901218 0.806145 0.500000
O O15 0.916858 0.748158 0.667027
O O16 0.874391 0.000000 0.620958
O O17 0.907847 0.500000 0.258152
O O18 0.000000 0.312706 0.209422
O O19 0.432663 0.303988 0.500000
O O20 0.413210 0.500000 0.623606
#
# Coordination Sequence:
#
# PCOD8199068 Si02
#       7
#     8   8   8   8   8   8   8
#     4   9  17  33  60  92 119 139 169 219 275 329
#     4   9  17  32  55  80 107 139 175 218 268 320
#     4   9  16  30  51  74 102 136 178 226 273 320
#     4  10  21  34  48  70 102 141 182 224 271 321
#     4  11  23  35  50  75 108 148 191 233 276 319
#     4  10  21  38  59  83 113 148 184 222 269 325
#     4   9  18  31  47  69  98 134 177 226 277 327
#
# _framework density 19.361087999999999
#
# number of rings (size 3 to 8) (size 9 to 14) (size 15 to 20)
#    0.000    2.429    1.429    2.143    0.000    6.571 
#    0.000    4.286    0.000    2.143    0.000    4.000 
#    0.000    0.000    0.000    0.000    0.000    0.000 
#
# Total GULP energy -694083.914747 kJ/mol
# GULP energy per Si atom -12394.355620 kJ/mol
# Density = 1.931702 g / cm^3
# Si number density = 19.361088 Si / 1000 Ang^3
#
#
#
# Elastic Constant Matrix: (Units=GPa)
#
#
# Indices 1 2 3 4 5 6 
#
# 1 112.5092 47.0623 46.4557 0.0000 0.0000 0.0000
# 2 47.0623 82.7601 33.5888 0.0000 0.0000 0.0000
# 3 46.4557 33.5888 93.7381 0.0000 0.0000 0.0000
# 4 0.0000 0.0000 0.0000 7.5060 0.0000 0.0000
# 5 0.0000 0.0000 0.0000 0.0000 5.7176 0.0000
# 6 0.0000 0.0000 0.0000 0.0000 0.0000 12.5043
#
#
#
# Elastic Compliance Matrix: (Units=1/GPa)
#
#
# Indices 1 2 3 4 5 6 
#
# 1 0.013088 -0.005629 -0.004469 0.000000 0.000000 0.000000
# 2 -0.005629 0.016560 -0.003144 0.000000 0.000000 0.000000
# 3 -0.004469 -0.003144 0.014010 0.000000 0.000000 0.000000
# 4 0.000000 0.000000 0.000000 0.133226 0.000000 0.000000
# 5 0.000000 0.000000 0.000000 0.000000 0.174899 0.000000
# 6 0.000000 0.000000 0.000000 0.000000 0.000000 0.079973
#
#
# Mechanical properties :
#
#
# Convention : Reuss Voigt Hill
#
# Bulk Modulus (GPa) = 58.23126 60.35790 59.29458
# Shear Modulus (GPa) = 10.77668 15.93895 13.35781
#
# Velocity S-wave (km/s) = 2.36183 2.87234 2.62950
# Velocity P-wave (km/s) = 6.13020 6.49946 6.31753
#
# Compressibility (1/GPa) = 0.01717291
#
# Stress axis : x y z
#
# Youngs Moduli (GPa) = 76.40534 60.38603 71.37889
#
# Poissons Ratio (x) = 0.33990 0.31902
# Poissons Ratio (y) = 0.43006 0.22444
# Poissons Ratio (z) = 0.34149 0.18988
#
# Static dielectric constant tensor:
#      x y z
#    x 3.564380 0.000000 0.000000 
#    y 0.000000 3.292220 0.000000 
#    z 0.000000 0.000000 3.672060 
# 
# 
# High freq. dielectric constant tensor:
#      x y z
#    x 1.757100 0.000000 0.000000 
#    y 0.000000 1.724620 0.000000 
#    z 0.000000 0.000000 1.737270 
# 
# From -- ./inp_files/25132.got.cif
#   From: 2010.03.12/outbox.cif.g09.slc.cpg/sg47_13_cif.got.tgz:25132.got - 2010.04.14 03:12:58.
