data_PCOD8199352
_publ_section_title
;
Structure prediction by ZEFSAII (Michael W. Deem and Ramdas Pophale) SiO2 
 PCOD8199352
Probable space group: P M M M
;
_chemical_formula_sum "Si O2"
_cell_formula_units_Z 60
_cell_length_a 9.166807
_cell_length_b 18.074568
_cell_length_c 19.086113
_cell_angle_alpha 90.000000
_cell_angle_beta 90.000000
_cell_angle_gamma 90.000000
_cell_volume 3162.303178
_symmetry_space_group_name_H-M "P M M M"
_symmetry_group_IT_number 47
_symmetry_cell_setting 'orthorhombic'
loop_
_space_group_symop_operation_xyz
x,y,z
-x,-y,z
x,-y,-z
-x,y,-z
-x,-y,-z
x,y,-z
-x,y,z
x,-y,z
loop_
_atom_site_type_symbol
_atom_site_label
_atom_site_fract_x
_atom_site_fract_y
_atom_site_fract_z
Si Si1 0.831104 0.212903 0.419282
Si Si2 0.331279 0.333796 0.078116
Si Si3 0.672243 0.083583 0.343039
Si Si4 0.668133 0.585233 0.784716
Si Si5 0.331690 0.500000 0.417179
Si Si6 0.170501 0.814734 0.920363
Si Si7 0.663374 0.086802 0.184927
Si Si8 0.827069 0.364110 0.654874
O O1 0.796198 0.229195 0.500000
O O2 0.745020 0.140311 0.396123
O O3 0.781445 0.284747 0.375888
O O4 0.000000 0.196459 0.406668
O O5 0.500000 0.311666 0.079482
O O6 0.296285 0.397963 0.133977
O O7 0.242103 0.262305 0.101415
O O8 0.285864 0.361154 0.000000
O O9 0.500000 0.088108 0.352115
O O10 0.715912 0.105187 0.263659
O O11 0.725538 0.000000 0.360182
O O12 0.500000 0.604047 0.767996
O O13 0.702809 0.500000 0.770023
O O14 0.771765 0.633905 0.735007
O O15 0.500000 0.500000 0.391781
O O16 0.320098 0.500000 0.500000
O O17 0.253001 0.427175 0.389119
O O18 0.225979 0.878579 0.869886
O O19 0.000000 0.805947 0.910282
O O20 0.211890 0.835849 0.000000
O O21 0.500000 0.117937 0.172658
O O22 0.664261 0.000000 0.172581
O O23 0.000000 0.377017 0.651067
#
# Coordination Sequence:
#
# PCOD8199352 Si02
#       8
#     8   8   8   8   4   8   8   8
#     4  10  23  41  59  84 117 151 189 232 280 338
#     4   9  19  36  57  81 111 150 192 232 280 335
#     4   9  20  39  61  86 115 147 187 235 285 337
#     4  10  21  37  58  85 116 148 187 236 284 332
#     4  11  23  39  61  87 116 151 192 239 289 340
#     4  10  21  35  52  78 112 147 185 231 280 330
#     4   9  19  36  56  79 108 143 184 228 276 333
#     4  11  23  39  59  85 118 155 194 235 282 343
#
# _framework density 18.973514000000002
#
# number of rings (size 3 to 8) (size 9 to 14) (size 15 to 20)
#    0.000    2.200    0.667    2.200    1.867    5.600 
#    0.000    5.333    0.000    0.000    0.000    2.800 
#    0.000    0.000    0.000    0.000    0.000    0.000 
#
# Total GULP energy -744099.601970 kJ/mol
# GULP energy per Si atom -12401.660033 kJ/mol
# Density = 1.893033 g / cm^3
# Si number density = 18.973514 Si / 1000 Ang^3
#
#
#
# Elastic Constant Matrix: (Units=GPa)
#
#
# Indices 1 2 3 4 5 6 
#
# 1 66.0083 44.2772 41.7613 0.0000 0.0000 0.0000
# 2 44.2772 96.2045 55.0815 0.0000 0.0000 0.0000
# 3 41.7613 55.0815 106.1357 0.0000 0.0000 0.0000
# 4 0.0000 0.0000 0.0000 35.4085 0.0000 0.0000
# 5 0.0000 0.0000 0.0000 0.0000 30.2581 0.0000
# 6 0.0000 0.0000 0.0000 0.0000 0.0000 24.9700
#
#
#
# Elastic Compliance Matrix: (Units=1/GPa)
#
#
# Indices 1 2 3 4 5 6 
#
# 1 0.023798 -0.007955 -0.005235 0.000000 0.000000 0.000000
# 2 -0.007955 0.017448 -0.005925 0.000000 0.000000 0.000000
# 3 -0.005235 -0.005925 0.014557 0.000000 0.000000 0.000000
# 4 0.000000 0.000000 0.000000 0.028242 0.000000 0.000000
# 5 0.000000 0.000000 0.000000 0.000000 0.033049 0.000000
# 6 0.000000 0.000000 0.000000 0.000000 0.000000 0.040048
#
#
# Mechanical properties :
#
#
# Convention : Reuss Voigt Hill
#
# Bulk Modulus (GPa) = 56.90911 61.17648 59.04280
# Shear Modulus (GPa) = 24.84716 26.60923 25.72819
#
# Velocity S-wave (km/s) = 3.62273 3.74898 3.68639
# Velocity P-wave (km/s) = 6.89623 7.14513 7.02178
#
# Compressibility (1/GPa) = 0.01757188
#
# Stress axis : x y z
#
# Youngs Moduli (GPa) = 42.02016 57.31242 68.69703
#
# Poissons Ratio (x) = 0.45595 0.35964
# Poissons Ratio (y) = 0.33429 0.40702
# Poissons Ratio (z) = 0.21998 0.33957
#
# Static dielectric constant tensor:
#      x y z
#    x 3.473530 0.000000 0.000000 
#    y 0.000000 3.444500 0.000000 
#    z 0.000000 0.000000 3.646490 
# 
# 
# High freq. dielectric constant tensor:
#      x y z
#    x 1.733750 0.000000 0.000000 
#    y 0.000000 1.735010 0.000000 
#    z 0.000000 0.000000 1.749100 
# 
# From -- ./inp_files/27031.got.cif
#   From: 2010.03.12/outbox.cif.g09.slc.cpg/sg47_14_cif.got.tgz:27031.got - 2010.04.14 03:12:58.
