data_PCOD8199869
_publ_section_title
;
Structure prediction by ZEFSAII (Michael W. Deem and Ramdas Pophale) SiO2 
 PCOD8199869
Probable space group: P M M M
;
_chemical_formula_sum "Si O2"
_cell_formula_units_Z 48
_cell_length_a 8.896339
_cell_length_b 9.216887
_cell_length_c 30.897324
_cell_angle_alpha 90.000000
_cell_angle_beta 90.000000
_cell_angle_gamma 90.000000
_cell_volume 2533.474012
_symmetry_space_group_name_H-M "P M M M"
_symmetry_group_IT_number 47
_symmetry_cell_setting 'orthorhombic'
loop_
_space_group_symop_operation_xyz
x,y,z
-x,-y,z
x,-y,-z
-x,y,-z
-x,-y,-z
x,y,-z
-x,y,z
x,-y,z
loop_
_atom_site_type_symbol
_atom_site_label
_atom_site_fract_x
_atom_site_fract_y
_atom_site_fract_z
Si Si1 0.823345 0.331151 0.920488
Si Si2 0.824462 0.667496 0.329775
Si Si3 0.171610 0.168678 0.754438
Si Si4 0.677555 0.665654 0.416951
Si Si5 0.320802 0.163540 0.500000
Si Si6 0.324616 0.168457 0.156863
Si Si7 0.678011 0.832932 0.000000
O O1 0.780411 0.500000 0.923465
O O2 0.770826 0.268767 0.874788
O O3 0.000000 0.307591 0.925861
O O4 0.739400 0.244959 0.957778
O O5 0.783566 0.500000 0.323646
O O6 0.763521 0.749353 0.287426
O O7 0.744480 0.730203 0.372556
O O8 0.000000 0.695034 0.335405
O O9 0.275572 0.210869 0.794827
O O10 0.000000 0.215829 0.764568
O O11 0.181161 0.000000 0.744078
O O12 0.500000 0.677895 0.414235
O O13 0.730042 0.500000 0.423521
O O14 0.741622 0.756775 0.457286
O O15 0.500000 0.168747 0.500000
O O16 0.259892 0.000000 0.500000
O O17 0.500000 0.201087 0.150829
O O18 0.288089 0.000000 0.147214
O O19 0.500000 0.821502 0.000000
O O20 0.730720 0.000000 0.000000
#
# Coordination Sequence:
#
# PCOD8199869 Si02
#       7
#     8   8   8   8   4   8   4
#     4  11  24  40  59  85 115 147 185 226 268 317
#     4   9  18  32  49  70  97 128 163 204 249 298
#     4   9  18  33  52  73 100 136 173 209 254 307
#     4   9  17  30  48  68  91 122 159 197 240 293
#     4   9  17  29  46  69  94 120 154 197 242 288
#     4  10  21  37  57  82 111 143 181 223 267 317
#     4  11  24  41  62  88 116 147 184 225 270 320
#
# _framework density 18.946315999999999
#
# number of rings (size 3 to 8) (size 9 to 14) (size 15 to 20)
#    0.000    2.333    0.000    2.250    0.000    9.000 
#    0.000    2.083    0.000    2.500    0.000    0.000 
#    0.000    0.000    0.000    0.000    0.000    0.000 
#
# Total GULP energy -595327.607883 kJ/mol
# GULP energy per Si atom -12402.658498 kJ/mol
# Density = 1.890319 g / cm^3
# Si number density = 18.946316 Si / 1000 Ang^3
#
#
#
# Elastic Constant Matrix: (Units=GPa)
#
#
# Indices 1 2 3 4 5 6 
#
# 1 43.4587 40.3724 36.2054 0.0000 0.0000 0.0000
# 2 40.3724 104.3579 80.8649 0.0000 0.0000 0.0000
# 3 36.2054 80.8649 157.1456 0.0000 0.0000 0.0000
# 4 0.0000 0.0000 0.0000 41.6243 0.0000 0.0000
# 5 0.0000 0.0000 0.0000 0.0000 38.7439 0.0000
# 6 0.0000 0.0000 0.0000 0.0000 0.0000 22.7459
#
#
#
# Elastic Compliance Matrix: (Units=1/GPa)
#
#
# Indices 1 2 3 4 5 6 
#
# 1 0.036253 -0.012562 -0.001888 0.000000 0.000000 0.000000
# 2 -0.012562 0.020290 -0.007547 0.000000 0.000000 0.000000
# 3 -0.001888 -0.007547 0.010682 0.000000 0.000000 0.000000
# 4 0.000000 0.000000 0.000000 0.024024 0.000000 0.000000
# 5 0.000000 0.000000 0.000000 0.000000 0.025811 0.000000
# 6 0.000000 0.000000 0.000000 0.000000 0.000000 0.043964
#
#
# Mechanical properties :
#
#
# Convention : Reuss Voigt Hill
#
# Bulk Modulus (GPa) = 43.04531 68.87197 55.95864
# Shear Modulus (GPa) = 23.50042 30.45744 26.97893
#
# Velocity S-wave (km/s) = 3.52571 4.01380 3.77764
# Velocity P-wave (km/s) = 6.27241 7.60991 6.97330
#
# Compressibility (1/GPa) = 0.02323133
#
# Stress axis : x y z
#
# Youngs Moduli (GPa) = 27.58366 49.28534 93.61486
#
# Poissons Ratio (x) = 0.61912 0.17678
# Poissons Ratio (y) = 0.34650 0.70649
# Poissons Ratio (z) = 0.05209 0.37195
#
# Static dielectric constant tensor:
#      x y z
#    x 3.347270 0.000000 0.000000 
#    y 0.000000 3.536440 0.000000 
#    z 0.000000 0.000000 3.726570 
# 
# 
# High freq. dielectric constant tensor:
#      x y z
#    x 1.723960 0.000000 0.000000 
#    y 0.000000 1.733140 0.000000 
#    z 0.000000 0.000000 1.752590 
# 
# From -- ./inp_files/34094.got.cif
#   From: 2010.03.12/outbox.cif.g09.slc.cpg/sg47_18_cif.got.tgz:34094.got - 2010.04.14 03:12:58.
