data_PCOD8199058
_publ_section_title
;
Structure prediction by ZEFSAII (Michael W. Deem and Ramdas Pophale) SiO2 
 PCOD8199058
Probable space group: P M M M
;
_chemical_formula_sum "Si O2"
_cell_formula_units_Z 56
_cell_length_a 28.797099
_cell_length_b 9.553799
_cell_length_c 13.708764
_cell_angle_alpha 90.000000
_cell_angle_beta 90.000000
_cell_angle_gamma 90.000000
_cell_volume 3771.578397
_symmetry_space_group_name_H-M "P M M M"
_symmetry_group_IT_number 47
_symmetry_cell_setting 'orthorhombic'
loop_
_space_group_symop_operation_xyz
x,y,z
-x,-y,z
x,-y,-z
-x,y,-z
-x,-y,-z
x,y,-z
-x,y,z
x,-y,z
loop_
_atom_site_type_symbol
_atom_site_label
_atom_site_fract_x
_atom_site_fract_y
_atom_site_fract_z
Si Si1 0.909124 0.161086 0.611628
Si Si2 0.873928 0.161007 0.889316
Si Si3 0.551087 0.843456 0.384075
Si Si4 0.946687 0.661299 0.780579
Si Si5 0.632696 0.654589 0.615803
Si Si6 0.736077 0.334270 0.611053
Si Si7 0.813068 0.841121 0.290307
O O1 0.918724 0.199829 0.500000
O O2 0.940486 0.263029 0.676504
O O3 0.855038 0.185652 0.634728
O O4 0.922492 0.000000 0.634055
O O5 0.916878 0.260956 0.863256
O O6 0.830302 0.193416 0.819328
O O7 0.889878 0.000000 0.873697
O O8 0.858307 0.189488 0.000000
O O9 0.555254 0.844475 0.500000
O O10 0.500000 0.785154 0.353942
O O11 0.592286 0.750669 0.337959
O O12 0.557154 0.000000 0.343399
O O13 0.930569 0.500000 0.771586
O O14 0.000000 0.670549 0.812820
O O15 0.628107 0.647740 0.500000
O O16 0.625854 0.500000 0.659913
O O17 0.683983 0.711762 0.642095
O O18 0.746368 0.286581 0.500000
O O19 0.741604 0.500000 0.620238
O O20 0.771063 0.260883 0.684926
O O21 0.795159 0.000000 0.298413
#
# Coordination Sequence:
#
# PCOD8199058 Si02
#       7
#     8   8   8   8   8   8   8
#     4   9  18  32  48  65  86 113 144 173 197 228
#     4   9  19  36  54  68  83 105 133 165 200 240
#     4   8  13  20  29  42  61  86 120 164 208 241
#     4  10  21  34  47  67  93 114 133 162 199 238
#     4   8  14  23  32  44  65  94 129 164 194 228
#     4   9  17  27  38  55  81 110 136 163 197 236
#     4   9  17  29  45  64  82 100 128 164 199 236
#
# _framework density 14.847894999999999
#
# number of rings (size 3 to 8) (size 9 to 14) (size 15 to 20)
#    0.000    3.143    0.000    3.000    0.000    6.286 
#    0.000    5.714    0.000    0.000    0.000    0.000 
#    0.000    0.000    0.000    0.000    0.000    0.714 
#
# Total GULP energy -694149.168307 kJ/mol
# GULP energy per Si atom -12395.520863 kJ/mol
# Density = 1.481410 g / cm^3
# Si number density = 14.847895 Si / 1000 Ang^3
#
#
#
# Elastic Constant Matrix: (Units=GPa)
#
#
# Indices 1 2 3 4 5 6 
#
# 1 104.3269 58.6207 32.9748 0.0000 0.0000 0.0000
# 2 58.6207 76.5221 32.5218 0.0000 0.0000 0.0000
# 3 32.9748 32.5218 68.6641 0.0000 0.0000 0.0000
# 4 0.0000 0.0000 0.0000 12.4398 0.0000 0.0000
# 5 0.0000 0.0000 0.0000 0.0000 8.6439 0.0000
# 6 0.0000 0.0000 0.0000 0.0000 0.0000 29.8037
#
#
#
# Elastic Compliance Matrix: (Units=1/GPa)
#
#
# Indices 1 2 3 4 5 6 
#
# 1 0.017172 -0.012082 -0.002524 0.000000 0.000000 0.000000
# 2 -0.012082 0.024862 -0.005974 0.000000 0.000000 0.000000
# 3 -0.002524 -0.005974 0.018605 0.000000 0.000000 0.000000
# 4 0.000000 0.000000 0.000000 0.080387 0.000000 0.000000
# 5 0.000000 0.000000 0.000000 0.000000 0.115689 0.000000
# 6 0.000000 0.000000 0.000000 0.000000 0.000000 0.033553
#
#
# Mechanical properties :
#
#
# Convention : Reuss Voigt Hill
#
# Bulk Modulus (GPa) = 51.33425 55.30530 53.31977
# Shear Modulus (GPa) = 14.79636 18.53720 16.66678
#
# Velocity S-wave (km/s) = 3.16021 3.53721 3.35401
# Velocity P-wave (km/s) = 6.92563 7.34923 7.14057
#
# Compressibility (1/GPa) = 0.01948017
#
# Stress axis : x y z
#
# Youngs Moduli (GPa) = 58.23498 40.22135 53.74878
#
# Poissons Ratio (x) = 0.48595 0.13566
# Poissons Ratio (y) = 0.70359 0.32107
# Poissons Ratio (z) = 0.14699 0.24027
#
# Static dielectric constant tensor:
#      x y z
#    x 2.910340 0.000000 0.000000 
#    y 0.000000 3.006010 0.000000 
#    z 0.000000 0.000000 2.587680 
# 
# 
# High freq. dielectric constant tensor:
#      x y z
#    x 1.563630 0.000000 0.000000 
#    y 0.000000 1.573330 0.000000 
#    z 0.000000 0.000000 1.519840 
# 
# From -- ./inp_files/8176.got.cif
#   From: 2010.03.12/outbox.cif.g09.slc.cpg/sg47_5_cif.got.tgz:8176.got - 2010.04.14 03:12:58.
