data_PCOD8199405
_publ_section_title
;
Structure prediction by ZEFSAII (Michael W. Deem and Ramdas Pophale) SiO2 
 PCOD8199405
Probable space group: P M M M
;
_chemical_formula_sum "Si O2"
_cell_formula_units_Z 44
_cell_length_a 14.090328
_cell_length_b 18.072992
_cell_length_c 9.152041
_cell_angle_alpha 90.000000
_cell_angle_beta 90.000000
_cell_angle_gamma 90.000000
_cell_volume 2330.607374
_symmetry_space_group_name_H-M "P M M M"
_symmetry_group_IT_number 47
_symmetry_cell_setting 'orthorhombic'
loop_
_space_group_symop_operation_xyz
x,y,z
-x,-y,z
x,-y,-z
-x,y,-z
-x,-y,-z
x,y,-z
-x,y,z
x,-y,z
loop_
_atom_site_type_symbol
_atom_site_label
_atom_site_fract_x
_atom_site_fract_y
_atom_site_fract_z
Si Si1 0.108528 0.586045 0.832412
Si Si2 0.886497 0.000000 0.661256
Si Si3 0.610503 0.224654 0.170126
Si Si4 0.893842 0.158643 0.674628
Si Si5 0.612485 0.918780 0.336182
Si Si6 0.229614 0.703764 0.673116
O O1 0.129818 0.500000 0.808934
O O2 0.178558 0.629834 0.726570
O O3 0.000000 0.604010 0.789490
O O4 0.127340 0.608556 0.000000
O O5 0.855150 0.078408 0.735923
O O6 0.841956 0.000000 0.500000
O O7 0.000000 0.000000 0.652053
O O8 0.500000 0.235884 0.205493
O O9 0.647558 0.144672 0.226580
O O10 0.666371 0.289665 0.254543
O O11 0.632199 0.229947 0.000000
O O12 0.895239 0.155533 0.500000
O O13 0.828741 0.225107 0.730626
O O14 0.000000 0.173583 0.733732
O O15 0.646053 0.897279 0.500000
O O16 0.500000 0.924509 0.331135
O O17 0.654808 0.000000 0.292790
O O18 0.239190 0.700643 0.500000
#
# Coordination Sequence:
#
# PCOD8199405 Si02
#       6
#     8   4   8   8   8   8
#     4   9  19  37  60  85 114 147 178 208 251 314
#     4   7  10  20  38  58  88 131 170 202 239 287
#     4  10  21  36  52  70  98 140 187 230 273 325
#     4   8  14  25  42  67  99 133 168 207 252 304
#     4   8  14  27  48  71  94 123 165 222 283 332
#     4  11  21  32  51  81 111 138 174 223 274 323
#
# _framework density 18.879199
#
# number of rings (size 3 to 8) (size 9 to 14) (size 15 to 20)
#    0.000    3.000    0.000    3.818    0.000    2.909 
#    1.636    2.727    0.000    0.545    0.000    3.818 
#    0.000    5.818    0.000    0.000    0.000    0.000 
#
# Total GULP energy -545304.089479 kJ/mol
# GULP energy per Si atom -12393.274761 kJ/mol
# Density = 1.883623 g / cm^3
# Si number density = 18.879199 Si / 1000 Ang^3
#
#
#
# Elastic Constant Matrix: (Units=GPa)
#
#
# Indices 1 2 3 4 5 6 
#
# 1 65.7356 49.7399 48.3717 0.0000 0.0000 0.0000
# 2 49.7399 95.8360 49.9270 0.0000 0.0000 0.0000
# 3 48.3717 49.9270 84.0606 0.0000 0.0000 0.0000
# 4 0.0000 0.0000 0.0000 30.0518 0.0000 0.0000
# 5 0.0000 0.0000 0.0000 0.0000 21.2182 0.0000
# 6 0.0000 0.0000 0.0000 0.0000 0.0000 30.9070
#
#
#
# Elastic Compliance Matrix: (Units=1/GPa)
#
#
# Indices 1 2 3 4 5 6 
#
# 1 0.032020 -0.010165 -0.012388 0.000000 0.000000 0.000000
# 2 -0.010165 0.018337 -0.005042 0.000000 0.000000 0.000000
# 3 -0.012388 -0.005042 0.022019 0.000000 0.000000 0.000000
# 4 0.000000 0.000000 0.000000 0.033276 0.000000 0.000000
# 5 0.000000 0.000000 0.000000 0.000000 0.047129 0.000000
# 6 0.000000 0.000000 0.000000 0.000000 0.000000 0.032355
#
#
# Mechanical properties :
#
#
# Convention : Reuss Voigt Hill
#
# Bulk Modulus (GPa) = 58.18540 60.18993 59.18766
# Shear Modulus (GPa) = 20.32077 22.94163 21.63120
#
# Velocity S-wave (km/s) = 3.28435 3.48973 3.38859
# Velocity P-wave (km/s) = 6.72825 6.94179 6.83585
#
# Compressibility (1/GPa) = 0.01718644
#
# Stress axis : x y z
#
# Youngs Moduli (GPa) = 31.23084 54.53560 45.41494
#
# Poissons Ratio (x) = 0.55434 0.56260
# Poissons Ratio (y) = 0.31746 0.22897
# Poissons Ratio (z) = 0.38689 0.27495
#
# Static dielectric constant tensor:
#      x y z
#    x 3.435250 0.000000 0.000000 
#    y 0.000000 3.543550 0.000000 
#    z 0.000000 0.000000 3.113750 
# 
# 
# High freq. dielectric constant tensor:
#      x y z
#    x 1.731830 0.000000 0.000000 
#    y 0.000000 1.724560 0.000000 
#    z 0.000000 0.000000 1.696500 
# 
# From -- ./inp_files/6116.got.cif
#   From: 2010.03.12/outbox.cif.g09.slc.cpg/sg47_4_cif.got.tgz:6116.got - 2010.04.14 03:12:58.
