data_PCOD8199565
_publ_section_title
;
Structure prediction by ZEFSAII (Michael W. Deem and Ramdas Pophale) SiO2 
 PCOD8199565
Probable space group: P M M M
;
_chemical_formula_sum "Si O2"
_cell_formula_units_Z 32
_cell_length_a 18.762611
_cell_length_b 7.967960
_cell_length_c 10.349615
_cell_angle_alpha 90.000000
_cell_angle_beta 90.000000
_cell_angle_gamma 90.000000
_cell_volume 1547.264689
_symmetry_space_group_name_H-M "P M M M"
_symmetry_group_IT_number 47
_symmetry_cell_setting 'orthorhombic'
loop_
_space_group_symop_operation_xyz
x,y,z
-x,-y,z
x,-y,-z
-x,y,-z
-x,-y,-z
x,y,-z
-x,y,z
x,-y,z
loop_
_atom_site_type_symbol
_atom_site_label
_atom_site_fract_x
_atom_site_fract_y
_atom_site_fract_z
Si Si1 0.920072 0.807241 0.726262
Si Si2 0.420951 0.500000 0.152383
Si Si3 0.776704 0.690932 0.643057
Si Si4 0.916557 0.684792 0.000000
Si Si5 0.325074 0.811410 0.851619
O O1 0.862522 0.710015 0.640403
O O2 0.000000 0.732494 0.704776
O O3 0.919774 0.000000 0.686008
O O4 0.894274 0.788918 0.874351
O O5 0.500000 0.500000 0.214863
O O6 0.381459 0.328756 0.196261
O O7 0.427594 0.500000 0.000000
O O8 0.748714 0.742243 0.500000
O O9 0.756325 0.500000 0.672997
O O10 0.742121 0.804976 0.754750
O O11 0.879584 0.500000 0.000000
O O12 0.000000 0.658877 0.000000
O O13 0.357918 0.000000 0.842835
O O14 0.300815 0.774734 0.000000
#
# Coordination Sequence:
#
# PCOD8199565 Si02
#       5
#     8   4   8   4   8
#     4  10  21  36  54  78 109 147 195 250 307 364
#     4   9  18  36  63  97 134 163 192 240 294 344
#     4  11  24  40  59  83 114 157 204 252 306 359
#     4   9  17  31  51  75 103 137 179 234 299 356
#     4  10  21  38  63  94 125 162 204 243 292 355
#
# _framework density 20.681659
#
# number of rings (size 3 to 8) (size 9 to 14) (size 15 to 20)
#    0.000    2.000    1.250    1.875    1.750    6.000 
#    0.000    5.000    0.000    1.500    0.000    1.750 
#    0.000    0.000    0.000    0.000    0.000    0.000 
#
# Total GULP energy -396630.686441 kJ/mol
# GULP energy per Si atom -12394.708951 kJ/mol
# Density = 2.063459 g / cm^3
# Si number density = 20.681659 Si / 1000 Ang^3
#
#
#
# Elastic Constant Matrix: (Units=GPa)
#
#
# Indices 1 2 3 4 5 6 
#
# 1 99.1542 41.5572 37.7661 0.0000 0.0000 0.0000
# 2 41.5572 110.9250 35.6254 0.0000 0.0000 0.0000
# 3 37.7661 35.6254 86.2500 0.0000 0.0000 0.0000
# 4 0.0000 0.0000 0.0000 19.4288 0.0000 0.0000
# 5 0.0000 0.0000 0.0000 0.0000 11.0742 0.0000
# 6 0.0000 0.0000 0.0000 0.0000 0.0000 25.0908
#
#
#
# Elastic Compliance Matrix: (Units=1/GPa)
#
#
# Indices 1 2 3 4 5 6 
#
# 1 0.013225 -0.003568 -0.004317 0.000000 0.000000 0.000000
# 2 -0.003568 0.011357 -0.003128 0.000000 0.000000 0.000000
# 3 -0.004317 -0.003128 0.014777 0.000000 0.000000 0.000000
# 4 0.000000 0.000000 0.000000 0.051470 0.000000 0.000000
# 5 0.000000 0.000000 0.000000 0.000000 0.090300 0.000000
# 6 0.000000 0.000000 0.000000 0.000000 0.000000 0.039855
#
#
# Mechanical properties :
#
#
# Convention : Reuss Voigt Hill
#
# Bulk Modulus (GPa) = 57.69967 58.46961 58.08464
# Shear Modulus (GPa) = 20.09748 23.21081 21.65414
#
# Velocity S-wave (km/s) = 3.12068 3.35369 3.23928
# Velocity P-wave (km/s) = 6.39878 6.58247 6.49128
#
# Compressibility (1/GPa) = 0.01733112
#
# Stress axis : x y z
#
# Youngs Moduli (GPa) = 75.61406 88.05416 67.67422
#
# Poissons Ratio (x) = 0.31419 0.29215
# Poissons Ratio (y) = 0.26981 0.21172
# Poissons Ratio (z) = 0.32643 0.27547
#
# Static dielectric constant tensor:
#      x y z
#    x 3.607810 0.000000 0.000000 
#    y 0.000000 3.745190 0.000000 
#    z 0.000000 0.000000 3.679190 
# 
# 
# High freq. dielectric constant tensor:
#      x y z
#    x 1.775690 0.000000 0.000000 
#    y 0.000000 1.815060 0.000000 
#    z 0.000000 0.000000 1.793520 
# 
# From -- ./inp_files/18822.got.cif
#   From: 2010.03.12/outbox.cif.g09.slc.cpg/sg47_10_cif.got.tgz:18822.got - 2010.04.14 03:12:58.
