data_PCOD8199396
_publ_section_title
;
Structure prediction by ZEFSAII (Michael W. Deem and Ramdas Pophale) SiO2 
 PCOD8199396
Probable space group: P M M M
;
_chemical_formula_sum "Si O2"
_cell_formula_units_Z 52
_cell_length_a 26.411591
_cell_length_b 9.041678
_cell_length_c 14.223286
_cell_angle_alpha 90.000000
_cell_angle_beta 90.000000
_cell_angle_gamma 90.000000
_cell_volume 3396.593254
_symmetry_space_group_name_H-M "P M M M"
_symmetry_group_IT_number 47
_symmetry_cell_setting 'orthorhombic'
loop_
_space_group_symop_operation_xyz
x,y,z
-x,-y,z
x,-y,-z
-x,y,-z
-x,-y,-z
x,y,-z
-x,y,z
x,-y,z
loop_
_atom_site_type_symbol
_atom_site_label
_atom_site_fract_x
_atom_site_fract_y
_atom_site_fract_z
Si Si1 0.838400 0.666397 0.612364
Si Si2 0.398265 0.674452 0.892044
Si Si3 0.500000 0.833762 0.111275
Si Si4 0.442087 0.330280 0.609741
Si Si5 0.356635 0.174973 0.275872
Si Si6 0.053628 0.324065 0.394442
Si Si7 0.260543 0.825586 0.393620
O O1 0.841409 0.671549 0.500000
O O2 0.828772 0.500000 0.647892
O O3 0.892927 0.729104 0.652362
O O4 0.791930 0.764602 0.649659
O O5 0.401363 0.500000 0.878184
O O6 0.450843 0.744277 0.855433
O O7 0.355137 0.745430 0.826061
O O8 0.386453 0.716145 0.000000
O O9 0.500000 0.000000 0.153873
O O10 0.500000 0.842128 0.000000
O O11 0.432982 0.302579 0.500000
O O12 0.500000 0.293178 0.636406
O O13 0.429516 0.500000 0.635783
O O14 0.406255 0.221007 0.666753
O O15 0.307087 0.230919 0.331050
O O16 0.356678 0.000000 0.261545
O O17 0.051035 0.261470 0.500000
O O18 0.056785 0.500000 0.397708
O O19 0.000000 0.275657 0.343549
O O20 0.268752 0.766751 0.500000
O O21 0.257335 0.000000 0.392648
#
# Coordination Sequence:
#
# PCOD8199396 Si02
#       7
#     8   8   4   8   8   8   8
#     4   8  13  21  35  54  73  98 135 174 208 241
#     4  10  21  36  52  69  89 111 133 162 204 251
#     4   9  17  31  51  71  88 105 126 153 187 233
#     4   9  19  35  51  66  86 111 137 168 208 251
#     4  11  22  33  48  67  86 110 141 174 209 250
#     4   7   9  14  26  46  71  96 125 165 208 243
#     4   9  18  31  43  57  81 111 141 174 211 246
#
# _framework density 15.309456000000001
#
# number of rings (size 3 to 8) (size 9 to 14) (size 15 to 20)
#    0.000    3.000    0.000    3.462    1.077    4.308 
#    0.000    2.308    0.000    0.462    0.000    3.231 
#    0.000    0.000    0.000    0.000    0.000    0.769 
#
# Total GULP energy -644259.862575 kJ/mol
# GULP energy per Si atom -12389.612742 kJ/mol
# Density = 1.527461 g / cm^3
# Si number density = 15.309456 Si / 1000 Ang^3
#
#
#
# Elastic Constant Matrix: (Units=GPa)
#
#
# Indices 1 2 3 4 5 6 
#
# 1 135.0360 38.0082 48.9213 0.0000 0.0000 0.0000
# 2 38.0082 46.6191 22.6013 0.0000 0.0000 0.0000
# 3 48.9213 22.6013 49.7233 0.0000 0.0000 0.0000
# 4 0.0000 0.0000 0.0000 18.4005 0.0000 0.0000
# 5 0.0000 0.0000 0.0000 0.0000 5.0771 0.0000
# 6 0.0000 0.0000 0.0000 0.0000 0.0000 13.8024
#
#
#
# Elastic Compliance Matrix: (Units=1/GPa)
#
#
# Indices 1 2 3 4 5 6 
#
# 1 0.012491 -0.005420 -0.009826 0.000000 0.000000 0.000000
# 2 -0.005420 0.029865 -0.008243 0.000000 0.000000 0.000000
# 3 -0.009826 -0.008243 0.033525 0.000000 0.000000 0.000000
# 4 0.000000 0.000000 0.000000 0.054346 0.000000 0.000000
# 5 0.000000 0.000000 0.000000 0.000000 0.196961 0.000000
# 6 0.000000 0.000000 0.000000 0.000000 0.000000 0.072451
#
#
# Mechanical properties :
#
#
# Convention : Reuss Voigt Hill
#
# Bulk Modulus (GPa) = 34.59627 50.04888 42.32258
# Shear Modulus (GPa) = 10.95889 15.57917 13.26903
#
# Velocity S-wave (km/s) = 2.67839 3.19347 2.94721
# Velocity P-wave (km/s) = 5.67557 6.80883 6.26786
#
# Compressibility (1/GPa) = 0.02890485
#
# Stress axis : x y z
#
# Youngs Moduli (GPa) = 80.06020 33.48358 29.82857
#
# Poissons Ratio (x) = 0.18148 0.29308
# Poissons Ratio (y) = 0.43393 0.24586
# Poissons Ratio (z) = 0.78663 0.27599
#
# Static dielectric constant tensor:
#      x y z
#    x 3.327280 0.000000 0.000000 
#    y 0.000000 2.826940 0.000000 
#    z 0.000000 0.000000 2.680990 
# 
# 
# High freq. dielectric constant tensor:
#      x y z
#    x 1.588910 0.000000 0.000000 
#    y 0.000000 1.578260 0.000000 
#    z 0.000000 0.000000 1.535880 
# 
# From -- ./inp_files/25698.got.cif
#   From: 2010.03.12/outbox.cif.g09.slc.cpg/sg47_13_cif.got.tgz:25698.got - 2010.04.14 03:12:58.
