data_PCOD8199432
_publ_section_title
;
Structure prediction by ZEFSAII (Michael W. Deem and Ramdas Pophale) SiO2 
 PCOD8199432
Probable space group: P M M M
;
_chemical_formula_sum "Si O2"
_cell_formula_units_Z 64
_cell_length_a 23.412405
_cell_length_b 14.926434
_cell_length_c 9.129233
_cell_angle_alpha 90.000000
_cell_angle_beta 90.000000
_cell_angle_gamma 90.000000
_cell_volume 3190.335707
_symmetry_space_group_name_H-M "P M M M"
_symmetry_group_IT_number 47
_symmetry_cell_setting 'orthorhombic'
loop_
_space_group_symop_operation_xyz
x,y,z
-x,-y,z
x,-y,-z
-x,y,-z
-x,-y,-z
x,y,-z
-x,y,z
x,-y,z
loop_
_atom_site_type_symbol
_atom_site_label
_atom_site_fract_x
_atom_site_fract_y
_atom_site_fract_z
Si Si1 0.433833 0.903472 0.659682
Si Si2 0.326189 0.727394 0.327107
Si Si3 0.280370 0.103497 0.829275
Si Si4 0.064504 0.766421 0.668603
Si Si5 0.564689 0.268235 0.170776
Si Si6 0.851181 0.103207 0.168250
Si Si7 0.759767 0.397111 0.167132
Si Si8 0.107735 0.399292 0.831032
O O1 0.410073 0.867970 0.500000
O O2 0.500000 0.918258 0.638965
O O3 0.423885 0.835987 0.793319
O O4 0.405615 0.000000 0.698811
O O5 0.328221 0.725541 0.500000
O O6 0.318897 0.830339 0.270105
O O7 0.385268 0.682797 0.263154
O O8 0.274108 0.667149 0.274813
O O9 0.214374 0.124076 0.792794
O O10 0.294400 0.000000 0.791588
O O11 0.292436 0.123129 0.000000
O O12 0.079832 0.756042 0.500000
O O13 0.107707 0.837557 0.734593
O O14 0.069781 0.668768 0.739686
O O15 0.000000 0.801089 0.692649
O O16 0.500000 0.297428 0.218270
O O17 0.573469 0.286194 0.000000
O O18 0.865182 0.000000 0.200053
O O19 0.863015 0.127213 0.000000
O O20 0.746180 0.500000 0.205587
O O21 0.825957 0.375841 0.190802
O O22 0.742065 0.376317 0.000000
O O23 0.095107 0.500000 0.775802
O O24 0.090823 0.390279 0.000000
#
# Coordination Sequence:
#
# PCOD8199432 Si02
#       8
#     8   8   8   8   8   8   8   8
#     4   8  14  26  44  65  91 124 162 207 258 307
#     4  12  24  35  54  84 116 147 177 218 272 328
#     4   9  19  37  59  82 110 144 184 231 279 328
#     4  11  24  37  50  76 115 155 191 228 275 330
#     4  10  21  36  53  72  97 136 184 225 263 314
#     4   9  19  37  60  82 104 138 187 240 288 328
#     4   9  19  38  63  88 113 140 174 221 274 327
#     4   9  19  37  61  86 110 141 182 226 273 324
#
# _framework density 20.060586000000001
#
# number of rings (size 3 to 8) (size 9 to 14) (size 15 to 20)
#    0.000    2.375    0.000    4.500    0.000    8.000 
#    0.000    6.250    0.000    0.375    0.000    2.625 
#    0.000    0.000    0.000    0.000    0.000    0.000 
#
# Total GULP energy -793255.804593 kJ/mol
# GULP energy per Si atom -12394.621947 kJ/mol
# Density = 2.001493 g / cm^3
# Si number density = 20.060586 Si / 1000 Ang^3
#
#
#
# Elastic Constant Matrix: (Units=GPa)
#
#
# Indices 1 2 3 4 5 6 
#
# 1 87.1923 26.4156 53.7576 0.0000 0.0000 0.0000
# 2 26.4156 49.2143 30.2069 0.0000 0.0000 0.0000
# 3 53.7576 30.2069 106.2322 0.0000 0.0000 0.0000
# 4 0.0000 0.0000 0.0000 -16.8799 0.0000 0.0000
# 5 0.0000 0.0000 0.0000 0.0000 20.7519 0.0000
# 6 0.0000 0.0000 0.0000 0.0000 0.0000 10.3482
#
#
#
# Elastic Compliance Matrix: (Units=1/GPa)
#
#
# Indices 1 2 3 4 5 6 
#
# 1 0.017562 -0.004811 -0.007519 0.000000 0.000000 0.000000
# 2 -0.004811 0.025934 -0.004939 0.000000 0.000000 0.000000
# 3 -0.007519 -0.004939 0.014623 0.000000 0.000000 0.000000
# 4 0.000000 0.000000 0.000000 -0.059242 0.000000 0.000000
# 5 0.000000 0.000000 0.000000 0.000000 0.048188 0.000000
# 6 0.000000 0.000000 0.000000 0.000000 0.000000 0.096635
#
#
# Mechanical properties :
#
#
# Convention : Reuss Voigt Hill
#
# Bulk Modulus (GPa) = 42.41088 51.48878 46.94983
# Shear Modulus (GPa) = 26.86740 11.66131 19.26435
#
# Velocity S-wave (km/s) = 3.66363 2.41364 3.10225
# Velocity P-wave (km/s) = 6.25168 5.78705 6.02385
#
# Compressibility (1/GPa) = 0.02357885
#
# Stress axis : x y z
#
# Youngs Moduli (GPa) = 56.93977 38.56014 68.38631
#
# Poissons Ratio (x) = 0.18553 0.51421
# Poissons Ratio (y) = 0.27396 0.33778
# Poissons Ratio (z) = 0.42814 0.19046
#
# Static dielectric constant tensor:
#      x y z
#    x 3.786650 0.000000 0.000000 
#    y 0.000000 3.574380 0.000000 
#    z 0.000000 0.000000 3.502690 
# 
# 
# High freq. dielectric constant tensor:
#      x y z
#    x 1.794820 0.000000 0.000000 
#    y 0.000000 1.764780 0.000000 
#    z 0.000000 0.000000 1.775000 
# 
# From -- ./inp_files/12743.got.cif
#   From: 2010.03.12/outbox.cif.g09.slc.cpg/sg47_7_cif.got.tgz:12743.got - 2010.04.14 03:12:58.
