data_PCOD8199750
_publ_section_title
;
Structure prediction by ZEFSAII (Michael W. Deem and Ramdas Pophale) SiO2 
 PCOD8199750
Probable space group: P M M M
;
_chemical_formula_sum "Si O2"
_cell_formula_units_Z 52
_cell_length_a 8.955675
_cell_length_b 19.958333
_cell_length_c 14.885058
_cell_angle_alpha 90.000000
_cell_angle_beta 90.000000
_cell_angle_gamma 90.000000
_cell_volume 2660.560386
_symmetry_space_group_name_H-M "P M M M"
_symmetry_group_IT_number 47
_symmetry_cell_setting 'orthorhombic'
loop_
_space_group_symop_operation_xyz
x,y,z
-x,-y,z
x,-y,-z
-x,y,-z
-x,-y,-z
x,y,-z
-x,y,z
x,-y,z
loop_
_atom_site_type_symbol
_atom_site_label
_atom_site_fract_x
_atom_site_fract_y
_atom_site_fract_z
Si Si1 0.334167 0.570544 0.106239
Si Si2 0.321895 0.713876 0.100662
Si Si3 0.175644 0.077293 0.181850
Si Si4 0.666527 0.079085 0.000000
Si Si5 0.323152 0.804639 0.263674
Si Si6 0.668435 0.426443 0.606439
Si Si7 0.171601 0.294685 0.606145
O O1 0.500000 0.568798 0.148531
O O2 0.252434 0.500000 0.136071
O O3 0.255108 0.640953 0.133013
O O4 0.347935 0.572192 0.000000
O O5 0.500000 0.708070 0.099954
O O6 0.267666 0.767775 0.172855
O O7 0.265574 0.733673 0.000000
O O8 0.245968 0.102600 0.088116
O O9 0.247902 0.121736 0.261305
O O10 0.000000 0.088429 0.177260
O O11 0.215485 0.000000 0.201462
O O12 0.500000 0.111687 0.000000
O O13 0.653205 0.000000 0.000000
O O14 0.500000 0.812161 0.269214
O O15 0.266480 0.764943 0.350375
O O16 0.676074 0.427995 0.500000
O O17 0.500000 0.411374 0.638418
O O18 0.720003 0.500000 0.642905
O O19 0.773262 0.367047 0.643359
O O20 0.196904 0.289619 0.500000
O O21 0.000000 0.286209 0.632944
#
# Coordination Sequence:
#
# PCOD8199750 Si02
#       7
#     8   8   8   4   8   8   8
#     4   7   9  16  33  55  82 122 168 208 245 287
#     4   8  15  27  42  66 101 136 171 212 259 310
#     4  10  21  37  56  79 110 146 182 222 269 326
#     4   9  17  31  53  81 111 143 180 219 262 315
#     4  11  22  34  54  81 109 142 179 225 276 327
#     4   8  14  27  50  79 108 137 173 223 281 335
#     4  10  21  37  56  77 106 146 189 232 278 333
#
# _framework density 19.544754999999999
#
# number of rings (size 3 to 8) (size 9 to 14) (size 15 to 20)
#    0.000    3.000    0.000    3.462    1.077    3.077 
#    0.000    2.308    0.000    3.231    0.000    3.231 
#    0.000    0.000    0.000    9.692    0.000   10.769 
#
# Total GULP energy -644223.277777 kJ/mol
# GULP energy per Si atom -12388.909188 kJ/mol
# Density = 1.950027 g / cm^3
# Si number density = 19.544755 Si / 1000 Ang^3
#
#
#
# Elastic Constant Matrix: (Units=GPa)
#
#
# Indices 1 2 3 4 5 6 
#
# 1 86.4971 56.4021 28.5556 0.0000 0.0000 0.0000
# 2 56.4021 124.8873 35.3308 0.0000 0.0000 0.0000
# 3 28.5556 35.3308 47.1975 0.0000 0.0000 0.0000
# 4 0.0000 0.0000 0.0000 11.7529 0.0000 0.0000
# 5 0.0000 0.0000 0.0000 0.0000 21.0776 0.0000
# 6 0.0000 0.0000 0.0000 0.0000 0.0000 27.3724
#
#
#
# Elastic Compliance Matrix: (Units=1/GPa)
#
#
# Indices 1 2 3 4 5 6 
#
# 1 0.017619 -0.006269 -0.005967 0.000000 0.000000 0.000000
# 2 -0.006269 0.012389 -0.005481 0.000000 0.000000 0.000000
# 3 -0.005967 -0.005481 0.028901 0.000000 0.000000 0.000000
# 4 0.000000 0.000000 0.000000 0.085085 0.000000 0.000000
# 5 0.000000 0.000000 0.000000 0.000000 0.047444 0.000000
# 6 0.000000 0.000000 0.000000 0.000000 0.000000 0.036533
#
#
# Mechanical properties :
#
#
# Convention : Reuss Voigt Hill
#
# Bulk Modulus (GPa) = 42.59986 55.46212 49.03099
# Shear Modulus (GPa) = 18.43451 21.26013 19.84732
#
# Velocity S-wave (km/s) = 3.07448 3.30171 3.19012
# Velocity P-wave (km/s) = 5.86912 6.55543 6.22175
#
# Compressibility (1/GPa) = 0.02347426
#
# Stress axis : x y z
#
# Youngs Moduli (GPa) = 56.75745 80.71596 34.60107
#
# Poissons Ratio (x) = 0.50601 0.20646
# Poissons Ratio (y) = 0.35581 0.18966
# Poissons Ratio (z) = 0.33867 0.44243
#
# Static dielectric constant tensor:
#      x y z
#    x 3.246250 0.000000 0.000000 
#    y 0.000000 4.022440 0.000000 
#    z 0.000000 0.000000 3.275040 
# 
# 
# High freq. dielectric constant tensor:
#      x y z
#    x 1.721850 0.000000 0.000000 
#    y 0.000000 1.776570 0.000000 
#    z 0.000000 0.000000 1.730050 
# 
# From -- ./inp_files/21453.got.cif
#   From: 2010.03.12/outbox.cif.g09.slc.cpg/sg47_11_cif.got.tgz:21453.got - 2010.04.14 03:12:58.
