data_PCOD8199600
_publ_section_title
;
Structure prediction by ZEFSAII (Michael W. Deem and Ramdas Pophale) SiO2 
 PCOD8199600
Probable space group: P M M M
;
_chemical_formula_sum "Si O2"
_cell_formula_units_Z 56
_cell_length_a 19.647023
_cell_length_b 15.575259
_cell_length_c 9.361351
_cell_angle_alpha 90.000000
_cell_angle_beta 90.000000
_cell_angle_gamma 90.000000
_cell_volume 2864.643352
_symmetry_space_group_name_H-M "P M M M"
_symmetry_group_IT_number 47
_symmetry_cell_setting 'orthorhombic'
loop_
_space_group_symop_operation_xyz
x,y,z
-x,-y,z
x,-y,-z
-x,y,-z
-x,-y,-z
x,y,-z
-x,y,z
x,-y,z
loop_
_atom_site_type_symbol
_atom_site_label
_atom_site_fract_x
_atom_site_fract_y
_atom_site_fract_z
Si Si1 0.305693 0.400888 0.341570
Si Si2 0.575099 0.129549 0.842496
Si Si3 0.296811 0.097353 0.343079
Si Si4 0.080065 0.765979 0.665771
Si Si5 0.154691 0.595132 0.330037
Si Si6 0.574005 0.331383 0.157828
Si Si7 0.168912 0.101589 0.167528
O O1 0.306797 0.361371 0.500000
O O2 0.324236 0.500000 0.345443
O O3 0.231117 0.386432 0.272293
O O4 0.363381 0.353977 0.255278
O O5 0.500000 0.094537 0.799489
O O6 0.628806 0.099937 0.725434
O O7 0.572316 0.230471 0.851212
O O8 0.595276 0.093537 0.000000
O O9 0.296753 0.143174 0.500000
O O10 0.239274 0.136383 0.238410
O O11 0.275815 0.000000 0.366755
O O12 0.100393 0.780011 0.500000
O O13 0.106609 0.672855 0.721749
O O14 0.108766 0.844295 0.759351
O O15 0.000000 0.765781 0.686819
O O16 0.157233 0.590991 0.500000
O O17 0.129943 0.500000 0.275028
O O18 0.500000 0.363879 0.216721
O O19 0.585488 0.370627 0.000000
O O20 0.155944 0.000000 0.192423
O O21 0.172014 0.122582 0.000000
#
# Coordination Sequence:
#
# PCOD8199600 Si02
#       7
#     8   8   8   8   8   8   8
#     4   9  18  32  50  73 101 135 177 224 271 319
#     4   9  19  35  52  73 105 144 184 224 269 324
#     4  10  21  36  55  80 108 138 177 227 279 328
#     4  10  21  36  58  90 120 147 184 229 279 332
#     4   8  16  33  55  81 115 150 184 225 273 328
#     4   9  19  34  49  69 100 136 176 223 270 316
#     4  10  22  40  60  82 112 151 192 232 277 335
#
# _framework density 19.548680999999998
#
# number of rings (size 3 to 8) (size 9 to 14) (size 15 to 20)
#    0.000    2.714    0.000    2.571    2.000    4.571 
#    0.000    7.143    0.000    1.286    0.000    1.000 
#    0.000    0.000    0.000    0.000    0.000    0.000 
#
# Total GULP energy -693915.207308 kJ/mol
# GULP energy per Si atom -12391.342988 kJ/mol
# Density = 1.950419 g / cm^3
# Si number density = 19.548681 Si / 1000 Ang^3
#
#
#
# Elastic Constant Matrix: (Units=GPa)
#
#
# Indices 1 2 3 4 5 6 
#
# 1 120.9286 49.4239 62.8136 0.0000 0.0000 0.0000
# 2 49.4239 74.4016 41.9654 0.0000 0.0000 0.0000
# 3 62.8136 41.9654 105.0737 0.0000 0.0000 0.0000
# 4 0.0000 0.0000 0.0000 32.7216 0.0000 0.0000
# 5 0.0000 0.0000 0.0000 0.0000 24.9539 0.0000
# 6 0.0000 0.0000 0.0000 0.0000 0.0000 -55.0521
#
#
#
# Elastic Compliance Matrix: (Units=1/GPa)
#
#
# Indices 1 2 3 4 5 6 
#
# 1 0.013679 -0.005776 -0.005871 0.000000 0.000000 0.000000
# 2 -0.005776 0.019787 -0.004450 0.000000 0.000000 0.000000
# 3 -0.005871 -0.004450 0.014804 0.000000 0.000000 0.000000
# 4 0.000000 0.000000 0.000000 0.030561 0.000000 0.000000
# 5 0.000000 0.000000 0.000000 0.000000 0.040074 0.000000
# 6 0.000000 0.000000 0.000000 0.000000 0.000000 -0.018165
#
#
# Mechanical properties :
#
#
# Convention : Reuss Voigt Hill
#
# Bulk Modulus (GPa) = 62.19876 67.64552 64.92214
# Shear Modulus (GPa) = 36.15506 10.27142 23.21324
#
# Velocity S-wave (km/s) = 4.30523 2.29471 3.44969
# Velocity P-wave (km/s) = 7.52329 6.45753 7.01069
#
# Compressibility (1/GPa) = 0.01607749
#
# Stress axis : x y z
#
# Youngs Moduli (GPa) = 73.10312 50.53754 67.54884
#
# Poissons Ratio (x) = 0.29188 0.39657
# Poissons Ratio (y) = 0.42221 0.30060
# Poissons Ratio (z) = 0.42918 0.22490
#
# Static dielectric constant tensor:
#      x y z
#    x 4.001730 0.000000 0.000000 
#    y 0.000000 3.564120 0.000000 
#    z 0.000000 0.000000 3.695870 
# 
# 
# High freq. dielectric constant tensor:
#      x y z
#    x 1.764170 0.000000 0.000000 
#    y 0.000000 1.758260 0.000000 
#    z 0.000000 0.000000 1.739490 
# 
# From -- ./inp_files/7221.got.cif
#   From: 2010.03.12/outbox.cif.g09.slc.cpg/sg47_4_cif.got.tgz:7221.got - 2010.04.14 03:12:58.
