data_PCOD8199201
_publ_section_title
;
Structure prediction by ZEFSAII (Michael W. Deem and Ramdas Pophale) SiO2 
 PCOD8199201
Probable space group: P M M M
;
_chemical_formula_sum "Si O2"
_cell_formula_units_Z 48
_cell_length_a 30.420665
_cell_length_b 9.960326
_cell_length_c 9.094882
_cell_angle_alpha 90.000000
_cell_angle_beta 90.000000
_cell_angle_gamma 90.000000
_cell_volume 2755.746886
_symmetry_space_group_name_H-M "P M M M"
_symmetry_group_IT_number 47
_symmetry_cell_setting 'orthorhombic'
loop_
_space_group_symop_operation_xyz
x,y,z
-x,-y,z
x,-y,-z
-x,y,-z
-x,-y,-z
x,y,-z
-x,y,z
x,-y,z
loop_
_atom_site_type_symbol
_atom_site_label
_atom_site_fract_x
_atom_site_fract_y
_atom_site_fract_z
Si Si1 0.280756 0.849574 0.325249
Si Si2 0.883585 0.654022 0.827776
Si Si3 0.621544 0.849664 0.324967
Si Si4 0.205722 0.346209 0.327112
Si Si5 0.548846 0.349671 0.675007
Si Si6 0.051247 0.153247 0.331247
O O1 0.280163 0.845835 0.500000
O O2 0.329595 0.808579 0.269936
O O3 0.245223 0.744635 0.262798
O O4 0.269089 0.000000 0.270491
O O5 0.894534 0.500000 0.786635
O O6 0.838881 0.701005 0.750056
O O7 0.923131 0.746528 0.774249
O O8 0.877366 0.672795 0.000000
O O9 0.620135 0.843369 0.500000
O O10 0.585314 0.749582 0.256087
O O11 0.610370 0.000000 0.271424
O O12 0.199466 0.325010 0.500000
O O13 0.216969 0.500000 0.288559
O O14 0.550979 0.346030 0.500000
O O15 0.500000 0.305191 0.726828
O O16 0.558985 0.500000 0.731108
O O17 0.062663 0.186513 0.500000
O O18 0.000000 0.175005 0.301084
O O19 0.064553 0.000000 0.295075
#
# Coordination Sequence:
#
# PCOD8199201 Si02
#       6
#     8   8   8   8   8   8
#     4   8  14  24  37  54  75  98 128 170 218 262
#     4  10  21  35  50  71 100 130 158 190 229 273
#     4   8  13  20  29  42  61  85 116 157 203 249
#     4   9  17  29  45  64  85 111 146 185 222 263
#     4   8  13  19  25  35  54  82 117 156 197 242
#     4   9  19  36  56  77 100 126 158 195 232 270
#
# _framework density 17.418147000000001
#
# number of rings (size 3 to 8) (size 9 to 14) (size 15 to 20)
#    0.000    3.333    0.000    2.500    0.000    3.667 
#    0.000    9.167    0.000    0.000    0.000    0.000 
#    0.000    0.000    0.000    0.000    0.000    0.833 
#
# Total GULP energy -594969.016548 kJ/mol
# GULP energy per Si atom -12395.187845 kJ/mol
# Density = 1.737850 g / cm^3
# Si number density = 17.418147 Si / 1000 Ang^3
#
#
#
# Elastic Constant Matrix: (Units=GPa)
#
#
# Indices 1 2 3 4 5 6 
#
# 1 130.1095 87.2021 27.8653 0.0000 0.0000 0.0000
# 2 87.2021 104.1750 23.9276 0.0000 0.0000 0.0000
# 3 27.8653 23.9276 23.3413 0.0000 0.0000 0.0000
# 4 0.0000 0.0000 0.0000 13.7885 0.0000 0.0000
# 5 0.0000 0.0000 0.0000 0.0000 -0.0423 0.0000
# 6 0.0000 0.0000 0.0000 0.0000 0.0000 42.5960
#
#
#
# Elastic Compliance Matrix: (Units=1/GPa)
#
#
# Indices 1 2 3 4 5 6 
#
# 1 0.018631 -0.013716 -0.008181 0.000000 0.000000 0.000000
# 2 -0.013716 0.022654 -0.006848 0.000000 0.000000 0.000000
# 3 -0.008181 -0.006848 0.059629 0.000000 0.000000 0.000000
# 4 0.000000 0.000000 0.000000 0.072524 0.000000 0.000000
# 5 0.000000 0.000000 0.000000 0.000000-23.639591 0.000000
# 6 0.000000 0.000000 0.000000 0.000000 0.000000 0.023476
#
#
# Mechanical properties :
#
#
# Convention : Reuss Voigt Hill
#
# Bulk Modulus (GPa) = 23.02925 59.51287 41.27106
# Shear Modulus (GPa) = -0.21394 19.17715 9.48160
#
# Velocity S-wave (km/s) = -0.35085 3.32171 2.33567
# Velocity P-wave (km/s) = 3.61746 6.99664 5.56952
#
# Compressibility (1/GPa) = 0.04342305
#
# Stress axis : x y z
#
# Youngs Moduli (GPa) = 53.67396 44.14273 16.77037
#
# Poissons Ratio (x) = 0.60548 0.13720
# Poissons Ratio (y) = 0.73622 0.11484
# Poissons Ratio (z) = 0.43911 0.30228
#
# Static dielectric constant tensor:
#      x y z
#    x 3.500670 0.000000 0.000000 
#    y 0.000000 3.434820 0.000000 
#    z 0.000000 0.000000 2.682220 
# 
# 
# High freq. dielectric constant tensor:
#      x y z
#    x 1.682120 0.000000 0.000000 
#    y 0.000000 1.676390 0.000000 
#    z 0.000000 0.000000 1.612850 
# 
# From -- ./inp_files/12356.got.cif
#   From: 2010.03.12/outbox.cif.g09.slc.cpg/sg47_7_cif.got.tgz:12356.got - 2010.04.14 03:12:58.
