data_PCOD8199836
_publ_section_title
;
Structure prediction by ZEFSAII (Michael W. Deem and Ramdas Pophale) SiO2 
 PCOD8199836
Probable space group: P M M M
;
_chemical_formula_sum "Si O2"
_cell_formula_units_Z 40
_cell_length_a 11.991252
_cell_length_b 8.340274
_cell_length_c 20.564830
_cell_angle_alpha 90.000000
_cell_angle_beta 90.000000
_cell_angle_gamma 90.000000
_cell_volume 2056.695379
_symmetry_space_group_name_H-M "P M M M"
_symmetry_group_IT_number 47
_symmetry_cell_setting 'orthorhombic'
loop_
_space_group_symop_operation_xyz
x,y,z
-x,-y,z
x,-y,-z
-x,y,-z
-x,-y,-z
x,y,-z
-x,y,z
x,-y,z
loop_
_atom_site_type_symbol
_atom_site_label
_atom_site_fract_x
_atom_site_fract_y
_atom_site_fract_z
Si Si1 0.623858 0.812074 0.689060
Si Si2 0.000000 0.184548 0.744221
Si Si3 0.773775 0.814213 0.571384
Si Si4 0.774810 0.686406 0.201521
Si Si5 0.125352 0.690646 0.928329
Si Si6 0.000000 0.683618 0.608476
O O1 0.500000 0.735382 0.687977
O O2 0.695126 0.741197 0.628510
O O3 0.679328 0.778449 0.759097
O O4 0.614574 0.000000 0.679558
O O5 0.893439 0.281883 0.766981
O O6 0.000000 0.189466 0.666895
O O7 0.000000 0.000000 0.767998
O O8 0.716342 0.795196 0.500000
O O9 0.889101 0.717087 0.567210
O O10 0.798819 0.000000 0.586359
O O11 0.745418 0.500000 0.204537
O O12 0.785857 0.748684 0.126394
O O13 0.120180 0.500000 0.927023
O O14 0.000000 0.756211 0.913088
O O15 0.163692 0.750959 0.000000
O O16 0.000000 0.500000 0.632479
#
# Coordination Sequence:
#
# PCOD8199836 Si02
#       6
#     8   4   8   8   8   4
#     4  10  22  39  57  77 104 143 187 228 272 321
#     4  12  22  33  52  79 112 147 178 215 268 326
#     4  10  21  37  57  80 108 143 179 218 268 326
#     4  11  20  33  56  84 110 140 180 224 271 317
#     4   8  14  26  47  78 114 145 173 209 258 316
#     4  12  23  35  54  82 113 143 176 216 265 324
#
# _framework density 19.448675000000001
#
# number of rings (size 3 to 8) (size 9 to 14) (size 15 to 20)
#    0.000    1.800    3.000    3.300    0.000    2.400 
#    0.000    2.000    0.000    3.600    0.000    7.000 
#    0.000    0.000    0.000    0.000    0.000    0.000 
#
# Total GULP energy -495748.329293 kJ/mol
# GULP energy per Si atom -12393.708232 kJ/mol
# Density = 1.940441 g / cm^3
# Si number density = 19.448675 Si / 1000 Ang^3
#
#
#
# Elastic Constant Matrix: (Units=GPa)
#
#
# Indices 1 2 3 4 5 6 
#
# 1 128.7294 11.3226 66.0618 0.0000 0.0000 0.0000
# 2 11.3226 28.5265 9.2668 0.0000 0.0000 0.0000
# 3 66.0618 9.2668 160.9441 0.0000 0.0000 0.0000
# 4 0.0000 0.0000 0.0000 21.8775 0.0000 0.0000
# 5 0.0000 0.0000 0.0000 0.0000 14.7036 0.0000
# 6 0.0000 0.0000 0.0000 0.0000 0.0000 2.1704
#
#
#
# Elastic Compliance Matrix: (Units=1/GPa)
#
#
# Indices 1 2 3 4 5 6 
#
# 1 0.010041 -0.002697 -0.003966 0.000000 0.000000 0.000000
# 2 -0.002697 0.036448 -0.000992 0.000000 0.000000 0.000000
# 3 -0.003966 -0.000992 0.007898 0.000000 0.000000 0.000000
# 4 0.000000 0.000000 0.000000 0.045709 0.000000 0.000000
# 5 0.000000 0.000000 0.000000 0.000000 0.068011 0.000000
# 6 0.000000 0.000000 0.000000 0.000000 0.000000 0.460739
#
#
# Mechanical properties :
#
#
# Convention : Reuss Voigt Hill
#
# Bulk Modulus (GPa) = 25.59013 54.61138 40.10076
# Shear Modulus (GPa) = 7.60826 23.18688 15.39757
#
# Velocity S-wave (km/s) = 1.98002 3.45658 2.81677
# Velocity P-wave (km/s) = 4.29111 6.63862 5.58950
#
# Compressibility (1/GPa) = 0.03907757
#
# Stress axis : x y z
#
# Youngs Moduli (GPa) = 99.59387 27.43661 126.60837
#
# Poissons Ratio (x) = 0.07399 0.50214
# Poissons Ratio (y) = 0.26860 0.12554
# Poissons Ratio (z) = 0.39500 0.02721
#
# Static dielectric constant tensor:
#      x y z
#    x 4.172110 0.000000 0.000000 
#    y 0.000000 3.193400 0.000000 
#    z 0.000000 0.000000 4.006550 
# 
# 
# High freq. dielectric constant tensor:
#      x y z
#    x 1.724260 0.000000 0.000000 
#    y 0.000000 1.730910 0.000000 
#    z 0.000000 0.000000 1.772650 
# 
# From -- ./inp_files/4106.got.cif
#   From: 2010.03.12/outbox.cif.g09.slc.cpg/sg47_3_cif.got.tgz:4106.got - 2010.04.14 03:12:58.
