data_PCOD8199076
_publ_section_title
;
Structure prediction by ZEFSAII (Michael W. Deem and Ramdas Pophale) SiO2 
 PCOD8199076
Probable space group: P M M M
;
_chemical_formula_sum "Si O2"
_cell_formula_units_Z 56
_cell_length_a 8.980178
_cell_length_b 23.166985
_cell_length_c 14.477621
_cell_angle_alpha 90.000000
_cell_angle_beta 90.000000
_cell_angle_gamma 90.000000
_cell_volume 3011.977102
_symmetry_space_group_name_H-M "P M M M"
_symmetry_group_IT_number 47
_symmetry_cell_setting 'orthorhombic'
loop_
_space_group_symop_operation_xyz
x,y,z
-x,-y,z
x,-y,-z
-x,y,-z
-x,-y,-z
x,y,-z
-x,y,z
x,-y,z
loop_
_atom_site_type_symbol
_atom_site_label
_atom_site_fract_x
_atom_site_fract_y
_atom_site_fract_z
Si Si1 0.324709 0.340126 0.773047
Si Si2 0.171425 0.567075 0.894720
Si Si3 0.327843 0.830746 0.393073
Si Si4 0.170246 0.753362 0.106795
Si Si5 0.827017 0.885691 0.895493
Si Si6 0.324206 0.063587 0.273017
Si Si7 0.175666 0.287919 0.394137
O O1 0.500000 0.342279 0.760155
O O2 0.272065 0.398190 0.823212
O O3 0.280639 0.284981 0.833536
O O4 0.250015 0.335870 0.671654
O O5 0.193358 0.500000 0.872716
O O6 0.000000 0.585396 0.881456
O O7 0.220644 0.580530 0.000000
O O8 0.307108 0.844714 0.500000
O O9 0.500000 0.818647 0.368419
O O10 0.261856 0.886445 0.340000
O O11 0.233464 0.775064 0.363352
O O12 0.216348 0.819348 0.123084
O O13 0.000000 0.742382 0.138151
O O14 0.188207 0.736309 0.000000
O O15 0.733152 0.927129 0.830386
O O16 0.000000 0.895221 0.875672
O O17 0.787602 0.902732 0.000000
O O18 0.500000 0.066695 0.272156
O O19 0.271863 0.000000 0.307203
O O20 0.221942 0.301098 0.500000
O O21 0.000000 0.289515 0.381215
#
# Coordination Sequence:
#
# PCOD8199076 Si02
#       7
#     8   8   8   8   8   8   8
#     4  12  23  32  50  81 114 144 173 212 262 311
#     4   9  19  37  59  81 109 149 192 226 255 293
#     4   9  18  34  55  77 102 130 160 201 256 313
#     4   9  18  33  52  74 102 135 171 212 257 308
#     4   9  19  35  52  69  91 124 166 210 256 302
#     4  10  21  34  48  70  98 128 164 203 246 302
#     4  10  21  37  57  79 103 134 173 216 261 311
#
# _framework density 18.59244
#
# number of rings (size 3 to 8) (size 9 to 14) (size 15 to 20)
#    0.000    2.286    0.000    4.286    0.000    8.000 
#    0.000    5.000    0.000    0.429    0.000    6.000 
#    0.000    0.000    0.000    0.000    0.000    0.000 
#
# Total GULP energy -694475.202238 kJ/mol
# GULP energy per Si atom -12401.342897 kJ/mol
# Density = 1.855012 g / cm^3
# Si number density = 18.592440 Si / 1000 Ang^3
#
#
#
# Elastic Constant Matrix: (Units=GPa)
#
#
# Indices 1 2 3 4 5 6 
#
# 1 66.8940 38.5324 40.3499 0.0000 0.0000 0.0000
# 2 38.5324 81.7052 53.2095 0.0000 0.0000 0.0000
# 3 40.3499 53.2095 95.8529 0.0000 0.0000 0.0000
# 4 0.0000 0.0000 0.0000 27.6352 0.0000 0.0000
# 5 0.0000 0.0000 0.0000 0.0000 29.0844 0.0000
# 6 0.0000 0.0000 0.0000 0.0000 0.0000 28.7756
#
#
#
# Elastic Compliance Matrix: (Units=1/GPa)
#
#
# Indices 1 2 3 4 5 6 
#
# 1 0.022262 -0.006885 -0.005550 0.000000 0.000000 0.000000
# 2 -0.006885 0.021298 -0.008925 0.000000 0.000000 0.000000
# 3 -0.005550 -0.008925 0.017723 0.000000 0.000000 0.000000
# 4 0.000000 0.000000 0.000000 0.036186 0.000000 0.000000
# 5 0.000000 0.000000 0.000000 0.000000 0.034383 0.000000
# 6 0.000000 0.000000 0.000000 0.000000 0.000000 0.034752
#
#
# Mechanical properties :
#
#
# Convention : Reuss Voigt Hill
#
# Bulk Modulus (GPa) = 53.86427 56.51509 55.18968
# Shear Modulus (GPa) = 23.20074 24.58973 23.89524
#
# Velocity S-wave (km/s) = 3.53634 3.64066 3.58888
# Velocity P-wave (km/s) = 6.76078 6.93796 6.84994
#
# Compressibility (1/GPa) = 0.01856518
#
# Stress axis : x y z
#
# Youngs Moduli (GPa) = 44.91899 46.95237 56.42373
#
# Poissons Ratio (x) = 0.32326 0.31313
# Poissons Ratio (y) = 0.30926 0.50357
# Poissons Ratio (z) = 0.24928 0.41904
#
# Static dielectric constant tensor:
#      x y z
#    x 3.264730 0.000000 0.000000 
#    y 0.000000 3.419960 0.000000 
#    z 0.000000 0.000000 3.516760 
# 
# 
# High freq. dielectric constant tensor:
#      x y z
#    x 1.712280 0.000000 0.000000 
#    y 0.000000 1.711930 0.000000 
#    z 0.000000 0.000000 1.724770 
# 
# From -- ./inp_files/7311.got.cif
#   From: 2010.03.12/outbox.cif.g09.slc.cpg/sg47_4_cif.got.tgz:7311.got - 2010.04.14 03:12:58.
