data_PCOD8199171
_publ_section_title
;
Structure prediction by ZEFSAII (Michael W. Deem and Ramdas Pophale) SiO2 
 PCOD8199171
Probable space group: P M M M
;
_chemical_formula_sum "Si O2"
_cell_formula_units_Z 44
_cell_length_a 7.836335
_cell_length_b 29.709910
_cell_length_c 9.605089
_cell_angle_alpha 90.000000
_cell_angle_beta 90.000000
_cell_angle_gamma 90.000000
_cell_volume 2236.226158
_symmetry_space_group_name_H-M "P M M M"
_symmetry_group_IT_number 47
_symmetry_cell_setting 'orthorhombic'
loop_
_space_group_symop_operation_xyz
x,y,z
-x,-y,z
x,-y,-z
-x,y,-z
-x,-y,-z
x,y,-z
-x,y,z
x,-y,z
loop_
_atom_site_type_symbol
_atom_site_label
_atom_site_fract_x
_atom_site_fract_y
_atom_site_fract_z
Si Si1 0.305313 0.369654 0.846460
Si Si2 0.801376 0.096917 0.664625
Si Si3 0.803517 0.724720 0.846209
Si Si4 0.500000 0.053197 0.161066
Si Si5 0.799535 0.550291 0.342611
Si Si6 0.200930 0.801099 0.347669
O O1 0.500000 0.356459 0.859408
O O2 0.215204 0.325433 0.780427
O O3 0.290001 0.413554 0.753264
O O4 0.227628 0.380005 0.000000
O O5 0.767755 0.088734 0.500000
O O6 0.672089 0.068181 0.758445
O O7 0.761899 0.148585 0.705655
O O8 0.000000 0.084849 0.698821
O O9 0.714959 0.763520 0.753113
O O10 0.000000 0.737216 0.858635
O O11 0.718498 0.724905 0.000000
O O12 0.500000 0.000000 0.161652
O O13 0.500000 0.070781 0.000000
O O14 0.735925 0.557485 0.500000
O O15 0.749321 0.500000 0.292462
O O16 0.000000 0.557167 0.333333
O O17 0.283428 0.794473 0.500000
O O18 0.000000 0.793620 0.359329
#
# Coordination Sequence:
#
# PCOD8199171 Si02
#       6
#     8   8   8   4   8   8
#     4  10  21  35  49  70 104 140 171 206 250 305
#     4   9  19  38  63  88 116 153 197 245 295 348
#     4   9  17  30  49  72 100 137 177 214 255 307
#     4  11  25  41  57  85 123 159 197 243 296 351
#     4   9  19  36  56  76  96 121 160 211 263 313
#     4   8  15  30  53  80 107 135 173 222 272 321
#
# _framework density 19.676003999999999
#
# number of rings (size 3 to 8) (size 9 to 14) (size 15 to 20)
#    0.000    2.818    0.000    2.455    0.000    5.091 
#    1.636    8.182    0.000    0.000    0.000    0.000 
#    0.000    0.000    0.000    0.000    0.000    0.000 
#
# Total GULP energy -545254.394086 kJ/mol
# GULP energy per Si atom -12392.145320 kJ/mol
# Density = 1.963122 g / cm^3
# Si number density = 19.676004 Si / 1000 Ang^3
#
#
#
# Elastic Constant Matrix: (Units=GPa)
#
#
# Indices 1 2 3 4 5 6 
#
# 1 61.9237 33.0989 40.0761 0.0000 0.0000 0.0000
# 2 33.0989 123.7367 68.5062 0.0000 0.0000 0.0000
# 3 40.0761 68.5062 96.1571 0.0000 0.0000 0.0000
# 4 0.0000 0.0000 0.0000 39.1169 0.0000 0.0000
# 5 0.0000 0.0000 0.0000 0.0000 20.2293 0.0000
# 6 0.0000 0.0000 0.0000 0.0000 0.0000 0.6763
#
#
#
# Elastic Compliance Matrix: (Units=1/GPa)
#
#
# Indices 1 2 3 4 5 6 
#
# 1 0.022249 -0.001350 -0.008311 0.000000 0.000000 0.000000
# 2 -0.001350 0.013428 -0.009004 0.000000 0.000000 0.000000
# 3 -0.008311 -0.009004 0.020278 0.000000 0.000000 0.000000
# 4 0.000000 0.000000 0.000000 0.025564 0.000000 0.000000
# 5 0.000000 0.000000 0.000000 0.000000 0.049433 0.000000
# 6 0.000000 0.000000 0.000000 0.000000 0.000000 1.478540
#
#
# Mechanical properties :
#
#
# Convention : Reuss Voigt Hill
#
# Bulk Modulus (GPa) = 53.69063 62.79776 58.24419
# Shear Modulus (GPa) = 3.02475 21.34692 12.18583
#
# Velocity S-wave (km/s) = 1.24121 3.29739 2.49132
# Velocity P-wave (km/s) = 5.42225 6.81779 6.15967
#
# Compressibility (1/GPa) = 0.01862522
#
# Stress axis : x y z
#
# Youngs Moduli (GPa) = 44.94497 74.47288 49.31413
#
# Poissons Ratio (x) = 0.10055 0.40986
# Poissons Ratio (y) = 0.06068 0.44401
# Poissons Ratio (z) = 0.37354 0.67053
#
# Static dielectric constant tensor:
#      x y z
#    x 3.312550 0.000000 0.000000 
#    y 0.000000 3.668350 0.000000 
#    z 0.000000 0.000000 3.958810 
# 
# 
# High freq. dielectric constant tensor:
#      x y z
#    x 1.751510 0.000000 0.000000 
#    y 0.000000 1.770880 0.000000 
#    z 0.000000 0.000000 1.757420 
# 
# From -- ./inp_files/2094.got.cif
#   From: 2010.03.12/outbox.cif.g09.slc.cpg/sg47_2_cif.got.tgz:2094.got - 2010.04.14 03:12:58.
