data_PCOD8199292
_publ_section_title
;
Structure prediction by ZEFSAII (Michael W. Deem and Ramdas Pophale) SiO2 
 PCOD8199292
Probable space group: P M M M
;
_chemical_formula_sum "Si O2"
_cell_formula_units_Z 44
_cell_length_a 27.731412
_cell_length_b 9.553510
_cell_length_c 9.398991
_cell_angle_alpha 90.000000
_cell_angle_beta 90.000000
_cell_angle_gamma 90.000000
_cell_volume 2490.096509
_symmetry_space_group_name_H-M "P M M M"
_symmetry_group_IT_number 47
_symmetry_cell_setting 'orthorhombic'
loop_
_space_group_symop_operation_xyz
x,y,z
-x,-y,z
x,-y,-z
-x,y,-z
-x,-y,-z
x,y,-z
-x,y,z
x,-y,z
loop_
_atom_site_type_symbol
_atom_site_label
_atom_site_fract_x
_atom_site_fract_y
_atom_site_fract_z
Si Si1 0.871719 0.162567 0.839213
Si Si2 0.685582 0.662877 0.334915
Si Si3 0.500000 0.158636 0.831058
Si Si4 0.590416 0.661745 0.165757
Si Si5 0.761164 0.837293 0.163031
Si Si6 0.946127 0.341530 0.667508
O O1 0.816538 0.194721 0.799019
O O2 0.906579 0.243942 0.735876
O O3 0.882718 0.000000 0.821159
O O4 0.881888 0.210728 0.000000
O O5 0.679702 0.700760 0.500000
O O6 0.696510 0.500000 0.311807
O O7 0.636975 0.707012 0.254502
O O8 0.729762 0.747720 0.270675
O O9 0.547061 0.241468 0.777307
O O10 0.500000 0.000000 0.770547
O O11 0.500000 0.157198 0.000000
O O12 0.576446 0.500000 0.192499
O O13 0.601320 0.688597 0.000000
O O14 0.749380 0.000000 0.185499
O O15 0.750151 0.794484 0.000000
O O16 0.940543 0.329532 0.500000
O O17 0.937042 0.500000 0.717882
O O18 0.000000 0.294292 0.713454
#
# Coordination Sequence:
#
# PCOD8199292 Si02
#       6
#     8   8   4   8   8   8
#     4   9  19  35  53  75 102 130 164 207 252 298
#     4  10  21  35  51  75 105 134 167 207 250 297
#     4   9  17  29  48  75 100 122 158 207 250 289
#     4   9  17  31  51  72  96 129 166 202 243 292
#     4   9  19  36  55  74  99 132 168 206 250 299
#     4   9  19  35  52  72 101 135 169 205 246 294
#
# _framework density 17.669996999999999
#
# number of rings (size 3 to 8) (size 9 to 14) (size 15 to 20)
#    0.000    2.818    0.000    2.455    0.000    6.182 
#    0.000   10.455    0.000    2.727    0.000    0.000 
#    0.000    0.000    0.000    0.000    0.000    0.000 
#
# Total GULP energy -545605.263849 kJ/mol
# GULP energy per Si atom -12400.119633 kJ/mol
# Density = 1.762978 g / cm^3
# Si number density = 17.669997 Si / 1000 Ang^3
#
#
#
# Elastic Constant Matrix: (Units=GPa)
#
#
# Indices 1 2 3 4 5 6 
#
# 1 125.2296 67.0558 58.6713 0.0000 0.0000 0.0000
# 2 67.0558 72.2694 39.5518 0.0000 0.0000 0.0000
# 3 58.6713 39.5518 68.4285 0.0000 0.0000 0.0000
# 4 0.0000 0.0000 0.0000 29.2848 0.0000 0.0000
# 5 0.0000 0.0000 0.0000 0.0000 -34.8768 0.0000
# 6 0.0000 0.0000 0.0000 0.0000 0.0000 51.2053
#
#
#
# Elastic Compliance Matrix: (Units=1/GPa)
#
#
# Indices 1 2 3 4 5 6 
#
# 1 0.018979 -0.012731 -0.008914 0.000000 0.000000 0.000000
# 2 -0.012731 0.028780 -0.005719 0.000000 0.000000 0.000000
# 3 -0.008914 -0.005719 0.025562 0.000000 0.000000 0.000000
# 4 0.000000 0.000000 0.000000 0.034147 0.000000 0.000000
# 5 0.000000 0.000000 0.000000 0.000000 -0.028672 0.000000
# 6 0.000000 0.000000 0.000000 0.000000 0.000000 0.019529
#
#
# Mechanical properties :
#
#
# Convention : Reuss Voigt Hill
#
# Bulk Modulus (GPa) = 53.78457 66.27616 60.03037
# Shear Modulus (GPa) = 31.39718 15.83256 23.61487
#
# Velocity S-wave (km/s) = 4.21986 2.99660 3.65970
# Velocity P-wave (km/s) = 7.36528 7.04002 7.20449
#
# Compressibility (1/GPa) = 0.01859269
#
# Stress axis : x y z
#
# Youngs Moduli (GPa) = 52.69103 34.74679 39.12023
#
# Poissons Ratio (x) = 0.44236 0.34871
# Poissons Ratio (y) = 0.67081 0.22373
# Poissons Ratio (z) = 0.46968 0.19872
#
# Static dielectric constant tensor:
#      x y z
#    x 3.314160 0.000000 0.000000 
#    y 0.000000 3.264030 0.000000 
#    z 0.000000 0.000000 3.130890 
# 
# 
# High freq. dielectric constant tensor:
#      x y z
#    x 1.692100 0.000000 0.000000 
#    y 0.000000 1.681460 0.000000 
#    z 0.000000 0.000000 1.670590 
# 
# From -- ./inp_files/2058.got.cif
#   From: 2010.03.12/outbox.cif.g09.slc.cpg/sg47_2_cif.got.tgz:2058.got - 2010.04.14 03:12:58.
