data_PCOD8199053
_publ_section_title
;
Structure prediction by ZEFSAII (Michael W. Deem and Ramdas Pophale) SiO2 
 PCOD8199053
Probable space group: P M M M
;
_chemical_formula_sum "Si O2"
_cell_formula_units_Z 52
_cell_length_a 19.954288
_cell_length_b 15.569430
_cell_length_c 9.237560
_cell_angle_alpha 90.000000
_cell_angle_beta 90.000000
_cell_angle_gamma 90.000000
_cell_volume 2869.896414
_symmetry_space_group_name_H-M "P M M M"
_symmetry_group_IT_number 47
_symmetry_cell_setting 'orthorhombic'
loop_
_space_group_symop_operation_xyz
x,y,z
-x,-y,z
x,-y,-z
-x,y,-z
-x,-y,-z
x,y,-z
-x,y,z
x,-y,z
loop_
_atom_site_type_symbol
_atom_site_label
_atom_site_fract_x
_atom_site_fract_y
_atom_site_fract_z
Si Si1 0.261967 0.593938 0.167129
Si Si2 0.072666 0.099566 0.157710
Si Si3 0.866806 0.363370 0.662041
Si Si4 0.425047 0.903837 0.828063
Si Si5 0.185065 0.826223 0.659852
Si Si6 0.311838 0.776479 0.170930
Si Si7 0.000000 0.398981 0.163083
O O1 0.298012 0.500000 0.187673
O O2 0.193702 0.588397 0.257821
O O3 0.309931 0.674313 0.215459
O O4 0.242024 0.607888 0.000000
O O5 0.129618 0.111664 0.275729
O O6 0.000000 0.138638 0.206492
O O7 0.063178 0.000000 0.137618
O O8 0.092626 0.139550 0.000000
O O9 0.876151 0.402198 0.500000
O O10 0.848714 0.265203 0.650787
O O11 0.934501 0.369126 0.752185
O O12 0.500000 0.885965 0.768887
O O13 0.377613 0.826518 0.769518
O O14 0.401537 0.000000 0.777683
O O15 0.425500 0.901711 0.000000
O O16 0.205715 0.858472 0.500000
O O17 0.249715 0.826414 0.761050
O O18 0.307091 0.786410 0.000000
O O19 0.000000 0.500000 0.154472
O O20 0.000000 0.360264 0.000000
#
# Coordination Sequence:
#
# PCOD8199053 Si02
#       7
#     8   8   8   8   8   8   4
#     4   9  17  30  47  66  91 124 162 201 241 289
#     4   9  19  35  52  69  89 118 160 204 243 289
#     4  10  21  34  47  66  91 119 154 197 245 296
#     4   8  14  26  47  76 105 130 159 196 236 280
#     4  10  21  34  48  69  97 124 155 197 245 293
#     4   9  17  30  49  72  97 127 163 200 241 287
#     4  11  23  35  47  65  88 115 150 193 243 296
#
# _framework density 18.119121
#
# number of rings (size 3 to 8) (size 9 to 14) (size 15 to 20)
#    0.000    2.692    0.000    2.538    1.077    5.846 
#    0.000    2.308    0.000    0.923    0.000    4.308 
#    0.000    0.000    0.000    7.692    0.000    8.000 
#
# Total GULP energy -644226.711727 kJ/mol
# GULP energy per Si atom -12388.975226 kJ/mol
# Density = 1.807788 g / cm^3
# Si number density = 18.119121 Si / 1000 Ang^3
#
#
#
# Elastic Constant Matrix: (Units=GPa)
#
#
# Indices 1 2 3 4 5 6 
#
# 1 114.7336 63.8854 34.2142 0.0000 0.0000 0.0000
# 2 63.8854 79.5301 24.9461 0.0000 0.0000 0.0000
# 3 34.2142 24.9461 62.5038 0.0000 0.0000 0.0000
# 4 0.0000 0.0000 0.0000 12.1318 0.0000 0.0000
# 5 0.0000 0.0000 0.0000 0.0000 4.0582 0.0000
# 6 0.0000 0.0000 0.0000 0.0000 0.0000 -232.4284
#
#
#
# Elastic Compliance Matrix: (Units=1/GPa)
#
#
# Indices 1 2 3 4 5 6 
#
# 1 0.016739 -0.012085 -0.004340 0.000000 0.000000 0.000000
# 2 -0.012085 0.023098 -0.002604 0.000000 0.000000 0.000000
# 3 -0.004340 -0.002604 0.019414 0.000000 0.000000 0.000000
# 4 0.000000 0.000000 0.000000 0.082428 0.000000 0.000000
# 5 0.000000 0.000000 0.000000 0.000000 0.246414 0.000000
# 6 0.000000 0.000000 0.000000 0.000000 0.000000 -0.004302
#
#
# Mechanical properties :
#
#
# Convention : Reuss Voigt Hill
#
# Bulk Modulus (GPa) = 47.18182 55.87321 51.52751
# Shear Modulus (GPa) = 11.65742 -34.33289 -11.33774
#
# Velocity S-wave (km/s) = 2.53924 -4.35770 -2.50418
# Velocity P-wave (km/s) = 5.89010 2.36308 4.48762
#
# Compressibility (1/GPa) = 0.02119461
#
# Stress axis : x y z
#
# Youngs Moduli (GPa) = 59.74046 43.29326 51.51032
#
# Poissons Ratio (x) = 0.52320 0.22353
# Poissons Ratio (y) = 0.72197 0.13411
# Poissons Ratio (z) = 0.25925 0.11272
#
# Static dielectric constant tensor:
#      x y z
#    x 3.351680 0.000000 0.000000 
#    y 0.000000 3.513670 0.000000 
#    z 0.000000 0.000000 3.615920 
# 
# 
# High freq. dielectric constant tensor:
#      x y z
#    x 1.676450 0.000000 0.000000 
#    y 0.000000 1.705730 0.000000 
#    z 0.000000 0.000000 1.688790 
# 
# From -- ./inp_files/7094.got.cif
#   From: 2010.03.12/outbox.cif.g09.slc.cpg/sg47_4_cif.got.tgz:7094.got - 2010.04.14 03:12:58.
