data_PCOD8199601
_publ_section_title
;
Structure prediction by ZEFSAII (Michael W. Deem and Ramdas Pophale) SiO2 
 PCOD8199601
Probable space group: P M M M
;
_chemical_formula_sum "Si O2"
_cell_formula_units_Z 52
_cell_length_a 8.935403
_cell_length_b 13.997045
_cell_length_c 21.703765
_cell_angle_alpha 90.000000
_cell_angle_beta 90.000000
_cell_angle_gamma 90.000000
_cell_volume 2714.473348
_symmetry_space_group_name_H-M "P M M M"
_symmetry_group_IT_number 47
_symmetry_cell_setting 'orthorhombic'
loop_
_space_group_symop_operation_xyz
x,y,z
-x,-y,z
x,-y,-z
-x,y,-z
-x,-y,-z
x,y,-z
-x,y,z
x,-y,z
loop_
_atom_site_type_symbol
_atom_site_label
_atom_site_fract_x
_atom_site_fract_y
_atom_site_fract_z
Si Si1 0.177339 0.289959 0.746806
Si Si2 0.678050 0.607501 0.500000
Si Si3 0.324304 0.717917 0.379735
Si Si4 0.174406 0.768307 0.069759
Si Si5 0.673609 0.390041 0.858054
Si Si6 0.829604 0.107850 0.428624
Si Si7 0.176577 0.894205 0.182081
O O1 0.245949 0.320432 0.681564
O O2 0.235812 0.365427 0.796347
O O3 0.229063 0.182129 0.766074
O O4 0.000000 0.296910 0.743373
O O5 0.739842 0.500000 0.500000
O O6 0.500000 0.610151 0.500000
O O7 0.738289 0.659540 0.561380
O O8 0.500000 0.705362 0.372126
O O9 0.282802 0.828623 0.388950
O O10 0.266643 0.672753 0.085068
O O11 0.224614 0.854427 0.114835
O O12 0.000000 0.744735 0.079930
O O13 0.208506 0.800159 0.000000
O O14 0.500000 0.367819 0.846518
O O15 0.700665 0.500000 0.875211
O O16 0.786428 0.115472 0.500000
O O17 0.000000 0.141949 0.417761
O O18 0.810243 0.000000 0.405185
O O19 0.000000 0.904193 0.185064
O O20 0.248589 0.000000 0.192595
#
# Coordination Sequence:
#
# PCOD8199601 Si02
#       7
#     8   4   8   8   8   8   8
#     4  10  21  36  55  80 108 140 178 222 271 324
#     4   9  20  38  56  75 102 136 173 215 266 327
#     4  11  21  35  56  81 107 139 178 222 274 328
#     4   9  18  32  52  81 113 143 178 221 269 319
#     4  10  21  37  56  77 103 139 182 227 274 323
#     4   9  18  33  53  76 104 139 175 213 262 318
#     4   8  15  30  52  77 106 141 180 219 257 302
#
# _framework density 19.156571
#
# number of rings (size 3 to 8) (size 9 to 14) (size 15 to 20)
#    0.000    2.538    0.769    2.769    0.000    3.692 
#    0.000    6.923    0.000   14.308    0.000    4.308 
#    0.000    0.000    0.000    0.000    0.000    0.000 
#
# Total GULP energy -644734.135195 kJ/mol
# GULP energy per Si atom -12398.733369 kJ/mol
# Density = 1.911297 g / cm^3
# Si number density = 19.156571 Si / 1000 Ang^3
#
#
#
# Elastic Constant Matrix: (Units=GPa)
#
#
# Indices 1 2 3 4 5 6 
#
# 1 57.7658 21.5464 26.7293 0.0000 0.0000 0.0000
# 2 21.5464 84.9721 22.0391 0.0000 0.0000 0.0000
# 3 26.7293 22.0391 109.6178 0.0000 0.0000 0.0000
# 4 0.0000 0.0000 0.0000 15.6490 0.0000 0.0000
# 5 0.0000 0.0000 0.0000 0.0000 29.5620 0.0000
# 6 0.0000 0.0000 0.0000 0.0000 0.0000 24.9300
#
#
#
# Elastic Compliance Matrix: (Units=1/GPa)
#
#
# Indices 1 2 3 4 5 6 
#
# 1 0.020833 -0.004183 -0.004239 0.000000 0.000000 0.000000
# 2 -0.004183 0.013256 -0.001645 0.000000 0.000000 0.000000
# 3 -0.004239 -0.001645 0.010487 0.000000 0.000000 0.000000
# 4 0.000000 0.000000 0.000000 0.063902 0.000000 0.000000
# 5 0.000000 0.000000 0.000000 0.000000 0.033827 0.000000
# 6 0.000000 0.000000 0.000000 0.000000 0.000000 0.040112
#
#
# Mechanical properties :
#
#
# Convention : Reuss Voigt Hill
#
# Bulk Modulus (GPa) = 40.91394 43.66503 42.28949
# Shear Modulus (GPa) = 23.73055 26.16426 24.94740
#
# Velocity S-wave (km/s) = 3.52343 3.69970 3.61264
# Velocity P-wave (km/s) = 6.16091 6.41043 6.28691
#
# Compressibility (1/GPa) = 0.02444155
#
# Stress axis : x y z
#
# Youngs Moduli (GPa) = 48.00071 75.43753 95.35625
#
# Poissons Ratio (x) = 0.31557 0.40421
# Poissons Ratio (y) = 0.20080 0.15687
# Poissons Ratio (z) = 0.20347 0.12411
#
# Static dielectric constant tensor:
#      x y z
#    x 3.276630 0.000000 0.000000 
#    y 0.000000 3.644910 0.000000 
#    z 0.000000 0.000000 3.545800 
# 
# 
# High freq. dielectric constant tensor:
#      x y z
#    x 1.722490 0.000000 0.000000 
#    y 0.000000 1.741920 0.000000 
#    z 0.000000 0.000000 1.746190 
# 
# From -- ./inp_files/12543.got.cif
#   From: 2010.03.12/outbox.cif.g09.slc.cpg/sg47_7_cif.got.tgz:12543.got - 2010.04.14 03:12:58.
