data_PCOD8199035
_publ_section_title
;
Structure prediction by ZEFSAII (Michael W. Deem and Ramdas Pophale) SiO2 
 PCOD8199035
Probable space group: P M M M
;
_chemical_formula_sum "Si O2"
_cell_formula_units_Z 60
_cell_length_a 13.445399
_cell_length_b 13.195329
_cell_length_c 18.454906
_cell_angle_alpha 90.000000
_cell_angle_beta 90.000000
_cell_angle_gamma 90.000000
_cell_volume 3274.204154
_symmetry_space_group_name_H-M "P M M M"
_symmetry_group_IT_number 47
_symmetry_cell_setting 'orthorhombic'
loop_
_space_group_symop_operation_xyz
x,y,z
-x,-y,z
x,-y,-z
-x,y,-z
-x,-y,-z
x,y,-z
-x,y,z
x,-y,z
loop_
_atom_site_type_symbol
_atom_site_label
_atom_site_fract_x
_atom_site_fract_y
_atom_site_fract_z
Si Si1 0.611354 0.885342 0.212588
Si Si2 0.192647 0.800869 0.164223
Si Si3 0.186733 0.614813 0.585167
Si Si4 0.691366 0.888819 0.372411
Si Si5 0.887625 0.793429 0.675063
Si Si6 0.886942 0.612868 0.085410
Si Si7 0.882681 0.000000 0.082207
Si Si8 0.607515 0.688852 0.580817
O O1 0.500000 0.844617 0.198359
O O2 0.688856 0.813669 0.171682
O O3 0.634057 0.882599 0.297115
O O4 0.622678 0.000000 0.183511
O O5 0.137543 0.784974 0.240346
O O6 0.182240 0.698152 0.119428
O O7 0.150133 0.899104 0.123952
O O8 0.180575 0.646672 0.500000
O O9 0.150930 0.500000 0.595534
O O10 0.117144 0.684496 0.634854
O O11 0.300876 0.626144 0.615359
O O12 0.809508 0.868955 0.362739
O O13 0.639411 0.806778 0.423381
O O14 0.679466 0.000000 0.407365
O O15 0.000000 0.835297 0.666478
O O16 0.853950 0.500000 0.110928
O O17 0.000000 0.633337 0.109895
O O18 0.877830 0.621062 0.000000
O O19 0.000000 0.000000 0.078928
O O20 0.839399 0.000000 0.000000
O O21 0.592764 0.649125 0.500000
O O22 0.500000 0.673803 0.621304
#
# Coordination Sequence:
#
# PCOD8199035 Si02
#       8
#     8   8   8   8   8   8   4   8
#     4   9  17  31  50  71  99 135 173 212 257 310
#     4  11  20  34  53  81 109 138 174 220 266 309
#     4   9  19  36  54  72  99 135 176 221 266 315
#     4   9  18  31  46  67  94 130 169 201 246 306
#     4  10  21  33  49  75 103 132 168 213 260 307
#     4   9  18  33  53  76 104 140 175 206 252 315
#     4  11  22  34  53  83 116 146 175 212 265 325
#     4   9  17  29  47  72  98 123 158 209 265 315
#
# _framework density 18.325064999999999
#
# number of rings (size 3 to 8) (size 9 to 14) (size 15 to 20)
#    0.000    2.467    0.667    2.400    0.933    3.733 
#    0.000    2.667    0.000    2.400    0.000    4.667 
#    0.000    0.000    0.000    0.000    0.000    0.000 
#
# Total GULP energy -743558.313458 kJ/mol
# GULP energy per Si atom -12392.638558 kJ/mol
# Density = 1.828336 g / cm^3
# Si number density = 18.325065 Si / 1000 Ang^3
#
#
#
# Elastic Constant Matrix: (Units=GPa)
#
#
# Indices 1 2 3 4 5 6 
#
# 1 117.4198 21.4377 21.8486 0.0000 0.0000 0.0000
# 2 21.4377 97.8825 34.2539 0.0000 0.0000 0.0000
# 3 21.8486 34.2539 59.0633 0.0000 0.0000 0.0000
# 4 0.0000 0.0000 0.0000 23.8566 0.0000 0.0000
# 5 0.0000 0.0000 0.0000 0.0000 19.4621 0.0000
# 6 0.0000 0.0000 0.0000 0.0000 0.0000 20.0422
#
#
#
# Elastic Compliance Matrix: (Units=1/GPa)
#
#
# Indices 1 2 3 4 5 6 
#
# 1 0.009229 -0.001037 -0.002813 0.000000 0.000000 0.000000
# 2 -0.001037 0.012934 -0.007118 0.000000 0.000000 0.000000
# 3 -0.002813 -0.007118 0.022099 0.000000 0.000000 0.000000
# 4 0.000000 0.000000 0.000000 0.041917 0.000000 0.000000
# 5 0.000000 0.000000 0.000000 0.000000 0.051382 0.000000
# 6 0.000000 0.000000 0.000000 0.000000 0.000000 0.049895
#
#
# Mechanical properties :
#
#
# Convention : Reuss Voigt Hill
#
# Bulk Modulus (GPa) = 44.78648 47.71621 46.25135
# Shear Modulus (GPa) = 23.05915 25.79388 24.42652
#
# Velocity S-wave (km/s) = 3.55116 3.75584 3.65493
# Velocity P-wave (km/s) = 6.42708 6.70102 6.56548
#
# Compressibility (1/GPa) = 0.02232817
#
# Stress axis : x y z
#
# Youngs Moduli (GPa) = 108.35257 77.31403 45.25032
#
# Poissons Ratio (x) = 0.08018 0.12727
# Poissons Ratio (y) = 0.11237 0.32207
# Poissons Ratio (z) = 0.30475 0.55029
#
# Static dielectric constant tensor:
#      x y z
#    x 3.547660 0.000000 0.000000 
#    y 0.000000 3.448450 0.000000 
#    z 0.000000 0.000000 3.211180 
# 
# 
# High freq. dielectric constant tensor:
#      x y z
#    x 1.711430 0.000000 0.000000 
#    y 0.000000 1.706960 0.000000 
#    z 0.000000 0.000000 1.684360 
# 
# From -- ./inp_files/30546.got.cif
#   From: 2010.03.12/outbox.cif.g09.slc.cpg/sg47_16_cif.got.tgz:30546.got - 2010.04.14 03:12:58.
