data_PCOD8199546
_publ_section_title
;
Structure prediction by ZEFSAII (Michael W. Deem and Ramdas Pophale) SiO2 
 PCOD8199546
Probable space group: P M M M
;
_chemical_formula_sum "Si O2"
_cell_formula_units_Z 44
_cell_length_a 10.649000
_cell_length_b 17.491069
_cell_length_c 13.158788
_cell_angle_alpha 90.000000
_cell_angle_beta 90.000000
_cell_angle_gamma 90.000000
_cell_volume 2450.987352
_symmetry_space_group_name_H-M "P M M M"
_symmetry_group_IT_number 47
_symmetry_cell_setting 'orthorhombic'
loop_
_space_group_symop_operation_xyz
x,y,z
-x,-y,z
x,-y,-z
-x,y,-z
-x,-y,-z
x,y,-z
-x,y,z
x,-y,z
loop_
_atom_site_type_symbol
_atom_site_label
_atom_site_fract_x
_atom_site_fract_y
_atom_site_fract_z
Si Si1 0.856744 0.193722 0.886995
Si Si2 0.148234 0.585346 0.612678
Si Si3 0.500000 0.590556 0.880527
Si Si4 0.637358 0.812855 0.385816
Si Si5 0.856334 0.910595 0.702860
Si Si6 0.293945 0.686011 0.766866
O O1 0.835999 0.119516 0.817015
O O2 0.776370 0.265692 0.852215
O O3 0.000000 0.220803 0.884220
O O4 0.814598 0.169726 0.000000
O O5 0.192496 0.612102 0.500000
O O6 0.199964 0.500000 0.633362
O O7 0.194830 0.641554 0.698810
O O8 0.000000 0.585417 0.617374
O O9 0.500000 0.500000 0.863335
O O10 0.379765 0.626155 0.825819
O O11 0.500000 0.610862 0.000000
O O12 0.653121 0.780916 0.500000
O O13 0.500000 0.854069 0.374923
O O14 0.753839 0.870168 0.368354
O O15 0.632043 0.742610 0.307705
O O16 0.000000 0.892722 0.666066
O O17 0.829811 0.000000 0.701239
#
# Coordination Sequence:
#
# PCOD8199546 Si02
#       6
#     8   8   4   8   8   8
#     4   9  18  32  53  80 105 133 173 219 267 317
#     4   9  18  32  51  77 107 137 170 212 266 325
#     4  11  24  38  53  75 102 137 181 225 271 317
#     4  10  21  36  54  78 107 141 179 218 262 315
#     4   9  19  35  55  80 110 143 179 219 264 316
#     4  11  19  35  54  75 101 140 175 221 263 317
#
# _framework density 17.951948999999999
#
# number of rings (size 3 to 8) (size 9 to 14) (size 15 to 20)
#    0.000    2.273    0.909    2.727    0.000    2.182 
#    0.000    3.636    0.000    2.182    0.000   10.182 
#    0.000    0.000    0.000    0.000    0.000    0.000 
#
# Total GULP energy -545366.456208 kJ/mol
# GULP energy per Si atom -12394.692187 kJ/mol
# Density = 1.791109 g / cm^3
# Si number density = 17.951949 Si / 1000 Ang^3
#
#
#
# Elastic Constant Matrix: (Units=GPa)
#
#
# Indices 1 2 3 4 5 6 
#
# 1 87.9461 44.6324 46.6659 0.0000 0.0000 0.0000
# 2 44.6324 90.8314 38.7317 0.0000 0.0000 0.0000
# 3 46.6659 38.7317 109.1621 0.0000 0.0000 0.0000
# 4 0.0000 0.0000 0.0000 10.8556 0.0000 0.0000
# 5 0.0000 0.0000 0.0000 0.0000 25.9353 0.0000
# 6 0.0000 0.0000 0.0000 0.0000 0.0000 30.1928
#
#
#
# Elastic Compliance Matrix: (Units=1/GPa)
#
#
# Indices 1 2 3 4 5 6 
#
# 1 0.017309 -0.006304 -0.005163 0.000000 0.000000 0.000000
# 2 -0.006304 0.015268 -0.002722 0.000000 0.000000 0.000000
# 3 -0.005163 -0.002722 0.012334 0.000000 0.000000 0.000000
# 4 0.000000 0.000000 0.000000 0.092119 0.000000 0.000000
# 5 0.000000 0.000000 0.000000 0.000000 0.038557 0.000000
# 6 0.000000 0.000000 0.000000 0.000000 0.000000 0.033120
#
#
# Mechanical properties :
#
#
# Convention : Reuss Voigt Hill
#
# Bulk Modulus (GPa) = 60.48638 60.88884 60.68761
# Shear Modulus (GPa) = 20.61036 23.92405 22.26721
#
# Velocity S-wave (km/s) = 3.39202 3.65454 3.52572
# Velocity P-wave (km/s) = 7.00769 7.19714 7.10305
#
# Compressibility (1/GPa) = 0.01653265
#
# Stress axis : x y z
#
# Youngs Moduli (GPa) = 57.77224 65.49731 81.07870
#
# Poissons Ratio (x) = 0.41289 0.41860
# Poissons Ratio (y) = 0.36419 0.22072
# Poissons Ratio (z) = 0.29827 0.17830
#
# Static dielectric constant tensor:
#      x y z
#    x 3.351090 0.000000 0.000000 
#    y 0.000000 3.261810 0.000000 
#    z 0.000000 0.000000 3.451770 
# 
# 
# High freq. dielectric constant tensor:
#      x y z
#    x 1.697410 0.000000 0.000000 
#    y 0.000000 1.686950 0.000000 
#    z 0.000000 0.000000 1.703060 
# 
# From -- ./inp_files/16331.got.cif
#   From: 2010.03.12/outbox.cif.g09.slc.cpg/sg47_9_cif.got.tgz:16331.got - 2010.04.14 03:12:58.
