data_PCOD8199557
_publ_section_title
;
Structure prediction by ZEFSAII (Michael W. Deem and Ramdas Pophale) SiO2 
 PCOD8199557
Probable space group: P M M M
;
_chemical_formula_sum "Si O2"
_cell_formula_units_Z 64
_cell_length_a 20.121306
_cell_length_b 18.580573
_cell_length_c 9.026106
_cell_angle_alpha 90.000000
_cell_angle_beta 90.000000
_cell_angle_gamma 90.000000
_cell_volume 3374.548685
_symmetry_space_group_name_H-M "P M M M"
_symmetry_group_IT_number 47
_symmetry_cell_setting 'orthorhombic'
loop_
_space_group_symop_operation_xyz
x,y,z
-x,-y,z
x,-y,-z
-x,y,-z
-x,-y,-z
x,y,-z
-x,y,z
x,-y,z
loop_
_atom_site_type_symbol
_atom_site_label
_atom_site_fract_x
_atom_site_fract_y
_atom_site_fract_z
Si Si1 0.188015 0.828348 0.674693
Si Si2 0.683128 0.082883 0.327607
Si Si3 0.304115 0.416846 0.328769
Si Si4 0.923212 0.917421 0.171424
Si Si5 0.073612 0.419826 0.175949
Si Si6 0.193912 0.324799 0.175881
Si Si7 0.576310 0.175705 0.826114
Si Si8 0.574757 0.679823 0.329625
O O1 0.184048 0.817723 0.500000
O O2 0.249841 0.877486 0.722666
O O3 0.120251 0.864922 0.728484
O O4 0.199136 0.752178 0.750088
O O5 0.669247 0.094900 0.500000
O O6 0.619921 0.111760 0.239393
O O7 0.692685 0.000000 0.286819
O O8 0.283666 0.405295 0.500000
O O9 0.302247 0.500000 0.283703
O O10 0.255363 0.373746 0.222609
O O11 0.378618 0.388498 0.299495
O O12 0.000000 0.899137 0.202189
O O13 0.908330 0.000000 0.214521
O O14 0.905992 0.903904 0.000000
O O15 0.090554 0.500000 0.236081
O O16 0.126889 0.362929 0.236278
O O17 0.000000 0.396624 0.230414
O O18 0.075808 0.421488 0.000000
O O19 0.193576 0.315929 0.000000
O O20 0.500000 0.161648 0.780453
O O21 0.600917 0.252209 0.763425
O O22 0.586046 0.177297 0.000000
O O23 0.577540 0.703709 0.500000
O O24 0.500000 0.657939 0.282266
#
# Coordination Sequence:
#
# PCOD8199557 Si02
#       8
#     8   8   8   8   8   8   8   8
#     4  11  23  38  56  80 111 145 183 227 274 324
#     4  10  22  39  57  77 103 138 180 223 266 317
#     4  10  21  36  54  78 109 142 176 221 275 324
#     4   9  19  37  60  85 113 145 182 224 270 323
#     4   8  15  30  52  76 101 131 170 215 259 303
#     4  11  22  35  54  80 108 140 180 224 270 323
#     4  10  21  36  55  81 111 140 172 215 267 321
#     4   9  18  34  56  79 104 139 181 219 258 312
#
# _framework density 18.965499000000001
#
# number of rings (size 3 to 8) (size 9 to 14) (size 15 to 20)
#    0.000    2.250    0.000    3.375    0.000    8.250 
#    0.000    4.375    0.000    1.125    0.000    7.000 
#    0.000    0.000    0.000    0.000    0.000    0.000 
#
# Total GULP energy -793748.090522 kJ/mol
# GULP energy per Si atom -12402.313914 kJ/mol
# Density = 1.892233 g / cm^3
# Si number density = 18.965499 Si / 1000 Ang^3
#
#
#
# Elastic Constant Matrix: (Units=GPa)
#
#
# Indices 1 2 3 4 5 6 
#
# 1 114.5667 78.8182 48.0338 0.0000 0.0000 0.0000
# 2 78.8182 149.7477 56.1067 0.0000 0.0000 0.0000
# 3 48.0338 56.1067 62.6276 0.0000 0.0000 0.0000
# 4 0.0000 0.0000 0.0000 22.3906 0.0000 0.0000
# 5 0.0000 0.0000 0.0000 0.0000 31.2407 0.0000
# 6 0.0000 0.0000 0.0000 0.0000 0.0000 41.0007
#
#
#
# Elastic Compliance Matrix: (Units=1/GPa)
#
#
# Indices 1 2 3 4 5 6 
#
# 1 0.015419 -0.005547 -0.006857 0.000000 0.000000 0.000000
# 2 -0.005547 0.012047 -0.006539 0.000000 0.000000 0.000000
# 3 -0.006857 -0.006539 0.027085 0.000000 0.000000 0.000000
# 4 0.000000 0.000000 0.000000 0.044662 0.000000 0.000000
# 5 0.000000 0.000000 0.000000 0.000000 0.032009 0.000000
# 6 0.000000 0.000000 0.000000 0.000000 0.000000 0.024390
#
#
# Mechanical properties :
#
#
# Convention : Reuss Voigt Hill
#
# Bulk Modulus (GPa) = 60.00190 76.98438 68.49314
# Shear Modulus (GPa) = 25.11899 28.52530 26.82215
#
# Velocity S-wave (km/s) = 3.64326 3.88243 3.76474
# Velocity P-wave (km/s) = 7.02879 7.79600 7.42231
#
# Compressibility (1/GPa) = 0.01666614
#
# Stress axis : x y z
#
# Youngs Moduli (GPa) = 64.85317 83.00684 36.92138
#
# Poissons Ratio (x) = 0.46041 0.25318
# Poissons Ratio (y) = 0.35972 0.24142
# Poissons Ratio (z) = 0.44471 0.54276
#
# Static dielectric constant tensor:
#      x y z
#    x 3.676920 0.000000 0.000000 
#    y 0.000000 3.547670 0.000000 
#    z 0.000000 0.000000 3.336980 
# 
# 
# High freq. dielectric constant tensor:
#      x y z
#    x 1.748900 0.000000 0.000000 
#    y 0.000000 1.740810 0.000000 
#    z 0.000000 0.000000 1.723400 
# 
# From -- ./inp_files/11569.got.cif
#   From: 2010.03.12/outbox.cif.g09.slc.cpg/sg47_6_cif.got.tgz:11569.got - 2010.04.14 03:12:58.
