data_PCOD8199874
_publ_section_title
;
Structure prediction by ZEFSAII (Michael W. Deem and Ramdas Pophale) SiO2 
 PCOD8199874
Probable space group: P M M M
;
_chemical_formula_sum "Si O2"
_cell_formula_units_Z 64
_cell_length_a 8.800483
_cell_length_b 24.026969
_cell_length_c 15.410310
_cell_angle_alpha 90.000000
_cell_angle_beta 90.000000
_cell_angle_gamma 90.000000
_cell_volume 3258.493595
_symmetry_space_group_name_H-M "P M M M"
_symmetry_group_IT_number 47
_symmetry_cell_setting 'orthorhombic'
loop_
_space_group_symop_operation_xyz
x,y,z
-x,-y,z
x,-y,-z
-x,y,-z
-x,-y,-z
x,y,-z
-x,y,z
x,-y,z
loop_
_atom_site_type_symbol
_atom_site_label
_atom_site_fract_x
_atom_site_fract_y
_atom_site_fract_z
Si Si1 0.180406 0.062953 0.247070
Si Si2 0.320087 0.562441 0.246017
Si Si3 0.679062 0.256629 0.847231
Si Si4 0.322675 0.134604 0.099375
Si Si5 0.180086 0.136684 0.404268
Si Si6 0.178431 0.256496 0.337842
Si Si7 0.675022 0.637929 0.403550
Si Si8 0.173474 0.365985 0.902532
O O1 0.235023 0.090966 0.158664
O O2 0.247164 0.095272 0.331198
O O3 0.000000 0.064785 0.248058
O O4 0.241550 0.000000 0.250614
O O5 0.500000 0.561052 0.242413
O O6 0.253225 0.500000 0.247675
O O7 0.264734 0.593503 0.333279
O O8 0.263094 0.593458 0.160802
O O9 0.500000 0.262886 0.858561
O O10 0.736155 0.196840 0.881228
O O11 0.724625 0.265032 0.748248
O O12 0.758330 0.304081 0.903589
O O13 0.500000 0.130286 0.120579
O O14 0.287536 0.119255 0.000000
O O15 0.243606 0.120627 0.500000
O O16 0.229851 0.199399 0.382970
O O17 0.000000 0.132085 0.404813
O O18 0.221415 0.306996 0.400786
O O19 0.000000 0.256337 0.316318
O O20 0.691928 0.612044 0.500000
O O21 0.500000 0.653871 0.384452
O O22 0.000000 0.363031 0.871177
O O23 0.186330 0.389947 0.000000
#
# Coordination Sequence:
#
# PCOD8199874 Si02
#       8
#     8   8   8   8   8   8   8   8
#     4  10  21  37  57  82 112 147 191 240 284 328
#     4  10  22  40  61  85 115 155 200 242 283 330
#     4  11  21  36  60  87 116 149 187 233 287 346
#     4  10  22  39  59  83 112 148 187 229 282 343
#     4   9  18  33  54  82 115 149 185 227 278 336
#     4  11  20  33  57  86 118 153 187 230 288 347
#     4  10  21  37  58  86 119 154 192 235 285 341
#     4  11  24  40  60  88 119 152 189 233 289 346
#
# _framework density 19.640978
#
# number of rings (size 3 to 8) (size 9 to 14) (size 15 to 20)
#    0.000    1.750    2.500    1.875    0.000    4.500 
#    0.000    5.000    0.000    1.125    0.000    2.625 
#    0.000    0.000    0.000    0.000    0.000    0.000 
#
# Total GULP energy -793732.572991 kJ/mol
# GULP energy per Si atom -12402.071453 kJ/mol
# Density = 1.959627 g / cm^3
# Si number density = 19.640978 Si / 1000 Ang^3
#
#
#
# Elastic Constant Matrix: (Units=GPa)
#
#
# Indices 1 2 3 4 5 6 
#
# 1 14.0179 21.0427 9.8553 0.0000 0.0000 0.0000
# 2 21.0427 157.0472 61.6514 0.0000 0.0000 0.0000
# 3 9.8553 61.6514 129.8748 0.0000 0.0000 0.0000
# 4 0.0000 0.0000 0.0000 13.1419 0.0000 0.0000
# 5 0.0000 0.0000 0.0000 0.0000 24.7775 0.0000
# 6 0.0000 0.0000 0.0000 0.0000 0.0000 25.7766
#
#
#
# Elastic Compliance Matrix: (Units=1/GPa)
#
#
# Indices 1 2 3 4 5 6 
#
# 1 0.089491 -0.011461 -0.001350 0.000000 0.000000 0.000000
# 2 -0.011461 0.009294 -0.003542 0.000000 0.000000 0.000000
# 3 -0.001350 -0.003542 0.009484 0.000000 0.000000 0.000000
# 4 0.000000 0.000000 0.000000 0.076092 0.000000 0.000000
# 5 0.000000 0.000000 0.000000 0.000000 0.040359 0.000000
# 6 0.000000 0.000000 0.000000 0.000000 0.000000 0.038795
#
#
# Mechanical properties :
#
#
# Convention : Reuss Voigt Hill
#
# Bulk Modulus (GPa) = 13.23420 54.00429 33.61925
# Shear Modulus (GPa) = 15.55654 26.63189 21.09421
#
# Velocity S-wave (km/s) = 2.81738 3.68630 3.28073
# Velocity P-wave (km/s) = 4.16368 6.75824 5.61293
#
# Compressibility (1/GPa) = 0.07556179
#
# Stress axis : x y z
#
# Youngs Moduli (GPa) = 11.17432 107.60097 105.44539
#
# Poissons Ratio (x) = 1.23318 0.14240
# Poissons Ratio (y) = 0.12807 0.37349
# Poissons Ratio (z) = 0.01509 0.38112
#
# Static dielectric constant tensor:
#      x y z
#    x 3.361420 0.000000 0.000000 
#    y 0.000000 3.739190 0.000000 
#    z 0.000000 0.000000 3.717970 
# 
# 
# High freq. dielectric constant tensor:
#      x y z
#    x 1.745330 0.000000 0.000000 
#    y 0.000000 1.763690 0.000000 
#    z 0.000000 0.000000 1.779940 
# 
# From -- ./inp_files/7842.got.cif
#   From: 2010.03.12/outbox.cif.g09.slc.cpg/sg47_4_cif.got.tgz:7842.got - 2010.04.14 03:12:58.
