data_PCOD8199390
_publ_section_title
;
Structure prediction by ZEFSAII (Michael W. Deem and Ramdas Pophale) SiO2 
 PCOD8199390
Probable space group: P M M M
;
_chemical_formula_sum "Si O2"
_cell_formula_units_Z 64
_cell_length_a 15.269406
_cell_length_b 14.909459
_cell_length_c 18.941605
_cell_angle_alpha 90.000000
_cell_angle_beta 90.000000
_cell_angle_gamma 90.000000
_cell_volume 4312.218949
_symmetry_space_group_name_H-M "P M M M"
_symmetry_group_IT_number 47
_symmetry_cell_setting 'orthorhombic'
loop_
_space_group_symop_operation_xyz
x,y,z
-x,-y,z
x,-y,-z
-x,y,-z
-x,-y,-z
x,y,-z
-x,y,z
x,-y,z
loop_
_atom_site_type_symbol
_atom_site_label
_atom_site_fract_x
_atom_site_fract_y
_atom_site_fract_z
Si Si1 0.604168 0.599212 0.578038
Si Si2 0.360189 0.099923 0.080878
Si Si3 0.598664 0.727347 0.161690
Si Si4 0.154863 0.902903 0.081439
Si Si5 0.395800 0.900180 0.578538
Si Si6 0.395511 0.250983 0.319326
Si Si7 0.096448 0.714812 0.916172
Si Si8 0.736990 0.395875 0.083743
O O1 0.634916 0.630443 0.500000
O O2 0.500000 0.599761 0.580336
O O3 0.640130 0.500000 0.594295
O O4 0.642131 0.664296 0.637649
O O5 0.408166 0.175285 0.125981
O O6 0.257378 0.113343 0.089625
O O7 0.388050 0.000000 0.106597
O O8 0.388271 0.112608 0.000000
O O9 0.500000 0.687927 0.165648
O O10 0.639529 0.742014 0.239614
O O11 0.656855 0.656563 0.119137
O O12 0.108405 0.815776 0.115901
O O13 0.128247 0.000000 0.116187
O O14 0.128528 0.908630 0.000000
O O15 0.365105 0.869002 0.500000
O O16 0.500000 0.898510 0.580217
O O17 0.357997 0.836356 0.640069
O O18 0.360699 0.000000 0.594112
O O19 0.500000 0.248524 0.319165
O O20 0.171097 0.646553 0.889025
O O21 0.000000 0.679269 0.893696
O O22 0.104516 0.721133 0.000000
O O23 0.734580 0.500000 0.106249
O O24 0.726985 0.385141 0.000000
#
# Coordination Sequence:
#
# PCOD8199390 Si02
#       8
#     8   8   8   8   8   8   8   8
#     4   8  13  22  37  54  70  90 117 151 192 236
#     4   9  17  30  46  59  74 101 137 176 214 249
#     4  11  22  32  43  59  79 107 143 181 219 254
#     4   8  13  23  41  63  85 105 122 148 193 247
#     4   8  13  22  37  55  75 101 131 162 197 238
#     4   9  17  26  36  53  76  99 126 165 206 243
#     4   9  16  27  46  69  87 101 121 157 209 263
#     4  10  21  36  49  59  76 103 138 182 224 260
#
# _framework density 14.841547
#
# number of rings (size 3 to 8) (size 9 to 14) (size 15 to 20)
#    0.000    3.000    1.250    2.250    0.000    4.500 
#    0.000    6.250    0.000    0.000    0.000    0.000 
#    0.000    0.000    0.000    0.000    0.000    2.500 
#
# Total GULP energy -792944.073768 kJ/mol
# GULP energy per Si atom -12389.751153 kJ/mol
# Density = 1.480777 g / cm^3
# Si number density = 14.841547 Si / 1000 Ang^3
#
#
#
# Elastic Constant Matrix: (Units=GPa)
#
#
# Indices 1 2 3 4 5 6 
#
# 1 50.7499 32.7583 17.7120 0.0000 0.0000 0.0000
# 2 32.7583 116.3186 47.6160 0.0000 0.0000 0.0000
# 3 17.7120 47.6160 66.6219 0.0000 0.0000 0.0000
# 4 0.0000 0.0000 0.0000 10.8335 0.0000 0.0000
# 5 0.0000 0.0000 0.0000 0.0000 -0.5438 0.0000
# 6 0.0000 0.0000 0.0000 0.0000 0.0000 11.6792
#
#
#
# Elastic Compliance Matrix: (Units=1/GPa)
#
#
# Indices 1 2 3 4 5 6 
#
# 1 0.024312 -0.005938 -0.002219 0.000000 0.000000 0.000000
# 2 -0.005938 0.013603 -0.008144 0.000000 0.000000 0.000000
# 3 -0.002219 -0.008144 0.021421 0.000000 0.000000 0.000000
# 4 0.000000 0.000000 0.000000 0.092307 0.000000 0.000000
# 5 0.000000 0.000000 0.000000 0.000000 -1.839035 0.000000
# 6 0.000000 0.000000 0.000000 0.000000 0.000000 0.085622
#
#
# Mechanical properties :
#
#
# Convention : Reuss Voigt Hill
#
# Bulk Modulus (GPa) = 37.40682 47.76255 42.58468
# Shear Modulus (GPa) = -3.20460 13.43406 5.11473
#
# Velocity S-wave (km/s) = -1.47102 3.01186 1.85841
# Velocity P-wave (km/s) = 4.73008 6.65932 5.77582
#
# Compressibility (1/GPa) = 0.02673309
#
# Stress axis : x y z
#
# Youngs Moduli (GPa) = 41.13162 73.51235 46.68420
#
# Poissons Ratio (x) = 0.43655 0.10361
# Poissons Ratio (y) = 0.24426 0.38018
# Poissons Ratio (z) = 0.09128 0.59866
#
# Static dielectric constant tensor:
#      x y z
#    x 2.509230 0.000000 0.000000 
#    y 0.000000 3.207790 0.000000 
#    z 0.000000 0.000000 2.755140 
# 
# 
# High freq. dielectric constant tensor:
#      x y z
#    x 1.513940 0.000000 0.000000 
#    y 0.000000 1.586660 0.000000 
#    z 0.000000 0.000000 1.531620 
# 
# From -- ./inp_files/28335.got.cif
#   From: 2010.03.12/outbox.cif.g09.slc.cpg/sg47_15_cif.got.tgz:28335.got - 2010.04.14 03:12:58.
