data_PCOD8199084
_publ_section_title
;
Structure prediction by ZEFSAII (Michael W. Deem and Ramdas Pophale) SiO2 
 PCOD8199084
Probable space group: P M M M
;
_chemical_formula_sum "Si O2"
_cell_formula_units_Z 52
_cell_length_a 9.380140
_cell_length_b 20.741400
_cell_length_c 14.760377
_cell_angle_alpha 90.000000
_cell_angle_beta 90.000000
_cell_angle_gamma 90.000000
_cell_volume 2871.738148
_symmetry_space_group_name_H-M "P M M M"
_symmetry_group_IT_number 47
_symmetry_cell_setting 'orthorhombic'
loop_
_space_group_symop_operation_xyz
x,y,z
-x,-y,z
x,-y,-z
-x,y,-z
-x,-y,-z
x,y,-z
-x,y,z
x,-y,z
loop_
_atom_site_type_symbol
_atom_site_label
_atom_site_fract_x
_atom_site_fract_y
_atom_site_fract_z
Si Si1 0.658363 0.863318 0.846635
Si Si2 0.332722 0.408098 0.763742
Si Si3 0.663626 0.260902 0.740759
Si Si4 0.158116 0.811973 0.399036
Si Si5 0.168406 0.926685 0.000000
Si Si6 0.333215 0.500000 0.603340
Si Si7 0.338791 0.927037 0.345360
Si Si8 0.830563 0.500000 0.107260
O O1 0.500000 0.868565 0.889765
O O2 0.692335 0.788607 0.823184
O O3 0.667480 0.907870 0.759123
O O4 0.777618 0.888592 0.913278
O O5 0.500000 0.421947 0.781477
O O6 0.296724 0.332853 0.769123
O O7 0.289380 0.437546 0.664719
O O8 0.240162 0.437969 0.845002
O O9 0.500000 0.255456 0.709305
O O10 0.758947 0.242115 0.655930
O O11 0.149228 0.784995 0.500000
O O12 0.236034 0.880910 0.401555
O O13 0.000000 0.821241 0.357784
O O14 0.000000 0.925678 0.000000
O O15 0.226416 0.000000 0.000000
O O16 0.500000 0.500000 0.587679
O O17 0.264105 0.500000 0.500000
O O18 0.500000 0.919607 0.381851
O O19 0.284735 0.000000 0.357215
O O20 0.000000 0.500000 0.123985
O O21 0.795829 0.500000 0.000000
#
# Coordination Sequence:
#
# PCOD8199084 Si02
#       8
#     8   8   8   8   4   4   8   4
#     4   9  18  34  53  72  97 127 164 210 260 312
#     4   9  18  34  57  82 108 141 181 223 266 308
#     4   9  19  36  56  77 101 134 177 220 261 307
#     4  10  21  34  48  71 104 140 175 211 256 313
#     4  11  23  35  49  73 101 128 163 206 255 317
#     4   8  14  26  48  81 114 137 165 210 260 308
#     4   9  18  33  53  74  95 125 169 219 268 314
#     4  10  21  37  56  81 114 147 179 214 258 314
#
# _framework density 18.107500000000002
#
# number of rings (size 3 to 8) (size 9 to 14) (size 15 to 20)
#    0.000    2.692    0.000    2.769    0.000    7.385 
#    1.385    3.077    0.000    3.692    0.000    0.000 
#    0.000    0.000    0.000    0.000    0.000    0.000 
#
# Total GULP energy -644568.387255 kJ/mol
# GULP energy per Si atom -12395.545909 kJ/mol
# Density = 1.806629 g / cm^3
# Si number density = 18.107500 Si / 1000 Ang^3
#
#
#
# Elastic Constant Matrix: (Units=GPa)
#
#
# Indices 1 2 3 4 5 6 
#
# 1 91.8380 61.8321 52.2093 0.0000 0.0000 0.0000
# 2 61.8321 150.2993 51.1237 0.0000 0.0000 0.0000
# 3 52.2093 51.1237 104.9371 0.0000 0.0000 0.0000
# 4 0.0000 0.0000 0.0000 8.7059 0.0000 0.0000
# 5 0.0000 0.0000 0.0000 0.0000 29.0483 0.0000
# 6 0.0000 0.0000 0.0000 0.0000 0.0000 15.0914
#
#
#
# Elastic Compliance Matrix: (Units=1/GPa)
#
#
# Indices 1 2 3 4 5 6 
#
# 1 0.018084 -0.005249 -0.006440 0.000000 0.000000 0.000000
# 2 -0.005249 0.009499 -0.002016 0.000000 0.000000 0.000000
# 3 -0.006440 -0.002016 0.013716 0.000000 0.000000 0.000000
# 4 0.000000 0.000000 0.000000 0.114865 0.000000 0.000000
# 5 0.000000 0.000000 0.000000 0.000000 0.034425 0.000000
# 6 0.000000 0.000000 0.000000 0.000000 0.000000 0.066263
#
#
# Mechanical properties :
#
#
# Convention : Reuss Voigt Hill
#
# Bulk Modulus (GPa) = 72.00402 75.26717 73.63560
# Shear Modulus (GPa) = 17.30757 22.69640 20.00198
#
# Velocity S-wave (km/s) = 3.09499 3.54422 3.32719
# Velocity P-wave (km/s) = 7.25417 7.64236 7.45080
#
# Compressibility (1/GPa) = 0.01388811
#
# Stress axis : x y z
#
# Youngs Moduli (GPa) = 55.29788 105.27936 72.90875
#
# Poissons Ratio (x) = 0.55261 0.46953
# Poissons Ratio (y) = 0.29026 0.14698
# Poissons Ratio (z) = 0.35612 0.21224
#
# Static dielectric constant tensor:
#      x y z
#    x 3.320810 0.000000 0.000000 
#    y 0.000000 3.452960 0.000000 
#    z 0.000000 0.000000 3.354420 
# 
# 
# High freq. dielectric constant tensor:
#      x y z
#    x 1.693200 0.000000 0.000000 
#    y 0.000000 1.703630 0.000000 
#    z 0.000000 0.000000 1.692370 
# 
# From -- ./inp_files/21511.got.cif
#   From: 2010.03.12/outbox.cif.g09.slc.cpg/sg47_11_cif.got.tgz:21511.got - 2010.04.14 03:12:58.
