data_PCOD8199604
_publ_section_title
;
Structure prediction by ZEFSAII (Michael W. Deem and Ramdas Pophale) SiO2 
 PCOD8199604
Probable space group: P M M M
;
_chemical_formula_sum "Si O2"
_cell_formula_units_Z 40
_cell_length_a 7.568184
_cell_length_b 9.147324
_cell_length_c 28.927208
_cell_angle_alpha 90.000000
_cell_angle_beta 90.000000
_cell_angle_gamma 90.000000
_cell_volume 2002.591013
_symmetry_space_group_name_H-M "P M M M"
_symmetry_group_IT_number 47
_symmetry_cell_setting 'orthorhombic'
loop_
_space_group_symop_operation_xyz
x,y,z
-x,-y,z
x,-y,-z
-x,y,-z
-x,-y,-z
x,y,-z
-x,y,z
x,-y,z
loop_
_atom_site_type_symbol
_atom_site_label
_atom_site_fract_x
_atom_site_fract_y
_atom_site_fract_z
Si Si1 0.798597 0.840425 0.360859
Si Si2 0.708575 0.663466 0.448478
Si Si3 0.500000 0.167867 0.106805
Si Si4 0.500000 0.829945 0.784383
Si Si5 0.791639 0.328988 0.727628
Si Si6 0.797489 0.330068 0.052858
O O1 0.787240 0.774780 0.411896
O O2 0.721864 0.731708 0.321964
O O3 0.000000 0.864212 0.348178
O O4 0.703477 0.000000 0.359485
O O5 0.768050 0.711907 0.500000
O O6 0.500000 0.665190 0.444623
O O7 0.779545 0.500000 0.438257
O O8 0.500000 0.190435 0.161170
O O9 0.676428 0.238664 0.086818
O O10 0.500000 0.000000 0.092432
O O11 0.321311 0.753529 0.766375
O O12 0.500000 0.000000 0.769840
O O13 0.748289 0.500000 0.728924
O O14 0.000000 0.300483 0.736306
O O15 0.762942 0.500000 0.062061
O O16 0.000000 0.289611 0.063467
O O17 0.750273 0.291463 0.000000
#
# Coordination Sequence:
#
# PCOD8199604 Si02
#       6
#     8   8   4   4   8   8
#     4  10  21  36  55  80 109 141 176 219 277 340
#     4   9  19  35  53  75 105 141 180 222 269 323
#     4  11  24  38  55  86 124 159 197 242 295 354
#     4  11  25  42  60  85 119 159 196 236 297 358
#     4  10  22  41  64  88 113 145 192 246 293 344
#     4   9  19  37  61  88 119 159 205 249 293 341
#
# _framework density 19.974122999999999
#
# number of rings (size 3 to 8) (size 9 to 14) (size 15 to 20)
#    0.000    2.200    0.000    3.300    1.400    8.000 
#    0.000    8.000    0.000    0.000    0.000    0.000 
#    0.000    0.000    0.000    0.000    0.000    0.000 
#
# Total GULP energy -495932.716203 kJ/mol
# GULP energy per Si atom -12398.317905 kJ/mol
# Density = 1.992866 g / cm^3
# Si number density = 19.974123 Si / 1000 Ang^3
#
#
#
# Elastic Constant Matrix: (Units=GPa)
#
#
# Indices 1 2 3 4 5 6 
#
# 1 83.9890 59.6071 50.5728 0.0000 0.0000 0.0000
# 2 59.6071 156.3759 82.9573 0.0000 0.0000 0.0000
# 3 50.5728 82.9573 113.6562 0.0000 0.0000 0.0000
# 4 0.0000 0.0000 0.0000 35.0780 0.0000 0.0000
# 5 0.0000 0.0000 0.0000 0.0000 -20.8052 0.0000
# 6 0.0000 0.0000 0.0000 0.0000 0.0000 3.7810
#
#
#
# Elastic Compliance Matrix: (Units=1/GPa)
#
#
# Indices 1 2 3 4 5 6 
#
# 1 0.017822 -0.004221 -0.004849 0.000000 0.000000 0.000000
# 2 -0.004221 0.011435 -0.006468 0.000000 0.000000 0.000000
# 3 -0.004849 -0.006468 0.015678 0.000000 0.000000 0.000000
# 4 0.000000 0.000000 0.000000 0.028508 0.000000 0.000000
# 5 0.000000 0.000000 0.000000 0.000000 -0.048065 0.000000
# 6 0.000000 0.000000 0.000000 0.000000 0.000000 0.264478
#
#
# Mechanical properties :
#
#
# Convention : Reuss Voigt Hill
#
# Bulk Modulus (GPa) = 72.16317 82.25505 77.20911
# Shear Modulus (GPa) = 15.35854 14.33637 14.84745
#
# Velocity S-wave (km/s) = 2.77595 2.68199 2.72937
# Velocity P-wave (km/s) = 6.81772 7.13169 6.97647
#
# Compressibility (1/GPa) = 0.01385748
#
# Stress axis : x y z
#
# Youngs Moduli (GPa) = 56.11134 87.44943 63.78544
#
# Poissons Ratio (x) = 0.36909 0.30932
# Poissons Ratio (y) = 0.23683 0.41259
# Poissons Ratio (z) = 0.27210 0.56566
#
# Static dielectric constant tensor:
#      x y z
#    x 3.558390 0.000000 0.000000 
#    y 0.000000 3.864840 0.000000 
#    z 0.000000 0.000000 3.689870 
# 
# 
# High freq. dielectric constant tensor:
#      x y z
#    x 1.780940 0.000000 0.000000 
#    y 0.000000 1.785130 0.000000 
#    z 0.000000 0.000000 1.777140 
# 
# From -- ./inp_files/33080.got.cif
#   From: 2010.03.12/outbox.cif.g09.slc.cpg/sg47_17_cif.got.tgz:33080.got - 2010.04.14 03:12:58.
