data_PCOD8199525
_publ_section_title
;
Structure prediction by ZEFSAII (Michael W. Deem and Ramdas Pophale) SiO2 
 PCOD8199525
Probable space group: P M M M
;
_chemical_formula_sum "Si O2"
_cell_formula_units_Z 40
_cell_length_a 10.272774
_cell_length_b 22.518403
_cell_length_c 9.141884
_cell_angle_alpha 90.000000
_cell_angle_beta 90.000000
_cell_angle_gamma 90.000000
_cell_volume 2114.759708
_symmetry_space_group_name_H-M "P M M M"
_symmetry_group_IT_number 47
_symmetry_cell_setting 'orthorhombic'
loop_
_space_group_symop_operation_xyz
x,y,z
-x,-y,z
x,-y,-z
-x,y,-z
-x,-y,-z
x,y,-z
-x,y,z
x,-y,z
loop_
_atom_site_type_symbol
_atom_site_label
_atom_site_fract_x
_atom_site_fract_y
_atom_site_fract_z
Si Si1 0.155459 0.500000 0.165664
Si Si2 0.845825 0.614715 0.664516
Si Si3 0.000000 0.929796 0.839362
Si Si4 0.644550 0.812233 0.332107
Si Si5 0.150293 0.266029 0.827857
Si Si6 0.249912 0.065878 0.333126
O O1 0.210262 0.557864 0.249258
O O2 0.000000 0.500000 0.164619
O O3 0.208861 0.500000 0.000000
O O4 0.788149 0.616051 0.500000
O O5 0.803744 0.673703 0.749756
O O6 0.000000 0.609963 0.658165
O O7 0.127795 0.908860 0.756048
O O8 0.000000 0.000000 0.850780
O O9 0.000000 0.900046 0.000000
O O10 0.678023 0.795762 0.500000
O O11 0.500000 0.789099 0.290355
O O12 0.754031 0.785278 0.227382
O O13 0.639919 0.884122 0.313099
O O14 0.000000 0.250127 0.788708
O O15 0.166833 0.274750 0.000000
O O16 0.204681 0.060876 0.500000
O O17 0.297249 0.000000 0.279364
#
# Coordination Sequence:
#
# PCOD8199525 Si02
#       6
#     4   8   4   8   8   8
#     4   9  15  23  39  67 106 145 176 213 262 313
#     4   9  16  27  45  71 103 139 178 219 264 312
#     4   9  17  29  47  73 103 131 161 200 247 302
#     4  10  22  38  55  77 104 136 175 218 267 322
#     4  10  21  36  54  77 105 139 180 223 267 316
#     4   9  18  33  53  76 102 132 167 210 262 318
#
# _framework density 18.914677000000001
#
# number of rings (size 3 to 8) (size 9 to 14) (size 15 to 20)
#    0.000    2.600    0.000    1.800    1.400    7.600 
#    0.000    2.000    0.000    0.000    0.000    4.900 
#    0.000    5.600    0.000    0.000    0.000    0.000 
#
# Total GULP energy -495805.640232 kJ/mol
# GULP energy per Si atom -12395.141006 kJ/mol
# Density = 1.887163 g / cm^3
# Si number density = 18.914677 Si / 1000 Ang^3
#
#
#
# Elastic Constant Matrix: (Units=GPa)
#
#
# Indices 1 2 3 4 5 6 
#
# 1 61.8295 35.9907 37.0793 0.0000 0.0000 0.0000
# 2 35.9907 115.7541 54.0388 0.0000 0.0000 0.0000
# 3 37.0793 54.0388 119.8652 0.0000 0.0000 0.0000
# 4 0.0000 0.0000 0.0000 26.3703 0.0000 0.0000
# 5 0.0000 0.0000 0.0000 0.0000 15.2412 0.0000
# 6 0.0000 0.0000 0.0000 0.0000 0.0000 7.8932
#
#
#
# Elastic Compliance Matrix: (Units=1/GPa)
#
#
# Indices 1 2 3 4 5 6 
#
# 1 0.021601 -0.004556 -0.004628 0.000000 0.000000 0.000000
# 2 -0.004556 0.011903 -0.003957 0.000000 0.000000 0.000000
# 3 -0.004628 -0.003957 0.011558 0.000000 0.000000 0.000000
# 4 0.000000 0.000000 0.000000 0.037921 0.000000 0.000000
# 5 0.000000 0.000000 0.000000 0.000000 0.065612 0.000000
# 6 0.000000 0.000000 0.000000 0.000000 0.000000 0.126691
#
#
# Mechanical properties :
#
#
# Convention : Reuss Voigt Hill
#
# Bulk Modulus (GPa) = 53.24686 61.29628 57.27157
# Shear Modulus (GPa) = 16.24289 21.25695 18.74992
#
# Velocity S-wave (km/s) = 2.93361 3.35600 3.15189
# Velocity P-wave (km/s) = 6.29976 6.89159 6.60231
#
# Compressibility (1/GPa) = 0.01878045
#
# Stress axis : x y z
#
# Youngs Moduli (GPa) = 46.29447 84.01492 86.51806
#
# Poissons Ratio (x) = 0.38273 0.40043
# Poissons Ratio (y) = 0.21090 0.34234
# Poissons Ratio (z) = 0.21426 0.33243
#
# Static dielectric constant tensor:
#      x y z
#    x 3.003080 0.000000 0.000000 
#    y 0.000000 3.540610 0.000000 
#    z 0.000000 0.000000 3.638110 
# 
# 
# High freq. dielectric constant tensor:
#      x y z
#    x 1.680550 0.000000 0.000000 
#    y 0.000000 1.740300 0.000000 
#    z 0.000000 0.000000 1.741050 
# 
# From -- ./inp_files/4064.got.cif
#   From: 2010.03.12/outbox.cif.g09.slc.cpg/sg47_3_cif.got.tgz:4064.got - 2010.04.14 03:12:58.
