data_PCOD8199729
_publ_section_title
;
Structure prediction by ZEFSAII (Michael W. Deem and Ramdas Pophale) SiO2 
 PCOD8199729
Probable space group: P M M M
;
_chemical_formula_sum "Si O2"
_cell_formula_units_Z 48
_cell_length_a 18.001114
_cell_length_b 9.463185
_cell_length_c 14.546019
_cell_angle_alpha 90.000000
_cell_angle_beta 90.000000
_cell_angle_gamma 90.000000
_cell_volume 2477.883383
_symmetry_space_group_name_H-M "P M M M"
_symmetry_group_IT_number 47
_symmetry_cell_setting 'orthorhombic'
loop_
_space_group_symop_operation_xyz
x,y,z
-x,-y,z
x,-y,-z
-x,y,-z
-x,-y,-z
x,y,-z
-x,y,z
x,-y,z
loop_
_atom_site_type_symbol
_atom_site_label
_atom_site_fract_x
_atom_site_fract_y
_atom_site_fract_z
Si Si1 0.104226 0.344009 0.101425
Si Si2 0.581234 0.832505 0.397535
Si Si3 0.000000 0.846936 0.206356
Si Si4 0.720942 0.658833 0.102352
Si Si5 0.280882 0.830781 0.279250
Si Si6 0.164495 0.660139 0.395525
Si Si7 0.000000 0.756233 0.601525
O O1 0.075975 0.500000 0.128717
O O2 0.073687 0.234618 0.175476
O O3 0.191355 0.340825 0.101267
O O4 0.074189 0.304287 0.000000
O O5 0.591629 0.771540 0.500000
O O6 0.500000 0.784481 0.358991
O O7 0.648561 0.775818 0.336709
O O8 0.584590 0.000000 0.400131
O O9 0.000000 0.869549 0.316438
O O10 0.000000 0.000000 0.159776
O O11 0.692575 0.500000 0.127092
O O12 0.698388 0.774687 0.177617
O O13 0.691409 0.701216 0.000000
O O14 0.206420 0.763297 0.323679
O O15 0.271141 0.000000 0.277107
O O16 0.187143 0.702504 0.500000
O O17 0.189150 0.500000 0.373223
O O18 0.074980 0.664608 0.386213
O O19 0.000000 0.828993 0.500000
#
# Coordination Sequence:
#
# PCOD8199729 Si02
#       7
#     8   8   4   8   8   8   4
#     4   9  19  36  55  72  92 124 165 206 252 310
#     4   8  15  30  52  78 110 146 178 207 246 304
#     4  12  24  33  47  73  98 123 159 208 269 322
#     4   9  19  36  55  73  97 134 177 215 253 304
#     4  11  21  32  53  85 113 136 169 216 269 319
#     4  10  21  37  56  76 100 135 180 224 262 306
#     4  10  23  40  53  67  94 138 188 226 255 298
#
# _framework density 19.371371
#
# number of rings (size 3 to 8) (size 9 to 14) (size 15 to 20)
#    0.000    2.333    0.000    4.250    0.000    9.167 
#    0.000    3.333    0.000    2.500    0.000    9.333 
#    0.000    0.000    0.000    0.000    0.000    0.000 
#
# Total GULP energy -594715.983542 kJ/mol
# GULP energy per Si atom -12389.916324 kJ/mol
# Density = 1.932728 g / cm^3
# Si number density = 19.371371 Si / 1000 Ang^3
#
#
#
# Elastic Constant Matrix: (Units=GPa)
#
#
# Indices 1 2 3 4 5 6 
#
# 1 88.7703 26.1820 40.3879 0.0000 0.0000 0.0000
# 2 26.1820 98.2628 56.3530 0.0000 0.0000 0.0000
# 3 40.3879 56.3530 130.6981 0.0000 0.0000 0.0000
# 4 0.0000 0.0000 0.0000 28.0271 0.0000 0.0000
# 5 0.0000 0.0000 0.0000 0.0000 18.6785 0.0000
# 6 0.0000 0.0000 0.0000 0.0000 0.0000 9.9650
#
#
#
# Elastic Compliance Matrix: (Units=1/GPa)
#
#
# Indices 1 2 3 4 5 6 
#
# 1 0.013289 -0.001575 -0.003427 0.000000 0.000000 0.000000
# 2 -0.001575 0.013707 -0.005423 0.000000 0.000000 0.000000
# 3 -0.003427 -0.005423 0.011049 0.000000 0.000000 0.000000
# 4 0.000000 0.000000 0.000000 0.035680 0.000000 0.000000
# 5 0.000000 0.000000 0.000000 0.000000 0.053538 0.000000
# 6 0.000000 0.000000 0.000000 0.000000 0.000000 0.100351
#
#
# Mechanical properties :
#
#
# Convention : Reuss Voigt Hill
#
# Bulk Modulus (GPa) = 58.16381 62.61966 60.39174
# Shear Modulus (GPa) = 19.66996 24.32134 21.99565
#
# Velocity S-wave (km/s) = 3.19001 3.54719 3.37333
# Velocity P-wave (km/s) = 6.60750 7.01233 6.81292
#
# Compressibility (1/GPa) = 0.01719282
#
# Stress axis : x y z
#
# Youngs Moduli (GPa) = 75.25043 72.95739 90.50937
#
# Poissons Ratio (x) = 0.11493 0.31020
# Poissons Ratio (y) = 0.11854 0.49084
# Poissons Ratio (z) = 0.25790 0.39565
#
# Static dielectric constant tensor:
#      x y z
#    x 3.462050 0.000000 0.000000 
#    y 0.000000 3.301810 0.000000 
#    z 0.000000 0.000000 4.115660 
# 
# 
# High freq. dielectric constant tensor:
#      x y z
#    x 1.731730 0.000000 0.000000 
#    y 0.000000 1.728320 0.000000 
#    z 0.000000 0.000000 1.765300 
# 
# From -- ./inp_files/24513.got.cif
#   From: 2010.03.12/outbox.cif.g09.slc.cpg/sg47_13_cif.got.tgz:24513.got - 2010.04.14 03:12:58.
