data_PCOD8199030
_publ_section_title
;
Structure prediction by ZEFSAII (Michael W. Deem and Ramdas Pophale) SiO2 
 PCOD8199030
Probable space group: P M M M
;
_chemical_formula_sum "Si O2"
_cell_formula_units_Z 56
_cell_length_a 14.622323
_cell_length_b 9.643762
_cell_length_c 23.048438
_cell_angle_alpha 90.000000
_cell_angle_beta 90.000000
_cell_angle_gamma 90.000000
_cell_volume 3250.157113
_symmetry_space_group_name_H-M "P M M M"
_symmetry_group_IT_number 47
_symmetry_cell_setting 'orthorhombic'
loop_
_space_group_symop_operation_xyz
x,y,z
-x,-y,z
x,-y,-z
-x,y,-z
-x,-y,-z
x,y,-z
-x,y,z
x,-y,z
loop_
_atom_site_type_symbol
_atom_site_label
_atom_site_fract_x
_atom_site_fract_y
_atom_site_fract_z
Si Si1 0.891907 0.848060 0.500000
Si Si2 0.398177 0.844078 0.725309
Si Si3 0.106282 0.160365 0.065535
Si Si4 0.601893 0.758562 0.854456
Si Si5 0.608069 0.000000 0.063479
Si Si6 0.772319 0.335784 0.712453
Si Si7 0.892466 0.837626 0.374104
Si Si8 0.789201 0.348392 0.844278
O O1 0.863062 0.779030 0.438534
O O2 0.000000 0.863573 0.500000
O O3 0.847495 0.000000 0.500000
O O4 0.500000 0.807111 0.701794
O O5 0.399910 0.842736 0.794786
O O6 0.327077 0.731923 0.700320
O O7 0.370476 0.000000 0.705803
O O8 0.164496 0.241836 0.112547
O O9 0.000000 0.183334 0.079301
O O10 0.132824 0.000000 0.071560
O O11 0.128040 0.211705 0.000000
O O12 0.500000 0.697581 0.867747
O O13 0.638531 0.862058 0.903770
O O14 0.678917 0.640045 0.852789
O O15 0.500000 0.000000 0.059197
O O16 0.654372 0.000000 0.000000
O O17 0.766158 0.500000 0.700143
O O18 0.844547 0.261977 0.671379
O O19 0.807161 0.304864 0.777699
O O20 0.000000 0.821433 0.364482
O O21 0.864790 0.000000 0.366549
O O22 0.830404 0.500000 0.856758
#
# Coordination Sequence:
#
# PCOD8199030 Si02
#       8
#     4   8   8   8   4   8   8   8
#     4   7  12  26  49  75 100 127 164 207 243 280
#     4   9  16  29  50  70  90 122 166 211 248 285
#     4   9  20  39  59  75  89 111 152 206 256 298
#     4   9  17  30  47  68  96 125 154 191 235 284
#     4   9  16  26  42  66  91 115 147 186 232 283
#     4  10  21  33  45  69 106 139 165 198 242 294
#     4   9  17  31  52  76 102 134 170 205 242 285
#     4  10  22  35  49  72  99 130 163 196 240 292
#
# _framework density 17.229935999999999
#
# number of rings (size 3 to 8) (size 9 to 14) (size 15 to 20)
#    0.000    2.857    0.714    1.714    1.000    3.714 
#    0.000    6.786    0.000    1.286    0.000    3.500 
#    0.000    4.000    0.000    0.000    0.000    0.000 
#
# Total GULP energy -693816.160437 kJ/mol
# GULP energy per Si atom -12389.574294 kJ/mol
# Density = 1.719072 g / cm^3
# Si number density = 17.229936 Si / 1000 Ang^3
#
#
#
# Elastic Constant Matrix: (Units=GPa)
#
#
# Indices 1 2 3 4 5 6 
#
# 1 73.4432 52.5700 53.0512 0.0000 0.0000 0.0000
# 2 52.5700 90.0060 53.9995 0.0000 0.0000 0.0000
# 3 53.0512 53.9995 106.4069 0.0000 0.0000 0.0000
# 4 0.0000 0.0000 0.0000 18.5474 0.0000 0.0000
# 5 0.0000 0.0000 0.0000 0.0000 7.7678 0.0000
# 6 0.0000 0.0000 0.0000 0.0000 0.0000 16.9800
#
#
#
# Elastic Compliance Matrix: (Units=1/GPa)
#
#
# Indices 1 2 3 4 5 6 
#
# 1 0.027408 -0.011229 -0.007966 0.000000 0.000000 0.000000
# 2 -0.011229 0.020574 -0.004843 0.000000 0.000000 0.000000
# 3 -0.007966 -0.004843 0.015827 0.000000 0.000000 0.000000
# 4 0.000000 0.000000 0.000000 0.053916 0.000000 0.000000
# 5 0.000000 0.000000 0.000000 0.000000 0.128737 0.000000
# 6 0.000000 0.000000 0.000000 0.000000 0.000000 0.058893
#
#
# Mechanical properties :
#
#
# Convention : Reuss Voigt Hill
#
# Bulk Modulus (GPa) = 63.55780 65.45526 64.50653
# Shear Modulus (GPa) = 13.94018 16.00805 14.97411
#
# Velocity S-wave (km/s) = 2.84750 3.05139 2.95121
# Velocity P-wave (km/s) = 6.91224 7.10538 7.00948
#
# Compressibility (1/GPa) = 0.01573371
#
# Stress axis : x y z
#
# Youngs Moduli (GPa) = 36.48592 48.60465 63.18227
#
# Poissons Ratio (x) = 0.54577 0.50333
# Poissons Ratio (y) = 0.40969 0.30597
# Poissons Ratio (z) = 0.29066 0.23538
#
# Static dielectric constant tensor:
#      x y z
#    x 3.181190 0.000000 0.000000 
#    y 0.000000 3.050790 0.000000 
#    z 0.000000 0.000000 3.291500 
# 
# 
# High freq. dielectric constant tensor:
#      x y z
#    x 1.659210 0.000000 0.000000 
#    y 0.000000 1.650240 0.000000 
#    z 0.000000 0.000000 1.649280 
# 
# From -- ./inp_files/31066.got.cif
#   From: 2010.03.12/outbox.cif.g09.slc.cpg/sg47_16_cif.got.tgz:31066.got - 2010.04.14 03:12:58.
