data_PCOD8199727
_publ_section_title
;
Structure prediction by ZEFSAII (Michael W. Deem and Ramdas Pophale) SiO2 
 PCOD8199727
Probable space group: P M M M
;
_chemical_formula_sum "Si O2"
_cell_formula_units_Z 56
_cell_length_a 20.425240
_cell_length_b 7.939209
_cell_length_c 18.785615
_cell_angle_alpha 90.000000
_cell_angle_beta 90.000000
_cell_angle_gamma 90.000000
_cell_volume 3046.280010
_symmetry_space_group_name_H-M "P M M M"
_symmetry_group_IT_number 47
_symmetry_cell_setting 'orthorhombic'
loop_
_space_group_symop_operation_xyz
x,y,z
-x,-y,z
x,-y,-z
-x,y,-z
-x,-y,-z
x,y,-z
-x,y,z
x,-y,z
loop_
_atom_site_type_symbol
_atom_site_label
_atom_site_fract_x
_atom_site_fract_y
_atom_site_fract_z
Si Si1 0.384669 0.309345 0.675076
Si Si2 0.384912 0.000000 0.420053
Si Si3 0.188281 0.690738 0.830234
Si Si4 0.229180 0.000000 0.420169
Si Si5 0.928739 0.805030 0.077684
Si Si6 0.770458 0.692766 0.675866
Si Si7 0.692777 0.191853 0.080332
Si Si8 0.574056 0.695273 0.167735
O O1 0.406265 0.500000 0.652446
O O2 0.409996 0.171102 0.618292
O O3 0.307169 0.301618 0.682934
O O4 0.416091 0.257269 0.749966
O O5 0.307020 0.000000 0.421003
O O6 0.413267 0.000000 0.500000
O O7 0.167357 0.500000 0.825128
O O8 0.126584 0.782593 0.863650
O O9 0.200781 0.758115 0.750750
O O10 0.253729 0.703207 0.876857
O O11 0.204297 0.827667 0.382397
O O12 0.200646 0.000000 0.500000
O O13 0.000000 0.728807 0.101019
O O14 0.938145 0.000000 0.067260
O O15 0.908269 0.727834 0.000000
O O16 0.792373 0.500000 0.656637
O O17 0.622057 0.200679 0.117264
O O18 0.716695 0.000000 0.079891
O O19 0.687593 0.262283 0.000000
O O20 0.500000 0.740050 0.145634
O O21 0.589956 0.500000 0.156218
#
# Coordination Sequence:
#
# PCOD8199727 Si02
#       8
#     8   4   8   4   8   8   8   8
#     4   9  17  32  51  72 101 134 170 212 260 316
#     4   9  18  30  49  78 103 129 167 207 257 316
#     4  11  21  33  53  79 106 140 180 221 265 311
#     4   9  18  30  48  75 105 141 171 203 262 319
#     4   9  19  35  52  73 106 147 186 223 265 311
#     4   9  18  30  48  76 105 135 174 218 260 310
#     4  11  24  37  52  76 103 134 173 220 272 321
#     4  10  21  37  56  75  96 130 175 220 269 321
#
# _framework density 18.383075999999999
#
# number of rings (size 3 to 8) (size 9 to 14) (size 15 to 20)
#    0.000    2.286    1.429    1.714    3.000    4.571 
#    0.000    5.000    0.000    0.857    0.000    2.000 
#    0.000    1.143    0.000    3.143    0.000    0.143 
#
# Total GULP energy -694130.417062 kJ/mol
# GULP energy per Si atom -12395.186019 kJ/mol
# Density = 1.834124 g / cm^3
# Si number density = 18.383076 Si / 1000 Ang^3
#
#
#
# Elastic Constant Matrix: (Units=GPa)
#
#
# Indices 1 2 3 4 5 6 
#
# 1 68.0960 17.1799 41.4565 0.0000 0.0000 0.0000
# 2 17.1799 80.3939 54.1841 0.0000 0.0000 0.0000
# 3 41.4565 54.1841 130.5356 0.0000 0.0000 0.0000
# 4 0.0000 0.0000 0.0000 18.5759 0.0000 0.0000
# 5 0.0000 0.0000 0.0000 0.0000 11.9723 0.0000
# 6 0.0000 0.0000 0.0000 0.0000 0.0000 21.9691
#
#
#
# Elastic Compliance Matrix: (Units=1/GPa)
#
#
# Indices 1 2 3 4 5 6 
#
# 1 0.018205 0.000009 -0.005785 0.000000 0.000000 0.000000
# 2 0.000009 0.017270 -0.007172 0.000000 0.000000 0.000000
# 3 -0.005785 -0.007172 0.012475 0.000000 0.000000 0.000000
# 4 0.000000 0.000000 0.000000 0.053833 0.000000 0.000000
# 5 0.000000 0.000000 0.000000 0.000000 0.083526 0.000000
# 6 0.000000 0.000000 0.000000 0.000000 0.000000 0.045519
#
#
# Mechanical properties :
#
#
# Convention : Reuss Voigt Hill
#
# Bulk Modulus (GPa) = 45.34281 56.07406 50.70844
# Shear Modulus (GPa) = 18.93395 21.58379 20.25887
#
# Velocity S-wave (km/s) = 3.21279 3.43025 3.32330
# Velocity P-wave (km/s) = 6.20337 6.80133 6.50922
#
# Compressibility (1/GPa) = 0.02205421
#
# Stress axis : x y z
#
# Youngs Moduli (GPa) = 54.92988 57.90257 80.16045
#
# Poissons Ratio (x) = -0.00052 0.46376
# Poissons Ratio (y) = -0.00049 0.57488
# Poissons Ratio (z) = 0.31779 0.41525
#
# Static dielectric constant tensor:
#      x y z
#    x 3.200680 0.000000 0.000000 
#    y 0.000000 3.509030 0.000000 
#    z 0.000000 0.000000 3.570260 
# 
# 
# High freq. dielectric constant tensor:
#      x y z
#    x 1.679710 0.000000 0.000000 
#    y 0.000000 1.718890 0.000000 
#    z 0.000000 0.000000 1.704850 
# 
# From -- ./inp_files/11332.got.cif
#   From: 2010.03.12/outbox.cif.g09.slc.cpg/sg47_6_cif.got.tgz:11332.got - 2010.04.14 03:12:58.
