data_PCOD8199898
_publ_section_title
;
Structure prediction by ZEFSAII (Michael W. Deem and Ramdas Pophale) SiO2 
 PCOD8199898
Probable space group: P M M M
;
_chemical_formula_sum "Si O2"
_cell_formula_units_Z 64
_cell_length_a 20.230049
_cell_length_b 8.807207
_cell_length_c 18.559950
_cell_angle_alpha 90.000000
_cell_angle_beta 90.000000
_cell_angle_gamma 90.000000
_cell_volume 3306.830545
_symmetry_space_group_name_H-M "P M M M"
_symmetry_group_IT_number 47
_symmetry_cell_setting 'orthorhombic'
loop_
_space_group_symop_operation_xyz
x,y,z
-x,-y,z
x,-y,-z
-x,y,-z
-x,-y,-z
x,y,-z
-x,y,z
x,-y,z
loop_
_atom_site_type_symbol
_atom_site_label
_atom_site_fract_x
_atom_site_fract_y
_atom_site_fract_z
Si Si1 0.307558 0.823982 0.416568
Si Si2 0.189068 0.821526 0.830426
Si Si3 0.073266 0.680489 0.580664
Si Si4 0.923895 0.324704 0.082669
Si Si5 0.193315 0.679678 0.674683
Si Si6 0.575535 0.823289 0.809979
Si Si7 0.423877 0.677218 0.659545
Si Si8 0.685691 0.819852 0.080303
O O1 0.293095 0.793201 0.500000
O O2 0.257384 0.726489 0.369659
O O3 0.381509 0.769427 0.398575
O O4 0.299908 0.000000 0.396916
O O5 0.119320 0.780020 0.865772
O O6 0.197142 0.744723 0.753887
O O7 0.247872 0.760437 0.881351
O O8 0.193659 0.000000 0.819453
O O9 0.088149 0.741340 0.500000
O O10 0.076246 0.500000 0.580031
O O11 0.127905 0.746313 0.635233
O O12 0.000000 0.734451 0.605324
O O13 0.906390 0.500000 0.096643
O O14 0.000000 0.293282 0.101714
O O15 0.909617 0.281172 0.000000
O O16 0.190274 0.500000 0.679189
O O17 0.500000 0.792578 0.832884
O O18 0.595611 0.728558 0.739825
O O19 0.621517 0.766090 0.875168
O O20 0.587716 0.000000 0.792559
O O21 0.500000 0.716168 0.643669
O O22 0.409053 0.500000 0.651817
O O23 0.687169 0.000000 0.075492
O O24 0.681906 0.749510 0.000000
#
# Coordination Sequence:
#
# PCOD8199898 Si02
#       8
#     8   8   8   8   8   8   8   8
#     4  11  24  40  58  81 111 146 183 227 279 333
#     4  11  22  35  53  78 110 147 185 227 278 335
#     4   8  15  30  53  80 107 135 171 216 265 317
#     4   9  19  37  59  81 107 141 183 233 286 338
#     4  11  22  36  57  83 111 145 185 229 275 325
#     4   9  17  31  54  81 108 140 176 216 265 320
#     4  10  21  37  58  83 111 144 182 224 269 323
#     4   9  18  32  50  74 104 137 176 223 269 313
#
# _framework density 19.35388
#
# number of rings (size 3 to 8) (size 9 to 14) (size 15 to 20)
#    0.000    2.250    0.000    3.750    0.000    5.250 
#    0.000    5.000    0.000    3.000    0.000    6.125 
#    0.000    0.000    0.000    0.000    0.000    0.000 
#
# Total GULP energy -793729.696670 kJ/mol
# GULP energy per Si atom -12402.026510 kJ/mol
# Density = 1.930983 g / cm^3
# Si number density = 19.353880 Si / 1000 Ang^3
#
#
#
# Elastic Constant Matrix: (Units=GPa)
#
#
# Indices 1 2 3 4 5 6 
#
# 1 108.3014 28.8222 57.9514 0.0000 0.0000 0.0000
# 2 28.8222 49.7215 36.4945 0.0000 0.0000 0.0000
# 3 57.9514 36.4945 110.9766 0.0000 0.0000 0.0000
# 4 0.0000 0.0000 0.0000 39.4538 0.0000 0.0000
# 5 0.0000 0.0000 0.0000 0.0000 41.6040 0.0000
# 6 0.0000 0.0000 0.0000 0.0000 0.0000 25.9023
#
#
#
# Elastic Compliance Matrix: (Units=1/GPa)
#
#
# Indices 1 2 3 4 5 6 
#
# 1 0.013243 -0.003428 -0.005788 0.000000 0.000000 0.000000
# 2 -0.003428 0.027398 -0.007220 0.000000 0.000000 0.000000
# 3 -0.005788 -0.007220 0.014408 0.000000 0.000000 0.000000
# 4 0.000000 0.000000 0.000000 0.025346 0.000000 0.000000
# 5 0.000000 0.000000 0.000000 0.000000 0.024036 0.000000
# 6 0.000000 0.000000 0.000000 0.000000 0.000000 0.038607
#
#
# Mechanical properties :
#
#
# Convention : Reuss Voigt Hill
#
# Bulk Modulus (GPa) = 45.09192 57.28175 51.18683
# Shear Modulus (GPa) = 27.27736 31.10744 29.19240
#
# Velocity S-wave (km/s) = 3.75827 4.01346 3.88796
# Velocity P-wave (km/s) = 6.49477 7.15111 6.83083
#
# Compressibility (1/GPa) = 0.02217692
#
# Stress axis : x y z
#
# Youngs Moduli (GPa) = 75.51154 36.49848 69.40792
#
# Poissons Ratio (x) = 0.12513 0.40174
# Poissons Ratio (y) = 0.25888 0.50110
# Poissons Ratio (z) = 0.43706 0.26351
#
# Static dielectric constant tensor:
#      x y z
#    x 3.788780 0.000000 0.000000 
#    y 0.000000 3.289700 0.000000 
#    z 0.000000 0.000000 3.668820 
# 
# 
# High freq. dielectric constant tensor:
#      x y z
#    x 1.767500 0.000000 0.000000 
#    y 0.000000 1.729860 0.000000 
#    z 0.000000 0.000000 1.756650 
# 
# From -- ./inp_files/28788.got.cif
#   From: 2010.03.12/outbox.cif.g09.slc.cpg/sg47_15_cif.got.tgz:28788.got - 2010.04.14 03:12:58.
