data_PCOD8199500
_publ_section_title
;
Structure prediction by ZEFSAII (Michael W. Deem and Ramdas Pophale) SiO2 
 PCOD8199500
Probable space group: P M M M
;
_chemical_formula_sum "Si O2"
_cell_formula_units_Z 48
_cell_length_a 30.810548
_cell_length_b 9.412461
_cell_length_c 9.145253
_cell_angle_alpha 90.000000
_cell_angle_beta 90.000000
_cell_angle_gamma 90.000000
_cell_volume 2652.151551
_symmetry_space_group_name_H-M "P M M M"
_symmetry_group_IT_number 47
_symmetry_cell_setting 'orthorhombic'
loop_
_space_group_symop_operation_xyz
x,y,z
-x,-y,z
x,-y,-z
-x,y,-z
-x,-y,-z
x,y,-z
-x,y,z
x,-y,z
loop_
_atom_site_type_symbol
_atom_site_label
_atom_site_fract_x
_atom_site_fract_y
_atom_site_fract_z
Si Si1 0.670057 0.665514 0.669883
Si Si2 0.000000 0.669040 0.834975
Si Si3 0.084600 0.335299 0.329795
Si Si4 0.417586 0.335670 0.169911
Si Si5 0.744927 0.833444 0.830772
Si Si6 0.831592 0.835120 0.331305
Si Si7 0.500000 0.160626 0.826159
O O1 0.669257 0.704696 0.500000
O O2 0.679083 0.500000 0.696467
O O3 0.624323 0.710654 0.739021
O O4 0.707353 0.752578 0.747625
O O5 0.956994 0.726720 0.755151
O O6 0.000000 0.500000 0.827061
O O7 0.000000 0.725815 0.000000
O O8 0.075908 0.309424 0.500000
O O9 0.092309 0.500000 0.294173
O O10 0.126863 0.251555 0.275325
O O11 0.429529 0.500000 0.195321
O O12 0.457347 0.242021 0.230559
O O13 0.408078 0.305055 0.000000
O O14 0.790827 0.785260 0.764244
O O15 0.737609 0.000000 0.806845
O O16 0.744087 0.790927 0.000000
O O17 0.821161 0.800468 0.500000
O O18 0.841859 0.000000 0.307837
O O19 0.500000 0.000000 0.765196
O O20 0.500000 0.162687 0.000000
#
# Coordination Sequence:
#
# PCOD8199500 Si02
#       7
#     8   4   8   8   8   8   4
#     4  10  21  36  54  77 104 134 170 212 256 301
#     4   9  17  29  46  69  96 124 156 197 244 290
#     4   9  17  30  49  71  94 123 160 199 239 287
#     4   9  17  31  51  73  99 132 167 203 248 300
#     4  10  21  36  54  76 102 134 170 207 251 303
#     4   9  18  33  51  71  98 131 164 200 245 296
#     4   9  17  29  48  75 102 128 164 209 250 291
#
# _framework density 18.098514000000002
#
# number of rings (size 3 to 8) (size 9 to 14) (size 15 to 20)
#    0.000    2.667    0.000    1.500    0.000    6.000 
#    0.000    4.167    0.000    5.000    0.000    0.000 
#    0.000    0.000    0.000    0.000    0.000    0.000 
#
# Total GULP energy -595316.653066 kJ/mol
# GULP energy per Si atom -12402.430272 kJ/mol
# Density = 1.805732 g / cm^3
# Si number density = 18.098514 Si / 1000 Ang^3
#
#
#
# Elastic Constant Matrix: (Units=GPa)
#
#
# Indices 1 2 3 4 5 6 
#
# 1 200.5935 79.9248 92.2003 0.0000 0.0000 0.0000
# 2 79.9248 64.0511 44.8353 0.0000 0.0000 0.0000
# 3 92.2003 44.8353 99.1710 0.0000 0.0000 0.0000
# 4 0.0000 0.0000 0.0000 20.3756 0.0000 0.0000
# 5 0.0000 0.0000 0.0000 0.0000 36.2532 0.0000
# 6 0.0000 0.0000 0.0000 0.0000 0.0000 -4.2757
#
#
#
# Elastic Compliance Matrix: (Units=1/GPa)
#
#
# Indices 1 2 3 4 5 6 
#
# 1 0.012274 -0.010721 -0.006564 0.000000 0.000000 0.000000
# 2 -0.010721 0.032205 -0.004593 0.000000 0.000000 0.000000
# 3 -0.006564 -0.004593 0.018263 0.000000 0.000000 0.000000
# 4 0.000000 0.000000 0.000000 0.049078 0.000000 0.000000
# 5 0.000000 0.000000 0.000000 0.000000 0.027584 0.000000
# 6 0.000000 0.000000 0.000000 0.000000 0.000000 -0.233878
#
#
# Mechanical properties :
#
#
# Convention : Reuss Voigt Hill
#
# Bulk Modulus (GPa) = 52.66966 88.63738 70.65352
# Shear Modulus (GPa) = -112.64105 20.26097 -46.19004
#
# Velocity S-wave (km/s) = -7.89765 3.34950 -5.05736
# Velocity P-wave (km/s) = 7.34840 8.00251 2.24066
#
# Compressibility (1/GPa) = 0.01898626
#
# Stress axis : x y z
#
# Youngs Moduli (GPa) = 81.47206 31.05086 54.75567
#
# Poissons Ratio (x) = 0.33289 0.35944
# Poissons Ratio (y) = 0.87346 0.25147
# Poissons Ratio (z) = 0.53482 0.14261
#
# Static dielectric constant tensor:
#      x y z
#    x 3.529650 0.000000 0.000000 
#    y 0.000000 3.246970 0.000000 
#    z 0.000000 0.000000 3.313490 
# 
# 
# High freq. dielectric constant tensor:
#      x y z
#    x 1.714290 0.000000 0.000000 
#    y 0.000000 1.685890 0.000000 
#    z 0.000000 0.000000 1.693360 
# 
# From -- ./inp_files/13863.got.cif
#   From: 2010.03.12/outbox.cif.g09.slc.cpg/sg47_7_cif.got.tgz:13863.got - 2010.04.14 03:12:58.
