data_PCOD8199531
_publ_section_title
;
Structure prediction by ZEFSAII (Michael W. Deem and Ramdas Pophale) SiO2 
 PCOD8199531
Probable space group: P M M M
;
_chemical_formula_sum "Si O2"
_cell_formula_units_Z 44
_cell_length_a 8.964771
_cell_length_b 29.808742
_cell_length_c 8.200610
_cell_angle_alpha 90.000000
_cell_angle_beta 90.000000
_cell_angle_gamma 90.000000
_cell_volume 2191.437085
_symmetry_space_group_name_H-M "P M M M"
_symmetry_group_IT_number 47
_symmetry_cell_setting 'orthorhombic'
loop_
_space_group_symop_operation_xyz
x,y,z
-x,-y,z
x,-y,-z
-x,y,-z
-x,-y,-z
x,y,-z
-x,y,z
x,-y,z
loop_
_atom_site_type_symbol
_atom_site_label
_atom_site_fract_x
_atom_site_fract_y
_atom_site_fract_z
Si Si1 0.163204 0.451493 0.310348
Si Si2 0.171702 0.947029 0.500000
Si Si3 0.674110 0.631943 0.182863
Si Si4 0.830510 0.808332 0.812610
Si Si5 0.676830 0.901463 0.188637
Si Si6 0.334072 0.724212 0.687671
O O1 0.144590 0.456945 0.500000
O O2 0.222141 0.500000 0.240994
O O3 0.273448 0.410576 0.283371
O O4 0.000000 0.441085 0.233269
O O5 0.248580 0.931351 0.669588
O O6 0.000000 0.930656 0.500000
O O7 0.182923 0.000000 0.500000
O O8 0.500000 0.636679 0.211864
O O9 0.743097 0.680058 0.233787
O O10 0.720581 0.621717 0.000000
O O11 0.727208 0.850892 0.776215
O O12 0.771792 0.766706 0.709955
O O13 0.000000 0.819721 0.760654
O O14 0.821478 0.794326 0.000000
O O15 0.500000 0.905154 0.207990
O O16 0.722707 0.915306 0.000000
O O17 0.349629 0.713362 0.500000
O O18 0.500000 0.733918 0.761832
#
# Coordination Sequence:
#
# PCOD8199531 Si02
#       6
#     8   4   8   8   8   8
#     4   9  19  36  56  77 102 134 173 218 270 330
#     4  11  25  43  65  95 131 171 213 261 316 373
#     4  10  21  36  54  77 106 140 179 225 275 330
#     4  10  21  37  58  85 117 153 193 238 291 351
#     4  10  22  41  66  94 126 167 213 262 314 369
#     4  10  21  36  55  79 108 145 187 230 279 337
#
# _framework density 20.078149
#
# number of rings (size 3 to 8) (size 9 to 14) (size 15 to 20)
#    0.000    2.091    0.000    3.000    1.273    7.273 
#    0.000    4.545    0.000    0.000    0.000    0.000 
#    0.000    0.000    0.000    0.000    0.000    0.000 
#
# Total GULP energy -545299.810225 kJ/mol
# GULP energy per Si atom -12393.177505 kJ/mol
# Density = 2.003245 g / cm^3
# Si number density = 20.078149 Si / 1000 Ang^3
#
#
#
# Elastic Constant Matrix: (Units=GPa)
#
#
# Indices 1 2 3 4 5 6 
#
# 1 71.8505 40.7240 52.3189 0.0000 0.0000 0.0000
# 2 40.7240 119.4833 48.6295 0.0000 0.0000 0.0000
# 3 52.3189 48.6295 71.8265 0.0000 0.0000 0.0000
# 4 0.0000 0.0000 0.0000 257.7736 0.0000 0.0000
# 5 0.0000 0.0000 0.0000 0.0000 26.6081 0.0000
# 6 0.0000 0.0000 0.0000 0.0000 0.0000 32.1554
#
#
#
# Elastic Compliance Matrix: (Units=1/GPa)
#
#
# Indices 1 2 3 4 5 6 
#
# 1 0.029925 -0.001833 -0.020557 0.000000 0.000000 0.000000
# 2 -0.001833 0.011665 -0.006563 0.000000 0.000000 0.000000
# 3 -0.020557 -0.006563 0.033339 0.000000 0.000000 0.000000
# 4 0.000000 0.000000 0.000000 0.003879 0.000000 0.000000
# 5 0.000000 0.000000 0.000000 0.000000 0.037583 0.000000
# 6 0.000000 0.000000 0.000000 0.000000 0.000000 0.031099
#
#
# Mechanical properties :
#
#
# Convention : Reuss Voigt Hill
#
# Bulk Modulus (GPa) = 58.73726 60.72278 59.73002
# Shear Modulus (GPa) = 23.68878 71.40665 47.54771
#
# Velocity S-wave (km/s) = 3.43859 5.97006 4.87163
# Velocity P-wave (km/s) = 6.71439 8.82219 7.83945
#
# Compressibility (1/GPa) = 0.01702497
#
# Stress axis : x y z
#
# Youngs Moduli (GPa) = 33.41638 85.72607 29.99464
#
# Poissons Ratio (x) = 0.15714 0.61660
# Poissons Ratio (y) = 0.06125 0.19684
# Poissons Ratio (z) = 0.68694 0.56258
#
# Static dielectric constant tensor:
#      x y z
#    x 3.674680 0.000000 0.000000 
#    y 0.000000 3.626070 0.000000 
#    z 0.000000 0.000000 3.699300 
# 
# 
# High freq. dielectric constant tensor:
#      x y z
#    x 1.776460 0.000000 0.000000 
#    y 0.000000 1.791540 0.000000 
#    z 0.000000 0.000000 1.784820 
# 
# From -- ./inp_files/2009.got.cif
#   From: 2010.03.12/outbox.cif.g09.slc.cpg/sg47_2_cif.got.tgz:2009.got - 2010.04.14 03:12:58.
