data_PCOD8199378
_publ_section_title
;
Structure prediction by ZEFSAII (Michael W. Deem and Ramdas Pophale) SiO2 
 PCOD8199378
Probable space group: P M M M
;
_chemical_formula_sum "Si O2"
_cell_formula_units_Z 56
_cell_length_a 14.443567
_cell_length_b 21.098183
_cell_length_c 9.326605
_cell_angle_alpha 90.000000
_cell_angle_beta 90.000000
_cell_angle_gamma 90.000000
_cell_volume 2842.124506
_symmetry_space_group_name_H-M "P M M M"
_symmetry_group_IT_number 47
_symmetry_cell_setting 'orthorhombic'
loop_
_space_group_symop_operation_xyz
x,y,z
-x,-y,z
x,-y,-z
-x,y,-z
-x,-y,-z
x,y,-z
-x,y,z
x,-y,z
loop_
_atom_site_type_symbol
_atom_site_label
_atom_site_fract_x
_atom_site_fract_y
_atom_site_fract_z
Si Si1 0.107472 0.375490 0.832006
Si Si2 0.288244 0.069934 0.165173
Si Si3 0.602944 0.680182 0.329868
Si Si4 0.895911 0.133215 0.836784
Si Si5 0.262548 0.570354 0.334808
Si Si6 0.390665 0.821099 0.664001
Si Si7 0.890466 0.253265 0.340155
O O1 0.168827 0.430265 0.759909
O O2 0.143189 0.311430 0.756108
O O3 0.000000 0.389898 0.801283
O O4 0.126907 0.370387 0.000000
O O5 0.176794 0.076389 0.182468
O O6 0.342227 0.124740 0.245342
O O7 0.314754 0.000000 0.224583
O O8 0.316688 0.075340 0.000000
O O9 0.596174 0.676749 0.500000
O O10 0.500000 0.670614 0.264947
O O11 0.667236 0.623244 0.272020
O O12 0.641750 0.750217 0.286496
O O13 0.858375 0.188740 0.734398
O O14 0.000000 0.110623 0.794462
O O15 0.896205 0.158784 0.000000
O O16 0.237236 0.585107 0.500000
O O17 0.306863 0.500000 0.321160
O O18 0.362828 0.832472 0.500000
O O19 0.500000 0.826483 0.685414
O O20 0.846689 0.257817 0.500000
O O21 0.000000 0.254194 0.349589
#
# Coordination Sequence:
#
# PCOD8199378 Si02
#       7
#     8   8   8   8   8   8   8
#     4  10  21  36  53  74 106 149 192 230 270 320
#     4  10  22  37  53  79 113 147 185 229 276 323
#     4   8  16  34  59  85 111 139 175 221 273 329
#     4   9  18  33  52  75 107 146 186 224 266 322
#     4  10  21  35  54  84 116 145 181 226 276 326
#     4   9  19  37  60  83 107 139 181 228 277 331
#     4   9  17  30  50  76 103 133 175 227 278 320
#
# _framework density 19.703571
#
# number of rings (size 3 to 8) (size 9 to 14) (size 15 to 20)
#    0.000    2.714    0.000    1.714    2.000    5.143 
#    0.000    5.714    0.000    1.286    0.000    4.000 
#    0.000    0.000    0.000    0.000    0.000    0.000 
#
# Total GULP energy -694136.657262 kJ/mol
# GULP energy per Si atom -12395.297451 kJ/mol
# Density = 1.965872 g / cm^3
# Si number density = 19.703571 Si / 1000 Ang^3
#
#
#
# Elastic Constant Matrix: (Units=GPa)
#
#
# Indices 1 2 3 4 5 6 
#
# 1 61.9748 66.3985 36.7854 0.0000 0.0000 0.0000
# 2 66.3985 158.0210 55.1756 0.0000 0.0000 0.0000
# 3 36.7854 55.1756 78.7856 0.0000 0.0000 0.0000
# 4 0.0000 0.0000 0.0000 25.6198 0.0000 0.0000
# 5 0.0000 0.0000 0.0000 0.0000 23.2617 0.0000
# 6 0.0000 0.0000 0.0000 0.0000 0.0000 24.8821
#
#
#
# Elastic Compliance Matrix: (Units=1/GPa)
#
#
# Indices 1 2 3 4 5 6 
#
# 1 0.032293 -0.010992 -0.007379 0.000000 0.000000 0.000000
# 2 -0.010992 0.012118 -0.003354 0.000000 0.000000 0.000000
# 3 -0.007379 -0.003354 0.018487 0.000000 0.000000 0.000000
# 4 0.000000 0.000000 0.000000 0.039032 0.000000 0.000000
# 5 0.000000 0.000000 0.000000 0.000000 0.042989 0.000000
# 6 0.000000 0.000000 0.000000 0.000000 0.000000 0.040190
#
#
# Mechanical properties :
#
#
# Convention : Reuss Voigt Hill
#
# Bulk Modulus (GPa) = 51.42434 68.38893 59.90663
# Shear Modulus (GPa) = 21.27265 24.11419 22.69342
#
# Velocity S-wave (km/s) = 3.28934 3.50215 3.39741
# Velocity P-wave (km/s) = 6.37040 7.15106 6.77199
#
# Compressibility (1/GPa) = 0.01944604
#
# Stress axis : x y z
#
# Youngs Moduli (GPa) = 30.96680 82.51928 54.09109
#
# Poissons Ratio (x) = 0.90708 0.39916
# Poissons Ratio (y) = 0.34040 0.18144
# Poissons Ratio (z) = 0.22852 0.27680
#
# Static dielectric constant tensor:
#      x y z
#    x 3.635630 0.000000 0.000000 
#    y 0.000000 3.626710 0.000000 
#    z 0.000000 0.000000 3.471280 
# 
# 
# High freq. dielectric constant tensor:
#      x y z
#    x 1.765980 0.000000 0.000000 
#    y 0.000000 1.765500 0.000000 
#    z 0.000000 0.000000 1.745190 
# 
# From -- ./inp_files/7229.got.cif
#   From: 2010.03.12/outbox.cif.g09.slc.cpg/sg47_4_cif.got.tgz:7229.got - 2010.04.14 03:12:58.
