data_PCOD8199232
_publ_section_title
;
Structure prediction by ZEFSAII (Michael W. Deem and Ramdas Pophale) SiO2 
 PCOD8199232
Probable space group: P M M M
;
_chemical_formula_sum "Si O2"
_cell_formula_units_Z 52
_cell_length_a 14.140251
_cell_length_b 9.038548
_cell_length_c 22.810848
_cell_angle_alpha 90.000000
_cell_angle_beta 90.000000
_cell_angle_gamma 90.000000
_cell_volume 2915.393747
_symmetry_space_group_name_H-M "P M M M"
_symmetry_group_IT_number 47
_symmetry_cell_setting 'orthorhombic'
loop_
_space_group_symop_operation_xyz
x,y,z
-x,-y,z
x,-y,-z
-x,y,-z
-x,-y,-z
x,y,-z
-x,y,z
x,-y,z
loop_
_atom_site_type_symbol
_atom_site_label
_atom_site_fract_x
_atom_site_fract_y
_atom_site_fract_z
Si Si1 0.111445 0.671360 0.500000
Si Si2 0.108100 0.171418 0.067150
Si Si3 0.397482 0.324416 0.224433
Si Si4 0.607044 0.672100 0.642477
Si Si5 0.785869 0.825675 0.393874
Si Si6 0.205960 0.675253 0.170641
Si Si7 0.891290 0.829883 0.724214
O O1 0.140201 0.500000 0.500000
O O2 0.152139 0.748017 0.557291
O O3 0.000000 0.694011 0.500000
O O4 0.177505 0.267115 0.106928
O O5 0.000000 0.219438 0.078640
O O6 0.120842 0.000000 0.082812
O O7 0.135862 0.202030 0.000000
O O8 0.500000 0.266565 0.201046
O O9 0.398270 0.500000 0.224909
O O10 0.382643 0.270016 0.290904
O O11 0.312154 0.265024 0.184123
O O12 0.500000 0.698462 0.620061
O O13 0.634199 0.500000 0.637670
O O14 0.678251 0.766947 0.602528
O O15 0.829006 0.780742 0.331086
O O16 0.788106 0.000000 0.404672
O O17 0.202360 0.500000 0.170622
O O18 0.133995 0.732321 0.219637
O O19 0.000000 0.802482 0.707727
O O20 0.872490 0.000000 0.740642
#
# Coordination Sequence:
#
# PCOD8199232 Si02
#       7
#     4   8   8   8   8   8   8
#     4  11  25  43  62  81 104 141 187 228 266 321
#     4   9  19  36  54  70  97 142 184 213 254 318
#     4   8  15  29  49  74 106 141 172 206 255 314
#     4   9  17  33  57  81 109 145 180 216 263 320
#     4  11  22  37  58  82 110 142 178 224 270 318
#     4  11  20  30  51  81 107 131 170 222 266 304
#     4  10  21  35  50  72 106 144 174 205 256 320
#
# _framework density 17.836355000000001
#
# number of rings (size 3 to 8) (size 9 to 14) (size 15 to 20)
#    0.000    2.231    1.538    3.462    0.000    4.923 
#    0.000    1.154    0.000    4.615    0.000    3.231 
#    0.000    0.000    0.000    0.000    0.000    0.000 
#
# Total GULP energy -644805.648289 kJ/mol
# GULP energy per Si atom -12400.108621 kJ/mol
# Density = 1.779576 g / cm^3
# Si number density = 17.836355 Si / 1000 Ang^3
#
#
#
# Elastic Constant Matrix: (Units=GPa)
#
#
# Indices 1 2 3 4 5 6 
#
# 1 110.9036 46.8575 42.4283 0.0000 0.0000 0.0000
# 2 46.8575 71.7999 43.4140 0.0000 0.0000 0.0000
# 3 42.4283 43.4140 81.5984 0.0000 0.0000 0.0000
# 4 0.0000 0.0000 0.0000 30.2856 0.0000 0.0000
# 5 0.0000 0.0000 0.0000 0.0000 26.7105 0.0000
# 6 0.0000 0.0000 0.0000 0.0000 0.0000 23.4140
#
#
#
# Elastic Compliance Matrix: (Units=1/GPa)
#
#
# Indices 1 2 3 4 5 6 
#
# 1 0.013032 -0.006498 -0.003319 0.000000 0.000000 0.000000
# 2 -0.006498 0.023773 -0.009270 0.000000 0.000000 0.000000
# 3 -0.003319 -0.009270 0.018913 0.000000 0.000000 0.000000
# 4 0.000000 0.000000 0.000000 0.033019 0.000000 0.000000
# 5 0.000000 0.000000 0.000000 0.000000 0.037438 0.000000
# 6 0.000000 0.000000 0.000000 0.000000 0.000000 0.042710
#
#
# Mechanical properties :
#
#
# Convention : Reuss Voigt Hill
#
# Bulk Modulus (GPa) = 56.99731 58.85574 57.92652
# Shear Modulus (GPa) = 23.48448 24.85549 24.16999
#
# Velocity S-wave (km/s) = 3.63252 3.73705 3.68516
# Velocity P-wave (km/s) = 7.04405 7.18958 7.11719
#
# Compressibility (1/GPa) = 0.01754469
#
# Stress axis : x y z
#
# Youngs Moduli (GPa) = 76.73395 42.06406 52.87440
#
# Poissons Ratio (x) = 0.27334 0.17549
# Poissons Ratio (y) = 0.49862 0.49013
# Poissons Ratio (z) = 0.25467 0.38992
#
# Static dielectric constant tensor:
#      x y z
#    x 3.598370 0.000000 0.000000 
#    y 0.000000 3.158540 0.000000 
#    z 0.000000 0.000000 3.201300 
# 
# 
# High freq. dielectric constant tensor:
#      x y z
#    x 1.700370 0.000000 0.000000 
#    y 0.000000 1.679000 0.000000 
#    z 0.000000 0.000000 1.673520 
# 
# From -- ./inp_files/24962.got.cif
#   From: 2010.03.12/outbox.cif.g09.slc.cpg/sg47_13_cif.got.tgz:24962.got - 2010.04.14 03:12:58.
