data_PCOD8199387
_publ_section_title
;
Structure prediction by ZEFSAII (Michael W. Deem and Ramdas Pophale) SiO2 
 PCOD8199387
Probable space group: P M M M
;
_chemical_formula_sum "Si O2"
_cell_formula_units_Z 44
_cell_length_a 9.779838
_cell_length_b 14.103032
_cell_length_c 16.331023
_cell_angle_alpha 90.000000
_cell_angle_beta 90.000000
_cell_angle_gamma 90.000000
_cell_volume 2252.462361
_symmetry_space_group_name_H-M "P M M M"
_symmetry_group_IT_number 47
_symmetry_cell_setting 'orthorhombic'
loop_
_space_group_symop_operation_xyz
x,y,z
-x,-y,z
x,-y,-z
-x,y,-z
-x,-y,-z
x,y,-z
-x,y,z
x,-y,z
loop_
_atom_site_type_symbol
_atom_site_label
_atom_site_fract_x
_atom_site_fract_y
_atom_site_fract_z
Si Si1 0.645385 0.500000 0.407995
Si Si2 0.500000 0.387308 0.905361
Si Si3 0.000000 0.608635 0.905500
Si Si4 0.846156 0.138379 0.407577
Si Si5 0.659154 0.105760 0.746008
Si Si6 0.243302 0.293668 0.823139
Si Si7 0.151095 0.653757 0.354598
O O1 0.500000 0.500000 0.357875
O O2 0.600653 0.500000 0.500000
O O3 0.732844 0.408252 0.392977
O O4 0.500000 0.500000 0.902011
O O5 0.374128 0.347154 0.855695
O O6 0.500000 0.352473 0.000000
O O7 0.873229 0.677693 0.886634
O O8 0.000000 0.500000 0.865083
O O9 0.000000 0.587858 0.000000
O O10 0.805301 0.105623 0.500000
O O11 0.737242 0.101500 0.341278
O O12 0.848274 0.251020 0.406178
O O13 0.000000 0.100929 0.386481
O O14 0.500000 0.133486 0.730644
O O15 0.727289 0.180702 0.809767
O O16 0.669240 0.000000 0.784766
O O17 0.191115 0.334367 0.738624
O O18 0.000000 0.607055 0.359196
#
# Coordination Sequence:
#
# PCOD8199387 Si02
#       7
#     4   4   4   8   8   8   8
#     4  11  25  37  49  77 114 155 204 255 298 345
#     4  11  24  40  63  95 127 158 196 244 303 366
#     4  11  24  42  67  97 131 162 192 240 305 372
#     4   9  19  36  57  84 116 151 200 258 311 360
#     4  10  22  40  61  88 121 164 211 255 307 357
#     4  11  22  40  63  92 124 162 201 247 300 361
#     4  10  21  35  56  80 110 158 201 245 297 360
#
# _framework density 19.534178000000001
#
# number of rings (size 3 to 8) (size 9 to 14) (size 15 to 20)
#    0.000    1.727    1.818    1.909    5.091    4.727 
#    0.000    1.818    0.000    3.273    0.000    0.000 
#    0.000    0.000    0.000    0.000    0.000    0.000 
#
# Total GULP energy -545077.262708 kJ/mol
# GULP energy per Si atom -12388.119607 kJ/mol
# Density = 1.948972 g / cm^3
# Si number density = 19.534178 Si / 1000 Ang^3
#
#
#
# Elastic Constant Matrix: (Units=GPa)
#
#
# Indices 1 2 3 4 5 6 
#
# 1 163.9726 63.8470 26.6373 0.0000 0.0000 0.0000
# 2 63.8470 119.8751 32.5480 0.0000 0.0000 0.0000
# 3 26.6373 32.5480 48.3125 0.0000 0.0000 0.0000
# 4 0.0000 0.0000 0.0000 35.6696 0.0000 0.0000
# 5 0.0000 0.0000 0.0000 0.0000 42.4602 0.0000
# 6 0.0000 0.0000 0.0000 0.0000 0.0000 105.3775
#
#
#
# Elastic Compliance Matrix: (Units=1/GPa)
#
#
# Indices 1 2 3 4 5 6 
#
# 1 0.007826 -0.003668 -0.001844 0.000000 0.000000 0.000000
# 2 -0.003668 0.011928 -0.006014 0.000000 0.000000 0.000000
# 3 -0.001844 -0.006014 0.025767 0.000000 0.000000 0.000000
# 4 0.000000 0.000000 0.000000 0.028035 0.000000 0.000000
# 5 0.000000 0.000000 0.000000 0.000000 0.023551 0.000000
# 6 0.000000 0.000000 0.000000 0.000000 0.000000 0.009490
#
#
# Mechanical properties :
#
#
# Convention : Reuss Voigt Hill
#
# Bulk Modulus (GPa) = 44.50361 64.24720 54.37540
# Shear Modulus (GPa) = 36.45930 50.64331 43.55131
#
# Velocity S-wave (km/s) = 4.32491 5.09723 4.72687
# Velocity P-wave (km/s) = 6.91171 8.22213 7.59523
#
# Compressibility (1/GPa) = 0.02247009
#
# Stress axis : x y z
#
# Youngs Moduli (GPa) = 127.77501 83.83409 38.80944
#
# Poissons Ratio (x) = 0.30747 0.07157
# Poissons Ratio (y) = 0.46863 0.23340
# Poissons Ratio (z) = 0.23564 0.50417
#
# Static dielectric constant tensor:
#      x y z
#    x 3.741430 0.000000 0.000000 
#    y 0.000000 3.678690 0.000000 
#    z 0.000000 0.000000 3.486040 
# 
# 
# High freq. dielectric constant tensor:
#      x y z
#    x 1.781710 0.000000 0.000000 
#    y 0.000000 1.763610 0.000000 
#    z 0.000000 0.000000 1.745710 
# 
# From -- ./inp_files/26412.got.cif
#   From: 2010.03.12/outbox.cif.g09.slc.cpg/sg47_14_cif.got.tgz:26412.got - 2010.04.14 03:12:58.
