data_PCOD8199756
_publ_section_title
;
Structure prediction by ZEFSAII (Michael W. Deem and Ramdas Pophale) SiO2 
 PCOD8199756
Probable space group: P M M M
;
_chemical_formula_sum "Si O2"
_cell_formula_units_Z 48
_cell_length_a 7.643407
_cell_length_b 9.122264
_cell_length_c 34.816128
_cell_angle_alpha 90.000000
_cell_angle_beta 90.000000
_cell_angle_gamma 90.000000
_cell_volume 2427.560670
_symmetry_space_group_name_H-M "P M M M"
_symmetry_group_IT_number 47
_symmetry_cell_setting 'orthorhombic'
loop_
_space_group_symop_operation_xyz
x,y,z
-x,-y,z
x,-y,-z
-x,y,-z
-x,-y,-z
x,y,-z
-x,y,z
x,-y,z
loop_
_atom_site_type_symbol
_atom_site_label
_atom_site_fract_x
_atom_site_fract_y
_atom_site_fract_z
Si Si1 0.000000 0.173623 0.207284
Si Si2 0.700326 0.172161 0.349297
Si Si3 0.298481 0.827921 0.849575
Si Si4 0.795224 0.163038 0.000000
Si Si5 0.707597 0.664708 0.574138
Si Si6 0.000000 0.173560 0.707359
Si Si7 0.291137 0.834398 0.500000
Si Si8 0.703393 0.661807 0.924395
O O1 0.823739 0.225098 0.185490
O O2 0.000000 0.243413 0.249966
O O3 0.000000 0.000000 0.210285
O O4 0.500000 0.213249 0.338860
O O5 0.767436 0.254135 0.387248
O O6 0.824328 0.224953 0.314563
O O7 0.719057 0.000000 0.357246
O O8 0.500000 0.787058 0.839989
O O9 0.223708 0.748583 0.887585
O O10 0.278921 0.000000 0.857206
O O11 0.735362 0.248963 0.962757
O O12 0.000000 0.149382 0.000000
O O13 0.711072 0.000000 0.000000
O O14 0.500000 0.661736 0.571830
O O15 0.783615 0.500000 0.574008
O O16 0.782898 0.751756 0.537522
O O17 0.000000 0.000000 0.710466
O O18 0.500000 0.834125 0.500000
O O19 0.219321 0.000000 0.500000
O O20 0.500000 0.642944 0.918257
O O21 0.791035 0.500000 0.927215
#
# Coordination Sequence:
#
# PCOD8199756 Si02
#       8
#     4   8   8   4   8   4   4   8
#     4   9  18  32  53  80 107 132 167 215 262 313
#     4   9  17  30  49  72  99 132 169 208 253 305
#     4   9  18  33  54  79 107 140 176 216 263 313
#     4  11  24  37  52  78 110 143 180 221 262 306
#     4   9  16  26  42  66  97 133 171 210 253 300
#     4   9  18  32  51  78 105 130 165 213 262 307
#     4   9  15  23  39  66  99 132 170 213 253 298
#     4  10  21  37  56  78 106 140 178 220 264 311
#
# _framework density 19.772935
#
# number of rings (size 3 to 8) (size 9 to 14) (size 15 to 20)
#    0.000    2.667    0.000    1.750    1.167    6.333 
#    0.000    3.750    0.000    2.500    0.000    8.167 
#    0.000    0.000    0.000    0.000    0.000    0.000 
#
# Total GULP energy -595081.091552 kJ/mol
# GULP energy per Si atom -12397.522741 kJ/mol
# Density = 1.972793 g / cm^3
# Si number density = 19.772935 Si / 1000 Ang^3
#
#
#
# Elastic Constant Matrix: (Units=GPa)
#
#
# Indices 1 2 3 4 5 6 
#
# 1 73.5365 27.2264 60.9101 0.0000 0.0000 0.0000
# 2 27.2264 105.2273 72.9571 0.0000 0.0000 0.0000
# 3 60.9101 72.9571 211.3774 0.0000 0.0000 0.0000
# 4 0.0000 0.0000 0.0000 2.6597 0.0000 0.0000
# 5 0.0000 0.0000 0.0000 0.0000 8.9430 0.0000
# 6 0.0000 0.0000 0.0000 0.0000 0.0000 6.7408
#
#
#
# Elastic Compliance Matrix: (Units=1/GPa)
#
#
# Indices 1 2 3 4 5 6 
#
# 1 0.018017 -0.001396 -0.004710 0.000000 0.000000 0.000000
# 2 -0.001396 0.012601 -0.003947 0.000000 0.000000 0.000000
# 3 -0.004710 -0.003947 0.007450 0.000000 0.000000 0.000000
# 4 0.000000 0.000000 0.000000 0.375987 0.000000 0.000000
# 5 0.000000 0.000000 0.000000 0.000000 0.111820 0.000000
# 6 0.000000 0.000000 0.000000 0.000000 0.000000 0.148350
#
#
# Mechanical properties :
#
#
# Convention : Reuss Voigt Hill
#
# Bulk Modulus (GPa) = 55.67234 79.14760 67.40997
# Shear Modulus (GPa) = 7.13961 18.93854 13.03907
#
# Velocity S-wave (km/s) = 1.90227 3.09819 2.57074
# Velocity P-wave (km/s) = 5.74820 7.27417 6.55574
#
# Compressibility (1/GPa) = 0.01796224
#
# Stress axis : x y z
#
# Youngs Moduli (GPa) = 55.50408 79.35881 134.22271
#
# Poissons Ratio (x) = 0.11080 0.63216
# Poissons Ratio (y) = 0.07750 0.52977
# Poissons Ratio (z) = 0.26141 0.31322
#
# Static dielectric constant tensor:
#      x y z
#    x 3.492130 0.000000 0.000000 
#    y 0.000000 3.735110 0.000000 
#    z 0.000000 0.000000 3.813430 
# 
# 
# High freq. dielectric constant tensor:
#      x y z
#    x 1.760100 0.000000 0.000000 
#    y 0.000000 1.755100 0.000000 
#    z 0.000000 0.000000 1.771540 
# 
# From -- ./inp_files/34238.got.cif
#   From: 2010.03.12/outbox.cif.g09.slc.cpg/sg47_18_cif.got.tgz:34238.got - 2010.04.14 03:12:58.
