data_PCOD8199238
_publ_section_title
;
Structure prediction by ZEFSAII (Michael W. Deem and Ramdas Pophale) SiO2 
 PCOD8199238
Probable space group: P M M M
;
_chemical_formula_sum "Si O2"
_cell_formula_units_Z 64
_cell_length_a 9.245614
_cell_length_b 25.551272
_cell_length_c 14.236729
_cell_angle_alpha 90.000000
_cell_angle_beta 90.000000
_cell_angle_gamma 90.000000
_cell_volume 3363.244969
_symmetry_space_group_name_H-M "P M M M"
_symmetry_group_IT_number 47
_symmetry_cell_setting 'orthorhombic'
loop_
_space_group_symop_operation_xyz
x,y,z
-x,-y,z
x,-y,-z
-x,y,-z
-x,-y,-z
x,y,-z
-x,y,z
x,-y,z
loop_
_atom_site_type_symbol
_atom_site_label
_atom_site_fract_x
_atom_site_fract_y
_atom_site_fract_z
Si Si1 0.658093 0.713923 0.110793
Si Si2 0.671143 0.240824 0.604080
Si Si3 0.165014 0.939270 0.391759
Si Si4 0.831450 0.813936 0.108878
Si Si5 0.331108 0.597777 0.106566
Si Si6 0.165924 0.558698 0.274614
Si Si7 0.671527 0.856546 0.273530
Si Si8 0.336628 0.356719 0.611712
O O1 0.500000 0.731763 0.150960
O O2 0.778343 0.756013 0.138871
O O3 0.698134 0.656254 0.148260
O O4 0.644337 0.707970 0.000000
O O5 0.738732 0.232327 0.500000
O O6 0.500000 0.237546 0.595199
O O7 0.727960 0.195293 0.672311
O O8 0.713388 0.298291 0.644666
O O9 0.201245 0.927548 0.500000
O O10 0.276016 0.907627 0.327922
O O11 0.000000 0.922950 0.369354
O O12 0.188269 0.000000 0.369134
O O13 0.744388 0.856271 0.170390
O O14 0.000000 0.818072 0.130582
O O15 0.796778 0.825273 0.000000
O O16 0.500000 0.584217 0.110966
O O17 0.243042 0.559213 0.173241
O O18 0.274107 0.591507 0.000000
O O19 0.182198 0.500000 0.315491
O O20 0.233950 0.599009 0.347628
O O21 0.000000 0.574077 0.260322
O O22 0.500000 0.858800 0.263189
O O23 0.328924 0.358641 0.500000
O O24 0.500000 0.367798 0.646556
#
# Coordination Sequence:
#
# PCOD8199238 Si02
#       8
#     8   8   8   8   8   8   8   8
#     4   8  15  30  51  74 100 131 170 217 268 319
#     4   8  16  32  53  80 112 140 168 210 267 326
#     4   9  19  37  59  83 116 157 196 234 276 325
#     4  10  21  35  50  73 110 153 193 231 272 323
#     4   9  19  36  58  81 104 134 175 222 268 320
#     4  11  25  40  53  75 107 140 175 220 274 332
#     4  11  21  32  54  86 117 150 188 233 279 325
#     4   9  19  38  62  82 102 134 178 225 270 322
#
# _framework density 19.029242
#
# number of rings (size 3 to 8) (size 9 to 14) (size 15 to 20)
#    0.000    2.625    0.000    3.375    1.750    4.250 
#    0.000    5.000    0.000    1.875    0.000    2.625 
#    0.000    0.000    0.000    0.000    0.000    0.000 
#
# Total GULP energy -793498.533771 kJ/mol
# GULP energy per Si atom -12398.414590 kJ/mol
# Density = 1.898593 g / cm^3
# Si number density = 19.029242 Si / 1000 Ang^3
#
#
#
# Elastic Constant Matrix: (Units=GPa)
#
#
# Indices 1 2 3 4 5 6 
#
# 1 93.9876 51.4991 43.6265 0.0000 0.0000 0.0000
# 2 51.4991 92.1549 43.3055 0.0000 0.0000 0.0000
# 3 43.6265 43.3055 58.4566 0.0000 0.0000 0.0000
# 4 0.0000 0.0000 0.0000 29.5269 0.0000 0.0000
# 5 0.0000 0.0000 0.0000 0.0000 25.4029 0.0000
# 6 0.0000 0.0000 0.0000 0.0000 0.0000 29.3628
#
#
#
# Elastic Compliance Matrix: (Units=1/GPa)
#
#
# Indices 1 2 3 4 5 6 
#
# 1 0.018081 -0.005773 -0.009218 0.000000 0.000000 0.000000
# 2 -0.005773 0.018489 -0.009389 0.000000 0.000000 0.000000
# 3 -0.009218 -0.009389 0.030941 0.000000 0.000000 0.000000
# 4 0.000000 0.000000 0.000000 0.033867 0.000000 0.000000
# 5 0.000000 0.000000 0.000000 0.000000 0.039366 0.000000
# 6 0.000000 0.000000 0.000000 0.000000 0.000000 0.034057
#
#
# Mechanical properties :
#
#
# Convention : Reuss Voigt Hill
#
# Bulk Modulus (GPa) = 53.32389 57.94017 55.63203
# Shear Modulus (GPa) = 21.75692 23.93638 22.84665
#
# Velocity S-wave (km/s) = 3.38500 3.55050 3.46874
# Velocity P-wave (km/s) = 6.58487 6.87911 6.73360
#
# Compressibility (1/GPa) = 0.01875332
#
# Stress axis : x y z
#
# Youngs Moduli (GPa) = 55.30520 54.08499 32.31926
#
# Poissons Ratio (x) = 0.31223 0.29791
# Poissons Ratio (y) = 0.31927 0.30344
# Poissons Ratio (z) = 0.50978 0.50780
#
# Static dielectric constant tensor:
#      x y z
#    x 3.295480 0.000000 0.000000 
#    y 0.000000 3.415380 0.000000 
#    z 0.000000 0.000000 3.521980 
# 
# 
# High freq. dielectric constant tensor:
#      x y z
#    x 1.722480 0.000000 0.000000 
#    y 0.000000 1.726560 0.000000 
#    z 0.000000 0.000000 1.743310 
# 
# From -- ./inp_files/21885.got.cif
#   From: 2010.03.12/outbox.cif.g09.slc.cpg/sg47_11_cif.got.tgz:21885.got - 2010.04.14 03:12:58.
