data_PCOD8199169
_publ_section_title
;
Structure prediction by ZEFSAII (Michael W. Deem and Ramdas Pophale) SiO2 
 PCOD8199169
Probable space group: P M M M
;
_chemical_formula_sum "Si O2"
_cell_formula_units_Z 52
_cell_length_a 9.686967
_cell_length_b 9.201085
_cell_length_c 33.566708
_cell_angle_alpha 90.000000
_cell_angle_beta 90.000000
_cell_angle_gamma 90.000000
_cell_volume 2991.821051
_symmetry_space_group_name_H-M "P M M M"
_symmetry_group_IT_number 47
_symmetry_cell_setting 'orthorhombic'
loop_
_space_group_symop_operation_xyz
x,y,z
-x,-y,z
x,-y,-z
-x,y,-z
-x,-y,-z
x,y,-z
-x,y,z
x,-y,z
loop_
_atom_site_type_symbol
_atom_site_label
_atom_site_fract_x
_atom_site_fract_y
_atom_site_fract_z
Si Si1 0.337130 0.829109 0.413730
Si Si2 0.341034 0.830577 0.805861
Si Si3 0.339742 0.831471 0.500000
Si Si4 0.159153 0.168170 0.731916
Si Si5 0.155054 0.327231 0.044001
Si Si6 0.159227 0.670476 0.348136
Si Si7 0.341279 0.329434 0.115071
O O1 0.500000 0.800000 0.408559
O O2 0.283333 0.771609 0.457547
O O3 0.253865 0.737856 0.381938
O O4 0.306049 0.000000 0.408487
O O5 0.500000 0.793393 0.796550
O O6 0.250745 0.776621 0.768695
O O7 0.288220 0.746555 0.844810
O O8 0.318629 0.000000 0.813791
O O9 0.500000 0.800161 0.500000
O O10 0.308620 0.000000 0.500000
O O11 0.203648 0.261023 0.693809
O O12 0.000000 0.194187 0.743123
O O13 0.188931 0.000000 0.722201
O O14 0.161062 0.500000 0.044428
O O15 0.256542 0.264533 0.077714
O O16 0.000000 0.273760 0.053329
O O17 0.200716 0.271634 0.000000
O O18 0.185879 0.500000 0.345977
O O19 0.000000 0.707275 0.357607
O O20 0.500000 0.291184 0.106946
O O21 0.316994 0.500000 0.120218
#
# Coordination Sequence:
#
# PCOD8199169 Si02
#       7
#     8   8   4   8   8   8   8
#     4   9  17  31  53  77  98 124 161 202 241 282
#     4   9  18  32  48  66  90 118 146 180 225 275
#     4   7  12  26  48  73  98 122 154 199 242 277
#     4   9  18  33  51  68  87 116 155 194 230 271
#     4   8  14  25  41  62  88 116 146 181 219 257
#     4  10  21  35  49  69 100 133 161 193 237 286
#     4   9  17  28  43  65  90 114 143 180 220 261
#
# _framework density 17.380718999999999
#
# number of rings (size 3 to 8) (size 9 to 14) (size 15 to 20)
#    0.000    3.154    0.000    1.846    0.000    3.385 
#    0.000    3.846    0.000    4.154    0.000    3.231 
#    0.000    0.000    0.000    0.000    0.000    0.000 
#
# Total GULP energy -644506.909381 kJ/mol
# GULP energy per Si atom -12394.363642 kJ/mol
# Density = 1.734116 g / cm^3
# Si number density = 17.380719 Si / 1000 Ang^3
#
#
#
# Elastic Constant Matrix: (Units=GPa)
#
#
# Indices 1 2 3 4 5 6 
#
# 1 73.6230 35.1575 91.3516 0.0000 0.0000 0.0000
# 2 35.1575 46.4725 60.3653 0.0000 0.0000 0.0000
# 3 91.3516 60.3653 199.2743 0.0000 0.0000 0.0000
# 4 0.0000 0.0000 0.0000 31.5297 0.0000 0.0000
# 5 0.0000 0.0000 0.0000 0.0000 16.8926 0.0000
# 6 0.0000 0.0000 0.0000 0.0000 0.0000 19.5422
#
#
#
# Elastic Compliance Matrix: (Units=1/GPa)
#
#
# Indices 1 2 3 4 5 6 
#
# 1 0.033605 -0.008924 -0.012702 0.000000 0.000000 0.000000
# 2 -0.008924 0.037848 -0.007374 0.000000 0.000000 0.000000
# 3 -0.012702 -0.007374 0.013075 0.000000 0.000000 0.000000
# 4 0.000000 0.000000 0.000000 0.031716 0.000000 0.000000
# 5 0.000000 0.000000 0.000000 0.000000 0.059198 0.000000
# 6 0.000000 0.000000 0.000000 0.000000 0.000000 0.051171
#
#
# Mechanical properties :
#
#
# Convention : Reuss Voigt Hill
#
# Bulk Modulus (GPa) = 37.69638 77.01318 57.35478
# Shear Modulus (GPa) = 17.03843 22.42592 19.73218
#
# Velocity S-wave (km/s) = 3.13438 3.59594 3.37306
# Velocity P-wave (km/s) = 5.90210 7.85155 6.94556
#
# Compressibility (1/GPa) = 0.02652775
#
# Stress axis : x y z
#
# Youngs Moduli (GPa) = 29.75791 26.42164 76.48250
#
# Poissons Ratio (x) = 0.23577 0.97147
# Poissons Ratio (y) = 0.26555 0.56401
# Poissons Ratio (z) = 0.37798 0.19484
#
# Static dielectric constant tensor:
#      x y z
#    x 3.191240 0.000000 0.000000 
#    y 0.000000 2.960170 0.000000 
#    z 0.000000 0.000000 3.587820 
# 
# 
# High freq. dielectric constant tensor:
#      x y z
#    x 1.659690 0.000000 0.000000 
#    y 0.000000 1.641370 0.000000 
#    z 0.000000 0.000000 1.687660 
# 
# From -- ./inp_files/33574.got.cif
#   From: 2010.03.12/outbox.cif.g09.slc.cpg/sg47_17_cif.got.tgz:33574.got - 2010.04.14 03:12:58.
