data_PCOD8199805
_publ_section_title
;
Structure prediction by ZEFSAII (Michael W. Deem and Ramdas Pophale) SiO2 
 PCOD8199805
Probable space group: P M M M
;
_chemical_formula_sum "Si O2"
_cell_formula_units_Z 48
_cell_length_a 32.775967
_cell_length_b 8.009049
_cell_length_c 9.460681
_cell_angle_alpha 90.000000
_cell_angle_beta 90.000000
_cell_angle_gamma 90.000000
_cell_volume 2483.469687
_symmetry_space_group_name_H-M "P M M M"
_symmetry_group_IT_number 47
_symmetry_cell_setting 'orthorhombic'
loop_
_space_group_symop_operation_xyz
x,y,z
-x,-y,z
x,-y,-z
-x,y,-z
-x,-y,-z
x,y,-z
-x,y,z
x,-y,z
loop_
_atom_site_type_symbol
_atom_site_label
_atom_site_fract_x
_atom_site_fract_y
_atom_site_fract_z
Si Si1 0.762737 0.800359 0.158723
Si Si2 0.597717 0.813200 0.668325
Si Si3 0.075871 0.304409 0.341784
Si Si4 0.453789 0.500000 0.668580
Si Si5 0.000000 0.803728 0.841323
Si Si6 0.688664 0.196649 0.656595
Si Si7 0.163168 0.194966 0.342644
O O1 0.722514 0.729627 0.237489
O O2 0.802631 0.728681 0.239165
O O3 0.762715 0.000000 0.156358
O O4 0.763029 0.728934 0.000000
O O5 0.596552 0.818417 0.500000
O O6 0.567599 0.669291 0.727092
O O7 0.643499 0.764194 0.716922
O O8 0.585606 0.000000 0.724895
O O9 0.067005 0.233438 0.500000
O O10 0.080366 0.500000 0.348565
O O11 0.118092 0.229946 0.281302
O O12 0.039961 0.257118 0.237753
O O13 0.500000 0.500000 0.724380
O O14 0.452019 0.500000 0.500000
O O15 0.000000 0.000000 0.845870
O O16 0.000000 0.729560 0.000000
O O17 0.694467 0.275928 0.500000
O O18 0.694429 0.000000 0.643561
O O19 0.167142 0.274695 0.500000
O O20 0.170821 0.000000 0.353038
#
# Coordination Sequence:
#
# PCOD8199805 Si02
#       7
#     8   8   8   4   4   8   8
#     4   9  16  25  41  68  97 122 155 200 242 282
#     4   8  14  24  38  57  83 117 156 195 238 291
#     4  10  21  37  57  79 103 132 167 206 247 294
#     4   9  16  24  36  58  89 121 153 193 243 296
#     4  11  24  39  56  80 106 131 164 205 248 298
#     4   8  13  23  40  60  84 118 157 194 234 283
#     4   9  17  30  49  72  98 130 165 199 239 289
#
# _framework density 19.327797
#
# number of rings (size 3 to 8) (size 9 to 14) (size 15 to 20)
#    0.000    3.000    0.000    2.500    0.000    5.667 
#    0.000    3.333    1.833    0.000    0.000    0.000 
#    0.000    1.333    0.000    6.500    0.000    6.667 
#
# Total GULP energy -594921.142694 kJ/mol
# GULP energy per Si atom -12394.190473 kJ/mol
# Density = 1.928381 g / cm^3
# Si number density = 19.327797 Si / 1000 Ang^3
#
#
#
# Elastic Constant Matrix: (Units=GPa)
#
#
# Indices 1 2 3 4 5 6 
#
# 1 174.0091 36.3383 72.6773 0.0000 0.0000 0.0000
# 2 36.3383 49.8833 20.7922 0.0000 0.0000 0.0000
# 3 72.6773 20.7922 92.4305 0.0000 0.0000 0.0000
# 4 0.0000 0.0000 0.0000 8.8069 0.0000 0.0000
# 5 0.0000 0.0000 0.0000 0.0000 3.9335 0.0000
# 6 0.0000 0.0000 0.0000 0.0000 0.0000 -3.5526
#
#
#
# Elastic Compliance Matrix: (Units=1/GPa)
#
#
# Indices 1 2 3 4 5 6 
#
# 1 0.009257 -0.004093 -0.006358 0.000000 0.000000 0.000000
# 2 -0.004093 0.023931 -0.002165 0.000000 0.000000 0.000000
# 3 -0.006358 -0.002165 0.016305 0.000000 0.000000 0.000000
# 4 0.000000 0.000000 0.000000 0.113547 0.000000 0.000000
# 5 0.000000 0.000000 0.000000 0.000000 0.254230 0.000000
# 6 0.000000 0.000000 0.000000 0.000000 0.000000 -0.281483
#
#
# Mechanical properties :
#
#
# Convention : Reuss Voigt Hill
#
# Bulk Modulus (GPa) = 41.21824 63.99318 52.60571
# Shear Modulus (GPa) = 29.56722 14.27189 21.91955
#
# Velocity S-wave (km/s) = 3.91548 2.72032 3.37129
# Velocity P-wave (km/s) = 6.46634 6.56111 6.51389
#
# Compressibility (1/GPa) = 0.02426110
#
# Stress axis : x y z
#
# Youngs Moduli (GPa) = 108.02445 41.78687 61.33040
#
# Poissons Ratio (x) = 0.17105 0.38994
# Poissons Ratio (y) = 0.44219 0.13276
# Poissons Ratio (z) = 0.68682 0.09045
#
# Static dielectric constant tensor:
#      x y z
#    x 3.707190 0.000000 0.000000 
#    y 0.000000 3.348090 0.000000 
#    z 0.000000 0.000000 3.636800 
# 
# 
# High freq. dielectric constant tensor:
#      x y z
#    x 1.760730 0.000000 0.000000 
#    y 0.000000 1.728360 0.000000 
#    z 0.000000 0.000000 1.712650 
# 
# From -- ./inp_files/13917.got.cif
#   From: 2010.03.12/outbox.cif.g09.slc.cpg/sg47_7_cif.got.tgz:13917.got - 2010.04.14 03:12:58.
