data_PCOD8199810
_publ_section_title
;
Structure prediction by ZEFSAII (Michael W. Deem and Ramdas Pophale) SiO2 
 PCOD8199810
Probable space group: P M M M
;
_chemical_formula_sum "Si O2"
_cell_formula_units_Z 48
_cell_length_a 17.731264
_cell_length_b 9.112422
_cell_length_c 15.575956
_cell_angle_alpha 90.000000
_cell_angle_beta 90.000000
_cell_angle_gamma 90.000000
_cell_volume 2516.681355
_symmetry_space_group_name_H-M "P M M M"
_symmetry_group_IT_number 47
_symmetry_cell_setting 'orthorhombic'
loop_
_space_group_symop_operation_xyz
x,y,z
-x,-y,z
x,-y,-z
-x,y,-z
-x,-y,-z
x,y,-z
-x,y,z
x,-y,z
loop_
_atom_site_type_symbol
_atom_site_label
_atom_site_fract_x
_atom_site_fract_y
_atom_site_fract_z
Si Si1 0.814642 0.828593 0.154203
Si Si2 0.082296 0.173768 0.000000
Si Si3 0.803931 0.827740 0.349592
Si Si4 0.352209 0.668831 0.659988
Si Si5 0.500000 0.162972 0.599852
Si Si6 0.586310 0.158653 0.000000
Si Si7 0.336557 0.666580 0.858971
Si Si8 0.085636 0.826158 0.500000
O O1 0.834376 0.791911 0.253589
O O2 0.743048 0.739783 0.123281
O O3 0.797410 0.000000 0.143938
O O4 0.879211 0.775124 0.088933
O O5 0.000000 0.246082 0.000000
O O6 0.077587 0.000000 0.000000
O O7 0.725701 0.744766 0.370127
O O8 0.868636 0.773442 0.415430
O O9 0.787579 0.000000 0.360996
O O10 0.350698 0.500000 0.628854
O O11 0.424668 0.748993 0.622519
O O12 0.361364 0.679958 0.761347
O O13 0.500000 0.139968 0.500000
O O14 0.500000 0.000000 0.643533
O O15 0.602582 0.249671 0.914788
O O16 0.500000 0.124140 0.000000
O O17 0.628973 0.000000 0.000000
O O18 0.331781 0.500000 0.889760
O O19 0.000000 0.760447 0.500000
O O20 0.079772 0.000000 0.500000
#
# Coordination Sequence:
#
# PCOD8199810 Si02
#       8
#     8   4   8   8   4   4   8   4
#     4   9  17  31  52  76 103 138 178 223 271 326
#     4   9  17  28  46  76 108 135 170 221 276 326
#     4   9  18  33  54  79 108 144 187 230 279 335
#     4  10  22  39  59  84 113 147 186 231 282 333
#     4  11  25  41  59  84 113 146 185 229 280 335
#     4  11  24  37  52  78 108 141 182 225 270 318
#     4  10  21  37  57  79 106 143 183 225 272 323
#     4   9  18  32  53  82 113 144 183 233 282 331
#
# _framework density 19.072735999999999
#
# number of rings (size 3 to 8) (size 9 to 14) (size 15 to 20)
#    0.000    2.333    0.000    2.000    2.333    4.667 
#    0.000    3.333    0.000    2.000    0.000    4.667 
#    0.000    0.000    0.000    0.000    0.000    0.000 
#
# Total GULP energy -595049.310407 kJ/mol
# GULP energy per Si atom -12396.860633 kJ/mol
# Density = 1.902933 g / cm^3
# Si number density = 19.072736 Si / 1000 Ang^3
#
#
#
# Elastic Constant Matrix: (Units=GPa)
#
#
# Indices 1 2 3 4 5 6 
#
# 1 151.6962 59.9600 74.8222 0.0000 0.0000 0.0000
# 2 59.9600 92.8732 39.3369 0.0000 0.0000 0.0000
# 3 74.8222 39.3369 100.4434 0.0000 0.0000 0.0000
# 4 0.0000 0.0000 0.0000 22.2447 0.0000 0.0000
# 5 0.0000 0.0000 0.0000 0.0000 37.4374 0.0000
# 6 0.0000 0.0000 0.0000 0.0000 0.0000 -9.5033
#
#
#
# Elastic Compliance Matrix: (Units=1/GPa)
#
#
# Indices 1 2 3 4 5 6 
#
# 1 0.011929 -0.004721 -0.007037 0.000000 0.000000 0.000000
# 2 -0.004721 0.014777 -0.002270 0.000000 0.000000 0.000000
# 3 -0.007037 -0.002270 0.016087 0.000000 0.000000 0.000000
# 4 0.000000 0.000000 0.000000 0.044955 0.000000 0.000000
# 5 0.000000 0.000000 0.000000 0.000000 0.026711 0.000000
# 6 0.000000 0.000000 0.000000 0.000000 0.000000 -0.105226
#
#
# Mechanical properties :
#
#
# Convention : Reuss Voigt Hill
#
# Bulk Modulus (GPa) = 67.86136 77.02789 72.44463
# Shear Modulus (GPa) = 118.47526 21.42865 69.95196
#
# Velocity S-wave (km/s) = 7.89002 3.35554 6.06268
# Velocity P-wave (km/s) = 10.89315 7.44895 9.33134
#
# Compressibility (1/GPa) = 0.01473593
#
# Stress axis : x y z
#
# Youngs Moduli (GPa) = 83.82730 67.67320 62.16056
#
# Poissons Ratio (x) = 0.31948 0.43745
# Poissons Ratio (y) = 0.39574 0.14113
# Poissons Ratio (z) = 0.58993 0.15365
#
# Static dielectric constant tensor:
#      x y z
#    x 3.568260 0.000000 0.000000 
#    y 0.000000 3.535460 0.000000 
#    z 0.000000 0.000000 4.020510 
# 
# 
# High freq. dielectric constant tensor:
#      x y z
#    x 1.737580 0.000000 0.000000 
#    y 0.000000 1.729520 0.000000 
#    z 0.000000 0.000000 1.752080 
# 
# From -- ./inp_files/24529.got.cif
#   From: 2010.03.12/outbox.cif.g09.slc.cpg/sg47_13_cif.got.tgz:24529.got - 2010.04.14 03:12:58.
