data_PCOD8199967
_publ_section_title
;
Structure prediction by ZEFSAII (Michael W. Deem and Ramdas Pophale) SiO2 
 PCOD8199967
Probable space group: P M M M
;
_chemical_formula_sum "Si O2"
_cell_formula_units_Z 64
_cell_length_a 14.754133
_cell_length_b 8.907216
_cell_length_c 24.708464
_cell_angle_alpha 90.000000
_cell_angle_beta 90.000000
_cell_angle_gamma 90.000000
_cell_volume 3247.143087
_symmetry_space_group_name_H-M "P M M M"
_symmetry_group_IT_number 47
_symmetry_cell_setting 'orthorhombic'
loop_
_space_group_symop_operation_xyz
x,y,z
-x,-y,z
x,-y,-z
-x,y,-z
-x,-y,-z
x,y,-z
-x,y,z
x,-y,z
loop_
_atom_site_type_symbol
_atom_site_label
_atom_site_fract_x
_atom_site_fract_y
_atom_site_fract_z
Si Si1 0.901700 0.676577 0.592541
Si Si2 0.718781 0.174400 0.240257
Si Si3 0.743432 0.674277 0.871331
Si Si4 0.099617 0.169106 0.296860
Si Si5 0.399572 0.167120 0.063676
Si Si6 0.895392 0.824481 0.061451
Si Si7 0.709961 0.678430 0.441035
Si Si8 0.604817 0.321944 0.335646
O O1 0.904477 0.500000 0.585204
O O2 0.888054 0.713096 0.655283
O O3 0.813804 0.741047 0.561459
O O4 0.000000 0.742395 0.572202
O O5 0.704694 0.246340 0.182053
O O6 0.824554 0.202970 0.252634
O O7 0.654511 0.250205 0.284588
O O8 0.693631 0.000000 0.238358
O O9 0.755100 0.500000 0.859623
O O10 0.667061 0.704273 0.915869
O O11 0.838502 0.736685 0.893499
O O12 0.000000 0.188101 0.269906
O O13 0.111211 0.000000 0.320053
O O14 0.500000 0.193957 0.087724
O O15 0.364977 0.000000 0.080459
O O16 0.403288 0.179759 0.000000
O O17 0.000000 0.784106 0.071145
O O18 0.877942 0.000000 0.069666
O O19 0.867239 0.778686 0.000000
O O20 0.670343 0.727451 0.500000
O O21 0.711409 0.500000 0.436405
O O22 0.649122 0.741093 0.391676
O O23 0.500000 0.273351 0.335358
O O24 0.615440 0.500000 0.331868
#
# Coordination Sequence:
#
# PCOD8199967 Si02
#       8
#     8   8   8   8   8   8   8   8
#     4   9  16  27  48  77 108 142 176 213 260 315
#     4  11  23  39  59  80 106 145 189 232 281 340
#     4  12  25  37  55  86 122 154 188 236 291 345
#     4   9  18  33  54  78 102 132 173 219 266 317
#     4   9  19  38  63  87 112 146 188 232 279 336
#     4   9  19  38  63  88 118 161 208 247 284 332
#     4   9  17  30  51  81 115 146 179 222 273 336
#     4  10  21  38  59  81 108 142 183 235 291 342
#
# _framework density 19.709633
#
# number of rings (size 3 to 8) (size 9 to 14) (size 15 to 20)
#    0.000    2.250    1.250    2.625    0.000    4.750 
#    0.000    5.000    0.000    1.500    0.000    2.625 
#    0.000    0.000    0.000    0.000    0.000    0.000 
#
# Total GULP energy -793239.786429 kJ/mol
# GULP energy per Si atom -12394.371663 kJ/mol
# Density = 1.966477 g / cm^3
# Si number density = 19.709633 Si / 1000 Ang^3
#
#
#
# Elastic Constant Matrix: (Units=GPa)
#
#
# Indices 1 2 3 4 5 6 
#
# 1 126.5942 39.3737 56.4614 0.0000 0.0000 0.0000
# 2 39.3737 44.0917 31.6814 0.0000 0.0000 0.0000
# 3 56.4614 31.6814 101.1601 0.0000 0.0000 0.0000
# 4 0.0000 0.0000 0.0000 15.6385 0.0000 0.0000
# 5 0.0000 0.0000 0.0000 0.0000 12.5216 0.0000
# 6 0.0000 0.0000 0.0000 0.0000 0.0000 22.0702
#
#
#
# Elastic Compliance Matrix: (Units=1/GPa)
#
#
# Indices 1 2 3 4 5 6 
#
# 1 0.012298 -0.007807 -0.004419 0.000000 0.000000 0.000000
# 2 -0.007807 0.034222 -0.006360 0.000000 0.000000 0.000000
# 3 -0.004419 -0.006360 0.014344 0.000000 0.000000 0.000000
# 4 0.000000 0.000000 0.000000 0.063945 0.000000 0.000000
# 5 0.000000 0.000000 0.000000 0.000000 0.079862 0.000000
# 6 0.000000 0.000000 0.000000 0.000000 0.000000 0.045310
#
#
# Mechanical properties :
#
#
# Convention : Reuss Voigt Hill
#
# Bulk Modulus (GPa) = 42.21016 58.54212 50.37614
# Shear Modulus (GPa) = 16.94623 19.66800 18.30712
#
# Velocity S-wave (km/s) = 2.93541 3.16236 3.05100
# Velocity P-wave (km/s) = 5.74032 6.56512 6.16653
#
# Compressibility (1/GPa) = 0.02369098
#
# Stress axis : x y z
#
# Youngs Moduli (GPa) = 81.31126 29.22120 69.71691
#
# Poissons Ratio (x) = 0.22813 0.30809
# Poissons Ratio (y) = 0.63481 0.44341
# Poissons Ratio (z) = 0.35933 0.18585
#
# Static dielectric constant tensor:
#      x y z
#    x 3.925140 0.000000 0.000000 
#    y 0.000000 3.374810 0.000000 
#    z 0.000000 0.000000 3.502140 
# 
# 
# High freq. dielectric constant tensor:
#      x y z
#    x 1.781090 0.000000 0.000000 
#    y 0.000000 1.739510 0.000000 
#    z 0.000000 0.000000 1.760650 
# 
# From -- ./inp_files/32781.got.cif
#   From: 2010.03.12/outbox.cif.g09.slc.cpg/sg47_17_cif.got.tgz:32781.got - 2010.04.14 03:12:58.
