data_PCOD8199547
_publ_section_title
;
Structure prediction by ZEFSAII (Michael W. Deem and Ramdas Pophale) SiO2 
 PCOD8199547
Probable space group: P M M M
;
_chemical_formula_sum "Si O2"
_cell_formula_units_Z 44
_cell_length_a 9.563320
_cell_length_b 14.790870
_cell_length_c 16.482306
_cell_angle_alpha 90.000000
_cell_angle_beta 90.000000
_cell_angle_gamma 90.000000
_cell_volume 2331.419264
_symmetry_space_group_name_H-M "P M M M"
_symmetry_group_IT_number 47
_symmetry_cell_setting 'orthorhombic'
loop_
_space_group_symop_operation_xyz
x,y,z
-x,-y,z
x,-y,-z
-x,y,-z
-x,-y,-z
x,y,-z
-x,y,z
x,-y,z
loop_
_atom_site_type_symbol
_atom_site_label
_atom_site_fract_x
_atom_site_fract_y
_atom_site_fract_z
Si Si1 0.161812 0.754974 0.825324
Si Si2 0.653815 0.900029 0.095575
Si Si3 0.655684 0.600389 0.404132
Si Si4 0.833873 0.102324 0.500000
Si Si5 0.337722 0.604854 0.906649
Si Si6 0.160338 0.234716 0.640265
O O1 0.222838 0.834108 0.879717
O O2 0.243893 0.662314 0.844477
O O3 0.180415 0.791320 0.733731
O O4 0.000000 0.738934 0.846537
O O5 0.500000 0.866847 0.126425
O O6 0.684540 0.000000 0.130838
O O7 0.651227 0.904296 0.000000
O O8 0.658375 0.604180 0.500000
O O9 0.500000 0.624132 0.372618
O O10 0.697906 0.500000 0.374036
O O11 0.764046 0.670503 0.369214
O O12 0.780500 0.156132 0.419518
O O13 0.000000 0.095481 0.500000
O O14 0.771225 0.000000 0.500000
O O15 0.500000 0.625737 0.889480
O O16 0.304737 0.500000 0.890754
O O17 0.302090 0.630314 0.000000
O O18 0.000000 0.251623 0.617412
#
# Coordination Sequence:
#
# PCOD8199547 Si02
#       6
#     8   8   8   4   8   8
#     4  11  23  34  50  82 117 144 175 222 277 328
#     4   9  19  37  59  80 104 139 182 222 263 321
#     4   9  18  33  54  79 105 134 169 213 266 316
#     4   9  18  36  60  77  94 132 183 225 262 311
#     4   9  19  37  59  80 105 145 194 231 262 313
#     4  10  21  36  54  78 107 141 181 221 264 319
#
# _framework density 18.872624999999999
#
# number of rings (size 3 to 8) (size 9 to 14) (size 15 to 20)
#    0.000    2.455    0.909    2.727    0.000    6.909 
#    0.000    8.182    0.000    1.091    0.000    0.000 
#    0.000    0.000    0.000    0.000    0.000    0.000 
#
# Total GULP energy -545426.674847 kJ/mol
# GULP energy per Si atom -12396.060792 kJ/mol
# Density = 1.882967 g / cm^3
# Si number density = 18.872625 Si / 1000 Ang^3
#
#
#
# Elastic Constant Matrix: (Units=GPa)
#
#
# Indices 1 2 3 4 5 6 
#
# 1 84.2548 59.2014 38.4611 0.0000 0.0000 0.0000
# 2 59.2014 122.1738 40.1606 0.0000 0.0000 0.0000
# 3 38.4611 40.1606 65.2342 0.0000 0.0000 0.0000
# 4 0.0000 0.0000 0.0000 7.1301 0.0000 0.0000
# 5 0.0000 0.0000 0.0000 0.0000 22.8924 0.0000
# 6 0.0000 0.0000 0.0000 0.0000 0.0000 51.6884
#
#
#
# Elastic Compliance Matrix: (Units=1/GPa)
#
#
# Indices 1 2 3 4 5 6 
#
# 1 0.020564 -0.007496 -0.007509 0.000000 0.000000 0.000000
# 2 -0.007496 0.012994 -0.003580 0.000000 0.000000 0.000000
# 3 -0.007509 -0.003580 0.021961 0.000000 0.000000 0.000000
# 4 0.000000 0.000000 0.000000 0.140250 0.000000 0.000000
# 5 0.000000 0.000000 0.000000 0.000000 0.043683 0.000000
# 6 0.000000 0.000000 0.000000 0.000000 0.000000 0.019347
#
#
# Mechanical properties :
#
#
# Convention : Reuss Voigt Hill
#
# Bulk Modulus (GPa) = 54.50226 60.81208 57.65717
# Shear Modulus (GPa) = 16.55164 25.26484 20.90824
#
# Velocity S-wave (km/s) = 2.96466 3.66280 3.33206
# Velocity P-wave (km/s) = 6.37657 7.08382 6.73948
#
# Compressibility (1/GPa) = 0.01834786
#
# Stress axis : x y z
#
# Youngs Moduli (GPa) = 48.62933 76.95685 45.53575
#
# Poissons Ratio (x) = 0.57688 0.34194
# Poissons Ratio (y) = 0.36453 0.16303
# Poissons Ratio (z) = 0.36517 0.27552
#
# Static dielectric constant tensor:
#      x y z
#    x 3.502650 0.000000 0.000000 
#    y 0.000000 2.709780 0.000000 
#    z 0.000000 0.000000 3.457020 
# 
# 
# High freq. dielectric constant tensor:
#      x y z
#    x 1.720430 0.000000 0.000000 
#    y 0.000000 1.739240 0.000000 
#    z 0.000000 0.000000 1.724820 
# 
# From -- ./inp_files/20923.got.cif
#   From: 2010.03.12/outbox.cif.g09.slc.cpg/sg47_11_cif.got.tgz:20923.got - 2010.04.14 03:12:58.
