data_PCOD8199558
_publ_section_title
;
Structure prediction by ZEFSAII (Michael W. Deem and Ramdas Pophale) SiO2 
 PCOD8199558
Probable space group: P M M M
;
_chemical_formula_sum "Si O2"
_cell_formula_units_Z 64
_cell_length_a 18.519029
_cell_length_b 8.913373
_cell_length_c 20.223172
_cell_angle_alpha 90.000000
_cell_angle_beta 90.000000
_cell_angle_gamma 90.000000
_cell_volume 3338.178597
_symmetry_space_group_name_H-M "P M M M"
_symmetry_group_IT_number 47
_symmetry_cell_setting 'orthorhombic'
loop_
_space_group_symop_operation_xyz
x,y,z
-x,-y,z
x,-y,-z
-x,y,-z
-x,-y,-z
x,y,-z
-x,y,z
x,-y,z
loop_
_atom_site_type_symbol
_atom_site_label
_atom_site_fract_x
_atom_site_fract_y
_atom_site_fract_z
Si Si1 0.322063 0.822546 0.307628
Si Si2 0.329052 0.327220 0.073891
Si Si3 0.083808 0.175202 0.807306
Si Si4 0.817972 0.822839 0.926232
Si Si5 0.580674 0.178226 0.426428
Si Si6 0.583021 0.326509 0.199238
Si Si7 0.917144 0.827056 0.423528
Si Si8 0.167021 0.323221 0.310671
O O1 0.361728 0.759962 0.373630
O O2 0.370658 0.781159 0.245285
O O3 0.245195 0.746403 0.300023
O O4 0.311329 0.000000 0.310473
O O5 0.306222 0.500000 0.075291
O O6 0.259436 0.235537 0.097979
O O7 0.394948 0.295268 0.123322
O O8 0.353234 0.278305 0.000000
O O9 0.121794 0.232197 0.874553
O O10 0.113087 0.266632 0.745428
O O11 0.000000 0.210056 0.815565
O O12 0.098722 0.000000 0.794555
O O13 0.814831 0.000000 0.927513
O O14 0.836294 0.761018 0.000000
O O15 0.603319 0.232666 0.500000
O O16 0.500000 0.238343 0.409427
O O17 0.579435 0.000000 0.423779
O O18 0.500000 0.282089 0.207378
O O19 0.596763 0.500000 0.218162
O O20 0.899234 0.798827 0.500000
O O21 0.864284 0.722817 0.381755
O O22 0.000000 0.784822 0.408258
O O23 0.903161 0.000000 0.404766
O O24 0.173933 0.500000 0.306641
#
# Coordination Sequence:
#
# PCOD8199558 Si02
#       8
#     8   8   8   8   8   8   8   8
#     4  11  22  36  56  80 106 140 183 226 268 319
#     4   9  18  33  53  76 103 139 181 219 258 313
#     4  10  21  37  57  80 107 141 181 224 270 324
#     4   9  18  33  54  80 108 138 174 219 271 323
#     4   8  15  30  53  80 106 131 165 211 258 303
#     4  10  21  36  54  78 109 142 176 221 276 327
#     4   9  19  38  63  87 111 142 181 224 270 323
#     4  12  25  38  54  79 112 147 183 226 275 324
#
# _framework density 19.172131
#
# number of rings (size 3 to 8) (size 9 to 14) (size 15 to 20)
#    0.000    2.250    0.000    3.750    0.000    7.000 
#    0.000    4.375    0.000    1.125    0.000    9.625 
#    0.000    0.000    0.000    0.000    0.000    0.000 
#
# Total GULP energy -793668.259041 kJ/mol
# GULP energy per Si atom -12401.066548 kJ/mol
# Density = 1.912849 g / cm^3
# Si number density = 19.172131 Si / 1000 Ang^3
#
#
#
# Elastic Constant Matrix: (Units=GPa)
#
#
# Indices 1 2 3 4 5 6 
#
# 1 99.0724 29.2610 49.5696 0.0000 0.0000 0.0000
# 2 29.2610 48.2363 32.2836 0.0000 0.0000 0.0000
# 3 49.5696 32.2836 102.4607 0.0000 0.0000 0.0000
# 4 0.0000 0.0000 0.0000 23.2650 0.0000 0.0000
# 5 0.0000 0.0000 0.0000 0.0000 40.9715 0.0000
# 6 0.0000 0.0000 0.0000 0.0000 0.0000 22.0748
#
#
#
# Elastic Compliance Matrix: (Units=1/GPa)
#
#
# Indices 1 2 3 4 5 6 
#
# 1 0.014245 -0.005105 -0.005283 0.000000 0.000000 0.000000
# 2 -0.005105 0.028101 -0.006384 0.000000 0.000000 0.000000
# 3 -0.005283 -0.006384 0.014327 0.000000 0.000000 0.000000
# 4 0.000000 0.000000 0.000000 0.042983 0.000000 0.000000
# 5 0.000000 0.000000 0.000000 0.000000 0.024407 0.000000
# 6 0.000000 0.000000 0.000000 0.000000 0.000000 0.045301
#
#
# Mechanical properties :
#
#
# Convention : Reuss Voigt Hill
#
# Bulk Modulus (GPa) = 43.23749 52.44422 47.84086
# Shear Modulus (GPa) = 23.73966 26.50595 25.12280
#
# Velocity S-wave (km/s) = 3.52268 3.72227 3.62385
# Velocity P-wave (km/s) = 6.25675 6.77403 6.52052
#
# Compressibility (1/GPa) = 0.02312808
#
# Stress axis : x y z
#
# Youngs Moduli (GPa) = 70.20149 35.58576 69.79725
#
# Poissons Ratio (x) = 0.18168 0.36873
# Poissons Ratio (y) = 0.35841 0.44560
# Poissons Ratio (z) = 0.37086 0.22719
#
# Static dielectric constant tensor:
#      x y z
#    x 3.550860 0.000000 0.000000 
#    y 0.000000 3.317820 0.000000 
#    z 0.000000 0.000000 3.842750 
# 
# 
# High freq. dielectric constant tensor:
#      x y z
#    x 1.747130 0.000000 0.000000 
#    y 0.000000 1.723430 0.000000 
#    z 0.000000 0.000000 1.760920 
# 
# From -- ./inp_files/27011.got.cif
#   From: 2010.03.12/outbox.cif.g09.slc.cpg/sg47_14_cif.got.tgz:27011.got - 2010.04.14 03:12:58.
