data_PCOD8199015
_publ_section_title
;
Structure prediction by ZEFSAII (Michael W. Deem and Ramdas Pophale) SiO2 
 PCOD8199015
Probable space group: P M M M
;
_chemical_formula_sum "Si O2"
_cell_formula_units_Z 44
_cell_length_a 29.485656
_cell_length_b 9.957690
_cell_length_c 7.798847
_cell_angle_alpha 90.000000
_cell_angle_beta 90.000000
_cell_angle_gamma 90.000000
_cell_volume 2289.811840
_symmetry_space_group_name_H-M "P M M M"
_symmetry_group_IT_number 47
_symmetry_cell_setting 'orthorhombic'
loop_
_space_group_symop_operation_xyz
x,y,z
-x,-y,z
x,-y,-z
-x,y,-z
-x,-y,-z
x,y,-z
-x,y,z
x,-y,z
loop_
_atom_site_type_symbol
_atom_site_label
_atom_site_fract_x
_atom_site_fract_y
_atom_site_fract_z
Si Si1 0.081138 0.153502 0.301207
Si Si2 0.446630 0.500000 0.697999
Si Si3 0.449639 0.000000 0.299701
Si Si4 0.699815 0.345862 0.690075
Si Si5 0.607958 0.251045 0.192467
Si Si6 0.848942 0.152296 0.000000
Si Si7 0.763276 0.658778 0.000000
Si Si8 0.000000 0.347062 0.298094
O O1 0.095596 0.178892 0.500000
O O2 0.123016 0.176556 0.174329
O O3 0.043603 0.261118 0.240120
O O4 0.062730 0.000000 0.281866
O O5 0.500000 0.500000 0.723279
O O6 0.432488 0.500000 0.500000
O O7 0.426236 0.372730 0.790222
O O8 0.421117 0.125305 0.243008
O O9 0.500000 0.000000 0.214742
O O10 0.456081 0.000000 0.500000
O O11 0.721220 0.328790 0.500000
O O12 0.686787 0.500000 0.728841
O O13 0.653203 0.262290 0.693790
O O14 0.735831 0.296612 0.830453
O O15 0.625836 0.240413 0.000000
O O16 0.809467 0.260234 0.000000
O O17 0.829854 0.000000 0.000000
O O18 0.773861 0.500000 0.000000
O O19 0.000000 0.500000 0.219759
O O20 0.000000 0.359243 0.500000
#
# Coordination Sequence:
#
# PCOD8199015 Si02
#       8
#     8   4   4   8   8   4   4   4
#     4   9  18  34  56  79 113 160 201 238 285 340
#     4  11  23  37  57  87 119 155 197 236 277 333
#     4  11  25  43  59  81 119 161 195 230 281 345
#     4  10  20  38  63  88 114 146 187 235 287 348
#     4  12  23  38  61  87 117 151 193 237 283 343
#     4  10  22  39  57  84 115 147 193 244 293 351
#     4  10  22  40  61  85 111 143 186 236 298 357
#     4   9  17  30  51  84 121 157 202 249 287 330
#
# _framework density 19.215554999999998
#
# number of rings (size 3 to 8) (size 9 to 14) (size 15 to 20)
#    0.000    1.727    1.818    3.000    0.000    6.545 
#    1.636    1.818    0.000    0.000    0.000    0.000 
#    0.000    0.000    0.000    0.000    0.000    0.000 
#
# Total GULP energy -545523.685693 kJ/mol
# GULP energy per Si atom -12398.265584 kJ/mol
# Density = 1.917182 g / cm^3
# Si number density = 19.215555 Si / 1000 Ang^3
#
#
#
# Elastic Constant Matrix: (Units=GPa)
#
#
# Indices 1 2 3 4 5 6 
#
# 1 122.5529 72.3296 53.4507 0.0000 0.0000 0.0000
# 2 72.3296 132.4136 32.6930 0.0000 0.0000 0.0000
# 3 53.4507 32.6930 115.5533 0.0000 0.0000 0.0000
# 4 0.0000 0.0000 0.0000 -20.4317 0.0000 0.0000
# 5 0.0000 0.0000 0.0000 0.0000 24.9837 0.0000
# 6 0.0000 0.0000 0.0000 0.0000 0.0000 37.3065
#
#
#
# Elastic Compliance Matrix: (Units=1/GPa)
#
#
# Indices 1 2 3 4 5 6 
#
# 1 0.014034 -0.006518 -0.004647 0.000000 0.000000 0.000000
# 2 -0.006518 0.011147 -0.000139 0.000000 0.000000 0.000000
# 3 -0.004647 -0.000139 0.010843 0.000000 0.000000 0.000000
# 4 0.000000 0.000000 0.000000 -0.048944 0.000000 0.000000
# 5 0.000000 0.000000 0.000000 0.000000 0.040026 0.000000
# 6 0.000000 0.000000 0.000000 0.000000 0.000000 0.026805
#
#
# Mechanical properties :
#
#
# Convention : Reuss Voigt Hill
#
# Bulk Modulus (GPa) = 74.54312 76.38515 75.46414
# Shear Modulus (GPa) = 61.73512 22.50812 42.12162
#
# Velocity S-wave (km/s) = 5.67428 3.42621 4.68702
# Velocity P-wave (km/s) = 9.04474 7.44916 8.28544
#
# Compressibility (1/GPa) = 0.01341505
#
# Stress axis : x y z
#
# Youngs Moduli (GPa) = 71.25710 89.71108 92.22644
#
# Poissons Ratio (x) = 0.58477 0.42860
# Poissons Ratio (y) = 0.46448 0.01278
# Poissons Ratio (z) = 0.33115 0.01243
#
# Static dielectric constant tensor:
#      x y z
#    x 3.396340 0.000000 0.000000 
#    y 0.000000 3.538530 0.000000 
#    z 0.000000 0.000000 3.724340 
# 
# 
# High freq. dielectric constant tensor:
#      x y z
#    x 1.733860 0.000000 0.000000 
#    y 0.000000 1.744310 0.000000 
#    z 0.000000 0.000000 1.761120 
# 
# From -- ./inp_files/13787.got.cif
#   From: 2010.03.12/outbox.cif.g09.slc.cpg/sg47_7_cif.got.tgz:13787.got - 2010.04.14 03:12:58.
