data_PCOD8199614
_publ_section_title
;
Structure prediction by ZEFSAII (Michael W. Deem and Ramdas Pophale) SiO2 
 PCOD8199614
Probable space group: P M M M
;
_chemical_formula_sum "Si O2"
_cell_formula_units_Z 48
_cell_length_a 16.932510
_cell_length_b 15.614473
_cell_length_c 8.817124
_cell_angle_alpha 90.000000
_cell_angle_beta 90.000000
_cell_angle_gamma 90.000000
_cell_volume 2331.178990
_symmetry_space_group_name_H-M "P M M M"
_symmetry_group_IT_number 47
_symmetry_cell_setting 'orthorhombic'
loop_
_space_group_symop_operation_xyz
x,y,z
-x,-y,z
x,-y,-z
-x,y,-z
-x,-y,-z
x,y,-z
-x,y,z
x,-y,z
loop_
_atom_site_type_symbol
_atom_site_label
_atom_site_fract_x
_atom_site_fract_y
_atom_site_fract_z
Si Si1 0.500000 0.341258 0.178787
Si Si2 0.351001 0.094758 0.826696
Si Si3 0.500000 0.156967 0.324428
Si Si4 0.091443 0.408134 0.335529
Si Si5 0.910352 0.244362 0.173548
Si Si6 0.339724 0.403007 0.675305
Si Si7 0.754113 0.232842 0.674585
O O1 0.500000 0.243504 0.229238
O O2 0.579348 0.387137 0.235499
O O3 0.500000 0.346422 0.000000
O O4 0.425268 0.099629 0.716089
O O5 0.291946 0.169492 0.783289
O O6 0.312755 0.000000 0.806565
O O7 0.377649 0.109032 0.000000
O O8 0.500000 0.181760 0.500000
O O9 0.126758 0.373623 0.500000
O O10 0.131138 0.500000 0.298537
O O11 0.103558 0.346027 0.193358
O O12 0.000000 0.421379 0.362566
O O13 0.845086 0.207068 0.287445
O O14 0.000000 0.217553 0.221211
O O15 0.894310 0.218480 0.000000
O O16 0.361778 0.394177 0.500000
O O17 0.309238 0.500000 0.712529
O O18 0.271510 0.331636 0.714327
O O19 0.736639 0.211440 0.500000
#
# Coordination Sequence:
#
# PCOD8199614 Si02
#       7
#     4   8   4   8   8   8   8
#     4  12  23  36  59  88 122 164 209 257 304 351
#     4  11  24  42  65  94 128 163 197 242 302 361
#     4  12  23  38  63  94 128 166 205 247 296 349
#     4   8  14  26  45  69  98 134 179 231 285 343
#     4  10  21  36  55  80 112 151 194 245 307 368
#     4  10  22  40  60  84 119 164 210 255 304 357
#     4  11  23  39  62  89 120 160 203 252 304 360
#
# _framework density 20.590440000000001
#
# number of rings (size 3 to 8) (size 9 to 14) (size 15 to 20)
#    0.000    1.667    1.667    4.000    0.000    6.333 
#    0.000    3.333    0.000    0.500    0.000    3.500 
#    0.000    0.000    0.000    0.000    0.000    0.000 
#
# Total GULP energy -594648.752012 kJ/mol
# GULP energy per Si atom -12388.515667 kJ/mol
# Density = 2.054357 g / cm^3
# Si number density = 20.590440 Si / 1000 Ang^3
#
#
#
# Elastic Constant Matrix: (Units=GPa)
#
#
# Indices 1 2 3 4 5 6 
#
# 1 108.2682 22.6086 37.2887 0.0000 0.0000 0.0000
# 2 22.6086 100.4695 27.2567 0.0000 0.0000 0.0000
# 3 37.2887 27.2567 79.0309 0.0000 0.0000 0.0000
# 4 0.0000 0.0000 0.0000 26.4552 0.0000 0.0000
# 5 0.0000 0.0000 0.0000 0.0000 29.0138 0.0000
# 6 0.0000 0.0000 0.0000 0.0000 0.0000 21.4638
#
#
#
# Elastic Compliance Matrix: (Units=1/GPa)
#
#
# Indices 1 2 3 4 5 6 
#
# 1 0.011157 -0.001194 -0.004852 0.000000 0.000000 0.000000
# 2 -0.001194 0.011109 -0.003268 0.000000 0.000000 0.000000
# 3 -0.004852 -0.003268 0.016070 0.000000 0.000000 0.000000
# 4 0.000000 0.000000 0.000000 0.037800 0.000000 0.000000
# 5 0.000000 0.000000 0.000000 0.000000 0.034466 0.000000
# 6 0.000000 0.000000 0.000000 0.000000 0.000000 0.046590
#
#
# Mechanical properties :
#
#
# Convention : Reuss Voigt Hill
#
# Bulk Modulus (GPa) = 50.74410 51.34184 51.04297
# Shear Modulus (GPa) = 27.41403 28.76087 28.08745
#
# Velocity S-wave (km/s) = 3.65279 3.74144 3.69738
# Velocity P-wave (km/s) = 6.51832 6.60708 6.56285
#
# Compressibility (1/GPa) = 0.01970673
#
# Stress axis : x y z
#
# Youngs Moduli (GPa) = 89.63099 90.02104 62.22907
#
# Poissons Ratio (x) = 0.10751 0.30195
# Poissons Ratio (y) = 0.10704 0.20335
# Poissons Ratio (z) = 0.43491 0.29416
#
# Static dielectric constant tensor:
#      x y z
#    x 3.976400 0.000000 0.000000 
#    y 0.000000 3.760130 0.000000 
#    z 0.000000 0.000000 3.680240 
# 
# 
# High freq. dielectric constant tensor:
#      x y z
#    x 1.806350 0.000000 0.000000 
#    y 0.000000 1.784470 0.000000 
#    z 0.000000 0.000000 1.802690 
# 
# From -- ./inp_files/9158.got.cif
#   From: 2010.03.12/outbox.cif.g09.slc.cpg/sg47_5_cif.got.tgz:9158.got - 2010.04.14 03:12:58.
