data_PCOD8199737
_publ_section_title
;
Structure prediction by ZEFSAII (Michael W. Deem and Ramdas Pophale) SiO2 
 PCOD8199737
Probable space group: P M M M
;
_chemical_formula_sum "Si O2"
_cell_formula_units_Z 48
_cell_length_a 9.288355
_cell_length_b 8.142561
_cell_length_c 32.442906
_cell_angle_alpha 90.000000
_cell_angle_beta 90.000000
_cell_angle_gamma 90.000000
_cell_volume 2453.689332
_symmetry_space_group_name_H-M "P M M M"
_symmetry_group_IT_number 47
_symmetry_cell_setting 'orthorhombic'
loop_
_space_group_symop_operation_xyz
x,y,z
-x,-y,z
x,-y,-z
-x,y,-z
-x,-y,-z
x,y,-z
-x,y,z
x,-y,z
loop_
_atom_site_type_symbol
_atom_site_label
_atom_site_fract_x
_atom_site_fract_y
_atom_site_fract_z
Si Si1 0.160800 0.192671 0.086088
Si Si2 0.671624 0.500000 0.546872
Si Si3 0.663451 0.809902 0.310722
Si Si4 0.329025 0.817373 0.595668
Si Si5 0.837165 0.311297 0.763447
Si Si6 0.340965 0.809099 0.161427
Si Si7 0.169168 0.311554 0.000000
O O1 0.256453 0.271473 0.122691
O O2 0.233325 0.231746 0.041697
O O3 0.000000 0.270354 0.088831
O O4 0.150072 0.000000 0.092190
O O5 0.500000 0.500000 0.549705
O O6 0.725792 0.500000 0.500000
O O7 0.732606 0.332606 0.568005
O O8 0.500000 0.745101 0.305654
O O9 0.717823 0.783477 0.357377
O O10 0.768396 0.707535 0.281608
O O11 0.670932 0.000000 0.298314
O O12 0.500000 0.820849 0.592896
O O13 0.272280 0.000000 0.581592
O O14 0.835662 0.500000 0.776380
O O15 0.745386 0.211824 0.796458
O O16 0.000000 0.242515 0.762727
O O17 0.500000 0.728174 0.165150
O O18 0.358814 0.000000 0.152761
O O19 0.210928 0.500000 0.000000
O O20 0.000000 0.276917 0.000000
#
# Coordination Sequence:
#
# PCOD8199737 Si02
#       7
#     8   4   8   8   8   8   4
#     4   9  17  31  52  75  99 130 167 206 250 299
#     4   9  16  24  38  64  97 137 179 213 257 314
#     4   9  18  33  53  75  98 130 173 215 257 308
#     4   8  15  27  42  64  95 130 171 217 261 310
#     4  11  24  37  50  74 105 134 167 208 255 308
#     4  10  21  37  56  77 101 132 171 211 253 304
#     4   9  17  29  48  75 102 128 162 205 250 295
#
# _framework density 19.562380000000001
#
# number of rings (size 3 to 8) (size 9 to 14) (size 15 to 20)
#    0.000    2.667    0.000    2.750    1.167    6.667 
#    0.000    3.750    0.000    2.500    0.000    0.000 
#    0.000    1.333    0.000    3.667    0.000    3.667 
#
# Total GULP energy -595001.697470 kJ/mol
# GULP energy per Si atom -12395.868697 kJ/mol
# Density = 1.951786 g / cm^3
# Si number density = 19.562380 Si / 1000 Ang^3
#
#
#
# Elastic Constant Matrix: (Units=GPa)
#
#
# Indices 1 2 3 4 5 6 
#
# 1 86.8830 21.2663 52.4246 0.0000 0.0000 0.0000
# 2 21.2663 65.0475 46.5514 0.0000 0.0000 0.0000
# 3 52.4246 46.5514 147.2476 0.0000 0.0000 0.0000
# 4 0.0000 0.0000 0.0000 13.7342 0.0000 0.0000
# 5 0.0000 0.0000 0.0000 0.0000 12.5345 0.0000
# 6 0.0000 0.0000 0.0000 0.0000 0.0000 14.3851
#
#
#
# Elastic Compliance Matrix: (Units=1/GPa)
#
#
# Indices 1 2 3 4 5 6 
#
# 1 0.014753 -0.001376 -0.004818 0.000000 0.000000 0.000000
# 2 -0.001376 0.019997 -0.005832 0.000000 0.000000 0.000000
# 3 -0.004818 -0.005832 0.010350 0.000000 0.000000 0.000000
# 4 0.000000 0.000000 0.000000 0.072811 0.000000 0.000000
# 5 0.000000 0.000000 0.000000 0.000000 0.079780 0.000000
# 6 0.000000 0.000000 0.000000 0.000000 0.000000 0.069517
#
#
# Mechanical properties :
#
#
# Convention : Reuss Voigt Hill
#
# Bulk Modulus (GPa) = 47.50661 59.96253 53.73457
# Shear Modulus (GPa) = 16.76301 20.05980 18.41140
#
# Velocity S-wave (km/s) = 2.93046 3.20570 3.07117
# Velocity P-wave (km/s) = 5.98227 6.66487 6.33278
#
# Compressibility (1/GPa) = 0.02104970
#
# Stress axis : x y z
#
# Youngs Moduli (GPa) = 67.78076 50.00777 96.61491
#
# Poissons Ratio (x) = 0.06879 0.46547
# Poissons Ratio (y) = 0.09324 0.56347
# Poissons Ratio (z) = 0.32655 0.29165
#
# Static dielectric constant tensor:
#      x y z
#    x 3.409380 0.000000 0.000000 
#    y 0.000000 3.531220 0.000000 
#    z 0.000000 0.000000 3.664330 
# 
# 
# High freq. dielectric constant tensor:
#      x y z
#    x 1.716670 0.000000 0.000000 
#    y 0.000000 1.754420 0.000000 
#    z 0.000000 0.000000 1.769360 
# 
# From -- ./inp_files/2733.got.cif
#   From: 2010.03.12/outbox.cif.g09.slc.cpg/sg47_2_cif.got.tgz:2733.got - 2010.04.14 03:12:58.
