data_PCOD8199681
_publ_section_title
;
Structure prediction by ZEFSAII (Michael W. Deem and Ramdas Pophale) SiO2 
 PCOD8199681
Probable space group: P M M M
;
_chemical_formula_sum "Si O2"
_cell_formula_units_Z 52
_cell_length_a 18.974694
_cell_length_b 15.688960
_cell_length_c 8.836801
_cell_angle_alpha 90.000000
_cell_angle_beta 90.000000
_cell_angle_gamma 90.000000
_cell_volume 2630.655702
_symmetry_space_group_name_H-M "P M M M"
_symmetry_group_IT_number 47
_symmetry_cell_setting 'orthorhombic'
loop_
_space_group_symop_operation_xyz
x,y,z
-x,-y,z
x,-y,-z
-x,y,-z
-x,-y,-z
x,y,-z
-x,y,z
x,-y,z
loop_
_atom_site_type_symbol
_atom_site_label
_atom_site_fract_x
_atom_site_fract_y
_atom_site_fract_z
Si Si1 0.423520 0.599269 0.334497
Si Si2 0.687160 0.691163 0.829789
Si Si3 0.680926 0.137882 0.324495
Si Si4 0.845782 0.664451 0.175902
Si Si5 0.083009 0.000000 0.829642
Si Si6 0.082860 0.500000 0.676458
Si Si7 0.418362 0.000000 0.820963
Si Si8 0.158710 0.154111 0.679117
O O1 0.395673 0.630163 0.500000
O O2 0.500000 0.641685 0.301826
O O3 0.433710 0.500000 0.337719
O O4 0.370140 0.618987 0.198993
O O5 0.665903 0.764164 0.711511
O O6 0.762879 0.649365 0.799026
O O7 0.683146 0.727117 0.000000
O O8 0.670490 0.117431 0.500000
O O9 0.762410 0.123076 0.274790
O O10 0.624736 0.082059 0.234094
O O11 0.885980 0.586020 0.252052
O O12 0.864570 0.755601 0.249534
O O13 0.866695 0.667353 0.000000
O O14 0.106009 0.083775 0.740425
O O15 0.000000 0.000000 0.835760
O O16 0.114453 0.000000 0.000000
O O17 0.101217 0.500000 0.500000
O O18 0.000000 0.500000 0.706994
O O19 0.500000 0.000000 0.760980
O O20 0.419293 0.000000 0.000000
O O21 0.152268 0.163029 0.500000
#
# Coordination Sequence:
#
# PCOD8199681 Si02
#       8
#     8   8   8   8   4   4   4   8
#     4   9  19  35  53  76 108 147 188 228 277 334
#     4  10  21  36  57  85 114 145 187 235 284 337
#     4  10  21  38  60  84 110 145 190 234 283 340
#     4  10  22  40  62  89 120 155 196 242 295 354
#     4  11  24  39  58  88 122 157 194 231 284 350
#     4  11  25  43  63  89 120 157 200 243 293 354
#     4  11  24  39  56  82 116 153 194 241 294 348
#     4  10  21  39  63  90 119 153 197 246 294 348
#
# _framework density 19.766936000000001
#
# number of rings (size 3 to 8) (size 9 to 14) (size 15 to 20)
#    0.000    1.923    0.000    3.462    1.077    9.231 
#    0.000    0.769    0.000    0.000    0.000    0.000 
#    0.000    0.000    0.000    0.000    0.000    0.000 
#
# Total GULP energy -644637.503416 kJ/mol
# GULP energy per Si atom -12396.875066 kJ/mol
# Density = 1.972195 g / cm^3
# Si number density = 19.766936 Si / 1000 Ang^3
#
#
#
# Elastic Constant Matrix: (Units=GPa)
#
#
# Indices 1 2 3 4 5 6 
#
# 1 104.2162 68.8786 59.0369 0.0000 0.0000 0.0000
# 2 68.8786 119.2558 62.6123 0.0000 0.0000 0.0000
# 3 59.0369 62.6123 103.0427 0.0000 0.0000 0.0000
# 4 0.0000 0.0000 0.0000 37.0297 0.0000 0.0000
# 5 0.0000 0.0000 0.0000 0.0000 30.4527 0.0000
# 6 0.0000 0.0000 0.0000 0.0000 0.0000 -23.7181
#
#
#
# Elastic Compliance Matrix: (Units=1/GPa)
#
#
# Indices 1 2 3 4 5 6 
#
# 1 0.017551 -0.007133 -0.005721 0.000000 0.000000 0.000000
# 2 -0.007133 0.015213 -0.005157 0.000000 0.000000 0.000000
# 3 -0.005721 -0.005157 0.016116 0.000000 0.000000 0.000000
# 4 0.000000 0.000000 0.000000 0.027005 0.000000 0.000000
# 5 0.000000 0.000000 0.000000 0.000000 0.032838 0.000000
# 6 0.000000 0.000000 0.000000 0.000000 0.000000 -0.042162
#
#
# Mechanical properties :
#
#
# Convention : Reuss Voigt Hill
#
# Bulk Modulus (GPa) = 77.77743 78.61892 78.19817
# Shear Modulus (GPa) = 46.78621 17.81865 32.30243
#
# Velocity S-wave (km/s) = 4.87035 3.00565 4.04687
# Velocity P-wave (km/s) = 8.42969 7.20448 7.84105
#
# Compressibility (1/GPa) = 0.01285720
#
# Stress axis : x y z
#
# Youngs Moduli (GPa) = 56.97756 65.73442 62.04948
#
# Poissons Ratio (x) = 0.46889 0.35500
# Poissons Ratio (y) = 0.40642 0.31999
# Poissons Ratio (z) = 0.32598 0.33899
#
# Static dielectric constant tensor:
#      x y z
#    x 3.724650 0.000000 0.000000 
#    y 0.000000 3.513280 0.000000 
#    z 0.000000 0.000000 3.719010 
# 
# 
# High freq. dielectric constant tensor:
#      x y z
#    x 1.771860 0.000000 0.000000 
#    y 0.000000 1.771060 0.000000 
#    z 0.000000 0.000000 1.781380 
# 
# From -- ./inp_files/11129.got.cif
#   From: 2010.03.12/outbox.cif.g09.slc.cpg/sg47_6_cif.got.tgz:11129.got - 2010.04.14 03:12:58.
