data_PCOD8199261
_publ_section_title
;
Structure prediction by ZEFSAII (Michael W. Deem and Ramdas Pophale) SiO2 
 PCOD8199261
Probable space group: P M M M
;
_chemical_formula_sum "Si O2"
_cell_formula_units_Z 48
_cell_length_a 9.508877
_cell_length_b 31.069704
_cell_length_c 9.445219
_cell_angle_alpha 90.000000
_cell_angle_beta 90.000000
_cell_angle_gamma 90.000000
_cell_volume 2790.476552
_symmetry_space_group_name_H-M "P M M M"
_symmetry_group_IT_number 47
_symmetry_cell_setting 'orthorhombic'
loop_
_space_group_symop_operation_xyz
x,y,z
-x,-y,z
x,-y,-z
-x,y,-z
-x,-y,-z
x,y,-z
-x,y,z
x,-y,z
loop_
_atom_site_type_symbol
_atom_site_label
_atom_site_fract_x
_atom_site_fract_y
_atom_site_fract_z
Si Si1 0.837400 0.718101 0.664827
Si Si2 0.335455 0.883746 0.164016
Si Si3 0.336791 0.199642 0.336287
Si Si4 0.162024 0.949927 0.660896
Si Si5 0.157661 0.454424 0.168304
Si Si6 0.168163 0.637551 0.840711
O O1 0.814738 0.709955 0.500000
O O2 0.750992 0.759405 0.716901
O O3 0.776025 0.676090 0.743081
O O4 0.000000 0.726087 0.702890
O O5 0.500000 0.891632 0.186379
O O6 0.286280 0.840708 0.243995
O O7 0.256115 0.924307 0.228705
O O8 0.295646 0.879096 0.000000
O O9 0.304714 0.189137 0.500000
O O10 0.500000 0.209925 0.311540
O O11 0.206769 0.938744 0.500000
O O12 0.000000 0.937514 0.684671
O O13 0.186340 0.000000 0.691186
O O14 0.233946 0.500000 0.214590
O O15 0.227983 0.408963 0.217702
O O16 0.000000 0.456470 0.229144
O O17 0.151754 0.451981 0.000000
O O18 0.000000 0.635238 0.836849
O O19 0.221323 0.646461 0.000000
#
# Coordination Sequence:
#
# PCOD8199261 Si02
#       6
#     8   8   8   8   8   8
#     4   9  17  28  42  61  84 109 138 175 219 262
#     4  10  21  35  51  74 102 128 155 191 236 281
#     4   9  18  33  50  65  85 117 154 187 220 263
#     4   9  19  36  56  77 101 130 164 198 229 265
#     4   7   9  14  26  45  69  98 132 166 198 238
#     4   8  13  21  34  53  77 105 136 169 206 251
#
# _framework density 17.201362
#
# number of rings (size 3 to 8) (size 9 to 14) (size 15 to 20)
#    0.000    3.333    0.000    2.500    0.000    3.333 
#    0.000    4.167    0.000    0.500    0.000    3.500 
#    0.000    0.667    0.000    8.333    0.000    7.667 
#
# Total GULP energy -594738.300245 kJ/mol
# GULP energy per Si atom -12390.381255 kJ/mol
# Density = 1.716221 g / cm^3
# Si number density = 17.201362 Si / 1000 Ang^3
#
#
#
# Elastic Constant Matrix: (Units=GPa)
#
#
# Indices 1 2 3 4 5 6 
#
# 1 32.2289 47.0828 29.3601 0.0000 0.0000 0.0000
# 2 47.0828 155.4643 70.8752 0.0000 0.0000 0.0000
# 3 29.3601 70.8752 73.1262 0.0000 0.0000 0.0000
# 4 0.0000 0.0000 0.0000 27.7050 0.0000 0.0000
# 5 0.0000 0.0000 0.0000 0.0000 17.4453 0.0000
# 6 0.0000 0.0000 0.0000 0.0000 0.0000 0.4597
#
#
#
# Elastic Compliance Matrix: (Units=1/GPa)
#
#
# Indices 1 2 3 4 5 6 
#
# 1 0.060818 -0.013055 -0.011765 0.000000 0.000000 0.000000
# 2 -0.013055 0.014327 -0.008644 0.000000 0.000000 0.000000
# 3 -0.011765 -0.008644 0.026777 0.000000 0.000000 0.000000
# 4 0.000000 0.000000 0.000000 0.036095 0.000000 0.000000
# 5 0.000000 0.000000 0.000000 0.000000 0.057322 0.000000
# 6 0.000000 0.000000 0.000000 0.000000 0.000000 2.175300
#
#
# Mechanical properties :
#
#
# Convention : Reuss Voigt Hill
#
# Bulk Modulus (GPa) = 28.57728 61.71730 45.14729
# Shear Modulus (GPa) = 2.04146 16.68876 9.36511
#
# Velocity S-wave (km/s) = 1.09058 3.11818 2.33586
# Velocity P-wave (km/s) = 4.27028 6.99438 5.79468
#
# Compressibility (1/GPa) = 0.03499283
#
# Stress axis : x y z
#
# Youngs Moduli (GPa) = 16.44241 69.79765 37.34570
#
# Poissons Ratio (x) = 0.91124 0.43937
# Poissons Ratio (y) = 0.21466 0.32283
# Poissons Ratio (z) = 0.19344 0.60335
#
# Static dielectric constant tensor:
#      x y z
#    x 2.815810 0.000000 0.000000 
#    y 0.000000 3.618870 0.000000 
#    z 0.000000 0.000000 3.059150 
# 
# 
# High freq. dielectric constant tensor:
#      x y z
#    x 1.615860 0.000000 0.000000 
#    y 0.000000 1.686690 0.000000 
#    z 0.000000 0.000000 1.642570 
# 
# From -- ./inp_files/2489.got.cif
#   From: 2010.03.12/outbox.cif.g09.slc.cpg/sg47_2_cif.got.tgz:2489.got - 2010.04.14 03:12:58.
