data_PCOD8199442
_publ_section_title
;
Structure prediction by ZEFSAII (Michael W. Deem and Ramdas Pophale) SiO2 
 PCOD8199442
Probable space group: P M M M
;
_chemical_formula_sum "Si O2"
_cell_formula_units_Z 56
_cell_length_a 14.549666
_cell_length_b 23.615126
_cell_length_c 8.971801
_cell_angle_alpha 90.000000
_cell_angle_beta 90.000000
_cell_angle_gamma 90.000000
_cell_volume 3082.640806
_symmetry_space_group_name_H-M "P M M M"
_symmetry_group_IT_number 47
_symmetry_cell_setting 'orthorhombic'
loop_
_space_group_symop_operation_xyz
x,y,z
-x,-y,z
x,-y,-z
-x,y,-z
-x,-y,-z
x,y,-z
-x,y,z
x,-y,z
loop_
_atom_site_type_symbol
_atom_site_label
_atom_site_fract_x
_atom_site_fract_y
_atom_site_fract_z
Si Si1 0.719315 0.334122 0.323985
Si Si2 0.393519 0.772586 0.329058
Si Si3 0.771420 0.064107 0.671614
Si Si4 0.396434 0.562843 0.322572
Si Si5 0.395100 0.888242 0.824857
Si Si6 0.896927 0.726012 0.324669
Si Si7 0.893010 0.157412 0.827375
O O1 0.707437 0.337349 0.500000
O O2 0.661934 0.280675 0.264587
O O3 0.676988 0.392024 0.255160
O O4 0.826676 0.324759 0.280193
O O5 0.366730 0.786349 0.500000
O O6 0.500000 0.757304 0.315130
O O7 0.366358 0.825661 0.227601
O O8 0.766635 0.082194 0.500000
O O9 0.669608 0.067098 0.741876
O O10 0.840403 0.105143 0.756158
O O11 0.807391 0.000000 0.689608
O O12 0.392864 0.563189 0.500000
O O13 0.500000 0.578757 0.270671
O O14 0.370272 0.500000 0.263754
O O15 0.500000 0.901685 0.779726
O O16 0.379955 0.892983 0.000000
O O17 0.893561 0.737406 0.500000
O O18 0.863331 0.783571 0.247230
O O19 0.000000 0.708703 0.273105
O O20 0.000000 0.146365 0.800344
O O21 0.867369 0.160889 0.000000
#
# Coordination Sequence:
#
# PCOD8199442 Si02
#       7
#     8   8   8   8   8   8   8
#     4   9  15  23  38  60  87 120 156 193 234 279
#     4   9  16  26  43  67  92 117 148 189 238 292
#     4  11  24  39  55  75  98 127 164 202 238 283
#     4   8  13  21  34  55  86 123 160 197 237 280
#     4  10  21  36  53  73  99 130 162 200 247 295
#     4   9  17  29  46  68  94 124 156 189 228 280
#     4  10  21  37  57  79 102 127 155 193 244 297
#
# _framework density 18.166242
#
# number of rings (size 3 to 8) (size 9 to 14) (size 15 to 20)
#    0.000    2.571    0.000    3.000    0.000    6.286 
#    0.000    2.857    0.000    0.429    0.000    3.000 
#    0.000    2.286    0.000   13.714    0.000   13.143 
#
# Total GULP energy -694260.272870 kJ/mol
# GULP energy per Si atom -12397.504873 kJ/mol
# Density = 1.812489 g / cm^3
# Si number density = 18.166242 Si / 1000 Ang^3
#
#
#
# Elastic Constant Matrix: (Units=GPa)
#
#
# Indices 1 2 3 4 5 6 
#
# 1 95.7022 68.7257 28.4979 0.0000 0.0000 0.0000
# 2 68.7257 107.9760 27.6579 0.0000 0.0000 0.0000
# 3 28.4979 27.6579 47.0984 0.0000 0.0000 0.0000
# 4 0.0000 0.0000 0.0000 0.1786 0.0000 0.0000
# 5 0.0000 0.0000 0.0000 0.0000 20.4803 0.0000
# 6 0.0000 0.0000 0.0000 0.0000 0.0000 31.0021
#
#
#
# Elastic Compliance Matrix: (Units=1/GPa)
#
#
# Indices 1 2 3 4 5 6 
#
# 1 0.020411 -0.011568 -0.005557 0.000000 0.000000 0.000000
# 2 -0.011568 0.017457 -0.003252 0.000000 0.000000 0.000000
# 3 -0.005557 -0.003252 0.026504 0.000000 0.000000 0.000000
# 4 0.000000 0.000000 0.000000 5.597738 0.000000 0.000000
# 5 0.000000 0.000000 0.000000 0.000000 0.048827 0.000000
# 6 0.000000 0.000000 0.000000 0.000000 0.000000 0.032256
#
#
# Mechanical properties :
#
#
# Convention : Reuss Voigt Hill
#
# Bulk Modulus (GPa) = 42.33982 55.61552 48.97767
# Shear Modulus (GPa) = 0.86329 18.72522 9.79425
#
# Velocity S-wave (km/s) = 0.69011 3.21404 2.32447
# Velocity P-wave (km/s) = 4.89821 6.66743 5.85009
#
# Compressibility (1/GPa) = 0.02361843
#
# Stress axis : x y z
#
# Youngs Moduli (GPa) = 48.99299 57.28272 37.72977
#
# Poissons Ratio (x) = 0.66265 0.20966
# Poissons Ratio (y) = 0.56675 0.12270
# Poissons Ratio (z) = 0.27225 0.18629
#
# Static dielectric constant tensor:
#      x y z
#    x 3.589170 0.000000 0.000000 
#    y 0.000000 3.455160 0.000000 
#    z 0.000000 0.000000 3.102430 
# 
# 
# High freq. dielectric constant tensor:
#      x y z
#    x 1.710700 0.000000 0.000000 
#    y 0.000000 1.691210 0.000000 
#    z 0.000000 0.000000 1.674080 
# 
# From -- ./inp_files/7252.got.cif
#   From: 2010.03.12/outbox.cif.g09.slc.cpg/sg47_4_cif.got.tgz:7252.got - 2010.04.14 03:12:58.
