data_PCOD8199448
_publ_section_title
;
Structure prediction by ZEFSAII (Michael W. Deem and Ramdas Pophale) SiO2 
 PCOD8199448
Probable space group: P M M M
;
_chemical_formula_sum "Si O2"
_cell_formula_units_Z 44
_cell_length_a 9.368819
_cell_length_b 9.169368
_cell_length_c 28.357211
_cell_angle_alpha 90.000000
_cell_angle_beta 90.000000
_cell_angle_gamma 90.000000
_cell_volume 2436.058797
_symmetry_space_group_name_H-M "P M M M"
_symmetry_group_IT_number 47
_symmetry_cell_setting 'orthorhombic'
loop_
_space_group_symop_operation_xyz
x,y,z
-x,-y,z
x,-y,-z
-x,y,-z
-x,-y,-z
x,y,-z
-x,y,z
x,-y,z
loop_
_atom_site_type_symbol
_atom_site_label
_atom_site_fract_x
_atom_site_fract_y
_atom_site_fract_z
Si Si1 0.664255 0.330214 0.408143
Si Si2 0.839156 0.673328 0.051671
Si Si3 0.666286 0.667760 0.139923
Si Si4 0.664328 0.171864 0.234288
Si Si5 0.669667 0.835769 0.500000
Si Si6 0.832811 0.669291 0.684811
O O1 0.500000 0.288602 0.397219
O O2 0.679127 0.500000 0.419579
O O3 0.725811 0.244543 0.453225
O O4 0.759684 0.283342 0.363948
O O5 0.832086 0.500000 0.052276
O O6 0.741849 0.735461 0.093697
O O7 0.000000 0.727448 0.060395
O O8 0.786082 0.728764 0.000000
O O9 0.500000 0.683552 0.130605
O O10 0.710404 0.500000 0.148784
O O11 0.715353 0.759991 0.184975
O O12 0.500000 0.214866 0.244868
O O13 0.765141 0.234487 0.274422
O O14 0.684378 0.000000 0.231545
O O15 0.500000 0.830371 0.500000
O O16 0.728436 0.000000 0.500000
O O17 0.802257 0.500000 0.695662
O O18 0.000000 0.702395 0.681304
#
# Coordination Sequence:
#
# PCOD8199448 Si02
#       6
#     8   8   8   8   4   8
#     4   9  17  31  52  75  99 129 164 202 245 292
#     4   8  14  25  42  66  95 124 155 194 240 288
#     4   9  17  29  47  71  96 122 156 200 246 291
#     4  10  21  36  53  73  99 132 168 206 250 300
#     4   9  17  29  48  75 102 128 164 207 244 283
#     4  10  21  36  54  77 103 131 166 208 253 300
#
# _framework density 18.061962000000001
#
# number of rings (size 3 to 8) (size 9 to 14) (size 15 to 20)
#    0.000    2.818    0.000    1.909    0.000    5.091 
#    0.000    5.909    0.000    3.273    0.000    3.818 
#    0.000    0.000    0.000    0.000    0.000    0.000 
#
# Total GULP energy -545565.911477 kJ/mol
# GULP energy per Si atom -12399.225261 kJ/mol
# Density = 1.802085 g / cm^3
# Si number density = 18.061962 Si / 1000 Ang^3
#
#
#
# Elastic Constant Matrix: (Units=GPa)
#
#
# Indices 1 2 3 4 5 6 
#
# 1 75.6093 39.5178 80.3707 0.0000 0.0000 0.0000
# 2 39.5178 62.9996 69.3730 0.0000 0.0000 0.0000
# 3 80.3707 69.3730 190.7530 0.0000 0.0000 0.0000
# 4 0.0000 0.0000 0.0000 0.3903 0.0000 0.0000
# 5 0.0000 0.0000 0.0000 0.0000 3.3280 0.0000
# 6 0.0000 0.0000 0.0000 0.0000 0.0000 16.5995
#
#
#
# Elastic Compliance Matrix: (Units=1/GPa)
#
#
# Indices 1 2 3 4 5 6 
#
# 1 0.025678 -0.006995 -0.008275 0.000000 0.000000 0.000000
# 2 -0.006995 0.028381 -0.007375 0.000000 0.000000 0.000000
# 3 -0.008275 -0.007375 0.011411 0.000000 0.000000 0.000000
# 4 0.000000 0.000000 0.000000 2.562311 0.000000 0.000000
# 5 0.000000 0.000000 0.000000 0.000000 0.300481 0.000000
# 6 0.000000 0.000000 0.000000 0.000000 0.000000 0.060243
#
#
# Mechanical properties :
#
#
# Convention : Reuss Voigt Hill
#
# Bulk Modulus (GPa) = 49.55074 78.65388 64.10231
# Shear Modulus (GPa) = 1.64445 13.40358 7.52402
#
# Velocity S-wave (km/s) = 0.95521 2.72709 2.04321
# Velocity P-wave (km/s) = 5.35816 7.31828 6.41354
#
# Compressibility (1/GPa) = 0.02018133
#
# Stress axis : x y z
#
# Youngs Moduli (GPa) = 38.94371 35.23439 87.63484
#
# Poissons Ratio (x) = 0.24646 0.72520
# Poissons Ratio (y) = 0.27240 0.64627
# Poissons Ratio (z) = 0.32227 0.25984
#
# Static dielectric constant tensor:
#      x y z
#    x 3.249800 0.000000 0.000000 
#    y 0.000000 3.129450 0.000000 
#    z 0.000000 0.000000 3.649680 
# 
# 
# High freq. dielectric constant tensor:
#      x y z
#    x 1.683420 0.000000 0.000000 
#    y 0.000000 1.674170 0.000000 
#    z 0.000000 0.000000 1.715610 
# 
# From -- ./inp_files/13577.got.cif
#   From: 2010.03.12/outbox.cif.g09.slc.cpg/sg47_7_cif.got.tgz:13577.got - 2010.04.14 03:12:58.
