data_PCOD8199795
_publ_section_title
;
Structure prediction by ZEFSAII (Michael W. Deem and Ramdas Pophale) SiO2 
 PCOD8199795
Probable space group: P M M M
;
_chemical_formula_sum "Si O2"
_cell_formula_units_Z 56
_cell_length_a 8.698351
_cell_length_b 22.195572
_cell_length_c 14.929350
_cell_angle_alpha 90.000000
_cell_angle_beta 90.000000
_cell_angle_gamma 90.000000
_cell_volume 2882.333105
_symmetry_space_group_name_H-M "P M M M"
_symmetry_group_IT_number 47
_symmetry_cell_setting 'orthorhombic'
loop_
_space_group_symop_operation_xyz
x,y,z
-x,-y,z
x,-y,-z
-x,y,-z
-x,-y,-z
x,y,-z
-x,y,z
x,-y,z
loop_
_atom_site_type_symbol
_atom_site_label
_atom_site_fract_x
_atom_site_fract_y
_atom_site_fract_z
Si Si1 0.677952 0.929799 0.898907
Si Si2 0.681654 0.431725 0.500000
Si Si3 0.322297 0.782879 0.399405
Si Si4 0.821406 0.500000 0.105621
Si Si5 0.819180 0.835310 0.770460
Si Si6 0.819817 0.655421 0.359653
Si Si7 0.175936 0.269893 0.098831
Si Si8 0.679602 0.621926 0.175182
O O1 0.500000 0.912880 0.888226
O O2 0.773419 0.895496 0.822974
O O3 0.705285 0.000000 0.881750
O O4 0.732978 0.913013 0.000000
O O5 0.744260 0.500000 0.500000
O O6 0.500000 0.430690 0.500000
O O7 0.740079 0.398730 0.588141
O O8 0.299789 0.809328 0.500000
O O9 0.500000 0.770145 0.379083
O O10 0.259409 0.831128 0.327244
O O11 0.233329 0.720077 0.394225
O O12 0.737976 0.557043 0.147017
O O13 0.000000 0.500000 0.132377
O O14 0.798269 0.500000 0.000000
O O15 0.764220 0.778412 0.829273
O O16 0.000000 0.834930 0.755999
O O17 0.776790 0.647482 0.257271
O O18 0.000000 0.650765 0.374486
O O19 0.283482 0.329179 0.098603
O O20 0.000000 0.288567 0.119136
O O21 0.189363 0.240819 0.000000
O O22 0.500000 0.618621 0.197237
#
# Coordination Sequence:
#
# PCOD8199795 Si02
#       8
#     8   4   8   4   8   8   8   8
#     4   9  19  37  61  90 128 174 218 257 301 357
#     4  11  25  43  63  87 117 149 190 243 301 362
#     4  11  23  40  63  89 120 156 200 251 304 363
#     4  11  25  45  65  82 107 146 191 241 297 359
#     4  11  22  36  59  91 126 163 205 251 304 363
#     4  12  24  40  62  86 116 151 191 239 298 362
#     4  10  21  37  56  82 119 157 193 238 296 358
#     4  12  25  40  60  84 113 148 193 243 293 353
#
# _framework density 19.428705000000001
#
# number of rings (size 3 to 8) (size 9 to 14) (size 15 to 20)
#    0.000    1.143    2.143    5.143    1.000    5.714 
#    0.000    0.714    0.000    0.429    0.000    3.000 
#    0.000    0.000    0.000    0.000    0.000    0.000 
#
# Total GULP energy -694559.328876 kJ/mol
# GULP energy per Si atom -12402.845158 kJ/mol
# Density = 1.938448 g / cm^3
# Si number density = 19.428705 Si / 1000 Ang^3
#
#
#
# Elastic Constant Matrix: (Units=GPa)
#
#
# Indices 1 2 3 4 5 6 
#
# 1 77.3251 31.2769 32.2387 0.0000 0.0000 0.0000
# 2 31.2769 82.1964 40.8327 0.0000 0.0000 0.0000
# 3 32.2387 40.8327 115.4476 0.0000 0.0000 0.0000
# 4 0.0000 0.0000 0.0000 3.5028 0.0000 0.0000
# 5 0.0000 0.0000 0.0000 0.0000 30.1349 0.0000
# 6 0.0000 0.0000 0.0000 0.0000 0.0000 32.3074
#
#
#
# Elastic Compliance Matrix: (Units=1/GPa)
#
#
# Indices 1 2 3 4 5 6 
#
# 1 0.016002 -0.004694 -0.002808 0.000000 0.000000 0.000000
# 2 -0.004694 0.016136 -0.004396 0.000000 0.000000 0.000000
# 3 -0.002808 -0.004396 0.011001 0.000000 0.000000 0.000000
# 4 0.000000 0.000000 0.000000 0.285489 0.000000 0.000000
# 5 0.000000 0.000000 0.000000 0.000000 0.033184 0.000000
# 6 0.000000 0.000000 0.000000 0.000000 0.000000 0.030953
#
#
# Mechanical properties :
#
#
# Convention : Reuss Voigt Hill
#
# Bulk Modulus (GPa) = 51.70133 53.74065 52.72099
# Shear Modulus (GPa) = 11.82008 24.56374 18.19191
#
# Velocity S-wave (km/s) = 2.46922 3.55956 3.06329
# Velocity P-wave (km/s) = 5.89898 6.67940 6.30128
#
# Compressibility (1/GPa) = 0.01934186
#
# Stress axis : x y z
#
# Youngs Moduli (GPa) = 62.49272 61.97298 90.89964
#
# Poissons Ratio (x) = 0.29089 0.25528
# Poissons Ratio (y) = 0.29333 0.39963
# Poissons Ratio (z) = 0.17550 0.27246
#
# Static dielectric constant tensor:
#      x y z
#    x 3.585240 0.000000 0.000000 
#    y 0.000000 3.271170 0.000000 
#    z 0.000000 0.000000 3.687390 
# 
# 
# High freq. dielectric constant tensor:
#      x y z
#    x 1.765070 0.000000 0.000000 
#    y 0.000000 1.740930 0.000000 
#    z 0.000000 0.000000 1.767110 
# 
# From -- ./inp_files/21629.got.cif
#   From: 2010.03.12/outbox.cif.g09.slc.cpg/sg47_11_cif.got.tgz:21629.got - 2010.04.14 03:12:58.
