data_PCOD8199995
_publ_section_title
;
Structure prediction by ZEFSAII (Michael W. Deem and Ramdas Pophale) SiO2 
 PCOD8199995
Probable space group: P M M M
;
_chemical_formula_sum "Si O2"
_cell_formula_units_Z 40
_cell_length_a 9.087293
_cell_length_b 8.916158
_cell_length_c 25.818117
_cell_angle_alpha 90.000000
_cell_angle_beta 90.000000
_cell_angle_gamma 90.000000
_cell_volume 2091.880404
_symmetry_space_group_name_H-M "P M M M"
_symmetry_group_IT_number 47
_symmetry_cell_setting 'orthorhombic'
loop_
_space_group_symop_operation_xyz
x,y,z
-x,-y,z
x,-y,-z
-x,y,-z
-x,-y,-z
x,y,-z
-x,y,z
x,-y,z
loop_
_atom_site_type_symbol
_atom_site_label
_atom_site_fract_x
_atom_site_fract_y
_atom_site_fract_z
Si Si1 0.660067 0.323085 0.000000
Si Si2 0.826264 0.671170 0.500000
Si Si3 0.171481 0.172988 0.205091
Si Si4 0.330160 0.824241 0.594774
Si Si5 0.675702 0.328499 0.888061
Si Si6 0.330939 0.324982 0.701396
O O1 0.738634 0.280820 0.945429
O O2 0.636915 0.500000 0.000000
O O3 0.500000 0.245105 0.000000
O O4 0.772660 0.500000 0.500000
O O5 0.767176 0.750610 0.449117
O O6 0.000000 0.684404 0.500000
O O7 0.251893 0.216699 0.152309
O O8 0.230430 0.273321 0.251643
O O9 0.000000 0.204683 0.198284
O O10 0.204741 0.000000 0.217398
O O11 0.500000 0.784773 0.584020
O O12 0.279311 0.760503 0.649956
O O13 0.301650 0.000000 0.594482
O O14 0.500000 0.311784 0.886642
O O15 0.719835 0.500000 0.874773
O O16 0.500000 0.286797 0.714857
O O17 0.308147 0.500000 0.691779
#
# Coordination Sequence:
#
# PCOD8199995 Si02
#       6
#     4   4   8   8   8   8
#     4   7  12  26  50  79 106 130 164 215 268 315
#     4  11  24  39  56  82 116 153 190 225 264 312
#     4  11  24  38  51  73 108 147 182 217 263 318
#     4  10  21  38  61  87 113 143 180 222 270 322
#     4   9  17  32  56  82 105 133 173 220 268 318
#     4  10  21  38  61  86 108 135 176 224 272 321
#
# _framework density 19.121549999999999
#
# number of rings (size 3 to 8) (size 9 to 14) (size 15 to 20)
#    0.000    2.200    0.000    4.200    0.000    9.600 
#    0.000    1.000    0.000    4.800    0.000    0.000 
#    0.000    0.000    0.000    0.000    0.000    0.000 
#
# Total GULP energy -495951.969153 kJ/mol
# GULP energy per Si atom -12398.799229 kJ/mol
# Density = 1.907803 g / cm^3
# Si number density = 19.121550 Si / 1000 Ang^3
#
#
#
# Elastic Constant Matrix: (Units=GPa)
#
#
# Indices 1 2 3 4 5 6 
#
# 1 54.2808 34.0708 46.0676 0.0000 0.0000 0.0000
# 2 34.0708 73.9929 46.7531 0.0000 0.0000 0.0000
# 3 46.0676 46.7531 147.0953 0.0000 0.0000 0.0000
# 4 0.0000 0.0000 0.0000 78.3002 0.0000 0.0000
# 5 0.0000 0.0000 0.0000 0.0000 14.5496 0.0000
# 6 0.0000 0.0000 0.0000 0.0000 0.0000 28.8361
#
#
#
# Elastic Compliance Matrix: (Units=1/GPa)
#
#
# Indices 1 2 3 4 5 6 
#
# 1 0.029878 -0.009817 -0.006237 0.000000 0.000000 0.000000
# 2 -0.009817 0.020136 -0.003326 0.000000 0.000000 0.000000
# 3 -0.006237 -0.003326 0.009809 0.000000 0.000000 0.000000
# 4 0.000000 0.000000 0.000000 0.012771 0.000000 0.000000
# 5 0.000000 0.000000 0.000000 0.000000 0.068731 0.000000
# 6 0.000000 0.000000 0.000000 0.000000 0.000000 0.034679
#
#
# Mechanical properties :
#
#
# Convention : Reuss Voigt Hill
#
# Bulk Modulus (GPa) = 47.47447 58.79467 53.13457
# Shear Modulus (GPa) = 22.54449 34.23566 28.39008
#
# Velocity S-wave (km/s) = 3.43740 4.23593 3.85738
# Velocity P-wave (km/s) = 6.37463 7.39856 6.90560
#
# Compressibility (1/GPa) = 0.02106395
#
# Stress axis : x y z
#
# Youngs Moduli (GPa) = 33.46983 49.66127 101.94996
#
# Poissons Ratio (x) = 0.48750 0.63586
# Poissons Ratio (y) = 0.32856 0.33907
# Poissons Ratio (z) = 0.20875 0.16517
#
# Static dielectric constant tensor:
#      x y z
#    x 3.319460 0.000000 0.000000 
#    y 0.000000 3.491490 0.000000 
#    z 0.000000 0.000000 3.775170 
# 
# 
# High freq. dielectric constant tensor:
#      x y z
#    x 1.722220 0.000000 0.000000 
#    y 0.000000 1.741940 0.000000 
#    z 0.000000 0.000000 1.765520 
# 
# From -- ./inp_files/33076.got.cif
#   From: 2010.03.12/outbox.cif.g09.slc.cpg/sg47_17_cif.got.tgz:33076.got - 2010.04.14 03:12:58.
