data_PCOD8199311
_publ_section_title
;
Structure prediction by ZEFSAII (Michael W. Deem and Ramdas Pophale) SiO2 
 PCOD8199311
Probable space group: P M M M
;
_chemical_formula_sum "Si O2"
_cell_formula_units_Z 64
_cell_length_a 25.328708
_cell_length_b 14.383031
_cell_length_c 9.104361
_cell_angle_alpha 90.000000
_cell_angle_beta 90.000000
_cell_angle_gamma 90.000000
_cell_volume 3316.751418
_symmetry_space_group_name_H-M "P M M M"
_symmetry_group_IT_number 47
_symmetry_cell_setting 'orthorhombic'
loop_
_space_group_symop_operation_xyz
x,y,z
-x,-y,z
x,-y,-z
-x,y,-z
-x,-y,-z
x,y,-z
-x,y,z
x,-y,z
loop_
_atom_site_type_symbol
_atom_site_label
_atom_site_fract_x
_atom_site_fract_y
_atom_site_fract_z
Si Si1 0.717624 0.600680 0.826056
Si Si2 0.341519 0.891572 0.671539
Si Si3 0.937898 0.782185 0.169644
Si Si4 0.558267 0.775801 0.670302
Si Si5 0.853480 0.108400 0.670921
Si Si6 0.400991 0.395391 0.170804
Si Si7 0.937314 0.602184 0.335114
Si Si8 0.756232 0.795893 0.825310
O O1 0.739624 0.500000 0.768590
O O2 0.658398 0.616052 0.765986
O O3 0.753735 0.687198 0.776538
O O4 0.714034 0.596951 0.000000
O O5 0.330165 0.872715 0.500000
O O6 0.396692 0.846739 0.725374
O O7 0.294533 0.849710 0.766796
O O8 0.345345 0.000000 0.704870
O O9 0.909885 0.863276 0.261616
O O10 0.916768 0.681648 0.225012
O O11 0.000000 0.793614 0.196177
O O12 0.922668 0.791388 0.000000
O O13 0.566299 0.756980 0.500000
O O14 0.500000 0.818386 0.702394
O O15 0.561279 0.676394 0.748274
O O16 0.852214 0.133786 0.500000
O O17 0.808628 0.164139 0.754769
O O18 0.844221 0.000000 0.697013
O O19 0.421495 0.500000 0.199731
O O20 0.402368 0.371261 0.000000
O O21 0.917177 0.624021 0.500000
O O22 0.916609 0.500000 0.284427
O O23 0.000000 0.601237 0.333607
O O24 0.758656 0.807378 0.000000
#
# Coordination Sequence:
#
# PCOD8199311 Si02
#       8
#     8   8   8   8   8   8   8   8
#     4   8  15  30  54  83 112 141 174 214 265 326
#     4  10  21  37  56  77 104 141 184 229 280 338
#     4  10  21  37  59  88 120 153 191 238 289 337
#     4  10  21  35  51  75 108 144 184 232 279 324
#     4  11  25  43  61  82 112 151 192 234 282 339
#     4   9  17  32  54  78 106 142 182 221 267 329
#     4   8  14  27  50  80 114 153 194 232 271 321
#     4  11  21  36  62  89 112 140 178 228 281 332
#
# _framework density 19.295988999999999
#
# number of rings (size 3 to 8) (size 9 to 14) (size 15 to 20)
#    0.000    2.375    1.250    2.625    0.000    5.000 
#    0.000    5.625    0.000    3.750    0.000    1.750 
#    0.000    0.000    0.000    0.000    0.000    0.000 
#
# Total GULP energy -793405.875600 kJ/mol
# GULP energy per Si atom -12396.966806 kJ/mol
# Density = 1.925207 g / cm^3
# Si number density = 19.295989 Si / 1000 Ang^3
#
#
#
# Elastic Constant Matrix: (Units=GPa)
#
#
# Indices 1 2 3 4 5 6 
#
# 1 85.0110 54.6351 43.6188 0.0000 0.0000 0.0000
# 2 54.6351 120.9592 50.8445 0.0000 0.0000 0.0000
# 3 43.6188 50.8445 72.0606 0.0000 0.0000 0.0000
# 4 0.0000 0.0000 0.0000 31.1378 0.0000 0.0000
# 5 0.0000 0.0000 0.0000 0.0000 26.2818 0.0000
# 6 0.0000 0.0000 0.0000 0.0000 0.0000 24.1133
#
#
#
# Elastic Compliance Matrix: (Units=1/GPa)
#
#
# Indices 1 2 3 4 5 6 
#
# 1 0.019261 -0.005401 -0.007848 0.000000 0.000000 0.000000
# 2 -0.005401 0.013268 -0.006092 0.000000 0.000000 0.000000
# 3 -0.007848 -0.006092 0.022926 0.000000 0.000000 0.000000
# 4 0.000000 0.000000 0.000000 0.032115 0.000000 0.000000
# 5 0.000000 0.000000 0.000000 0.000000 0.038049 0.000000
# 6 0.000000 0.000000 0.000000 0.000000 0.000000 0.041471
#
#
# Mechanical properties :
#
#
# Convention : Reuss Voigt Hill
#
# Bulk Modulus (GPa) = 59.62115 64.02530 61.82323
# Shear Modulus (GPa) = 23.65596 24.90207 24.27901
#
# Velocity S-wave (km/s) = 3.50516 3.59629 3.55102
# Velocity P-wave (km/s) = 6.88090 7.10613 6.99442
#
# Compressibility (1/GPa) = 0.01677257
#
# Stress axis : x y z
#
# Youngs Moduli (GPa) = 51.91806 75.37181 43.61835
#
# Poissons Ratio (x) = 0.40708 0.34232
# Poissons Ratio (y) = 0.28041 0.26573
# Poissons Ratio (z) = 0.40746 0.45917
#
# Static dielectric constant tensor:
#      x y z
#    x 3.448230 0.000000 0.000000 
#    y 0.000000 3.881950 0.000000 
#    z 0.000000 0.000000 3.414470 
# 
# 
# High freq. dielectric constant tensor:
#      x y z
#    x 1.736670 0.000000 0.000000 
#    y 0.000000 1.761590 0.000000 
#    z 0.000000 0.000000 1.737680 
# 
# From -- ./inp_files/12767.got.cif
#   From: 2010.03.12/outbox.cif.g09.slc.cpg/sg47_7_cif.got.tgz:12767.got - 2010.04.14 03:12:58.
