data_PCOD8199115
_publ_section_title
;
Structure prediction by ZEFSAII (Michael W. Deem and Ramdas Pophale) SiO2 
 PCOD8199115
Probable space group: P M M M
;
_chemical_formula_sum "Si O2"
_cell_formula_units_Z 64
_cell_length_a 9.067421
_cell_length_b 14.494959
_cell_length_c 26.067172
_cell_angle_alpha 90.000000
_cell_angle_beta 90.000000
_cell_angle_gamma 90.000000
_cell_volume 3426.057830
_symmetry_space_group_name_H-M "P M M M"
_symmetry_group_IT_number 47
_symmetry_cell_setting 'orthorhombic'
loop_
_space_group_symop_operation_xyz
x,y,z
-x,-y,z
x,-y,-z
-x,y,-z
-x,-y,-z
x,y,-z
-x,y,z
x,-y,z
loop_
_atom_site_type_symbol
_atom_site_label
_atom_site_fract_x
_atom_site_fract_y
_atom_site_fract_z
Si Si1 0.327231 0.106068 0.815302
Si Si2 0.162231 0.108649 0.715351
Si Si3 0.825342 0.285363 0.556425
Si Si4 0.334545 0.608912 0.645094
Si Si5 0.326734 0.606997 0.239182
Si Si6 0.175002 0.101340 0.396869
Si Si7 0.175102 0.396879 0.943350
Si Si8 0.175499 0.722251 0.849060
O O1 0.500000 0.121070 0.821461
O O2 0.280514 0.137375 0.758075
O O3 0.240060 0.173958 0.853448
O O4 0.282501 0.000000 0.826949
O O5 0.223340 0.138322 0.659582
O O6 0.000000 0.152387 0.727506
O O7 0.143077 0.000000 0.714041
O O8 0.770480 0.318073 0.500000
O O9 0.767482 0.349847 0.601220
O O10 0.771135 0.179096 0.563411
O O11 0.000000 0.289472 0.559542
O O12 0.500000 0.645260 0.636268
O O13 0.329057 0.500000 0.639499
O O14 0.281831 0.635716 0.702634
O O15 0.500000 0.623819 0.230325
O O16 0.287376 0.500000 0.229271
O O17 0.233031 0.669952 0.201164
O O18 0.000000 0.091715 0.397044
O O19 0.243474 0.000000 0.410074
O O20 0.235545 0.500000 0.932724
O O21 0.236590 0.329229 0.899685
O O22 0.000000 0.398453 0.941230
O O23 0.227399 0.363566 0.000000
O O24 0.000000 0.726267 0.847403
#
# Coordination Sequence:
#
# PCOD8199115 Si02
#       8
#     8   8   8   8   8   8   8   8
#     4  10  21  35  49  69 103 145 184 220 262 311
#     4   8  14  27  47  69  93 123 164 212 255 298
#     4  10  21  34  50  76 104 128 163 212 260 307
#     4   9  20  39  58  73  94 130 172 210 253 309
#     4   9  19  36  55  77 108 140 169 208 260 317
#     4   8  15  29  49  72  99 130 161 197 246 304
#     4   8  15  30  52  79 112 145 176 214 259 307
#     4  11  21  31  52  84 112 141 178 219 262 311
#
# _framework density 18.680361999999999
#
# number of rings (size 3 to 8) (size 9 to 14) (size 15 to 20)
#    0.000    2.875    0.000    3.000    1.750    3.000 
#    0.000    3.750    0.000    2.250    0.000    7.875 
#    0.000    0.000    0.000    0.000    0.000    0.000 
#
# Total GULP energy -793146.508625 kJ/mol
# GULP energy per Si atom -12392.914197 kJ/mol
# Density = 1.863784 g / cm^3
# Si number density = 18.680362 Si / 1000 Ang^3
#
#
#
# Elastic Constant Matrix: (Units=GPa)
#
#
# Indices 1 2 3 4 5 6 
#
# 1 50.5048 34.1650 39.6378 0.0000 0.0000 0.0000
# 2 34.1650 79.8421 67.8053 0.0000 0.0000 0.0000
# 3 39.6378 67.8053 135.1699 0.0000 0.0000 0.0000
# 4 0.0000 0.0000 0.0000 27.7584 0.0000 0.0000
# 5 0.0000 0.0000 0.0000 0.0000 4.8933 0.0000
# 6 0.0000 0.0000 0.0000 0.0000 0.0000 24.3902
#
#
#
# Elastic Compliance Matrix: (Units=1/GPa)
#
#
# Indices 1 2 3 4 5 6 
#
# 1 0.029044 -0.009051 -0.003977 0.000000 0.000000 0.000000
# 2 -0.009051 0.024641 -0.009706 0.000000 0.000000 0.000000
# 3 -0.003977 -0.009706 0.013433 0.000000 0.000000 0.000000
# 4 0.000000 0.000000 0.000000 0.036025 0.000000 0.000000
# 5 0.000000 0.000000 0.000000 0.000000 0.204361 0.000000
# 6 0.000000 0.000000 0.000000 0.000000 0.000000 0.041000
#
#
# Mechanical properties :
#
#
# Convention : Reuss Voigt Hill
#
# Bulk Modulus (GPa) = 46.18979 60.97033 53.58006
# Shear Modulus (GPa) = 12.46295 19.66896 16.06596
#
# Velocity S-wave (km/s) = 2.58576 3.24840 2.93583
# Velocity P-wave (km/s) = 5.80474 6.83952 6.34326
#
# Compressibility (1/GPa) = 0.02164981
#
# Stress axis : x y z
#
# Youngs Moduli (GPa) = 34.43073 40.58312 74.44182
#
# Poissons Ratio (x) = 0.36731 0.29604
# Poissons Ratio (y) = 0.31163 0.72257
# Poissons Ratio (z) = 0.13692 0.39392
#
# Static dielectric constant tensor:
#      x y z
#    x 3.153570 0.000000 0.000000 
#    y 0.000000 3.556490 0.000000 
#    z 0.000000 0.000000 3.682720 
# 
# 
# High freq. dielectric constant tensor:
#      x y z
#    x 1.694360 0.000000 0.000000 
#    y 0.000000 1.726780 0.000000 
#    z 0.000000 0.000000 1.715690 
# 
# From -- ./inp_files/32160.got.cif
#   From: 2010.03.12/outbox.cif.g09.slc.cpg/sg47_17_cif.got.tgz:32160.got - 2010.04.14 03:12:58.
