data_PCOD8199049
_publ_section_title
;
Structure prediction by ZEFSAII (Michael W. Deem and Ramdas Pophale) SiO2 
 PCOD8199049
Probable space group: P M M M
;
_chemical_formula_sum "Si O2"
_cell_formula_units_Z 44
_cell_length_a 9.155905
_cell_length_b 21.366711
_cell_length_c 13.751103
_cell_angle_alpha 90.000000
_cell_angle_beta 90.000000
_cell_angle_gamma 90.000000
_cell_volume 2690.149953
_symmetry_space_group_name_H-M "P M M M"
_symmetry_group_IT_number 47
_symmetry_cell_setting 'orthorhombic'
loop_
_space_group_symop_operation_xyz
x,y,z
-x,-y,z
x,-y,-z
-x,y,-z
-x,-y,-z
x,y,-z
-x,y,z
x,-y,z
loop_
_atom_site_type_symbol
_atom_site_label
_atom_site_fract_x
_atom_site_fract_y
_atom_site_fract_z
Si Si1 0.668420 0.571142 0.215004
Si Si2 0.170837 0.877392 0.386407
Si Si3 0.828721 0.247980 0.706651
Si Si4 0.172070 0.374542 0.389569
Si Si5 0.335292 0.000000 0.384388
Si Si6 0.170709 0.678359 0.890488
O O1 0.500000 0.590372 0.224643
O O2 0.685891 0.500000 0.179095
O O3 0.743680 0.577449 0.320367
O O4 0.743644 0.615169 0.135087
O O5 0.201265 0.865990 0.500000
O O6 0.238639 0.818020 0.327895
O O7 0.253455 0.938322 0.345772
O O8 0.000000 0.887556 0.366785
O O9 0.776981 0.304016 0.636172
O O10 0.783748 0.265231 0.817660
O O11 0.000000 0.239999 0.695803
O O12 0.214822 0.389776 0.500000
O O13 0.000000 0.382278 0.371342
O O14 0.500000 0.000000 0.344391
O O15 0.331061 0.000000 0.500000
O O16 0.000000 0.663287 0.877670
O O17 0.208904 0.699339 0.000000
#
# Coordination Sequence:
#
# PCOD8199049 Si02
#       6
#     8   8   8   8   4   8
#     4  10  21  34  46  63  89 119 149 182 221 266
#     4   9  15  24  41  63  87 117 149 175 203 247
#     4   8  14  26  45  68  90 111 140 179 220 262
#     4   9  17  30  48  68  90 117 149 184 221 262
#     4   9  17  27  37  55  88 123 150 178 209 239
#     4   9  18  33  52  71  89 110 140 182 230 275
#
# _framework density 16.355965999999999
#
# number of rings (size 3 to 8) (size 9 to 14) (size 15 to 20)
#    0.000    3.000    0.000    2.455    0.000    6.182 
#    0.000    7.273    0.000    4.364    0.000    0.636 
#    0.000    5.091    0.000    0.000    0.000    0.000 
#
# Total GULP energy -545439.878984 kJ/mol
# GULP energy per Si atom -12396.360886 kJ/mol
# Density = 1.631874 g / cm^3
# Si number density = 16.355966 Si / 1000 Ang^3
#
#
#
# Elastic Constant Matrix: (Units=GPa)
#
#
# Indices 1 2 3 4 5 6 
#
# 1 56.9688 40.1591 31.0486 0.0000 0.0000 0.0000
# 2 40.1591 110.9871 35.4548 0.0000 0.0000 0.0000
# 3 31.0486 35.4548 88.7054 0.0000 0.0000 0.0000
# 4 0.0000 0.0000 0.0000 17.5095 0.0000 0.0000
# 5 0.0000 0.0000 0.0000 0.0000 10.6398 0.0000
# 6 0.0000 0.0000 0.0000 0.0000 0.0000 7.5122
#
#
#
# Elastic Compliance Matrix: (Units=1/GPa)
#
#
# Indices 1 2 3 4 5 6 
#
# 1 0.026214 -0.007513 -0.006172 0.000000 0.000000 0.000000
# 2 -0.007513 0.012482 -0.002359 0.000000 0.000000 0.000000
# 3 -0.006172 -0.002359 0.014377 0.000000 0.000000 0.000000
# 4 0.000000 0.000000 0.000000 0.057112 0.000000 0.000000
# 5 0.000000 0.000000 0.000000 0.000000 0.093987 0.000000
# 6 0.000000 0.000000 0.000000 0.000000 0.000000 0.133116
#
#
# Mechanical properties :
#
#
# Convention : Reuss Voigt Hill
#
# Bulk Modulus (GPa) = 47.65772 52.22070 49.93921
# Shear Modulus (GPa) = 13.28473 17.13223 15.20848
#
# Velocity S-wave (km/s) = 2.85305 3.23996 3.05264
# Velocity P-wave (km/s) = 6.32884 6.78184 6.55925
#
# Compressibility (1/GPa) = 0.02098296
#
# Stress axis : x y z
#
# Youngs Moduli (GPa) = 38.14776 80.11328 69.55711
#
# Poissons Ratio (x) = 0.60192 0.42933
# Poissons Ratio (y) = 0.28662 0.16410
# Poissons Ratio (z) = 0.23546 0.18901
#
# Static dielectric constant tensor:
#      x y z
#    x 2.953090 0.000000 0.000000 
#    y 0.000000 3.183500 0.000000 
#    z 0.000000 0.000000 3.067270 
# 
# 
# High freq. dielectric constant tensor:
#      x y z
#    x 1.612380 0.000000 0.000000 
#    y 0.000000 1.624820 0.000000 
#    z 0.000000 0.000000 1.607890 
# 
# From -- ./inp_files/6747.got.cif
#   From: 2010.03.12/outbox.cif.g09.slc.cpg/sg47_4_cif.got.tgz:6747.got - 2010.04.14 03:12:58.
