data_PCOD8199098
_publ_section_title
;
Structure prediction by ZEFSAII (Michael W. Deem and Ramdas Pophale) SiO2 
 PCOD8199098
Probable space group: P M M M
;
_chemical_formula_sum "Si O2"
_cell_formula_units_Z 64
_cell_length_a 14.644652
_cell_length_b 9.498515
_cell_length_c 24.167497
_cell_angle_alpha 90.000000
_cell_angle_beta 90.000000
_cell_angle_gamma 90.000000
_cell_volume 3361.757963
_symmetry_space_group_name_H-M "P M M M"
_symmetry_group_IT_number 47
_symmetry_cell_setting 'orthorhombic'
loop_
_space_group_symop_operation_xyz
x,y,z
-x,-y,z
x,-y,-z
-x,y,-z
-x,-y,-z
x,y,-z
-x,y,z
x,-y,z
loop_
_atom_site_type_symbol
_atom_site_label
_atom_site_fract_x
_atom_site_fract_y
_atom_site_fract_z
Si Si1 0.391381 0.843749 0.754341
Si Si2 0.751049 0.336078 0.936698
Si Si3 0.891581 0.343699 0.729590
Si Si4 0.605203 0.835374 0.122715
Si Si5 0.107290 0.163945 0.373706
Si Si6 0.101095 0.332811 0.149004
Si Si7 0.604133 0.335995 0.347619
Si Si8 0.752593 0.337928 0.563308
O O1 0.500000 0.846484 0.754218
O O2 0.360124 0.793856 0.815454
O O3 0.354747 0.739479 0.706900
O O4 0.353608 0.000000 0.741704
O O5 0.733724 0.500000 0.924846
O O6 0.659224 0.253029 0.922766
O O7 0.832522 0.275032 0.898626
O O8 0.778628 0.309283 0.000000
O O9 0.851928 0.500000 0.716070
O O10 0.858020 0.233677 0.683564
O O11 0.859778 0.289994 0.790262
O O12 0.000000 0.352819 0.730526
O O13 0.500000 0.795306 0.115040
O O14 0.621079 0.000000 0.112389
O O15 0.160767 0.239736 0.423330
O O16 0.000000 0.188449 0.383419
O O17 0.131893 0.000000 0.372207
O O18 0.094286 0.500000 0.146304
O O19 0.000000 0.268028 0.139285
O O20 0.500000 0.288050 0.360019
O O21 0.608390 0.500000 0.334985
O O22 0.665086 0.293913 0.400243
O O23 0.724318 0.313453 0.500000
O O24 0.780315 0.500000 0.574159
#
# Coordination Sequence:
#
# PCOD8199098 Si02
#       8
#     8   8   8   8   8   8   8   8
#     4   8  15  30  52  77 103 130 163 203 249 303
#     4  10  21  34  49  74 104 132 168 213 255 294
#     4   8  14  28  52  78 102 130 165 203 245 299
#     4   9  19  36  55  73  97 133 172 207 248 301
#     4  10  21  36  54  77 105 134 164 206 259 305
#     4   8  15  30  52  76 102 133 167 203 246 298
#     4   9  18  33  54  80 107 133 163 203 251 299
#     4  10  22  38  54  74 101 136 177 212 243 289
#
# _framework density 19.037658
#
# number of rings (size 3 to 8) (size 9 to 14) (size 15 to 20)
#    0.000    3.000    0.000    1.875    0.000    4.500 
#    0.000   10.625    0.000    1.125    0.000    3.500 
#    0.000    0.000    0.000    0.000    0.000    0.000 
#
# Total GULP energy -793463.769415 kJ/mol
# GULP energy per Si atom -12397.871397 kJ/mol
# Density = 1.899433 g / cm^3
# Si number density = 19.037658 Si / 1000 Ang^3
#
#
#
# Elastic Constant Matrix: (Units=GPa)
#
#
# Indices 1 2 3 4 5 6 
#
# 1 55.5577 28.0064 29.1824 0.0000 0.0000 0.0000
# 2 28.0064 57.8494 34.1774 0.0000 0.0000 0.0000
# 3 29.1824 34.1774 97.4276 0.0000 0.0000 0.0000
# 4 0.0000 0.0000 0.0000 15.9985 0.0000 0.0000
# 5 0.0000 0.0000 0.0000 0.0000 33.7369 0.0000
# 6 0.0000 0.0000 0.0000 0.0000 0.0000 19.8562
#
#
#
# Elastic Compliance Matrix: (Units=1/GPa)
#
#
# Indices 1 2 3 4 5 6 
#
# 1 0.025043 -0.009703 -0.004097 0.000000 0.000000 0.000000
# 2 -0.009703 0.025565 -0.006062 0.000000 0.000000 0.000000
# 3 -0.004097 -0.006062 0.013618 0.000000 0.000000 0.000000
# 4 0.000000 0.000000 0.000000 0.062506 0.000000 0.000000
# 5 0.000000 0.000000 0.000000 0.000000 0.029641 0.000000
# 6 0.000000 0.000000 0.000000 0.000000 0.000000 0.050362
#
#
# Mechanical properties :
#
#
# Convention : Reuss Voigt Hill
#
# Bulk Modulus (GPa) = 40.81428 43.72967 42.27197
# Shear Modulus (GPa) = 19.63663 21.88289 20.75976
#
# Velocity S-wave (km/s) = 3.21512 3.39404 3.30579
# Velocity P-wave (km/s) = 5.93868 6.19510 6.06825
#
# Compressibility (1/GPa) = 0.02450123
#
# Stress axis : x y z
#
# Youngs Moduli (GPa) = 39.93166 39.11568 73.43381
#
# Poissons Ratio (x) = 0.37955 0.30087
# Poissons Ratio (y) = 0.38747 0.44514
# Poissons Ratio (z) = 0.16361 0.23711
#
# Static dielectric constant tensor:
#      x y z
#    x 3.407800 0.000000 0.000000 
#    y 0.000000 3.349230 0.000000 
#    z 0.000000 0.000000 3.621860 
# 
# 
# High freq. dielectric constant tensor:
#      x y z
#    x 1.730590 0.000000 0.000000 
#    y 0.000000 1.718800 0.000000 
#    z 0.000000 0.000000 1.741310 
# 
# From -- ./inp_files/32796.got.cif
#   From: 2010.03.12/outbox.cif.g09.slc.cpg/sg47_17_cif.got.tgz:32796.got - 2010.04.14 03:12:58.
