data_PCOD8199998
_publ_section_title
;
Structure prediction by ZEFSAII (Michael W. Deem and Ramdas Pophale) SiO2 
 PCOD8199998
Probable space group: P M M M
;
_chemical_formula_sum "Si O2"
_cell_formula_units_Z 64
_cell_length_a 8.980994
_cell_length_b 24.551595
_cell_length_c 14.997437
_cell_angle_alpha 90.000000
_cell_angle_beta 90.000000
_cell_angle_gamma 90.000000
_cell_volume 3306.900775
_symmetry_space_group_name_H-M "P M M M"
_symmetry_group_IT_number 47
_symmetry_cell_setting 'orthorhombic'
loop_
_space_group_symop_operation_xyz
x,y,z
-x,-y,z
x,-y,-z
-x,y,-z
-x,-y,-z
x,y,-z
-x,y,z
x,-y,z
loop_
_atom_site_type_symbol
_atom_site_label
_atom_site_fract_x
_atom_site_fract_y
_atom_site_fract_z
Si Si1 0.667645 0.251233 0.105910
Si Si2 0.177793 0.375514 0.398013
Si Si3 0.328238 0.436132 0.758367
Si Si4 0.823384 0.939325 0.750143
Si Si5 0.178575 0.859328 0.599901
Si Si6 0.174522 0.856908 0.898436
Si Si7 0.838043 0.742397 0.605373
Si Si8 0.174675 0.360015 0.103866
O O1 0.500000 0.254702 0.142742
O O2 0.743728 0.196103 0.141338
O O3 0.759223 0.303195 0.140698
O O4 0.671405 0.250396 0.000000
O O5 0.221439 0.389212 0.500000
O O6 0.254066 0.419491 0.335003
O O7 0.240929 0.315041 0.369463
O O8 0.000000 0.377080 0.386459
O O9 0.500000 0.418670 0.757780
O O10 0.308130 0.500000 0.770185
O O11 0.247403 0.409093 0.842311
O O12 0.759654 0.905639 0.665919
O O13 0.776501 0.909262 0.841233
O O14 0.000000 0.942934 0.743015
O O15 0.753952 0.000000 0.749926
O O16 0.232348 0.874069 0.500000
O O17 0.243608 0.799599 0.630857
O O18 0.000000 0.855958 0.603047
O O19 0.000000 0.845351 0.890377
O O20 0.221636 0.869067 0.000000
O O21 0.860086 0.742665 0.500000
O O22 0.000000 0.742211 0.651684
O O23 0.000000 0.359260 0.121428
O O24 0.212874 0.368557 0.000000
#
# Coordination Sequence:
#
# PCOD8199998 Si02
#       8
#     8   8   8   8   8   8   8   8
#     4   9  17  31  53  80 108 134 161 200 255 316
#     4   9  18  34  57  82 106 135 176 229 282 326
#     4  11  25  41  55  76 109 148 187 223 262 314
#     4   9  17  26  36  56  87 125 172 217 253 295
#     4   8  13  22  37  58  87 120 151 192 250 308
#     4   9  17  29  45  66  95 131 168 205 246 295
#     4   7  11  22  41  66  93 119 153 201 259 318
#     4  10  21  38  61  86 110 137 172 217 266 316
#
# _framework density 19.353467999999999
#
# number of rings (size 3 to 8) (size 9 to 14) (size 15 to 20)
#    0.000    3.000    0.000    2.625    0.000    5.500 
#    0.000    7.500    0.000    0.375    0.000    1.750 
#    0.000    0.500    0.000    1.125    0.000    1.250 
#
# Total GULP energy -793119.768747 kJ/mol
# GULP energy per Si atom -12392.496387 kJ/mol
# Density = 1.930942 g / cm^3
# Si number density = 19.353468 Si / 1000 Ang^3
#
#
#
# Elastic Constant Matrix: (Units=GPa)
#
#
# Indices 1 2 3 4 5 6 
#
# 1 59.9587 40.3795 30.4328 0.0000 0.0000 0.0000
# 2 40.3795 115.2466 40.6441 0.0000 0.0000 0.0000
# 3 30.4328 40.6441 77.3176 0.0000 0.0000 0.0000
# 4 0.0000 0.0000 0.0000 32.7865 0.0000 0.0000
# 5 0.0000 0.0000 0.0000 0.0000 13.6757 0.0000
# 6 0.0000 0.0000 0.0000 0.0000 0.0000 11.8062
#
#
#
# Elastic Compliance Matrix: (Units=1/GPa)
#
#
# Indices 1 2 3 4 5 6 
#
# 1 0.024011 -0.006236 -0.006173 0.000000 0.000000 0.000000
# 2 -0.006236 0.012271 -0.003996 0.000000 0.000000 0.000000
# 3 -0.006173 -0.003996 0.017464 0.000000 0.000000 0.000000
# 4 0.000000 0.000000 0.000000 0.030500 0.000000 0.000000
# 5 0.000000 0.000000 0.000000 0.000000 0.073122 0.000000
# 6 0.000000 0.000000 0.000000 0.000000 0.000000 0.084701
#
#
# Mechanical properties :
#
#
# Convention : Reuss Voigt Hill
#
# Bulk Modulus (GPa) = 47.76377 52.82617 50.29497
# Shear Modulus (GPa) = 17.73938 21.05811 19.39875
#
# Velocity S-wave (km/s) = 3.03082 3.30218 3.16941
# Velocity P-wave (km/s) = 6.08121 6.47255 6.27993
#
# Compressibility (1/GPa) = 0.02093637
#
# Stress axis : x y z
#
# Youngs Moduli (GPa) = 41.64797 81.49115 57.26034
#
# Poissons Ratio (x) = 0.50816 0.35346
# Poissons Ratio (y) = 0.25971 0.22883
# Poissons Ratio (z) = 0.25709 0.32566
#
# Static dielectric constant tensor:
#      x y z
#    x 3.136880 0.000000 0.000000 
#    y 0.000000 3.848310 0.000000 
#    z 0.000000 0.000000 3.473190 
# 
# 
# High freq. dielectric constant tensor:
#      x y z
#    x 1.703920 0.000000 0.000000 
#    y 0.000000 1.761710 0.000000 
#    z 0.000000 0.000000 1.748530 
# 
# From -- ./inp_files/27021.got.cif
#   From: 2010.03.12/outbox.cif.g09.slc.cpg/sg47_14_cif.got.tgz:27021.got - 2010.04.14 03:12:58.
