data_PCOD8199771
_publ_section_title
;
Structure prediction by ZEFSAII (Michael W. Deem and Ramdas Pophale) SiO2 
 PCOD8199771
Probable space group: P M M M
;
_chemical_formula_sum "Si O2"
_cell_formula_units_Z 56
_cell_length_a 19.773416
_cell_length_b 9.077638
_cell_length_c 15.865446
_cell_angle_alpha 90.000000
_cell_angle_beta 90.000000
_cell_angle_gamma 90.000000
_cell_volume 2847.782707
_symmetry_space_group_name_H-M "P M M M"
_symmetry_group_IT_number 47
_symmetry_cell_setting 'orthorhombic'
loop_
_space_group_symop_operation_xyz
x,y,z
-x,-y,z
x,-y,-z
-x,y,-z
-x,-y,-z
x,y,-z
-x,y,z
x,-y,z
loop_
_atom_site_type_symbol
_atom_site_label
_atom_site_fract_x
_atom_site_fract_y
_atom_site_fract_z
Si Si1 0.575739 0.174704 0.592453
Si Si2 0.920302 0.162013 0.500000
Si Si3 0.205809 0.328133 0.222123
Si Si4 0.077004 0.670712 0.665750
Si Si5 0.578400 0.327879 0.097011
Si Si6 0.000000 0.335600 0.900077
Si Si7 0.130822 0.164945 0.099126
Si Si8 0.341791 0.823970 0.246931
O O1 0.604544 0.224377 0.500000
O O2 0.500000 0.236808 0.602561
O O3 0.618448 0.235298 0.670949
O O4 0.574724 0.000000 0.596510
O O5 0.897024 0.246670 0.582944
O O6 0.000000 0.149880 0.500000
O O7 0.886915 0.000000 0.500000
O O8 0.222414 0.500000 0.217327
O O9 0.134378 0.291621 0.266334
O O10 0.195929 0.258418 0.128985
O O11 0.267874 0.242719 0.263501
O O12 0.077090 0.500000 0.643319
O O13 0.000000 0.717741 0.694383
O O14 0.500000 0.290336 0.114760
O O15 0.592355 0.500000 0.112167
O O16 0.624671 0.234946 0.160784
O O17 0.596343 0.286238 0.000000
O O18 0.064509 0.248203 0.867287
O O19 0.000000 0.500000 0.858962
O O20 0.000000 0.350108 0.000000
O O21 0.131759 0.000000 0.136883
O O22 0.131929 0.158187 0.000000
O O23 0.338690 0.000000 0.241720
#
# Coordination Sequence:
#
# PCOD8199771 Si02
#       8
#     8   4   8   8   8   4   8   8
#     4   8  15  31  57  87 116 148 187 228 274 331
#     4   9  17  31  55  85 109 131 166 217 280 345
#     4  11  24  39  56  79 111 151 194 237 289 351
#     4   9  19  37  59  80 104 139 185 237 288 341
#     4   9  19  37  61  88 118 154 195 237 284 340
#     4   9  17  31  53  79 105 136 177 224 279 345
#     4  10  21  37  56  79 107 139 181 236 292 340
#     4  11  22  36  56  84 121 156 192 238 288 343
#
# _framework density 19.664421000000001
#
# number of rings (size 3 to 8) (size 9 to 14) (size 15 to 20)
#    0.000    2.429    0.000    3.000    1.000    5.429 
#    1.286    0.714    0.000    1.286    0.000    5.000 
#    0.000    0.000    0.000    0.000    0.000    0.000 
#
# Total GULP energy -694077.838548 kJ/mol
# GULP energy per Si atom -12394.247117 kJ/mol
# Density = 1.961966 g / cm^3
# Si number density = 19.664421 Si / 1000 Ang^3
#
#
#
# Elastic Constant Matrix: (Units=GPa)
#
#
# Indices 1 2 3 4 5 6 
#
# 1 107.0791 50.6527 63.6792 0.0000 0.0000 0.0000
# 2 50.6527 93.1529 52.0730 0.0000 0.0000 0.0000
# 3 63.6792 52.0730 100.8918 0.0000 0.0000 0.0000
# 4 0.0000 0.0000 0.0000 20.2545 0.0000 0.0000
# 5 0.0000 0.0000 0.0000 0.0000 19.0607 0.0000
# 6 0.0000 0.0000 0.0000 0.0000 0.0000 32.7234
#
#
#
# Elastic Compliance Matrix: (Units=1/GPa)
#
#
# Indices 1 2 3 4 5 6 
#
# 1 0.016099 -0.004320 -0.007931 0.000000 0.000000 0.000000
# 2 -0.004320 0.016248 -0.005659 0.000000 0.000000 0.000000
# 3 -0.007931 -0.005659 0.017838 0.000000 0.000000 0.000000
# 4 0.000000 0.000000 0.000000 0.049372 0.000000 0.000000
# 5 0.000000 0.000000 0.000000 0.000000 0.052464 0.000000
# 6 0.000000 0.000000 0.000000 0.000000 0.000000 0.030559
#
#
# Mechanical properties :
#
#
# Convention : Reuss Voigt Hill
#
# Bulk Modulus (GPa) = 69.61965 70.43706 70.02836
# Shear Modulus (GPa) = 22.40244 23.38900 22.89572
#
# Velocity S-wave (km/s) = 3.37892 3.45252 3.41592
# Velocity P-wave (km/s) = 7.12064 7.19656 7.15870
#
# Compressibility (1/GPa) = 0.01436376
#
# Stress axis : x y z
#
# Youngs Moduli (GPa) = 62.11400 61.54708 56.05887
#
# Poissons Ratio (x) = 0.26591 0.44463
# Poissons Ratio (y) = 0.26836 0.31724
# Poissons Ratio (z) = 0.49265 0.34829
#
# Static dielectric constant tensor:
#      x y z
#    x 3.625450 0.000000 0.000000 
#    y 0.000000 3.586220 0.000000 
#    z 0.000000 0.000000 3.750020 
# 
# 
# High freq. dielectric constant tensor:
#      x y z
#    x 1.754090 0.000000 0.000000 
#    y 0.000000 1.758280 0.000000 
#    z 0.000000 0.000000 1.772970 
# 
# From -- ./inp_files/25223.got.cif
#   From: 2010.03.12/outbox.cif.g09.slc.cpg/sg47_13_cif.got.tgz:25223.got - 2010.04.14 03:12:58.
