data_PCOD8199039
_publ_section_title
;
Structure prediction by ZEFSAII (Michael W. Deem and Ramdas Pophale) SiO2 
 PCOD8199039
Probable space group: P M M M
;
_chemical_formula_sum "Si O2"
_cell_formula_units_Z 44
_cell_length_a 23.191158
_cell_length_b 13.858289
_cell_length_c 7.810772
_cell_angle_alpha 90.000000
_cell_angle_beta 90.000000
_cell_angle_gamma 90.000000
_cell_volume 2510.302215
_symmetry_space_group_name_H-M "P M M M"
_symmetry_group_IT_number 47
_symmetry_cell_setting 'orthorhombic'
loop_
_space_group_symop_operation_xyz
x,y,z
-x,-y,z
x,-y,-z
-x,y,-z
-x,-y,-z
x,y,-z
-x,y,z
x,-y,z
loop_
_atom_site_type_symbol
_atom_site_label
_atom_site_fract_x
_atom_site_fract_y
_atom_site_fract_z
Si Si1 0.353205 0.886535 0.302221
Si Si2 0.879085 0.892480 0.296960
Si Si3 0.764812 0.792495 0.296975
Si Si4 0.064065 0.704455 0.196471
Si Si5 0.435918 0.885909 0.000000
Si Si6 0.176668 0.394819 0.303857
O O1 0.369157 0.861034 0.500000
O O2 0.297137 0.829288 0.234426
O O3 0.404105 0.852922 0.174903
O O4 0.340453 0.000000 0.285482
O O5 0.883631 0.884827 0.500000
O O6 0.814213 0.866375 0.235731
O O7 0.924324 0.818700 0.215179
O O8 0.893681 0.000000 0.232310
O O9 0.764909 0.787877 0.500000
O O10 0.780484 0.685701 0.221230
O O11 0.110641 0.641304 0.297641
O O12 0.000000 0.682285 0.268143
O O13 0.068188 0.674414 0.000000
O O14 0.500000 0.840035 0.000000
O O15 0.440285 0.000000 0.000000
O O16 0.193488 0.406824 0.500000
O O17 0.183636 0.500000 0.212955
#
# Coordination Sequence:
#
# PCOD8199039 Si02
#       6
#     8   8   8   8   4   8
#     4   9  16  27  45  67  94 130 163 192 230 271
#     4   9  17  30  48  67  87 113 146 187 232 273
#     4   8  14  27  46  67  91 114 141 181 229 281
#     4  10  21  34  45  60  86 118 149 183 225 276
#     4   9  18  30  42  64  99 133 168 201 221 253
#     4   9  18  33  52  70  87 110 142 186 238 284
#
# _framework density 17.52777
#
# number of rings (size 3 to 8) (size 9 to 14) (size 15 to 20)
#    0.000    3.000    0.000    2.182    0.000    5.455 
#    6.545    5.455    0.000    0.000    0.000    0.000 
#    0.000    1.455    0.000    7.091    0.000    0.182 
#
# Total GULP energy -545238.546724 kJ/mol
# GULP energy per Si atom -12391.785153 kJ/mol
# Density = 1.748788 g / cm^3
# Si number density = 17.527770 Si / 1000 Ang^3
#
#
#
# Elastic Constant Matrix: (Units=GPa)
#
#
# Indices 1 2 3 4 5 6 
#
# 1 115.5464 31.2938 28.9540 0.0000 0.0000 0.0000
# 2 31.2938 88.0673 10.2603 0.0000 0.0000 0.0000
# 3 28.9540 10.2603 46.2904 0.0000 0.0000 0.0000
# 4 0.0000 0.0000 0.0000 5.6103 0.0000 0.0000
# 5 0.0000 0.0000 0.0000 0.0000 8.9834 0.0000
# 6 0.0000 0.0000 0.0000 0.0000 0.0000 13.6704
#
#
#
# Elastic Compliance Matrix: (Units=1/GPa)
#
#
# Indices 1 2 3 4 5 6 
#
# 1 0.011084 -0.003214 -0.006220 0.000000 0.000000 0.000000
# 2 -0.003214 0.012588 -0.000780 0.000000 0.000000 0.000000
# 3 -0.006220 -0.000780 0.025666 0.000000 0.000000 0.000000
# 4 0.000000 0.000000 0.000000 0.178245 0.000000 0.000000
# 5 0.000000 0.000000 0.000000 0.000000 0.111317 0.000000
# 6 0.000000 0.000000 0.000000 0.000000 0.000000 0.073151
#
#
# Mechanical properties :
#
#
# Convention : Reuss Voigt Hill
#
# Bulk Modulus (GPa) = 34.59039 43.43557 39.01298
# Shear Modulus (GPa) = 11.30927 17.61253 14.46090
#
# Velocity S-wave (km/s) = 2.54287 3.17335 2.87545
# Velocity P-wave (km/s) = 5.32908 6.18560 5.77325
#
# Compressibility (1/GPa) = 0.02890977
#
# Stress axis : x y z
#
# Youngs Moduli (GPa) = 90.22312 79.44204 38.96147
#
# Poissons Ratio (x) = 0.25531 0.24235
# Poissons Ratio (y) = 0.28995 0.03039
# Poissons Ratio (z) = 0.56122 0.06196
#
# Static dielectric constant tensor:
#      x y z
#    x 3.313860 0.000000 0.000000 
#    y 0.000000 3.481430 0.000000 
#    z 0.000000 0.000000 3.093300 
# 
# 
# High freq. dielectric constant tensor:
#      x y z
#    x 1.653060 0.000000 0.000000 
#    y 0.000000 1.657950 0.000000 
#    z 0.000000 0.000000 1.667150 
# 
# From -- ./inp_files/10871.got.cif
#   From: 2010.03.12/outbox.cif.g09.slc.cpg/sg47_6_cif.got.tgz:10871.got - 2010.04.14 03:12:58.
