data_PCOD8199910
_publ_section_title
;
Structure prediction by ZEFSAII (Michael W. Deem and Ramdas Pophale) SiO2 
 PCOD8199910
Probable space group: P M M M
;
_chemical_formula_sum "Si O2"
_cell_formula_units_Z 56
_cell_length_a 13.865282
_cell_length_b 9.042160
_cell_length_c 21.027940
_cell_angle_alpha 90.000000
_cell_angle_beta 90.000000
_cell_angle_gamma 90.000000
_cell_volume 2636.316960
_symmetry_space_group_name_H-M "P M M M"
_symmetry_group_IT_number 47
_symmetry_cell_setting 'orthorhombic'
loop_
_space_group_symop_operation_xyz
x,y,z
-x,-y,z
x,-y,-z
-x,y,-z
-x,-y,-z
x,y,-z
-x,y,z
x,-y,z
loop_
_atom_site_type_symbol
_atom_site_label
_atom_site_fract_x
_atom_site_fract_y
_atom_site_fract_z
Si Si1 0.392039 0.831388 0.634837
Si Si2 0.114259 0.333182 0.310661
Si Si3 0.885460 0.831725 0.814380
Si Si4 0.214542 0.329512 0.070677
Si Si5 0.614528 0.665961 0.758039
Si Si6 0.201482 0.170164 0.429261
Si Si7 0.610509 0.174444 0.883734
O O1 0.500000 0.781607 0.613646
O O2 0.348400 0.731287 0.691464
O O3 0.317683 0.812361 0.576966
O O4 0.395118 0.000000 0.659328
O O5 0.153443 0.500000 0.307552
O O6 0.157137 0.247382 0.249053
O O7 0.145165 0.262912 0.377187
O O8 0.000000 0.328469 0.307822
O O9 0.852425 0.752092 0.878644
O O10 0.000000 0.825234 0.812773
O O11 0.847811 0.000000 0.814991
O O12 0.224544 0.500000 0.090538
O O13 0.320863 0.255673 0.066132
O O14 0.168766 0.314538 0.000000
O O15 0.500000 0.667831 0.756218
O O16 0.654441 0.500000 0.767593
O O17 0.649512 0.770981 0.815103
O O18 0.173420 0.225503 0.500000
O O19 0.171400 0.000000 0.420212
O O20 0.500000 0.222207 0.896226
O O21 0.622386 0.000000 0.888843
#
# Coordination Sequence:
#
# PCOD8199910 Si02
#       7
#     8   8   8   8   8   8   8
#     4   9  18  33  53  78 112 154 199 245 293 349
#     4  10  22  41  65  91 119 153 194 243 301 364
#     4  10  22  42  69  97 123 154 195 246 302 360
#     4  11  25  42  61  89 125 165 205 246 298 358
#     4   9  17  30  50  77 108 144 190 243 298 352
#     4  10  22  38  57  85 120 159 202 248 301 358
#     4  10  21  37  58  84 117 159 206 254 302 353
#
# _framework density 21.241754
#
# number of rings (size 3 to 8) (size 9 to 14) (size 15 to 20)
#    0.000    2.143    0.000    2.143    2.000    7.429 
#    0.000    5.714    0.000    0.000    0.000    3.000 
#    0.000    0.000    0.000    0.000    0.000    0.000 
#
# Total GULP energy -694380.291250 kJ/mol
# GULP energy per Si atom -12399.648058 kJ/mol
# Density = 2.119341 g / cm^3
# Si number density = 21.241754 Si / 1000 Ang^3
#
#
#
# Elastic Constant Matrix: (Units=GPa)
#
#
# Indices 1 2 3 4 5 6 
#
# 1 12.2039 18.1875 22.1378 0.0000 0.0000 0.0000
# 2 18.1875 141.7003 71.9018 0.0000 0.0000 0.0000
# 3 22.1378 71.9018 144.0976 0.0000 0.0000 0.0000
# 4 0.0000 0.0000 0.0000 33.1692 0.0000 0.0000
# 5 0.0000 0.0000 0.0000 0.0000 27.3603 0.0000
# 6 0.0000 0.0000 0.0000 0.0000 0.0000 27.9382
#
#
#
# Elastic Compliance Matrix: (Units=1/GPa)
#
#
# Indices 1 2 3 4 5 6 
#
# 1 0.120179 -0.008110 -0.014416 0.000000 0.000000 0.000000
# 2 -0.008110 0.009997 -0.003742 0.000000 0.000000 0.000000
# 3 -0.014416 -0.003742 0.011022 0.000000 0.000000 0.000000
# 4 0.000000 0.000000 0.000000 0.030148 0.000000 0.000000
# 5 0.000000 0.000000 0.000000 0.000000 0.036549 0.000000
# 6 0.000000 0.000000 0.000000 0.000000 0.000000 0.035793
#
#
# Mechanical properties :
#
#
# Convention : Reuss Voigt Hill
#
# Bulk Modulus (GPa) = 11.27905 58.05069 34.66487
# Shear Modulus (GPa) = 15.34780 30.07850 22.71315
#
# Velocity S-wave (km/s) = 2.69091 3.76707 3.27352
# Velocity P-wave (km/s) = 3.86989 6.80507 5.53557
#
# Compressibility (1/GPa) = 0.08865998
#
# Stress axis : x y z
#
# Youngs Moduli (GPa) = 8.32095 100.02960 90.72825
#
# Poissons Ratio (x) = 0.81123 1.30798
# Poissons Ratio (y) = 0.06748 0.33954
# Poissons Ratio (z) = 0.11996 0.37435
#
# Static dielectric constant tensor:
#      x y z
#    x 3.811090 0.000000 0.000000 
#    y 0.000000 3.967800 0.000000 
#    z 0.000000 0.000000 3.761840 
# 
# 
# High freq. dielectric constant tensor:
#      x y z
#    x 1.836170 0.000000 0.000000 
#    y 0.000000 1.835490 0.000000 
#    z 0.000000 0.000000 1.826590 
# 
# From -- ./inp_files/7270.got.cif
#   From: 2010.03.12/outbox.cif.g09.slc.cpg/sg47_4_cif.got.tgz:7270.got - 2010.04.14 03:12:58.
