data_PCOD8199649
_publ_section_title
;
Structure prediction by ZEFSAII (Michael W. Deem and Ramdas Pophale) SiO2 
 PCOD8199649
Probable space group: P M M M
;
_chemical_formula_sum "Si O2"
_cell_formula_units_Z 52
_cell_length_a 14.312222
_cell_length_b 19.924579
_cell_length_c 9.434228
_cell_angle_alpha 90.000000
_cell_angle_beta 90.000000
_cell_angle_gamma 90.000000
_cell_volume 2690.311608
_symmetry_space_group_name_H-M "P M M M"
_symmetry_group_IT_number 47
_symmetry_cell_setting 'orthorhombic'
loop_
_space_group_symop_operation_xyz
x,y,z
-x,-y,z
x,-y,-z
-x,y,-z
-x,-y,-z
x,y,-z
-x,y,z
x,-y,z
loop_
_atom_site_type_symbol
_atom_site_label
_atom_site_fract_x
_atom_site_fract_y
_atom_site_fract_z
Si Si1 0.277288 0.420765 0.336560
Si Si2 0.391847 0.322265 0.835669
Si Si3 0.895056 0.126638 0.837925
Si Si4 0.896826 0.420285 0.158620
Si Si5 0.607991 0.924114 0.663345
Si Si6 0.110573 0.000000 0.341654
Si Si7 0.708638 0.810719 0.162853
O O1 0.277179 0.399715 0.500000
O O2 0.288657 0.500000 0.317124
O O3 0.364061 0.386789 0.256742
O O4 0.180718 0.393624 0.267734
O O5 0.500000 0.305887 0.810114
O O6 0.331414 0.259318 0.778698
O O7 0.371167 0.338027 0.000000
O O8 0.821769 0.187922 0.819014
O O9 0.000000 0.150317 0.794644
O O10 0.857083 0.066313 0.740661
O O11 0.895025 0.101060 0.000000
O O12 0.897114 0.500000 0.159040
O O13 0.000000 0.394211 0.204340
O O14 0.872971 0.394217 0.000000
O O15 0.621730 0.904684 0.500000
O O16 0.500000 0.918732 0.706271
O O17 0.666278 0.873542 0.756994
O O18 0.644200 0.000000 0.690965
O O19 0.154341 0.000000 0.500000
O O20 0.000000 0.000000 0.349244
O O21 0.678527 0.817883 0.000000
#
# Coordination Sequence:
#
# PCOD8199649 Si02
#       7
#     8   8   8   8   8   4   8
#     4  10  21  36  56  84 115 145 181 228 278 331
#     4  10  22  40  59  79 106 140 180 230 287 344
#     4   9  18  33  52  75 107 144 179 218 266 319
#     4   8  14  27  50  80 113 148 183 217 256 308
#     4   9  19  35  53  76 107 140 175 219 271 323
#     4   9  17  29  47  73 104 139 180 223 263 304
#     4  10  21  36  56  80 106 139 182 227 270 320
#
# _framework density 19.328617000000001
#
# number of rings (size 3 to 8) (size 9 to 14) (size 15 to 20)
#    0.000    2.692    0.000    2.077    1.077    5.231 
#    0.000    4.615    0.000    2.769    0.000    0.000 
#    0.000    0.000    0.000    0.000    0.000    0.000 
#
# Total GULP energy -644692.325741 kJ/mol
# GULP energy per Si atom -12397.929341 kJ/mol
# Density = 1.928462 g / cm^3
# Si number density = 19.328617 Si / 1000 Ang^3
#
#
#
# Elastic Constant Matrix: (Units=GPa)
#
#
# Indices 1 2 3 4 5 6 
#
# 1 102.9259 51.4741 52.1872 0.0000 0.0000 0.0000
# 2 51.4741 64.3818 43.9938 0.0000 0.0000 0.0000
# 3 52.1872 43.9938 90.5433 0.0000 0.0000 0.0000
# 4 0.0000 0.0000 0.0000 22.5557 0.0000 0.0000
# 5 0.0000 0.0000 0.0000 0.0000 25.5444 0.0000
# 6 0.0000 0.0000 0.0000 0.0000 0.0000 31.9217
#
#
#
# Elastic Compliance Matrix: (Units=1/GPa)
#
#
# Indices 1 2 3 4 5 6 
#
# 1 0.017548 -0.010657 -0.004936 0.000000 0.000000 0.000000
# 2 -0.010657 0.029724 -0.008300 0.000000 0.000000 0.000000
# 3 -0.004936 -0.008300 0.017923 0.000000 0.000000 0.000000
# 4 0.000000 0.000000 0.000000 0.044335 0.000000 0.000000
# 5 0.000000 0.000000 0.000000 0.000000 0.039148 0.000000
# 6 0.000000 0.000000 0.000000 0.000000 0.000000 0.031327
#
#
# Mechanical properties :
#
#
# Convention : Reuss Voigt Hill
#
# Bulk Modulus (GPa) = 57.44418 61.46235 59.45327
# Shear Modulus (GPa) = 21.40464 23.35075 22.37770
#
# Velocity S-wave (km/s) = 3.33138 3.47953 3.40626
# Velocity P-wave (km/s) = 6.67696 6.92896 6.80413
#
# Compressibility (1/GPa) = 0.01740820
#
# Stress axis : x y z
#
# Youngs Moduli (GPa) = 56.98568 33.64234 55.79518
#
# Poissons Ratio (x) = 0.35852 0.27543
# Poissons Ratio (y) = 0.60729 0.46312
# Poissons Ratio (z) = 0.28131 0.27924
#
# Static dielectric constant tensor:
#      x y z
#    x 3.723590 0.000000 0.000000 
#    y 0.000000 3.249290 0.000000 
#    z 0.000000 0.000000 3.557490 
# 
# 
# High freq. dielectric constant tensor:
#      x y z
#    x 1.764300 0.000000 0.000000 
#    y 0.000000 1.723240 0.000000 
#    z 0.000000 0.000000 1.745620 
# 
# From -- ./inp_files/6917.got.cif
#   From: 2010.03.12/outbox.cif.g09.slc.cpg/sg47_4_cif.got.tgz:6917.got - 2010.04.14 03:12:58.
