data_PCOD8199456
_publ_section_title
;
Structure prediction by ZEFSAII (Michael W. Deem and Ramdas Pophale) SiO2 
 PCOD8199456
Probable space group: P M M M
;
_chemical_formula_sum "Si O2"
_cell_formula_units_Z 48
_cell_length_a 9.203788
_cell_length_b 9.297733
_cell_length_c 30.695686
_cell_angle_alpha 90.000000
_cell_angle_beta 90.000000
_cell_angle_gamma 90.000000
_cell_volume 2626.763789
_symmetry_space_group_name_H-M "P M M M"
_symmetry_group_IT_number 47
_symmetry_cell_setting 'orthorhombic'
loop_
_space_group_symop_operation_xyz
x,y,z
-x,-y,z
x,-y,-z
-x,y,-z
-x,-y,-z
x,y,-z
-x,y,z
x,-y,z
loop_
_atom_site_type_symbol
_atom_site_label
_atom_site_fract_x
_atom_site_fract_y
_atom_site_fract_z
Si Si1 0.829699 0.835328 0.378041
Si Si2 0.671114 0.833973 0.783271
Si Si3 0.831148 0.331283 0.292091
Si Si4 0.172669 0.337850 0.047661
Si Si5 0.330584 0.337362 0.550052
Si Si6 0.833449 0.167895 0.870060
O O1 0.778841 0.742949 0.336612
O O2 0.754438 0.776399 0.421102
O O3 0.000000 0.820641 0.385297
O O4 0.782831 0.000000 0.370399
O O5 0.500000 0.810981 0.785464
O O6 0.736356 0.733521 0.746355
O O7 0.739118 0.783104 0.828881
O O8 0.711802 0.000000 0.773600
O O9 0.800688 0.500000 0.295936
O O10 0.000000 0.298178 0.282882
O O11 0.226775 0.500000 0.055281
O O12 0.234403 0.241184 0.086825
O O13 0.000000 0.330726 0.048272
O O14 0.227728 0.283209 0.000000
O O15 0.295974 0.301355 0.500000
O O16 0.500000 0.320948 0.559686
O O17 0.280065 0.500000 0.560940
O O18 0.000000 0.215237 0.861704
O O19 0.821462 0.000000 0.878159
#
# Coordination Sequence:
#
# PCOD8199456 Si02
#       6
#     8   8   8   8   8   8
#     4  10  21  36  55  80 108 137 170 210 256 305
#     4  10  21  36  53  74 102 135 169 206 251 303
#     4  10  21  37  57  79 102 131 169 211 255 304
#     4   8  14  25  42  66  95 124 156 198 246 293
#     4   9  19  36  56  78 106 141 179 216 254 298
#     4   9  17  29  47  71  97 126 161 202 247 294
#
# _framework density 18.273434999999999
#
# number of rings (size 3 to 8) (size 9 to 14) (size 15 to 20)
#    0.000    2.667    0.000    2.500    0.000    5.667 
#    0.000    5.833    0.000    0.500    0.000    3.500 
#    0.000    0.000    0.000    0.000    0.000    0.000 
#
# Total GULP energy -595196.470242 kJ/mol
# GULP energy per Si atom -12399.926463 kJ/mol
# Density = 1.823184 g / cm^3
# Si number density = 18.273435 Si / 1000 Ang^3
#
#
#
# Elastic Constant Matrix: (Units=GPa)
#
#
# Indices 1 2 3 4 5 6 
#
# 1 50.3214 45.7593 55.9524 0.0000 0.0000 0.0000
# 2 45.7593 102.2190 84.9910 0.0000 0.0000 0.0000
# 3 55.9524 84.9910 157.1499 0.0000 0.0000 0.0000
# 4 0.0000 0.0000 0.0000 42.4344 0.0000 0.0000
# 5 0.0000 0.0000 0.0000 0.0000 -11.4918 0.0000
# 6 0.0000 0.0000 0.0000 0.0000 0.0000 24.5143
#
#
#
# Elastic Compliance Matrix: (Units=1/GPa)
#
#
# Indices 1 2 3 4 5 6 
#
# 1 0.038271 -0.010544 -0.007923 0.000000 0.000000 0.000000
# 2 -0.010544 0.020682 -0.007431 0.000000 0.000000 0.000000
# 3 -0.007923 -0.007431 0.013203 0.000000 0.000000 0.000000
# 4 0.000000 0.000000 0.000000 0.023566 0.000000 0.000000
# 5 0.000000 0.000000 0.000000 0.000000 -0.087018 0.000000
# 6 0.000000 0.000000 0.000000 0.000000 0.000000 0.040793
#
#
# Mechanical properties :
#
#
# Convention : Reuss Voigt Hill
#
# Bulk Modulus (GPa) = 49.11985 75.89949 62.50967
# Shear Modulus (GPa) = 46.26239 19.29055 32.77647
#
# Velocity S-wave (km/s) = 5.03703 3.25262 4.23977
# Velocity P-wave (km/s) = 7.79537 7.46536 7.63215
#
# Compressibility (1/GPa) = 0.02035837
#
# Stress axis : x y z
#
# Youngs Moduli (GPa) = 26.12970 48.35186 75.73813
#
# Poissons Ratio (x) = 0.50983 0.60011
# Poissons Ratio (y) = 0.27552 0.56281
# Poissons Ratio (z) = 0.20704 0.35931
#
# Static dielectric constant tensor:
#      x y z
#    x 3.111350 0.000000 0.000000 
#    y 0.000000 3.414960 0.000000 
#    z 0.000000 0.000000 3.613450 
# 
# 
# High freq. dielectric constant tensor:
#      x y z
#    x 1.681360 0.000000 0.000000 
#    y 0.000000 1.708620 0.000000 
#    z 0.000000 0.000000 1.722410 
# 
# From -- ./inp_files/2467.got.cif
#   From: 2010.03.12/outbox.cif.g09.slc.cpg/sg47_2_cif.got.tgz:2467.got - 2010.04.14 03:12:58.
