data_PCOD8199148
_publ_section_title
;
Structure prediction by ZEFSAII (Michael W. Deem and Ramdas Pophale) SiO2 
 PCOD8199148
Probable space group: P M M M
;
_chemical_formula_sum "Si O2"
_cell_formula_units_Z 48
_cell_length_a 9.471775
_cell_length_b 9.105533
_cell_length_c 31.459777
_cell_angle_alpha 90.000000
_cell_angle_beta 90.000000
_cell_angle_gamma 90.000000
_cell_volume 2713.266080
_symmetry_space_group_name_H-M "P M M M"
_symmetry_group_IT_number 47
_symmetry_cell_setting 'orthorhombic'
loop_
_space_group_symop_operation_xyz
x,y,z
-x,-y,z
x,-y,-z
-x,y,-z
-x,-y,-z
x,y,-z
-x,y,z
x,-y,z
loop_
_atom_site_type_symbol
_atom_site_label
_atom_site_fract_x
_atom_site_fract_y
_atom_site_fract_z
Si Si1 0.341583 0.674701 0.047143
Si Si2 0.840891 0.675006 0.124477
Si Si3 0.837320 0.325358 0.636736
Si Si4 0.832483 0.664480 0.544936
Si Si5 0.334754 0.830380 0.290365
Si Si6 0.663183 0.671197 0.795083
O O1 0.500000 0.731737 0.056753
O O2 0.341161 0.500000 0.049260
O O3 0.234713 0.739296 0.082275
O O4 0.293542 0.726559 0.000000
O O5 0.840607 0.500000 0.123062
O O6 0.755859 0.729669 0.165690
O O7 0.000000 0.736657 0.126282
O O8 0.816591 0.500000 0.639129
O O9 0.785002 0.264530 0.590000
O O10 0.743003 0.247346 0.671263
O O11 0.000000 0.283632 0.644977
O O12 0.785044 0.744298 0.500000
O O13 0.771705 0.500000 0.543295
O O14 0.000000 0.657329 0.546578
O O15 0.500000 0.805928 0.297174
O O16 0.285511 0.758449 0.246261
O O17 0.292761 0.000000 0.289303
O O18 0.500000 0.702840 0.805866
O O19 0.689190 0.500000 0.786366
#
# Coordination Sequence:
#
# PCOD8199148 Si02
#       6
#     8   8   8   8   8   8
#     4   8  13  21  33  50  76 112 148 176 206 251
#     4   9  16  24  36  57  83 109 139 178 221 261
#     4   9  17  29  48  74  98 120 150 188 229 273
#     4   7  10  19  38  65  94 119 144 179 222 264
#     4  10  21  35  49  66  90 121 156 192 231 276
#     4   9  17  30  47  63  81 110 147 184 223 268
#
# _framework density 17.690854999999999
#
# number of rings (size 3 to 8) (size 9 to 14) (size 15 to 20)
#    0.000    3.333    0.000    3.000    0.000    4.333 
#    0.000    3.333    0.000    1.000    0.000    5.833 
#    0.000    0.667    0.000    7.667    0.000    9.833 
#
# Total GULP energy -594652.603688 kJ/mol
# GULP energy per Si atom -12388.595910 kJ/mol
# Density = 1.765059 g / cm^3
# Si number density = 17.690855 Si / 1000 Ang^3
#
#
#
# Elastic Constant Matrix: (Units=GPa)
#
#
# Indices 1 2 3 4 5 6 
#
# 1 74.0355 19.5552 80.8840 0.0000 0.0000 0.0000
# 2 19.5552 26.7644 36.9649 0.0000 0.0000 0.0000
# 3 80.8840 36.9649 204.6139 0.0000 0.0000 0.0000
# 4 0.0000 0.0000 0.0000 -2.7054 0.0000 0.0000
# 5 0.0000 0.0000 0.0000 0.0000 28.1684 0.0000
# 6 0.0000 0.0000 0.0000 0.0000 0.0000 12.5005
#
#
#
# Elastic Compliance Matrix: (Units=1/GPa)
#
#
# Indices 1 2 3 4 5 6 
#
# 1 0.024482 -0.006025 -0.008590 0.000000 0.000000 0.000000
# 2 -0.006025 0.051268 -0.006880 0.000000 0.000000 0.000000
# 3 -0.008590 -0.006880 0.009526 0.000000 0.000000 0.000000
# 4 0.000000 0.000000 0.000000 -0.369634 0.000000 0.000000
# 5 0.000000 0.000000 0.000000 0.000000 0.035501 0.000000
# 6 0.000000 0.000000 0.000000 0.000000 0.000000 0.079997
#
#
# Mechanical properties :
#
#
# Convention : Reuss Voigt Hill
#
# Bulk Modulus (GPa) = 23.64815 64.46911 44.05863
# Shear Modulus (GPa) = -44.73232 18.79333 -12.96949
#
# Velocity S-wave (km/s) = -5.03393 3.26286 -2.71055
# Velocity P-wave (km/s) = 4.51562 7.12153 3.89393
#
# Compressibility (1/GPa) = 0.04228661
#
# Stress axis : x y z
#
# Youngs Moduli (GPa) = 40.84559 19.50551 104.97966
#
# Poissons Ratio (x) = 0.11752 0.90172
# Poissons Ratio (y) = 0.24609 0.72229
# Poissons Ratio (z) = 0.35084 0.13420
#
# Static dielectric constant tensor:
#      x y z
#    x 3.171500 0.000000 0.000000 
#    y 0.000000 2.733460 0.000000 
#    z 0.000000 0.000000 3.826260 
# 
# 
# High freq. dielectric constant tensor:
#      x y z
#    x 1.662100 0.000000 0.000000 
#    y 0.000000 1.619330 0.000000 
#    z 0.000000 0.000000 1.712090 
# 
# From -- ./inp_files/34027.got.cif
#   From: 2010.03.12/outbox.cif.g09.slc.cpg/sg47_18_cif.got.tgz:34027.got - 2010.04.14 03:12:58.
