data_PCOD8199766
_publ_section_title
;
Structure prediction by ZEFSAII (Michael W. Deem and Ramdas Pophale) SiO2 
 PCOD8199766
Probable space group: P M M M
;
_chemical_formula_sum "Si O2"
_cell_formula_units_Z 64
_cell_length_a 14.199723
_cell_length_b 25.804410
_cell_length_c 8.948234
_cell_angle_alpha 90.000000
_cell_angle_beta 90.000000
_cell_angle_gamma 90.000000
_cell_volume 3278.771404
_symmetry_space_group_name_H-M "P M M M"
_symmetry_group_IT_number 47
_symmetry_cell_setting 'orthorhombic'
loop_
_space_group_symop_operation_xyz
x,y,z
-x,-y,z
x,-y,-z
-x,y,-z
-x,-y,-z
x,y,-z
-x,y,z
x,-y,z
loop_
_atom_site_type_symbol
_atom_site_label
_atom_site_fract_x
_atom_site_fract_y
_atom_site_fract_z
Si Si1 0.889303 0.256954 0.674517
Si Si2 0.889849 0.847960 0.172480
Si Si3 0.392199 0.683807 0.324018
Si Si4 0.217352 0.352212 0.175923
Si Si5 0.890427 0.440658 0.670317
Si Si6 0.605242 0.888469 0.670597
Si Si7 0.790121 0.941988 0.671864
Si Si8 0.611582 0.787381 0.166633
O O1 0.866288 0.258298 0.500000
O O2 0.850730 0.202563 0.740633
O O3 0.838074 0.304492 0.752615
O O4 0.000000 0.262691 0.706821
O O5 0.844245 0.900932 0.228393
O O6 0.000000 0.853446 0.201755
O O7 0.865216 0.840191 0.000000
O O8 0.380524 0.678951 0.500000
O O9 0.500000 0.673036 0.274732
O O10 0.323538 0.643503 0.241473
O O11 0.356824 0.740552 0.272858
O O12 0.167069 0.405891 0.214780
O O13 0.221225 0.344768 0.000000
O O14 0.868669 0.423711 0.500000
O O15 0.860420 0.500000 0.695623
O O16 0.000000 0.433208 0.704518
O O17 0.601294 0.869206 0.500000
O O18 0.500000 0.905168 0.723321
O O19 0.676920 0.936053 0.690417
O O20 0.648658 0.841433 0.767475
O O21 0.819421 0.933312 0.500000
O O22 0.816614 0.000000 0.724348
O O23 0.500000 0.790201 0.163438
O O24 0.652659 0.779042 0.000000
#
# Coordination Sequence:
#
# PCOD8199766 Si02
#       8
#     8   8   8   8   8   8   8   8
#     4  10  21  38  60  85 115 150 187 229 278 337
#     4  10  22  40  60  81 107 139 176 224 284 344
#     4  10  21  37  56  78 109 152 200 244 285 334
#     4  12  24  35  55  88 124 160 194 236 290 343
#     4   9  19  38  63  89 120 160 204 247 288 334
#     4   9  18  33  53  76 104 139 177 218 267 327
#     4  10  22  38  56  79 105 137 180 228 276 332
#     4   9  17  30  49  74 104 137 175 221 275 333
#
# _framework density 19.519507000000001
#
# number of rings (size 3 to 8) (size 9 to 14) (size 15 to 20)
#    0.000    2.125    0.000    3.375    1.750    7.000 
#    0.000    3.125    0.000    0.375    0.000    5.250 
#    0.000    0.000    0.000    0.000    0.000    0.000 
#
# Total GULP energy -793663.717850 kJ/mol
# GULP energy per Si atom -12400.995591 kJ/mol
# Density = 1.947508 g / cm^3
# Si number density = 19.519507 Si / 1000 Ang^3
#
#
#
# Elastic Constant Matrix: (Units=GPa)
#
#
# Indices 1 2 3 4 5 6 
#
# 1 60.3324 52.3452 51.5509 0.0000 0.0000 0.0000
# 2 52.3452 106.3508 50.7525 0.0000 0.0000 0.0000
# 3 51.5509 50.7525 113.0339 0.0000 0.0000 0.0000
# 4 0.0000 0.0000 0.0000 22.6169 0.0000 0.0000
# 5 0.0000 0.0000 0.0000 0.0000 25.8263 0.0000
# 6 0.0000 0.0000 0.0000 0.0000 0.0000 29.4447
#
#
#
# Elastic Compliance Matrix: (Units=1/GPa)
#
#
# Indices 1 2 3 4 5 6 
#
# 1 0.037567 -0.013127 -0.011239 0.000000 0.000000 0.000000
# 2 -0.013127 0.016554 -0.001446 0.000000 0.000000 0.000000
# 3 -0.011239 -0.001446 0.014622 0.000000 0.000000 0.000000
# 4 0.000000 0.000000 0.000000 0.044215 0.000000 0.000000
# 5 0.000000 0.000000 0.000000 0.000000 0.038720 0.000000
# 6 0.000000 0.000000 0.000000 0.000000 0.000000 0.033962
#
#
# Mechanical properties :
#
#
# Convention : Reuss Voigt Hill
#
# Bulk Modulus (GPa) = 58.41462 65.44604 61.93033
# Shear Modulus (GPa) = 20.57869 23.91547 22.24708
#
# Velocity S-wave (km/s) = 3.25046 3.50410 3.37966
# Velocity P-wave (km/s) = 6.63917 7.06915 6.85753
#
# Compressibility (1/GPa) = 0.01711900
#
# Stress axis : x y z
#
# Youngs Moduli (GPa) = 26.61914 60.40906 68.39030
#
# Poissons Ratio (x) = 0.79297 0.76865
# Poissons Ratio (y) = 0.34942 0.09890
# Poissons Ratio (z) = 0.29917 0.08735
#
# Static dielectric constant tensor:
#      x y z
#    x 3.679350 0.000000 0.000000 
#    y 0.000000 3.445420 0.000000 
#    z 0.000000 0.000000 3.614300 
# 
# 
# High freq. dielectric constant tensor:
#      x y z
#    x 1.765230 0.000000 0.000000 
#    y 0.000000 1.742640 0.000000 
#    z 0.000000 0.000000 1.762440 
# 
# From -- ./inp_files/7901.got.cif
#   From: 2010.03.12/outbox.cif.g09.slc.cpg/sg47_4_cif.got.tgz:7901.got - 2010.04.14 03:12:58.
