data_PCOD8199643
_publ_section_title
;
Structure prediction by ZEFSAII (Michael W. Deem and Ramdas Pophale) SiO2 
 PCOD8199643
Probable space group: P M M M
;
_chemical_formula_sum "Si O2"
_cell_formula_units_Z 40
_cell_length_a 13.251986
_cell_length_b 9.839124
_cell_length_c 14.817143
_cell_angle_alpha 90.000000
_cell_angle_beta 90.000000
_cell_angle_gamma 90.000000
_cell_volume 1931.976656
_symmetry_space_group_name_H-M "P M M M"
_symmetry_group_IT_number 47
_symmetry_cell_setting 'orthorhombic'
loop_
_space_group_symop_operation_xyz
x,y,z
-x,-y,z
x,-y,-z
-x,y,-z
-x,-y,-z
x,y,-z
-x,y,z
x,-y,z
loop_
_atom_site_type_symbol
_atom_site_label
_atom_site_fract_x
_atom_site_fract_y
_atom_site_fract_z
Si Si1 0.617472 0.000000 0.099735
Si Si2 0.615380 0.251672 0.777562
Si Si3 0.812046 0.351692 0.844649
Si Si4 0.113499 0.654718 0.348329
Si Si5 0.290258 0.843801 0.600334
Si Si6 0.118311 0.161122 0.000000
O O1 0.647777 0.129019 0.157830
O O2 0.500000 0.000000 0.082769
O O3 0.670924 0.000000 0.000000
O O4 0.500000 0.300521 0.792231
O O5 0.696084 0.363914 0.808134
O O6 0.628854 0.211374 0.672640
O O7 0.836691 0.500000 0.887829
O O8 0.883212 0.323262 0.759339
O O9 0.830237 0.229524 0.913480
O O10 0.145037 0.500000 0.372696
O O11 0.186995 0.758957 0.397864
O O12 0.000000 0.684352 0.381413
O O13 0.337646 0.829674 0.500000
O O14 0.264229 0.000000 0.622244
O O15 0.000000 0.193308 0.000000
O O16 0.139053 0.000000 0.000000
#
# Coordination Sequence:
#
# PCOD8199643 Si02
#       6
#     4   8   8   8   8   4
#     4   9  18  32  53  81 109 146 190 236 289 340
#     4  10  21  37  58  84 117 156 198 243 294 350
#     4  10  22  38  59  86 117 156 197 244 299 353
#     4   9  19  37  59  81 109 149 195 242 296 359
#     4  10  21  36  55  83 117 152 194 244 298 359
#     4  11  25  41  60  89 122 158 200 244 292 351
#
# _framework density 20.704183
#
# number of rings (size 3 to 8) (size 9 to 14) (size 15 to 20)
#    0.000    2.200    1.000    0.900    2.800    4.400 
#    0.000    3.000    0.000    1.200    0.000    5.600 
#    0.000    0.000    0.000    0.000    0.000    0.000 
#
# Total GULP energy -495778.750724 kJ/mol
# GULP energy per Si atom -12394.468768 kJ/mol
# Density = 2.065706 g / cm^3
# Si number density = 20.704183 Si / 1000 Ang^3
#
#
#
# Elastic Constant Matrix: (Units=GPa)
#
#
# Indices 1 2 3 4 5 6 
#
# 1 99.5411 17.9821 17.8819 0.0000 0.0000 0.0000
# 2 17.9821 85.9765 31.6181 0.0000 0.0000 0.0000
# 3 17.8819 31.6181 111.3409 0.0000 0.0000 0.0000
# 4 0.0000 0.0000 0.0000 23.6498 0.0000 0.0000
# 5 0.0000 0.0000 0.0000 0.0000 19.9403 0.0000
# 6 0.0000 0.0000 0.0000 0.0000 0.0000 15.6227
#
#
#
# Elastic Compliance Matrix: (Units=1/GPa)
#
#
# Indices 1 2 3 4 5 6 
#
# 1 0.010581 -0.001773 -0.001196 0.000000 0.000000 0.000000
# 2 -0.001773 0.013285 -0.003488 0.000000 0.000000 0.000000
# 3 -0.001196 -0.003488 0.010164 0.000000 0.000000 0.000000
# 4 0.000000 0.000000 0.000000 0.042284 0.000000 0.000000
# 5 0.000000 0.000000 0.000000 0.000000 0.050150 0.000000
# 6 0.000000 0.000000 0.000000 0.000000 0.000000 0.064009
#
#
# Mechanical properties :
#
#
# Convention : Reuss Voigt Hill
#
# Bulk Modulus (GPa) = 47.35728 47.98031 47.66879
# Shear Modulus (GPa) = 23.76146 27.13432 25.44789
#
# Velocity S-wave (km/s) = 3.39140 3.62411 3.50968
# Velocity P-wave (km/s) = 6.18533 6.38253 6.28471
#
# Compressibility (1/GPa) = 0.02111608
#
# Stress axis : x y z
#
# Youngs Moduli (GPa) = 94.50652 75.27517 98.38744
#
# Poissons Ratio (x) = 0.13349 0.11765
# Poissons Ratio (y) = 0.16759 0.34315
# Poissons Ratio (z) = 0.11301 0.26254
#
# Static dielectric constant tensor:
#      x y z
#    x 3.611530 0.000000 0.000000 
#    y 0.000000 3.662560 0.000000 
#    z 0.000000 0.000000 3.790040 
# 
# 
# High freq. dielectric constant tensor:
#      x y z
#    x 1.806120 0.000000 0.000000 
#    y 0.000000 1.805180 0.000000 
#    z 0.000000 0.000000 1.813620 
# 
# From -- ./inp_files/20682.got.cif
#   From: 2010.03.12/outbox.cif.g09.slc.cpg/sg47_11_cif.got.tgz:20682.got - 2010.04.14 03:12:58.
