data_PCOD8199247
_publ_section_title
;
Structure prediction by ZEFSAII (Michael W. Deem and Ramdas Pophale) SiO2 
 PCOD8199247
Probable space group: P M M M
;
_chemical_formula_sum "Si O2"
_cell_formula_units_Z 52
_cell_length_a 22.278142
_cell_length_b 14.171097
_cell_length_c 9.257913
_cell_angle_alpha 90.000000
_cell_angle_beta 90.000000
_cell_angle_gamma 90.000000
_cell_volume 2922.776008
_symmetry_space_group_name_H-M "P M M M"
_symmetry_group_IT_number 47
_symmetry_cell_setting 'orthorhombic'
loop_
_space_group_symop_operation_xyz
x,y,z
-x,-y,z
x,-y,-z
-x,y,-z
-x,-y,-z
x,y,-z
-x,y,z
x,-y,z
loop_
_atom_site_type_symbol
_atom_site_label
_atom_site_fract_x
_atom_site_fract_y
_atom_site_fract_z
Si Si1 0.388980 0.891921 0.170079
Si Si2 0.664653 0.610821 0.836959
Si Si3 0.159096 0.771775 0.658756
Si Si4 0.070334 0.888653 0.500000
Si Si5 0.800990 0.606004 0.170154
Si Si6 0.729734 0.891120 0.666398
Si Si7 0.566534 0.274630 0.666441
O O1 0.324173 0.860334 0.229662
O O2 0.436493 0.825123 0.249305
O O3 0.403552 0.000000 0.210560
O O4 0.391099 0.875595 0.000000
O O5 0.653809 0.500000 0.832678
O O6 0.732674 0.633232 0.785520
O O7 0.616754 0.657466 0.731527
O O8 0.654634 0.648704 0.000000
O O9 0.177608 0.734361 0.500000
O O10 0.099121 0.837476 0.642505
O O11 0.151789 0.679649 0.759378
O O12 0.212091 0.835976 0.722238
O O13 0.000000 0.870901 0.500000
O O14 0.086144 0.000000 0.500000
O O15 0.816093 0.500000 0.224034
O O16 0.808495 0.611068 0.000000
O O17 0.713275 0.868561 0.500000
O O18 0.745056 0.000000 0.686082
O O19 0.582509 0.256231 0.500000
O O20 0.500000 0.320251 0.681763
#
# Coordination Sequence:
#
# PCOD8199247 Si02
#       7
#     8   8   8   4   8   8   8
#     4  10  21  35  51  72  97 127 164 209 265 323
#     4   9  19  36  57  79 103 132 165 205 258 316
#     4   9  18  28  49  80 104 137 180 215 248 297
#     4   9  18  34  55  79 111 149 183 216 254 292
#     4   9  18  33  52  77 110 140 167 210 268 320
#     4   9  16  28  47  72 103 130 157 202 259 318
#     4  11  24  38  51  69  95 129 171 215 259 310
#
# _framework density 17.791305000000001
#
# number of rings (size 3 to 8) (size 9 to 14) (size 15 to 20)
#    0.462    2.077    0.000    3.231    0.000    7.077 
#    0.000    4.615    0.000    2.769    0.000    2.154 
#    0.000    0.000    0.000    0.000    0.000    0.000 
#
# Total GULP energy -644475.770080 kJ/mol
# GULP energy per Si atom -12393.764809 kJ/mol
# Density = 1.775081 g / cm^3
# Si number density = 17.791305 Si / 1000 Ang^3
#
#
#
# Elastic Constant Matrix: (Units=GPa)
#
#
# Indices 1 2 3 4 5 6 
#
# 1 79.1374 52.6832 33.3809 0.0000 0.0000 0.0000
# 2 52.6832 87.0583 35.1790 0.0000 0.0000 0.0000
# 3 33.3809 35.1790 66.1703 0.0000 0.0000 0.0000
# 4 0.0000 0.0000 0.0000 33.1830 0.0000 0.0000
# 5 0.0000 0.0000 0.0000 0.0000 12.5945 0.0000
# 6 0.0000 0.0000 0.0000 0.0000 0.0000 22.3840
#
#
#
# Elastic Compliance Matrix: (Units=1/GPa)
#
#
# Indices 1 2 3 4 5 6 
#
# 1 0.022501 -0.011500 -0.005237 0.000000 0.000000 0.000000
# 2 -0.011500 0.020507 -0.005101 0.000000 0.000000 0.000000
# 3 -0.005237 -0.005101 0.020466 0.000000 0.000000 0.000000
# 4 0.000000 0.000000 0.000000 0.030136 0.000000 0.000000
# 5 0.000000 0.000000 0.000000 0.000000 0.079399 0.000000
# 6 0.000000 0.000000 0.000000 0.000000 0.000000 0.044675
#
#
# Mechanical properties :
#
#
# Convention : Reuss Voigt Hill
#
# Bulk Modulus (GPa) = 50.51012 52.76135 51.63574
# Shear Modulus (GPa) = 18.65942 21.04051 19.84997
#
# Velocity S-wave (km/s) = 3.24202 3.44267 3.34385
# Velocity P-wave (km/s) = 6.51661 6.74705 6.63283
#
# Compressibility (1/GPa) = 0.01979801
#
# Stress axis : x y z
#
# Youngs Moduli (GPa) = 44.44185 48.76343 48.86067
#
# Poissons Ratio (x) = 0.56080 0.25589
# Poissons Ratio (y) = 0.51110 0.24923
# Poissons Ratio (z) = 0.23275 0.24874
#
# Static dielectric constant tensor:
#      x y z
#    x 3.024040 0.000000 0.000000 
#    y 0.000000 3.398530 0.000000 
#    z 0.000000 0.000000 3.160600 
# 
# 
# High freq. dielectric constant tensor:
#      x y z
#    x 1.656850 0.000000 0.000000 
#    y 0.000000 1.699210 0.000000 
#    z 0.000000 0.000000 1.676540 
# 
# From -- ./inp_files/12470.got.cif
#   From: 2010.03.12/outbox.cif.g09.slc.cpg/sg47_7_cif.got.tgz:12470.got - 2010.04.14 03:12:58.
