data_PCOD8199318
_publ_section_title
;
Structure prediction by ZEFSAII (Michael W. Deem and Ramdas Pophale) SiO2 
 PCOD8199318
Probable space group: P M M M
;
_chemical_formula_sum "Si O2"
_cell_formula_units_Z 48
_cell_length_a 8.973945
_cell_length_b 29.580236
_cell_length_c 10.111494
_cell_angle_alpha 90.000000
_cell_angle_beta 90.000000
_cell_angle_gamma 90.000000
_cell_volume 2684.110349
_symmetry_space_group_name_H-M "P M M M"
_symmetry_group_IT_number 47
_symmetry_cell_setting 'orthorhombic'
loop_
_space_group_symop_operation_xyz
x,y,z
-x,-y,z
x,-y,-z
-x,y,-z
-x,-y,-z
x,y,-z
-x,y,z
x,-y,z
loop_
_atom_site_type_symbol
_atom_site_label
_atom_site_fract_x
_atom_site_fract_y
_atom_site_fract_z
Si Si1 0.675753 0.645839 0.845099
Si Si2 0.330381 0.807482 0.651425
Si Si3 0.831398 0.053449 0.500000
Si Si4 0.323304 0.452316 0.850562
Si Si5 0.324973 0.095504 0.250996
Si Si6 0.823519 0.947882 0.000000
Si Si7 0.175453 0.716396 0.650731
O O1 0.500000 0.651764 0.826988
O O2 0.730170 0.595921 0.791664
O O3 0.757097 0.681447 0.753556
O O4 0.718183 0.652410 0.000000
O O5 0.301376 0.821797 0.500000
O O6 0.500000 0.791374 0.671427
O O7 0.294217 0.850846 0.740774
O O8 0.224687 0.766458 0.694722
O O9 0.742211 0.069713 0.625965
O O10 0.000000 0.073022 0.500000
O O11 0.837007 0.000000 0.500000
O O12 0.500000 0.451401 0.849292
O O13 0.268669 0.500000 0.780345
O O14 0.265326 0.453990 0.000000
O O15 0.500000 0.085340 0.243469
O O16 0.242226 0.077212 0.124645
O O17 0.000000 0.943459 0.000000
O O18 0.773482 0.000000 0.000000
O O19 0.230541 0.706582 0.500000
O O20 0.000000 0.713123 0.659565
#
# Coordination Sequence:
#
# PCOD8199318 Si02
#       7
#     8   8   4   8   8   4   8
#     4   9  17  30  50  77 105 134 170 214 265 314
#     4   9  18  36  59  82 106 132 169 219 269 314
#     4  11  23  37  57  87 119 149 179 217 266 317
#     4   7  10  19  39  68  99 128 162 208 259 308
#     4  11  22  39  62  87 111 141 183 228 270 315
#     4  11  25  43  59  81 117 155 185 215 262 323
#     4  10  21  35  52  75 102 137 178 215 256 311
#
# _framework density 17.883020999999999
#
# number of rings (size 3 to 8) (size 9 to 14) (size 15 to 20)
#    0.000    2.500    0.833    3.500    0.000    6.000 
#    1.500    0.000    0.000    1.000    0.000    5.833 
#    0.000    0.000    0.000    0.000    0.000    0.000 
#
# Total GULP energy -594760.422120 kJ/mol
# GULP energy per Si atom -12390.842128 kJ/mol
# Density = 1.784232 g / cm^3
# Si number density = 17.883021 Si / 1000 Ang^3
#
#
#
# Elastic Constant Matrix: (Units=GPa)
#
#
# Indices 1 2 3 4 5 6 
#
# 1 61.1293 56.2806 43.0335 0.0000 0.0000 0.0000
# 2 56.2806 150.1724 71.4375 0.0000 0.0000 0.0000
# 3 43.0335 71.4375 100.3390 0.0000 0.0000 0.0000
# 4 0.0000 0.0000 0.0000 27.9930 0.0000 0.0000
# 5 0.0000 0.0000 0.0000 0.0000 45.3497 0.0000
# 6 0.0000 0.0000 0.0000 0.0000 0.0000 -11.1589
#
#
#
# Elastic Compliance Matrix: (Units=1/GPa)
#
#
# Indices 1 2 3 4 5 6 
#
# 1 0.027738 -0.007162 -0.006797 0.000000 0.000000 0.000000
# 2 -0.007162 0.011919 -0.005414 0.000000 0.000000 0.000000
# 3 -0.006797 -0.005414 0.016736 0.000000 0.000000 0.000000
# 4 0.000000 0.000000 0.000000 0.035723 0.000000 0.000000
# 5 0.000000 0.000000 0.000000 0.000000 0.022051 0.000000
# 6 0.000000 0.000000 0.000000 0.000000 0.000000 -0.089614
#
#
# Mechanical properties :
#
#
# Convention : Reuss Voigt Hill
#
# Bulk Modulus (GPa) = 56.66979 72.57155 64.62067
# Shear Modulus (GPa) = 72.27543 21.82935 47.05239
#
# Velocity S-wave (km/s) = 6.36423 3.49761 5.13501
# Velocity P-wave (km/s) = 9.26080 7.54853 8.44816
#
# Compressibility (1/GPa) = 0.01764609
#
# Stress axis : x y z
#
# Youngs Moduli (GPa) = 36.05220 83.90303 59.75189
#
# Poissons Ratio (x) = 0.60090 0.40614
# Poissons Ratio (y) = 0.25820 0.32349
# Poissons Ratio (z) = 0.24505 0.45425
#
# Static dielectric constant tensor:
#      x y z
#    x 3.237440 0.000000 0.000000 
#    y 0.000000 3.721040 0.000000 
#    z 0.000000 0.000000 3.078830 
# 
# 
# High freq. dielectric constant tensor:
#      x y z
#    x 1.680050 0.000000 0.000000 
#    y 0.000000 1.713940 0.000000 
#    z 0.000000 0.000000 1.665120 
# 
# From -- ./inp_files/2739.got.cif
#   From: 2010.03.12/outbox.cif.g09.slc.cpg/sg47_2_cif.got.tgz:2739.got - 2010.04.14 03:12:58.
