data_PCOD8199560
_publ_section_title
;
Structure prediction by ZEFSAII (Michael W. Deem and Ramdas Pophale) SiO2 
 PCOD8199560
Probable space group: P M M M
;
_chemical_formula_sum "Si O2"
_cell_formula_units_Z 48
_cell_length_a 9.288605
_cell_length_b 17.482734
_cell_length_c 14.526371
_cell_angle_alpha 90.000000
_cell_angle_beta 90.000000
_cell_angle_gamma 90.000000
_cell_volume 2358.940444
_symmetry_space_group_name_H-M "P M M M"
_symmetry_group_IT_number 47
_symmetry_cell_setting 'orthorhombic'
loop_
_space_group_symop_operation_xyz
x,y,z
-x,-y,z
x,-y,-z
-x,y,-z
-x,-y,-z
x,y,-z
-x,y,z
x,-y,z
loop_
_atom_site_type_symbol
_atom_site_label
_atom_site_fract_x
_atom_site_fract_y
_atom_site_fract_z
Si Si1 0.166371 0.809406 0.108159
Si Si2 0.666570 0.087446 0.241267
Si Si3 0.333868 0.207019 0.605180
Si Si4 0.162614 0.645668 0.390411
Si Si5 0.662502 0.500000 0.609712
Si Si6 0.329036 0.500000 0.899401
Si Si7 0.338734 0.663606 0.110029
O O1 0.240840 0.881046 0.156670
O O2 0.234184 0.730163 0.145749
O O3 0.000000 0.808370 0.133953
O O4 0.192981 0.818701 0.000000
O O5 0.500000 0.095677 0.214096
O O6 0.701873 0.132500 0.334982
O O7 0.710113 0.000000 0.258700
O O8 0.294034 0.186956 0.500000
O O9 0.500000 0.231714 0.613416
O O10 0.238588 0.276773 0.643797
O O11 0.161888 0.643386 0.500000
O O12 0.253616 0.574085 0.352519
O O13 0.000000 0.642056 0.351852
O O14 0.500000 0.500000 0.650018
O O15 0.657050 0.500000 0.500000
O O16 0.500000 0.500000 0.910814
O O17 0.285957 0.419598 0.849383
O O18 0.255754 0.500000 0.000000
O O19 0.500000 0.683329 0.144302
O O20 0.336533 0.657904 0.000000
#
# Coordination Sequence:
#
# PCOD8199560 Si02
#       7
#     8   8   8   8   4   4   8
#     4  10  21  36  54  78 109 144 180 219 266 316
#     4  10  22  39  59  83 107 134 172 216 264 321
#     4   9  18  34  56  81 109 139 171 212 265 322
#     4   9  16  26  43  70 104 141 180 219 260 309
#     4   9  15  23  39  66 101 140 182 225 265 306
#     4   7  10  18  37  68 101 132 170 213 253 296
#     4   8  13  24  45  72 102 137 176 216 258 306
#
# _framework density 20.348119000000001
#
# number of rings (size 3 to 8) (size 9 to 14) (size 15 to 20)
#    0.000    3.000    0.000    2.250    0.000    5.667 
#    0.000    3.750    0.000    3.500    0.000    5.833 
#    0.000    0.000    0.000    0.000    0.000    0.000 
#
# Total GULP energy -595024.672196 kJ/mol
# GULP energy per Si atom -12396.347337 kJ/mol
# Density = 2.030181 g / cm^3
# Si number density = 20.348119 Si / 1000 Ang^3
#
#
#
# Elastic Constant Matrix: (Units=GPa)
#
#
# Indices 1 2 3 4 5 6 
#
# 1 129.9993 98.5301 38.1574 0.0000 0.0000 0.0000
# 2 98.5301 207.6435 44.2805 0.0000 0.0000 0.0000
# 3 38.1574 44.2805 43.8682 0.0000 0.0000 0.0000
# 4 0.0000 0.0000 0.0000 -47.7511 0.0000 0.0000
# 5 0.0000 0.0000 0.0000 0.0000 16.4681 0.0000
# 6 0.0000 0.0000 0.0000 0.0000 0.0000 10.6288
#
#
#
# Elastic Compliance Matrix: (Units=1/GPa)
#
#
# Indices 1 2 3 4 5 6 
#
# 1 0.013386 -0.004930 -0.006667 0.000000 0.000000 0.000000
# 2 -0.004930 0.007953 -0.003739 0.000000 0.000000 0.000000
# 3 -0.006667 -0.003739 0.032369 0.000000 0.000000 0.000000
# 4 0.000000 0.000000 0.000000 -0.020942 0.000000 0.000000
# 5 0.000000 0.000000 0.000000 0.000000 0.060723 0.000000
# 6 0.000000 0.000000 0.000000 0.000000 0.000000 0.094084
#
#
# Mechanical properties :
#
#
# Convention : Reuss Voigt Hill
#
# Bulk Modulus (GPa) = 43.41191 82.60524 63.00857
# Shear Modulus (GPa) = 22.13139 9.23870 15.68505
#
# Velocity S-wave (km/s) = 3.30151 2.13311 2.77940
# Velocity P-wave (km/s) = 5.99285 6.83747 6.42905
#
# Compressibility (1/GPa) = 0.02303516
#
# Stress axis : x y z
#
# Youngs Moduli (GPa) = 74.70581 125.74275 30.89393
#
# Poissons Ratio (x) = 0.61992 0.20596
# Poissons Ratio (y) = 0.36831 0.11552
# Poissons Ratio (z) = 0.49805 0.47018
#
# Static dielectric constant tensor:
#      x y z
#    x 3.648710 0.000000 0.000000 
#    y 0.000000 3.916890 0.000000 
#    z 0.000000 0.000000 3.333560 
# 
# 
# High freq. dielectric constant tensor:
#      x y z
#    x 1.779980 0.000000 0.000000 
#    y 0.000000 1.800070 0.000000 
#    z 0.000000 0.000000 1.772350 
# 
# From -- ./inp_files/26479.got.cif
#   From: 2010.03.12/outbox.cif.g09.slc.cpg/sg47_14_cif.got.tgz:26479.got - 2010.04.14 03:12:58.
