data_PCOD8199302
_publ_section_title
;
Structure prediction by ZEFSAII (Michael W. Deem and Ramdas Pophale) SiO2 
 PCOD8199302
Probable space group: P M M M
;
_chemical_formula_sum "Si O2"
_cell_formula_units_Z 64
_cell_length_a 40.591678
_cell_length_b 9.107665
_cell_length_c 9.706973
_cell_angle_alpha 90.000000
_cell_angle_beta 90.000000
_cell_angle_gamma 90.000000
_cell_volume 3588.623315
_symmetry_space_group_name_H-M "P M M M"
_symmetry_group_IT_number 47
_symmetry_cell_setting 'orthorhombic'
loop_
_space_group_symop_operation_xyz
x,y,z
-x,-y,z
x,-y,-z
-x,y,-z
-x,-y,-z
x,y,-z
-x,y,z
x,-y,z
loop_
_atom_site_type_symbol
_atom_site_label
_atom_site_fract_x
_atom_site_fract_y
_atom_site_fract_z
Si Si1 0.904777 0.670597 0.159247
Si Si2 0.283406 0.830597 0.658723
Si Si3 0.161987 0.828200 0.159926
Si Si4 0.783493 0.671229 0.340161
Si Si5 0.344319 0.828703 0.841619
Si Si6 0.036368 0.325552 0.345305
Si Si7 0.589712 0.671914 0.158040
Si Si8 0.538092 0.831765 0.341530
O O1 0.898330 0.500000 0.192879
O O2 0.872786 0.760261 0.205310
O O3 0.935785 0.735972 0.243112
O O4 0.913002 0.695105 0.000000
O O5 0.293305 0.808746 0.500000
O O6 0.252237 0.732741 0.699279
O O7 0.313667 0.774553 0.750829
O O8 0.274826 0.000000 0.690584
O O9 0.190067 0.754335 0.249236
O O10 0.161251 0.000000 0.190970
O O11 0.169085 0.794775 0.000000
O O12 0.791344 0.701600 0.500000
O O13 0.784466 0.500000 0.304992
O O14 0.376745 0.745961 0.788547
O O15 0.350740 0.000000 0.819986
O O16 0.336542 0.789993 0.000000
O O17 0.044479 0.272265 0.500000
O O18 0.036313 0.500000 0.338807
O O19 0.000000 0.267813 0.301110
O O20 0.593693 0.500000 0.177014
O O21 0.559060 0.725430 0.246542
O O22 0.583116 0.716132 0.000000
O O23 0.546931 0.800676 0.500000
O O24 0.500000 0.796919 0.313475
O O25 0.546034 0.000000 0.304090
#
# Coordination Sequence:
#
# PCOD8199302 Si02
#       8
#     8   8   8   8   8   8   8   8
#     4   9  17  29  46  69  96 124 157 200 246 291
#     4   9  18  33  52  74 101 132 166 205 248 294
#     4  10  21  36  53  73  99 132 169 208 250 298
#     4  10  21  36  54  77 104 133 166 205 249 298
#     4   9  18  33  52  73  99 133 172 210 246 289
#     4   8  14  25  42  66  95 124 155 194 240 289
#     4  10  21  35  51  75 107 139 171 209 253 301
#     4   9  19  36  56  77 101 131 170 214 257 304
#
# _framework density 17.834136999999998
#
# number of rings (size 3 to 8) (size 9 to 14) (size 15 to 20)
#    0.000    2.750    0.000    1.875    0.000    5.250 
#    0.000    6.875    0.000    0.375    0.000    2.625 
#    0.000    0.000    0.000    0.000    0.000    0.000 
#
# Total GULP energy -793681.899167 kJ/mol
# GULP energy per Si atom -12401.279674 kJ/mol
# Density = 1.779355 g / cm^3
# Si number density = 17.834137 Si / 1000 Ang^3
#
#
#
# Elastic Constant Matrix: (Units=GPa)
#
#
# Indices 1 2 3 4 5 6 
#
# 1 150.1324 62.5596 82.2515 0.0000 0.0000 0.0000
# 2 62.5596 68.5673 43.2221 0.0000 0.0000 0.0000
# 3 82.2515 43.2221 78.8959 0.0000 0.0000 0.0000
# 4 0.0000 0.0000 0.0000 23.3394 0.0000 0.0000
# 5 0.0000 0.0000 0.0000 0.0000 31.2350 0.0000
# 6 0.0000 0.0000 0.0000 0.0000 0.0000 36.7558
#
#
#
# Elastic Compliance Matrix: (Units=1/GPa)
#
#
# Indices 1 2 3 4 5 6 
#
# 1 0.017373 -0.006773 -0.014402 0.000000 0.000000 0.000000
# 2 -0.006773 0.024918 -0.006590 0.000000 0.000000 0.000000
# 3 -0.014402 -0.006590 0.031299 0.000000 0.000000 0.000000
# 4 0.000000 0.000000 0.000000 0.042846 0.000000 0.000000
# 5 0.000000 0.000000 0.000000 0.000000 0.032015 0.000000
# 6 0.000000 0.000000 0.000000 0.000000 0.000000 0.027207
#
#
# Mechanical properties :
#
#
# Convention : Reuss Voigt Hill
#
# Bulk Modulus (GPa) = 55.36708 74.85133 65.10920
# Shear Modulus (GPa) = 21.07865 25.57019 23.32442
#
# Velocity S-wave (km/s) = 3.44165 3.79063 3.62035
# Velocity P-wave (km/s) = 6.84881 7.82435 7.35278
#
# Compressibility (1/GPa) = 0.01806128
#
# Stress axis : x y z
#
# Youngs Moduli (GPa) = 57.56082 40.13235 31.94954
#
# Poissons Ratio (x) = 0.27180 0.46012
# Poissons Ratio (y) = 0.38984 0.21055
# Poissons Ratio (z) = 0.82897 0.26448
#
# Static dielectric constant tensor:
#      x y z
#    x 3.459890 0.000000 0.000000 
#    y 0.000000 3.176230 0.000000 
#    z 0.000000 0.000000 3.336130 
# 
# 
# High freq. dielectric constant tensor:
#      x y z
#    x 1.698630 0.000000 0.000000 
#    y 0.000000 1.676710 0.000000 
#    z 0.000000 0.000000 1.687830 
# 
# From -- ./inp_files/20107.got.cif
#   From: 2010.03.12/outbox.cif.g09.slc.cpg/sg47_11_cif.got.tgz:20107.got - 2010.04.14 03:12:58.
