data_PCOD8199889
_publ_section_title
;
Structure prediction by ZEFSAII (Michael W. Deem and Ramdas Pophale) SiO2 
 PCOD8199889
Probable space group: P M M M
;
_chemical_formula_sum "Si O2"
_cell_formula_units_Z 64
_cell_length_a 9.174806
_cell_length_b 28.907184
_cell_length_c 14.272013
_cell_angle_alpha 90.000000
_cell_angle_beta 90.000000
_cell_angle_gamma 90.000000
_cell_volume 3785.191964
_symmetry_space_group_name_H-M "P M M M"
_symmetry_group_IT_number 47
_symmetry_cell_setting 'orthorhombic'
loop_
_space_group_symop_operation_xyz
x,y,z
-x,-y,z
x,-y,-z
-x,y,-z
-x,-y,-z
x,y,-z
-x,y,z
x,-y,z
loop_
_atom_site_type_symbol
_atom_site_label
_atom_site_fract_x
_atom_site_fract_y
_atom_site_fract_z
Si Si1 0.837397 0.451094 0.388976
Si Si2 0.174121 0.648789 0.392788
Si Si3 0.667057 0.947357 0.225494
Si Si4 0.836461 0.194002 0.389783
Si Si5 0.166074 0.128185 0.110320
Si Si6 0.331654 0.728806 0.286886
Si Si7 0.167660 0.911632 0.606688
Si Si8 0.332133 0.219857 0.105665
O O1 0.847263 0.449692 0.500000
O O2 0.757959 0.500000 0.357739
O O3 0.764474 0.402071 0.359536
O O4 0.000000 0.452563 0.347085
O O5 0.222177 0.660111 0.500000
O O6 0.239244 0.685282 0.320818
O O7 0.000000 0.649598 0.386411
O O8 0.500000 0.931402 0.227548
O O9 0.754356 0.915379 0.154577
O O10 0.732110 0.943948 0.329876
O O11 0.681972 0.000000 0.190612
O O12 0.814676 0.198691 0.500000
O O13 0.716276 0.225013 0.340118
O O14 0.813344 0.141142 0.358464
O O15 0.000000 0.210492 0.362746
O O16 0.237609 0.176539 0.141245
O O17 0.000000 0.128742 0.145504
O O18 0.178366 0.122150 0.000000
O O19 0.500000 0.719343 0.309196
O O20 0.305022 0.736991 0.175674
O O21 0.220231 0.917159 0.500000
O O22 0.000000 0.926906 0.616264
O O23 0.500000 0.204199 0.109329
O O24 0.287940 0.235068 0.000000
#
# Coordination Sequence:
#
# PCOD8199889 Si02
#       8
#     8   8   8   8   8   8   8   8
#     4   7  10  19  37  59  81 110 154 200 230 258
#     4   9  17  28  42  62  91 127 160 189 227 271
#     4  11  24  38  52  73 100 128 155 183 220 269
#     4   9  18  32  48  66  90 120 151 181 216 261
#     4  10  21  37  58  81  99 116 144 185 231 277
#     4  11  21  29  42  66  93 121 152 186 224 265
#     4   9  19  36  56  75  94 120 156 196 234 269
#     4   9  19  36  54  70  91 120 152 185 225 275
#
# _framework density 16.907993000000001
#
# number of rings (size 3 to 8) (size 9 to 14) (size 15 to 20)
#    0.000    2.625    0.000    4.125    0.000    8.000 
#    0.000    3.750    0.000    0.375    0.000    1.750 
#    0.000    0.500    0.000    6.250    0.000    0.250 
#
# Total GULP energy -793203.804675 kJ/mol
# GULP energy per Si atom -12393.809448 kJ/mol
# Density = 1.686951 g / cm^3
# Si number density = 16.907993 Si / 1000 Ang^3
#
#
#
# Elastic Constant Matrix: (Units=GPa)
#
#
# Indices 1 2 3 4 5 6 
#
# 1 70.5345 45.2871 30.3595 0.0000 0.0000 0.0000
# 2 45.2871 101.9579 46.2617 0.0000 0.0000 0.0000
# 3 30.3595 46.2617 47.7715 0.0000 0.0000 0.0000
# 4 0.0000 0.0000 0.0000 16.1225 0.0000 0.0000
# 5 0.0000 0.0000 0.0000 0.0000 22.8008 0.0000
# 6 0.0000 0.0000 0.0000 0.0000 0.0000 9.1495
#
#
#
# Elastic Compliance Matrix: (Units=1/GPa)
#
#
# Indices 1 2 3 4 5 6 
#
# 1 0.021356 -0.005936 -0.007824 0.000000 0.000000 0.000000
# 2 -0.005936 0.019145 -0.014768 0.000000 0.000000 0.000000
# 3 -0.007824 -0.014768 0.040206 0.000000 0.000000 0.000000
# 4 0.000000 0.000000 0.000000 0.062025 0.000000 0.000000
# 5 0.000000 0.000000 0.000000 0.000000 0.043858 0.000000
# 6 0.000000 0.000000 0.000000 0.000000 0.000000 0.109296
#
#
# Mechanical properties :
#
#
# Convention : Reuss Voigt Hill
#
# Bulk Modulus (GPa) = 42.27885 51.56449 46.92167
# Shear Modulus (GPa) = 13.85713 16.17161 15.01437
#
# Velocity S-wave (km/s) = 2.86590 3.09600 2.98317
# Velocity P-wave (km/s) = 6.00089 6.58359 6.29898
#
# Compressibility (1/GPa) = 0.02365249
#
# Stress axis : x y z
#
# Youngs Moduli (GPa) = 46.82477 52.23264 24.87189
#
# Poissons Ratio (x) = 0.31005 0.19459
# Poissons Ratio (y) = 0.27795 0.36730
# Poissons Ratio (z) = 0.36635 0.77135
#
# Static dielectric constant tensor:
#      x y z
#    x 3.095790 0.000000 0.000000 
#    y 0.000000 3.382890 0.000000 
#    z 0.000000 0.000000 3.092120 
# 
# 
# High freq. dielectric constant tensor:
#      x y z
#    x 1.640740 0.000000 0.000000 
#    y 0.000000 1.646550 0.000000 
#    z 0.000000 0.000000 1.633450 
# 
# From -- ./inp_files/22199.got.cif
#   From: 2010.03.12/outbox.cif.g09.slc.cpg/sg47_12_cif.got.tgz:22199.got - 2010.04.14 03:12:58.
