data_PCOD8199761
_publ_section_title
;
Structure prediction by ZEFSAII (Michael W. Deem and Ramdas Pophale) SiO2 
 PCOD8199761
Probable space group: P M M M
;
_chemical_formula_sum "Si O2"
_cell_formula_units_Z 48
_cell_length_a 33.631358
_cell_length_b 8.161167
_cell_length_c 8.342119
_cell_angle_alpha 90.000000
_cell_angle_beta 90.000000
_cell_angle_gamma 90.000000
_cell_volume 2289.670821
_symmetry_space_group_name_H-M "P M M M"
_symmetry_group_IT_number 47
_symmetry_cell_setting 'orthorhombic'
loop_
_space_group_symop_operation_xyz
x,y,z
-x,-y,z
x,-y,-z
-x,y,-z
-x,-y,-z
x,y,-z
-x,y,z
x,-y,z
loop_
_atom_site_type_symbol
_atom_site_label
_atom_site_fract_x
_atom_site_fract_y
_atom_site_fract_z
Si Si1 0.172439 0.684457 0.678993
Si Si2 0.590920 0.686662 0.184982
Si Si3 0.544338 0.000000 0.312036
Si Si4 0.954311 0.805492 0.000000
Si Si5 0.674113 0.685172 0.680864
Si Si6 0.911380 0.188022 0.318592
Si Si7 0.751011 0.183708 0.821587
O O1 0.186862 0.726104 0.500000
O O2 0.156681 0.500000 0.694703
O O3 0.135235 0.797945 0.725913
O O4 0.210929 0.704323 0.788976
O O5 0.583037 0.500000 0.254789
O O6 0.637161 0.734595 0.207455
O O7 0.565148 0.829940 0.263289
O O8 0.580235 0.685552 0.000000
O O9 0.500000 0.000000 0.237770
O O10 0.542409 0.000000 0.500000
O O11 0.935399 0.733065 0.833016
O O12 0.000000 0.752840 0.000000
O O13 0.948149 0.000000 0.000000
O O14 0.659280 0.710993 0.500000
O O15 0.687345 0.500000 0.715281
O O16 0.713134 0.792579 0.708375
O O17 0.919521 0.265298 0.500000
O O18 0.923670 0.000000 0.329747
O O19 0.766466 0.000000 0.799734
O O20 0.735932 0.221565 0.000000
#
# Coordination Sequence:
#
# PCOD8199761 Si02
#       7
#     8   8   4   4   8   8   8
#     4  10  21  37  56  78 106 142 186 235 287 343
#     4  10  22  41  66  94 126 165 207 257 315 374
#     4  11  25  43  65  95 129 167 211 259 313 377
#     4   9  18  32  53  83 113 141 181 233 285 343
#     4  10  21  38  60  85 115 153 197 243 294 354
#     4   9  18  33  54  79 109 145 183 229 284 342
#     4  11  24  37  52  79 114 151 191 238 288 341
#
# _framework density 20.963711
#
# number of rings (size 3 to 8) (size 9 to 14) (size 15 to 20)
#    0.000    2.000    0.000    2.750    2.333    7.667 
#    0.000    3.333    0.000    1.000    0.000    2.333 
#    0.000    0.000    0.000    0.000    0.000    0.000 
#
# Total GULP energy -594879.507183 kJ/mol
# GULP energy per Si atom -12393.323066 kJ/mol
# Density = 2.091600 g / cm^3
# Si number density = 20.963711 Si / 1000 Ang^3
#
#
#
# Elastic Constant Matrix: (Units=GPa)
#
#
# Indices 1 2 3 4 5 6 
#
# 1 126.5202 39.2081 52.0803 0.0000 0.0000 0.0000
# 2 39.2081 66.7091 33.1167 0.0000 0.0000 0.0000
# 3 52.0803 33.1167 99.4143 0.0000 0.0000 0.0000
# 4 0.0000 0.0000 0.0000 22.5816 0.0000 0.0000
# 5 0.0000 0.0000 0.0000 0.0000 1153.9491 0.0000
# 6 0.0000 0.0000 0.0000 0.0000 0.0000 8.9826
#
#
#
# Elastic Compliance Matrix: (Units=1/GPa)
#
#
# Indices 1 2 3 4 5 6 
#
# 1 0.011031 -0.004331 -0.004336 0.000000 0.000000 0.000000
# 2 -0.004331 0.019661 -0.004281 0.000000 0.000000 0.000000
# 3 -0.004336 -0.004281 0.013756 0.000000 0.000000 0.000000
# 4 0.000000 0.000000 0.000000 0.044284 0.000000 0.000000
# 5 0.000000 0.000000 0.000000 0.000000 0.000867 0.000000
# 6 0.000000 0.000000 0.000000 0.000000 0.000000 0.111326
#
#
# Mechanical properties :
#
#
# Convention : Reuss Voigt Hill
#
# Bulk Modulus (GPa) = 53.89908 60.16154 57.03031
# Shear Modulus (GPa) = 21.45885 248.31856 134.88870
#
# Velocity S-wave (km/s) = 3.20288 10.89536 8.03017
# Velocity P-wave (km/s) = 6.28047 13.67621 10.64150
#
# Compressibility (1/GPa) = 0.01855319
#
# Stress axis : x y z
#
# Youngs Moduli (GPa) = 90.65475 50.86229 72.69323
#
# Poissons Ratio (x) = 0.22027 0.31520
# Poissons Ratio (y) = 0.39261 0.31117
# Poissons Ratio (z) = 0.39309 0.21772
#
# Static dielectric constant tensor:
#      x y z
#    x 3.617830 0.000000 0.000000 
#    y 0.000000 3.728770 0.000000 
#    z 0.000000 0.000000 4.025910 
# 
# 
# High freq. dielectric constant tensor:
#      x y z
#    x 1.812360 0.000000 0.000000 
#    y 0.000000 1.807320 0.000000 
#    z 0.000000 0.000000 1.829390 
# 
# From -- ./inp_files/13883.got.cif
#   From: 2010.03.12/outbox.cif.g09.slc.cpg/sg47_7_cif.got.tgz:13883.got - 2010.04.14 03:12:58.
