data_PCOD8199257
_publ_section_title
;
Structure prediction by ZEFSAII (Michael W. Deem and Ramdas Pophale) SiO2 
 PCOD8199257
Probable space group: P M M M
;
_chemical_formula_sum "Si O2"
_cell_formula_units_Z 40
_cell_length_a 7.756054
_cell_length_b 9.415831
_cell_length_c 29.348723
_cell_angle_alpha 90.000000
_cell_angle_beta 90.000000
_cell_angle_gamma 90.000000
_cell_volume 2143.328251
_symmetry_space_group_name_H-M "P M M M"
_symmetry_group_IT_number 47
_symmetry_cell_setting 'orthorhombic'
loop_
_space_group_symop_operation_xyz
x,y,z
-x,-y,z
x,-y,-z
-x,y,-z
-x,-y,-z
x,y,-z
-x,y,z
x,-y,z
loop_
_atom_site_type_symbol
_atom_site_label
_atom_site_fract_x
_atom_site_fract_y
_atom_site_fract_z
Si Si1 0.191437 0.331151 0.448965
Si Si2 0.801891 0.155968 0.134247
Si Si3 0.199803 0.666348 0.219502
Si Si4 0.500000 0.670027 0.387609
Si Si5 0.500000 0.667812 0.714300
Si Si6 0.296499 0.341053 0.948815
O O1 0.234995 0.276853 0.500000
O O2 0.197775 0.500000 0.448696
O O3 0.330981 0.270331 0.413493
O O4 0.000000 0.279216 0.434455
O O5 0.727968 0.254002 0.174612
O O6 0.783707 0.228685 0.085382
O O7 0.000000 0.134809 0.144905
O O8 0.711722 0.000000 0.133879
O O9 0.221042 0.500000 0.209619
O O10 0.324406 0.717069 0.260427
O O11 0.000000 0.702471 0.231574
O O12 0.500000 0.500000 0.387311
O O13 0.500000 0.732825 0.336483
O O14 0.500000 0.500000 0.710819
O O15 0.500000 0.336288 0.944436
O O16 0.229980 0.500000 0.937272
O O17 0.239038 0.299607 0.000000
#
# Coordination Sequence:
#
# PCOD8199257 Si02
#       6
#     8   8   8   4   4   8
#     4   8  13  20  30  46  71 106 145 183 227 277
#     4  10  21  35  51  73  98 123 155 196 240 285
#     4   9  18  33  50  67  91 122 156 197 243 290
#     4   9  15  22  33  51  75 102 141 194 239 272
#     4   9  18  29  43  64  84 112 156 200 245 291
#     4   9  19  35  53  74 100 129 159 190 228 279
#
# _framework density 18.662564
#
# number of rings (size 3 to 8) (size 9 to 14) (size 15 to 20)
#    0.000    3.000    0.000    2.100    1.400    4.400 
#    0.000    7.000    0.000    0.000    0.000    0.000 
#    0.000    0.000    0.000    0.000    0.000    8.000 
#
# Total GULP energy -495736.371655 kJ/mol
# GULP energy per Si atom -12393.409291 kJ/mol
# Density = 1.862009 g / cm^3
# Si number density = 18.662564 Si / 1000 Ang^3
#
#
#
# Elastic Constant Matrix: (Units=GPa)
#
#
# Indices 1 2 3 4 5 6 
#
# 1 96.6881 27.1445 72.1815 0.0000 0.0000 0.0000
# 2 27.1445 58.2185 48.7055 0.0000 0.0000 0.0000
# 3 72.1815 48.7055 166.0400 0.0000 0.0000 0.0000
# 4 0.0000 0.0000 0.0000 1.8140 0.0000 0.0000
# 5 0.0000 0.0000 0.0000 0.0000 28.8372 0.0000
# 6 0.0000 0.0000 0.0000 0.0000 0.0000 7.6930
#
#
#
# Elastic Compliance Matrix: (Units=1/GPa)
#
#
# Indices 1 2 3 4 5 6 
#
# 1 0.015504 -0.002107 -0.006122 0.000000 0.000000 0.000000
# 2 -0.002107 0.023049 -0.005845 0.000000 0.000000 0.000000
# 3 -0.006122 -0.005845 0.010399 0.000000 0.000000 0.000000
# 4 0.000000 0.000000 0.000000 0.551272 0.000000 0.000000
# 5 0.000000 0.000000 0.000000 0.000000 0.034677 0.000000
# 6 0.000000 0.000000 0.000000 0.000000 0.000000 0.129989
#
#
# Mechanical properties :
#
#
# Convention : Reuss Voigt Hill
#
# Bulk Modulus (GPa) = 48.06892 68.55662 58.31277
# Shear Modulus (GPa) = 6.25021 19.19651 12.72336
#
# Velocity S-wave (km/s) = 1.83203 3.21068 2.61388
# Velocity P-wave (km/s) = 5.50344 7.11050 6.35795
#
# Compressibility (1/GPa) = 0.02080346
#
# Stress axis : x y z
#
# Youngs Moduli (GPa) = 64.49757 43.38553 96.16701
#
# Poissons Ratio (x) = 0.09143 0.58873
# Poissons Ratio (y) = 0.13592 0.56210
# Poissons Ratio (z) = 0.39485 0.25359
#
# Static dielectric constant tensor:
#      x y z
#    x 3.542740 0.000000 0.000000 
#    y 0.000000 3.213490 0.000000 
#    z 0.000000 0.000000 3.697990 
# 
# 
# High freq. dielectric constant tensor:
#      x y z
#    x 1.728640 0.000000 0.000000 
#    y 0.000000 1.669300 0.000000 
#    z 0.000000 0.000000 1.723850 
# 
# From -- ./inp_files/1717.got.cif
#   From: 2010.03.12/outbox.cif.g09.slc.cpg/sg47_1_cif.got.tgz:1717.got - 2010.04.14 03:12:58.
