data_PCOD8199875
_publ_section_title
;
Structure prediction by ZEFSAII (Michael W. Deem and Ramdas Pophale) SiO2 
 PCOD8199875
Probable space group: P M M M
;
_chemical_formula_sum "Si O2"
_cell_formula_units_Z 44
_cell_length_a 7.827123
_cell_length_b 9.224527
_cell_length_c 31.164772
_cell_angle_alpha 90.000000
_cell_angle_beta 90.000000
_cell_angle_gamma 90.000000
_cell_volume 2250.143518
_symmetry_space_group_name_H-M "P M M M"
_symmetry_group_IT_number 47
_symmetry_cell_setting 'orthorhombic'
loop_
_space_group_symop_operation_xyz
x,y,z
-x,-y,z
x,-y,-z
-x,y,-z
-x,-y,-z
x,y,-z
-x,y,z
x,-y,z
loop_
_atom_site_type_symbol
_atom_site_label
_atom_site_fract_x
_atom_site_fract_y
_atom_site_fract_z
Si Si1 0.500000 0.670091 0.224454
Si Si2 0.500000 0.828073 0.685858
Si Si3 0.190616 0.334277 0.164197
Si Si4 0.696536 0.330787 0.452002
Si Si5 0.810482 0.833444 0.372134
Si Si6 0.303596 0.165118 0.915893
Si Si7 0.798509 0.332077 0.000000
O O1 0.500000 0.500000 0.234328
O O2 0.500000 0.756181 0.268194
O O3 0.669775 0.717446 0.198684
O O4 0.331423 0.772611 0.660670
O O5 0.500000 0.000000 0.691940
O O6 0.229260 0.500000 0.150537
O O7 0.194766 0.235992 0.121992
O O8 0.000000 0.320137 0.184197
O O9 0.757518 0.289007 0.500000
O O10 0.500000 0.286457 0.445867
O O11 0.722053 0.500000 0.444235
O O12 0.808871 0.247021 0.417549
O O13 0.000000 0.812945 0.351985
O O14 0.769673 0.000000 0.381644
O O15 0.500000 0.170038 0.901965
O O16 0.241831 0.000000 0.923241
O O17 0.279909 0.255495 0.958855
O O18 0.744275 0.500000 0.000000
O O19 0.000000 0.313177 0.000000
#
# Coordination Sequence:
#
# PCOD8199875 Si02
#       7
#     4   4   8   8   8   8   4
#     4  10  22  40  62  88 116 146 184 235 285 339
#     4  10  22  40  59  81 113 148 184 232 286 339
#     4  10  21  39  63  89 117 151 190 231 282 342
#     4   9  18  33  54  81 113 149 189 233 281 332
#     4  10  21  37  57  82 112 149 192 233 278 335
#     4  11  23  38  58  86 119 154 195 239 285 337
#     4  11  24  39  56  82 116 157 202 242 285 337
#
# _framework density 19.554307999999999
#
# number of rings (size 3 to 8) (size 9 to 14) (size 15 to 20)
#    0.000    1.909    1.818    2.182    0.000    8.727 
#    0.000    2.727    0.000    0.000    0.000    0.000 
#    0.000    0.000    0.000    0.000    0.000    0.000 
#
# Total GULP energy -545689.915117 kJ/mol
# GULP energy per Si atom -12402.043525 kJ/mol
# Density = 1.950980 g / cm^3
# Si number density = 19.554308 Si / 1000 Ang^3
#
#
#
# Elastic Constant Matrix: (Units=GPa)
#
#
# Indices 1 2 3 4 5 6 
#
# 1 125.1027 37.9251 61.4765 0.0000 0.0000 0.0000
# 2 37.9251 76.0897 52.4622 0.0000 0.0000 0.0000
# 3 61.4765 52.4622 138.3175 0.0000 0.0000 0.0000
# 4 0.0000 0.0000 0.0000 57.3269 0.0000 0.0000
# 5 0.0000 0.0000 0.0000 0.0000 16.3998 0.0000
# 6 0.0000 0.0000 0.0000 0.0000 0.0000 22.8276
#
#
#
# Elastic Compliance Matrix: (Units=1/GPa)
#
#
# Indices 1 2 3 4 5 6 
#
# 1 0.010640 -0.002766 -0.003680 0.000000 0.000000 0.000000
# 2 -0.002766 0.018515 -0.005793 0.000000 0.000000 0.000000
# 3 -0.003680 -0.005793 0.011063 0.000000 0.000000 0.000000
# 4 0.000000 0.000000 0.000000 0.017444 0.000000 0.000000
# 5 0.000000 0.000000 0.000000 0.000000 0.060976 0.000000
# 6 0.000000 0.000000 0.000000 0.000000 0.000000 0.043807
#
#
# Mechanical properties :
#
#
# Convention : Reuss Voigt Hill
#
# Bulk Modulus (GPa) = 63.53389 71.47081 67.50235
# Shear Modulus (GPa) = 26.01851 31.82058 28.91954
#
# Velocity S-wave (km/s) = 3.65166 4.03835 3.84986
# Velocity P-wave (km/s) = 7.09514 7.64026 7.37274
#
# Compressibility (1/GPa) = 0.01573963
#
# Stress axis : x y z
#
# Youngs Moduli (GPa) = 93.98134 54.00903 90.39396
#
# Poissons Ratio (x) = 0.14940 0.33266
# Poissons Ratio (y) = 0.25997 0.52367
# Poissons Ratio (z) = 0.34586 0.31289
#
# Static dielectric constant tensor:
#      x y z
#    x 3.741700 0.000000 0.000000 
#    y 0.000000 3.531510 0.000000 
#    z 0.000000 0.000000 3.160590 
# 
# 
# High freq. dielectric constant tensor:
#      x y z
#    x 1.774690 0.000000 0.000000 
#    y 0.000000 1.757380 0.000000 
#    z 0.000000 0.000000 1.751440 
# 
# From -- ./inp_files/33967.got.cif
#   From: 2010.03.12/outbox.cif.g09.slc.cpg/sg47_17_cif.got.tgz:33967.got - 2010.04.14 03:12:58.
