data_PCOD8199193
_publ_section_title
;
Structure prediction by ZEFSAII (Michael W. Deem and Ramdas Pophale) SiO2 
 PCOD8199193
Probable space group: P M M M
;
_chemical_formula_sum "Si O2"
_cell_formula_units_Z 48
_cell_length_a 31.033732
_cell_length_b 9.328798
_cell_length_c 9.301407
_cell_angle_alpha 90.000000
_cell_angle_beta 90.000000
_cell_angle_gamma 90.000000
_cell_volume 2692.826315
_symmetry_space_group_name_H-M "P M M M"
_symmetry_group_IT_number 47
_symmetry_cell_setting 'orthorhombic'
loop_
_space_group_symop_operation_xyz
x,y,z
-x,-y,z
x,-y,-z
-x,y,-z
-x,-y,-z
x,y,-z
-x,y,z
x,-y,z
loop_
_atom_site_type_symbol
_atom_site_label
_atom_site_fract_x
_atom_site_fract_y
_atom_site_fract_z
Si Si1 0.361346 0.328827 0.335194
Si Si2 0.203536 0.166275 0.666195
Si Si3 0.288580 0.166037 0.831844
Si Si4 0.119835 0.665112 0.668507
Si Si5 0.950394 0.837175 0.166798
Si Si6 0.545551 0.339904 0.329533
O O1 0.351930 0.283053 0.500000
O O2 0.359678 0.500000 0.321071
O O3 0.327165 0.258926 0.230305
O O4 0.408783 0.269549 0.282764
O O5 0.213475 0.200037 0.500000
O O6 0.244461 0.216684 0.757770
O O7 0.162592 0.254387 0.722968
O O8 0.193182 0.000000 0.691211
O O9 0.297629 0.000000 0.797584
O O10 0.284493 0.195657 0.000000
O O11 0.113863 0.688139 0.500000
O O12 0.124503 0.500000 0.710794
O O13 0.077900 0.727889 0.743371
O O14 0.000000 0.800165 0.197757
O O15 0.940330 0.000000 0.214444
O O16 0.939644 0.817277 0.000000
O O17 0.547076 0.348621 0.500000
O O18 0.500000 0.261714 0.281579
O O19 0.543967 0.500000 0.266085
#
# Coordination Sequence:
#
# PCOD8199193 Si02
#       6
#     8   8   8   8   8   8
#     4   9  17  29  48  74  99 124 157 198 244 291
#     4   9  18  34  54  72  93 126 167 206 243 287
#     4  10  21  35  50  70  97 129 164 201 242 289
#     4  10  21  35  52  78 109 135 160 197 247 298
#     4   9  19  36  56  77 102 135 175 213 245 281
#     4   7  10  19  38  65  94 120 149 190 238 284
#
# _framework density 17.825137000000002
#
# number of rings (size 3 to 8) (size 9 to 14) (size 15 to 20)
#    0.000    3.000    0.000    3.000    0.000    4.667 
#    0.000    5.833    0.000    1.000    0.000    5.833 
#    0.000    0.000    0.000    0.000    0.000    0.000 
#
# Total GULP energy -594840.752780 kJ/mol
# GULP energy per Si atom -12392.515683 kJ/mol
# Density = 1.778457 g / cm^3
# Si number density = 17.825137 Si / 1000 Ang^3
#
#
#
# Elastic Constant Matrix: (Units=GPa)
#
#
# Indices 1 2 3 4 5 6 
#
# 1 159.5279 65.3603 57.1088 0.0000 0.0000 0.0000
# 2 65.3603 62.6251 34.3293 0.0000 0.0000 0.0000
# 3 57.1088 34.3293 54.1485 0.0000 0.0000 0.0000
# 4 0.0000 0.0000 0.0000 24.3531 0.0000 0.0000
# 5 0.0000 0.0000 0.0000 0.0000 -4.7910 0.0000
# 6 0.0000 0.0000 0.0000 0.0000 0.0000 -45.8014
#
#
#
# Elastic Compliance Matrix: (Units=1/GPa)
#
#
# Indices 1 2 3 4 5 6 
#
# 1 0.012740 -0.009090 -0.007673 0.000000 0.000000 0.000000
# 2 -0.009090 0.030959 -0.010041 0.000000 0.000000 0.000000
# 3 -0.007673 -0.010041 0.032926 0.000000 0.000000 0.000000
# 4 0.000000 0.000000 0.000000 0.041063 0.000000 0.000000
# 5 0.000000 0.000000 0.000000 0.000000 -0.208725 0.000000
# 6 0.000000 0.000000 0.000000 0.000000 0.000000 -0.021833
#
#
# Mechanical properties :
#
#
# Convention : Reuss Voigt Hill
#
# Bulk Modulus (GPa) = 43.44601 65.54424 54.49513
# Shear Modulus (GPa) = -96.91467 2.71903 -47.09782
#
# Velocity S-wave (km/s) = -7.38158 1.23641 -5.14582
# Velocity P-wave (km/s) = 6.94434 6.23609 2.16045
#
# Compressibility (1/GPa) = 0.02301707
#
# Stress axis : x y z
#
# Youngs Moduli (GPa) = 78.49535 32.30100 30.37089
#
# Poissons Ratio (x) = 0.29361 0.23305
# Poissons Ratio (y) = 0.71350 0.30495
# Poissons Ratio (z) = 0.60232 0.32433
#
# Static dielectric constant tensor:
#      x y z
#    x 3.665250 0.000000 0.000000 
#    y 0.000000 3.079250 0.000000 
#    z 0.000000 0.000000 3.053760 
# 
# 
# High freq. dielectric constant tensor:
#      x y z
#    x 1.712310 0.000000 0.000000 
#    y 0.000000 1.663170 0.000000 
#    z 0.000000 0.000000 1.665180 
# 
# From -- ./inp_files/2446.got.cif
#   From: 2010.03.12/outbox.cif.g09.slc.cpg/sg47_2_cif.got.tgz:2446.got - 2010.04.14 03:12:58.
