data_PCOD8199255
_publ_section_title
;
Structure prediction by ZEFSAII (Michael W. Deem and Ramdas Pophale) SiO2 
 PCOD8199255
Probable space group: P M M M
;
_chemical_formula_sum "Si O2"
_cell_formula_units_Z 56
_cell_length_a 19.918973
_cell_length_b 9.274655
_cell_length_c 15.736498
_cell_angle_alpha 90.000000
_cell_angle_beta 90.000000
_cell_angle_gamma 90.000000
_cell_volume 2907.185859
_symmetry_space_group_name_H-M "P M M M"
_symmetry_group_IT_number 47
_symmetry_cell_setting 'orthorhombic'
loop_
_space_group_symop_operation_xyz
x,y,z
-x,-y,z
x,-y,-z
-x,y,-z
-x,-y,-z
x,y,-z
-x,y,z
x,-y,z
loop_
_atom_site_type_symbol
_atom_site_label
_atom_site_fract_x
_atom_site_fract_y
_atom_site_fract_z
Si Si1 0.174016 0.669132 0.901212
Si Si2 0.574953 0.667411 0.148622
Si Si3 0.290686 0.842276 0.400992
Si Si4 0.426860 0.165510 0.320231
Si Si5 0.074930 0.671050 0.753721
Si Si6 0.163361 0.670085 0.402778
Si Si7 0.698724 0.842255 0.904045
O O1 0.187497 0.500000 0.891584
O O2 0.114392 0.721296 0.838669
O O3 0.240760 0.748082 0.865186
O O4 0.156383 0.706300 0.000000
O O5 0.500000 0.690064 0.110362
O O6 0.594922 0.500000 0.146263
O O7 0.577332 0.723728 0.243787
O O8 0.628518 0.757892 0.095714
O O9 0.284000 0.854906 0.500000
O O10 0.366140 0.788933 0.381471
O O11 0.234226 0.732188 0.368805
O O12 0.277942 0.000000 0.359608
O O13 0.500000 0.183346 0.365583
O O14 0.419003 0.000000 0.288677
O O15 0.072082 0.500000 0.752223
O O16 0.107900 0.725043 0.664800
O O17 0.000000 0.736522 0.758547
O O18 0.145398 0.719898 0.500000
O O19 0.170523 0.500000 0.400028
O O20 0.692841 0.000000 0.858466
O O21 0.718982 0.869216 0.000000
#
# Coordination Sequence:
#
# PCOD8199255 Si02
#       7
#     8   8   8   8   8   8   8
#     4   9  18  33  53  78 107 137 171 214 262 311
#     4  10  21  35  51  73 102 136 173 215 262 309
#     4   9  18  32  50  73 100 132 171 215 262 309
#     4   9  18  32  49  71 100 134 173 215 259 308
#     4   9  18  32  52  80 107 133 171 214 259 313
#     4   9  18  32  50  74 104 137 173 215 260 307
#     4  10  21  36  54  76 102 134 172 214 260 309
#
# _framework density 19.262615
#
# number of rings (size 3 to 8) (size 9 to 14) (size 15 to 20)
#    0.000    2.714    0.000    0.857    2.000    3.429 
#    0.000    5.714    0.000    1.714    0.000    8.000 
#    0.000    0.000    0.000    0.000    0.000    0.000 
#
# Total GULP energy -693839.230953 kJ/mol
# GULP energy per Si atom -12389.986267 kJ/mol
# Density = 1.921877 g / cm^3
# Si number density = 19.262615 Si / 1000 Ang^3
#
#
#
# Elastic Constant Matrix: (Units=GPa)
#
#
# Indices 1 2 3 4 5 6 
#
# 1 173.9039 53.6539 59.7811 0.0000 0.0000 0.0000
# 2 53.6539 68.0246 28.7146 0.0000 0.0000 0.0000
# 3 59.7811 28.7146 71.0326 0.0000 0.0000 0.0000
# 4 0.0000 0.0000 0.0000 15.9695 0.0000 0.0000
# 5 0.0000 0.0000 0.0000 0.0000 33.1486 0.0000
# 6 0.0000 0.0000 0.0000 0.0000 0.0000 18.7229
#
#
#
# Elastic Compliance Matrix: (Units=1/GPa)
#
#
# Indices 1 2 3 4 5 6 
#
# 1 0.009244 -0.004832 -0.005827 0.000000 0.000000 0.000000
# 2 -0.004832 0.020251 -0.004120 0.000000 0.000000 0.000000
# 3 -0.005827 -0.004120 0.020647 0.000000 0.000000 0.000000
# 4 0.000000 0.000000 0.000000 0.062619 0.000000 0.000000
# 5 0.000000 0.000000 0.000000 0.000000 0.030167 0.000000
# 6 0.000000 0.000000 0.000000 0.000000 0.000000 0.053411
#
#
# Mechanical properties :
#
#
# Convention : Reuss Voigt Hill
#
# Bulk Modulus (GPa) = 48.57789 66.36225 57.47007
# Shear Modulus (GPa) = 21.48168 24.95563 23.21865
#
# Velocity S-wave (km/s) = 3.34308 3.60328 3.47562
# Velocity P-wave (km/s) = 6.33838 7.19983 6.78280
#
# Compressibility (1/GPa) = 0.02058550
#
# Stress axis : x y z
#
# Youngs Moduli (GPa) = 108.17956 49.38148 48.43282
#
# Poissons Ratio (x) = 0.23859 0.28220
# Poissons Ratio (y) = 0.52267 0.19954
# Poissons Ratio (z) = 0.63031 0.20345
#
# Static dielectric constant tensor:
#      x y z
#    x 3.879570 0.000000 0.000000 
#    y 0.000000 3.665960 0.000000 
#    z 0.000000 0.000000 3.446450 
# 
# 
# High freq. dielectric constant tensor:
#      x y z
#    x 1.754150 0.000000 0.000000 
#    y 0.000000 1.730830 0.000000 
#    z 0.000000 0.000000 1.737030 
# 
# From -- ./inp_files/7218.got.cif
#   From: 2010.03.12/outbox.cif.g09.slc.cpg/sg47_4_cif.got.tgz:7218.got - 2010.04.14 03:12:58.
