data_PCOD8199740
_publ_section_title
;
Structure prediction by ZEFSAII (Michael W. Deem and Ramdas Pophale) SiO2 
 PCOD8199740
Probable space group: P M M M
;
_chemical_formula_sum "Si O2"
_cell_formula_units_Z 44
_cell_length_a 9.373041
_cell_length_b 28.655720
_cell_length_c 9.256019
_cell_angle_alpha 90.000000
_cell_angle_beta 90.000000
_cell_angle_gamma 90.000000
_cell_volume 2486.085606
_symmetry_space_group_name_H-M "P M M M"
_symmetry_group_IT_number 47
_symmetry_cell_setting 'orthorhombic'
loop_
_space_group_symop_operation_xyz
x,y,z
-x,-y,z
x,-y,-z
-x,y,-z
-x,-y,-z
x,y,-z
-x,y,z
x,-y,z
loop_
_atom_site_type_symbol
_atom_site_label
_atom_site_fract_x
_atom_site_fract_y
_atom_site_fract_z
Si Si1 0.170360 0.636927 0.339642
Si Si2 0.665881 0.173976 0.664625
Si Si3 0.169531 0.449066 0.838120
Si Si4 0.666316 0.919127 0.169569
Si Si5 0.841215 0.261670 0.327740
Si Si6 0.831091 0.000000 0.330215
O O1 0.232987 0.631742 0.500000
O O2 0.237023 0.593902 0.250323
O O3 0.214544 0.687519 0.272507
O O4 0.000000 0.634650 0.343224
O O5 0.715158 0.162615 0.500000
O O6 0.500000 0.184663 0.668624
O O7 0.706309 0.131506 0.769031
O O8 0.741643 0.219973 0.727995
O O9 0.213562 0.500000 0.773392
O O10 0.000000 0.444840 0.837474
O O11 0.228414 0.445110 0.000000
O O12 0.500000 0.930811 0.197186
O O13 0.763500 0.955006 0.255769
O O14 0.702262 0.921229 0.000000
O O15 0.842473 0.263662 0.500000
O O16 0.000000 0.251830 0.268637
O O17 0.794054 0.000000 0.500000
O O18 0.000000 0.000000 0.304005
#
# Coordination Sequence:
#
# PCOD8199740 Si02
#       6
#     8   8   8   8   8   4
#     4   8  13  21  33  49  70  99 135 171 208 254
#     4   9  17  30  49  71  93 120 156 193 226 266
#     4   8  13  20  29  43  67  99 131 164 206 255
#     4  10  21  37  56  77 102 132 163 196 237 281
#     4   8  14  25  41  61  86 115 145 180 223 267
#     4  11  24  39  56  80 106 131 162 199 236 276
#
# _framework density 17.698505000000001
#
# number of rings (size 3 to 8) (size 9 to 14) (size 15 to 20)
#    0.000    3.182    0.000    2.727    0.000    4.000 
#    0.000    4.545    0.000    1.091    0.000    0.000 
#    0.000    0.727    0.000    9.091    0.000   10.545 
#
# Total GULP energy -545250.340153 kJ/mol
# GULP energy per Si atom -12392.053185 kJ/mol
# Density = 1.765822 g / cm^3
# Si number density = 17.698505 Si / 1000 Ang^3
#
#
#
# Elastic Constant Matrix: (Units=GPa)
#
#
# Indices 1 2 3 4 5 6 
#
# 1 41.4872 59.0016 34.1357 0.0000 0.0000 0.0000
# 2 59.0016 191.6582 75.8319 0.0000 0.0000 0.0000
# 3 34.1357 75.8319 85.9732 0.0000 0.0000 0.0000
# 4 0.0000 0.0000 0.0000 4.3821 0.0000 0.0000
# 5 0.0000 0.0000 0.0000 0.0000 13.9697 0.0000
# 6 0.0000 0.0000 0.0000 0.0000 0.0000 -1.3372
#
#
#
# Elastic Compliance Matrix: (Units=1/GPa)
#
#
# Indices 1 2 3 4 5 6 
#
# 1 0.047074 -0.010901 -0.009076 0.000000 0.000000 0.000000
# 2 -0.010901 0.010539 -0.004968 0.000000 0.000000 0.000000
# 3 -0.009076 -0.004968 0.019617 0.000000 0.000000 0.000000
# 4 0.000000 0.000000 0.000000 0.228199 0.000000 0.000000
# 5 0.000000 0.000000 0.000000 0.000000 0.071584 0.000000
# 6 0.000000 0.000000 0.000000 0.000000 0.000000 -0.747815
#
#
# Mechanical properties :
#
#
# Convention : Reuss Voigt Hill
#
# Bulk Modulus (GPa) = 36.57480 73.00632 54.79056
# Shear Modulus (GPa) = -16.03591 13.41288 -1.31152
#
# Velocity S-wave (km/s) = -3.01335 2.75590 -0.86177
# Velocity P-wave (km/s) = 2.93314 7.17399 5.48040
#
# Compressibility (1/GPa) = 0.02734123
#
# Stress axis : x y z
#
# Youngs Moduli (GPa) = 21.24319 94.88715 50.97679
#
# Poissons Ratio (x) = 1.03433 0.46266
# Poissons Ratio (y) = 0.23156 0.25323
# Poissons Ratio (z) = 0.19280 0.47136
#
# Static dielectric constant tensor:
#      x y z
#    x 2.916050 0.000000 0.000000 
#    y 0.000000 3.732060 0.000000 
#    z 0.000000 0.000000 3.245230 
# 
# 
# High freq. dielectric constant tensor:
#      x y z
#    x 1.634720 0.000000 0.000000 
#    y 0.000000 1.707060 0.000000 
#    z 0.000000 0.000000 1.662760 
# 
# From -- ./inp_files/2160.got.cif
#   From: 2010.03.12/outbox.cif.g09.slc.cpg/sg47_2_cif.got.tgz:2160.got - 2010.04.14 03:12:58.
