data_PCOD8199861
_publ_section_title
;
Structure prediction by ZEFSAII (Michael W. Deem and Ramdas Pophale) SiO2 
 PCOD8199861
Probable space group: P M M M
;
_chemical_formula_sum "Si O2"
_cell_formula_units_Z 64
_cell_length_a 9.156348
_cell_length_b 14.465473
_cell_length_c 24.040721
_cell_angle_alpha 90.000000
_cell_angle_beta 90.000000
_cell_angle_gamma 90.000000
_cell_volume 3184.215248
_symmetry_space_group_name_H-M "P M M M"
_symmetry_group_IT_number 47
_symmetry_cell_setting 'orthorhombic'
loop_
_space_group_symop_operation_xyz
x,y,z
-x,-y,z
x,-y,-z
-x,y,-z
-x,-y,-z
x,y,-z
-x,y,z
x,-y,z
loop_
_atom_site_type_symbol
_atom_site_label
_atom_site_fract_x
_atom_site_fract_y
_atom_site_fract_z
Si Si1 0.338476 0.389990 0.760737
Si Si2 0.330097 0.892255 0.369728
Si Si3 0.327937 0.394049 0.115621
Si Si4 0.834895 0.109942 0.740050
Si Si5 0.169532 0.251073 0.436582
Si Si6 0.668631 0.890588 0.848933
Si Si7 0.828410 0.395837 0.654620
Si Si8 0.832175 0.230990 0.064272
O O1 0.500000 0.352512 0.747576
O O2 0.338600 0.500000 0.762184
O O3 0.288612 0.357388 0.822136
O O4 0.233413 0.352523 0.712071
O O5 0.500000 0.870488 0.362333
O O6 0.246259 0.855034 0.315240
O O7 0.264870 0.839193 0.422781
O O8 0.301942 0.000000 0.379891
O O9 0.500000 0.383160 0.104640
O O10 0.279831 0.500000 0.106925
O O11 0.236945 0.332225 0.072963
O O12 0.747069 0.147538 0.793342
O O13 0.000000 0.148825 0.740546
O O14 0.834776 0.000000 0.741105
O O15 0.198534 0.280317 0.500000
O O16 0.222446 0.335672 0.397968
O O17 0.000000 0.227489 0.426377
O O18 0.500000 0.860580 0.846197
O O19 0.743470 0.846153 0.902363
O O20 0.685761 0.000000 0.854178
O O21 0.768918 0.500000 0.645232
O O22 0.000000 0.396096 0.660671
O O23 0.000000 0.231593 0.083873
O O24 0.819128 0.204292 0.000000
#
# Coordination Sequence:
#
# PCOD8199861 Si02
#       8
#     8   8   8   8   8   8   8   8
#     4   8  15  30  53  81 110 138 171 213 265 325
#     4  10  21  37  57  81 110 143 179 223 274 325
#     4   9  19  37  60  84 111 145 184 228 280 336
#     4   9  17  32  57  87 116 144 176 217 269 331
#     4  10  22  38  54  75 105 143 187 230 273 325
#     4  10  21  38  61  87 114 145 183 229 279 330
#     4   9  18  33  54  80 108 138 174 218 268 321
#     4  11  25  41  56  79 112 150 192 235 279 331
#
# _framework density 20.099142000000001
#
# number of rings (size 3 to 8) (size 9 to 14) (size 15 to 20)
#    0.000    2.500    0.000    2.250    0.000    7.500 
#    0.000    8.750    0.000    0.000    0.000    2.625 
#    0.000    0.000    0.000    0.000    0.000    0.000 
#
# Total GULP energy -793691.712794 kJ/mol
# GULP energy per Si atom -12401.433012 kJ/mol
# Density = 2.005340 g / cm^3
# Si number density = 20.099142 Si / 1000 Ang^3
#
#
#
# Elastic Constant Matrix: (Units=GPa)
#
#
# Indices 1 2 3 4 5 6 
#
# 1 94.0976 26.5065 38.2893 0.0000 0.0000 0.0000
# 2 26.5065 34.5992 13.2465 0.0000 0.0000 0.0000
# 3 38.2893 13.2465 86.7890 0.0000 0.0000 0.0000
# 4 0.0000 0.0000 0.0000 34.9158 0.0000 0.0000
# 5 0.0000 0.0000 0.0000 0.0000 27.3061 0.0000
# 6 0.0000 0.0000 0.0000 0.0000 0.0000 26.5564
#
#
#
# Elastic Compliance Matrix: (Units=1/GPa)
#
#
# Indices 1 2 3 4 5 6 
#
# 1 0.015601 -0.009895 -0.005372 0.000000 0.000000 0.000000
# 2 -0.009895 0.036972 -0.001278 0.000000 0.000000 0.000000
# 3 -0.005372 -0.001278 0.014087 0.000000 0.000000 0.000000
# 4 0.000000 0.000000 0.000000 0.028640 0.000000 0.000000
# 5 0.000000 0.000000 0.000000 0.000000 0.036622 0.000000
# 6 0.000000 0.000000 0.000000 0.000000 0.000000 0.037656
#
#
# Mechanical properties :
#
#
# Convention : Reuss Voigt Hill
#
# Bulk Modulus (GPa) = 29.78822 41.28559 35.53691
# Shear Modulus (GPa) = 23.38002 26.91855 25.14929
#
# Velocity S-wave (km/s) = 3.41432 3.66360 3.54116
# Velocity P-wave (km/s) = 5.51328 6.20335 5.86847
#
# Compressibility (1/GPa) = 0.03357032
#
# Stress axis : x y z
#
# Youngs Moduli (GPa) = 64.09995 27.04748 70.98552
#
# Poissons Ratio (x) = 0.26763 0.38136
# Poissons Ratio (y) = 0.63426 0.09069
# Poissons Ratio (z) = 0.34437 0.03456
#
# Static dielectric constant tensor:
#      x y z
#    x 3.697270 0.000000 0.000000 
#    y 0.000000 3.548350 0.000000 
#    z 0.000000 0.000000 3.671970 
# 
# 
# High freq. dielectric constant tensor:
#      x y z
#    x 1.783570 0.000000 0.000000 
#    y 0.000000 1.780350 0.000000 
#    z 0.000000 0.000000 1.782090 
# 
# From -- ./inp_files/7930.got.cif
#   From: 2010.03.12/outbox.cif.g09.slc.cpg/sg47_4_cif.got.tgz:7930.got - 2010.04.14 03:12:58.
