data_PCOD8199322
_publ_section_title
;
Structure prediction by ZEFSAII (Michael W. Deem and Ramdas Pophale) SiO2 
 PCOD8199322
Probable space group: P M M M
;
_chemical_formula_sum "Si O2"
_cell_formula_units_Z 52
_cell_length_a 10.448307
_cell_length_b 9.344653
_cell_length_c 30.408388
_cell_angle_alpha 90.000000
_cell_angle_beta 90.000000
_cell_angle_gamma 90.000000
_cell_volume 2968.947391
_symmetry_space_group_name_H-M "P M M M"
_symmetry_group_IT_number 47
_symmetry_cell_setting 'orthorhombic'
loop_
_space_group_symop_operation_xyz
x,y,z
-x,-y,z
x,-y,-z
-x,y,-z
-x,-y,-z
x,y,-z
-x,y,z
x,-y,z
loop_
_atom_site_type_symbol
_atom_site_label
_atom_site_fract_x
_atom_site_fract_y
_atom_site_fract_z
Si Si1 0.000000 0.160116 0.948176
Si Si2 0.357764 0.164685 0.124664
Si Si3 0.847859 0.160646 0.548535
Si Si4 0.150803 0.158515 0.288985
Si Si5 0.143100 0.829768 0.808239
Si Si6 0.751221 0.667807 0.051057
Si Si7 0.153009 0.339627 0.369965
O O1 0.122169 0.249386 0.932862
O O2 0.000000 0.000000 0.926728
O O3 0.000000 0.144862 0.000000
O O4 0.500000 0.176597 0.145506
O O5 0.251780 0.226367 0.158430
O O6 0.359353 0.262657 0.080742
O O7 0.327462 0.000000 0.112041
O O8 0.802859 0.213048 0.500000
O O9 0.792108 0.263779 0.586193
O O10 0.000000 0.161403 0.550572
O O11 0.797745 0.000000 0.557317
O O12 0.179049 0.225527 0.240715
O O13 0.208234 0.260175 0.326774
O O14 0.000000 0.145017 0.295320
O O15 0.212061 0.000000 0.293742
O O16 0.000000 0.776159 0.822334
O O17 0.142933 0.000000 0.806548
O O18 0.767537 0.500000 0.060237
O O19 0.719504 0.695605 0.000000
O O20 0.206596 0.500000 0.369400
O O21 0.000000 0.338207 0.369849
#
# Coordination Sequence:
#
# PCOD8199322 Si02
#       7
#     4   8   8   8   8   8   8
#     4   9  17  31  53  79 103 127 157 195 237 273
#     4  10  21  35  52  76 102 127 160 202 243 283
#     4   8  13  20  28  38  56  88 131 172 207 250
#     4   8  13  23  39  55  71  96 133 173 214 265
#     4   8  15  29  49  70  90 116 152 192 235 282
#     4  10  21  36  53  74 102 133 164 196 232 280
#     4   9  15  20  28  45  69  94 122 165 219 264
#
# _framework density 17.514623
#
# number of rings (size 3 to 8) (size 9 to 14) (size 15 to 20)
#    0.000    3.154    0.000    2.538    1.077    4.615 
#    0.000    3.846    0.000    0.923    0.000    0.000 
#    0.000    0.000    0.000    0.000    0.000    0.769 
#
# Total GULP energy -644410.812900 kJ/mol
# GULP energy per Si atom -12392.515633 kJ/mol
# Density = 1.747476 g / cm^3
# Si number density = 17.514623 Si / 1000 Ang^3
#
#
#
# Elastic Constant Matrix: (Units=GPa)
#
#
# Indices 1 2 3 4 5 6 
#
# 1 54.4450 25.7276 42.9100 0.0000 0.0000 0.0000
# 2 25.7276 96.9485 62.2647 0.0000 0.0000 0.0000
# 3 42.9100 62.2647 129.0525 0.0000 0.0000 0.0000
# 4 0.0000 0.0000 0.0000 15.4827 0.0000 0.0000
# 5 0.0000 0.0000 0.0000 0.0000 4.3640 0.0000
# 6 0.0000 0.0000 0.0000 0.0000 0.0000 10.0044
#
#
#
# Elastic Compliance Matrix: (Units=1/GPa)
#
#
# Indices 1 2 3 4 5 6 
#
# 1 0.025126 -0.001887 -0.007444 0.000000 0.000000 0.000000
# 2 -0.001887 0.015088 -0.006652 0.000000 0.000000 0.000000
# 3 -0.007444 -0.006652 0.013433 0.000000 0.000000 0.000000
# 4 0.000000 0.000000 0.000000 0.064588 0.000000 0.000000
# 5 0.000000 0.000000 0.000000 0.000000 0.229148 0.000000
# 6 0.000000 0.000000 0.000000 0.000000 0.000000 0.099956
#
#
# Mechanical properties :
#
#
# Convention : Reuss Voigt Hill
#
# Bulk Modulus (GPa) = 46.12336 60.25005 53.18671
# Shear Modulus (GPa) = 10.27681 15.93979 13.10830
#
# Velocity S-wave (km/s) = 2.42493 3.02003 2.73870
# Velocity P-wave (km/s) = 5.85079 6.82901 6.35874
#
# Compressibility (1/GPa) = 0.02168099
#
# Stress axis : x y z
#
# Youngs Moduli (GPa) = 39.80005 66.27890 74.44166
#
# Poissons Ratio (x) = 0.12506 0.55413
# Poissons Ratio (y) = 0.07510 0.49519
# Poissons Ratio (z) = 0.29627 0.44089
#
# Static dielectric constant tensor:
#      x y z
#    x 2.785740 0.000000 0.000000 
#    y 0.000000 3.251210 0.000000 
#    z 0.000000 0.000000 3.521750 
# 
# 
# High freq. dielectric constant tensor:
#      x y z
#    x 1.608710 0.000000 0.000000 
#    y 0.000000 1.662920 0.000000 
#    z 0.000000 0.000000 1.685500 
# 
# From -- ./inp_files/34539.got.cif
#   From: 2010.03.12/outbox.cif.g09.slc.cpg/sg47_18_cif.got.tgz:34539.got - 2010.04.14 03:12:58.
