data_PCOD8199361
_publ_section_title
;
Structure prediction by ZEFSAII (Michael W. Deem and Ramdas Pophale) SiO2 
 PCOD8199361
Probable space group: P M M M
;
_chemical_formula_sum "Si O2"
_cell_formula_units_Z 52
_cell_length_a 14.344138
_cell_length_b 22.032282
_cell_length_c 8.025788
_cell_angle_alpha 90.000000
_cell_angle_beta 90.000000
_cell_angle_gamma 90.000000
_cell_volume 2536.422635
_symmetry_space_group_name_H-M "P M M M"
_symmetry_group_IT_number 47
_symmetry_cell_setting 'orthorhombic'
loop_
_space_group_symop_operation_xyz
x,y,z
-x,-y,z
x,-y,-z
-x,y,-z
-x,-y,-z
x,y,-z
-x,y,z
x,-y,z
loop_
_atom_site_type_symbol
_atom_site_label
_atom_site_fract_x
_atom_site_fract_y
_atom_site_fract_z
Si Si1 0.895540 0.887282 0.310312
Si Si2 0.602754 0.308038 0.807978
Si Si3 0.286698 0.933003 0.189254
Si Si4 0.396829 0.820813 0.689727
Si Si5 0.790291 0.636667 0.801560
Si Si6 0.107806 0.428315 0.500000
Si Si7 0.105353 0.759074 0.189471
O O1 0.890414 0.909096 0.500000
O O2 0.825113 0.927976 0.203639
O O3 0.866655 0.816324 0.302576
O O4 0.000000 0.895859 0.237862
O O5 0.500000 0.317261 0.720732
O O6 0.640098 0.238904 0.785178
O O7 0.680735 0.357068 0.749667
O O8 0.589282 0.319731 0.000000
O O9 0.332933 0.879925 0.295179
O O10 0.317283 0.000000 0.253299
O O11 0.318046 0.924793 0.000000
O O12 0.399895 0.800960 0.500000
O O13 0.500000 0.837842 0.756021
O O14 0.840777 0.591712 0.671954
O O15 0.830404 0.702895 0.766773
O O16 0.803984 0.618174 0.000000
O O17 0.110851 0.500000 0.500000
O O18 0.000000 0.405356 0.500000
O O19 0.000000 0.738069 0.225238
O O20 0.118630 0.780369 0.000000
#
# Coordination Sequence:
#
# PCOD8199361 Si02
#       7
#     8   8   8   8   8   4   8
#     4  10  21  35  53  78 106 137 174 227 295 356
#     4   9  18  34  59  92 125 155 190 236 293 355
#     4  11  24  39  54  71  96 140 193 237 280 338
#     4  10  21  36  57  86 116 145 178 225 288 349
#     4  10  21  37  61  91 123 163 205 248 299 351
#     4  11  26  44  63  91 125 165 211 254 294 340
#     4   9  17  30  51  80 110 140 178 227 287 352
#
# _framework density 20.501315000000002
#
# number of rings (size 3 to 8) (size 9 to 14) (size 15 to 20)
#    0.000    2.077    0.000    2.769    2.154    6.154 
#    0.000    3.846    0.000    0.923    0.000    2.154 
#    0.000    0.000    0.000    0.000    0.000    0.000 
#
# Total GULP energy -644413.618524 kJ/mol
# GULP energy per Si atom -12392.569587 kJ/mol
# Density = 2.045465 g / cm^3
# Si number density = 20.501315 Si / 1000 Ang^3
#
#
#
# Elastic Constant Matrix: (Units=GPa)
#
#
# Indices 1 2 3 4 5 6 
#
# 1 104.4072 48.4042 36.5002 0.0000 0.0000 0.0000
# 2 48.4042 63.5662 26.2088 0.0000 0.0000 0.0000
# 3 36.5002 26.2088 60.2063 0.0000 0.0000 0.0000
# 4 0.0000 0.0000 0.0000 24.0239 0.0000 0.0000
# 5 0.0000 0.0000 0.0000 0.0000 24.3467 0.0000
# 6 0.0000 0.0000 0.0000 0.0000 0.0000 23.3702
#
#
#
# Elastic Compliance Matrix: (Units=1/GPa)
#
#
# Indices 1 2 3 4 5 6 
#
# 1 0.016127 -0.010054 -0.005400 0.000000 0.000000 0.000000
# 2 -0.010054 0.025440 -0.004980 0.000000 0.000000 0.000000
# 3 -0.005400 -0.004980 0.022051 0.000000 0.000000 0.000000
# 4 0.000000 0.000000 0.000000 0.041625 0.000000 0.000000
# 5 0.000000 0.000000 0.000000 0.000000 0.041073 0.000000
# 6 0.000000 0.000000 0.000000 0.000000 0.000000 0.042790
#
#
# Mechanical properties :
#
#
# Convention : Reuss Voigt Hill
#
# Bulk Modulus (GPa) = 43.95366 50.04511 46.99938
# Shear Modulus (GPa) = 21.04757 22.15261 21.60009
#
# Velocity S-wave (km/s) = 3.20761 3.29073 3.24943
# Velocity P-wave (km/s) = 5.93332 6.23717 6.08714
#
# Compressibility (1/GPa) = 0.02275123
#
# Stress axis : x y z
#
# Youngs Moduli (GPa) = 62.00873 39.30770 45.34891
#
# Poissons Ratio (x) = 0.39518 0.24490
# Poissons Ratio (y) = 0.62341 0.22582
# Poissons Ratio (z) = 0.33487 0.19574
#
# Static dielectric constant tensor:
#      x y z
#    x 4.323220 0.000000 0.000000 
#    y 0.000000 3.364350 0.000000 
#    z 0.000000 0.000000 3.635740 
# 
# 
# High freq. dielectric constant tensor:
#      x y z
#    x 1.815320 0.000000 0.000000 
#    y 0.000000 1.764110 0.000000 
#    z 0.000000 0.000000 1.795190 
# 
# From -- ./inp_files/7058.got.cif
#   From: 2010.03.12/outbox.cif.g09.slc.cpg/sg47_4_cif.got.tgz:7058.got - 2010.04.14 03:12:58.
