data_PCOD8199362
_publ_section_title
;
Structure prediction by ZEFSAII (Michael W. Deem and Ramdas Pophale) SiO2 
 PCOD8199362
Probable space group: P M M M
;
_chemical_formula_sum "Si O2"
_cell_formula_units_Z 48
_cell_length_a 9.704106
_cell_length_b 29.671976
_cell_length_c 8.610386
_cell_angle_alpha 90.000000
_cell_angle_beta 90.000000
_cell_angle_gamma 90.000000
_cell_volume 2479.274548
_symmetry_space_group_name_H-M "P M M M"
_symmetry_group_IT_number 47
_symmetry_cell_setting 'orthorhombic'
loop_
_space_group_symop_operation_xyz
x,y,z
-x,-y,z
x,-y,-z
-x,y,-z
-x,-y,-z
x,y,-z
-x,y,z
x,-y,z
loop_
_atom_site_type_symbol
_atom_site_label
_atom_site_fract_x
_atom_site_fract_y
_atom_site_fract_z
Si Si1 0.339116 0.772803 0.183586
Si Si2 0.246342 0.400350 0.819470
Si Si3 0.000000 0.447690 0.672428
Si Si4 0.841394 0.306408 0.318529
Si Si5 0.500000 0.449482 0.680967
Si Si6 0.163458 0.047675 0.173423
Si Si7 0.844540 0.144322 0.814675
O O1 0.500000 0.774007 0.231154
O O2 0.261803 0.732970 0.271019
O O3 0.265224 0.818625 0.241066
O O4 0.322082 0.766036 0.000000
O O5 0.127580 0.434562 0.776429
O O6 0.205059 0.350070 0.774638
O O7 0.374104 0.418365 0.725436
O O8 0.280496 0.402025 0.000000
O O9 0.000000 0.500000 0.644030
O O10 0.000000 0.424148 0.500000
O O11 0.826762 0.316095 0.500000
O O12 0.000000 0.294215 0.275334
O O13 0.500000 0.500000 0.758838
O O14 0.500000 0.457314 0.500000
O O15 0.207106 0.095325 0.253334
O O16 0.000000 0.049121 0.164012
O O17 0.209409 0.000000 0.257553
O O18 0.225187 0.046235 0.000000
O O19 0.000000 0.156284 0.755392
O O20 0.847355 0.141172 0.000000
#
# Coordination Sequence:
#
# PCOD8199362 Si02
#       7
#     8   8   4   8   4   8   8
#     4  10  21  35  53  78 109 143 182 228 279 337
#     4  12  25  41  65  94 123 155 195 242 286 334
#     4  11  23  41  65  93 127 163 197 233 280 337
#     4  11  24  42  63  84 110 144 185 232 287 347
#     4  11  25  45  67  91 125 167 201 233 280 335
#     4   7   9  14  28  54  88 126 171 220 268 320
#     4   8  13  23  41  65  95 135 179 225 276 327
#
# _framework density 19.360502
#
# number of rings (size 3 to 8) (size 9 to 14) (size 15 to 20)
#    0.000    2.167    0.833    5.000    1.167    5.333 
#    0.000    0.000    0.000    0.500    0.000    3.500 
#    0.000    0.667    0.000    7.667    0.000    8.833 
#
# Total GULP energy -594678.228346 kJ/mol
# GULP energy per Si atom -12389.129757 kJ/mol
# Density = 1.931644 g / cm^3
# Si number density = 19.360502 Si / 1000 Ang^3
#
#
#
# Elastic Constant Matrix: (Units=GPa)
#
#
# Indices 1 2 3 4 5 6 
#
# 1 121.8664 53.6355 16.9694 0.0000 0.0000 0.0000
# 2 53.6355 131.7376 24.1756 0.0000 0.0000 0.0000
# 3 16.9694 24.1756 48.0517 0.0000 0.0000 0.0000
# 4 0.0000 0.0000 0.0000 -13.1574 0.0000 0.0000
# 5 0.0000 0.0000 0.0000 0.0000 28.9935 0.0000
# 6 0.0000 0.0000 0.0000 0.0000 0.0000 56.2399
#
#
#
# Elastic Compliance Matrix: (Units=1/GPa)
#
#
# Indices 1 2 3 4 5 6 
#
# 1 0.010115 -0.003815 -0.001653 0.000000 0.000000 0.000000
# 2 -0.003815 0.009802 -0.003584 0.000000 0.000000 0.000000
# 3 -0.001653 -0.003584 0.023198 0.000000 0.000000 0.000000
# 4 0.000000 0.000000 0.000000 -0.076003 0.000000 0.000000
# 5 0.000000 0.000000 0.000000 0.000000 0.034491 0.000000
# 6 0.000000 0.000000 0.000000 0.000000 0.000000 0.017781
#
#
# Mechanical properties :
#
#
# Convention : Reuss Voigt Hill
#
# Bulk Modulus (GPa) = 39.98264 54.57965 47.28114
# Shear Modulus (GPa) = 109.11390 28.20687 68.66038
#
# Velocity S-wave (km/s) = 7.51541 3.82111 5.96164
# Velocity P-wave (km/s) = 9.79821 6.90799 8.47718
#
# Compressibility (1/GPa) = 0.02501085
#
# Stress axis : x y z
#
# Youngs Moduli (GPa) = 98.86481 102.02233 43.10740
#
# Poissons Ratio (x) = 0.38920 0.07125
# Poissons Ratio (y) = 0.37715 0.15451
# Poissons Ratio (z) = 0.16340 0.36567
#
# Static dielectric constant tensor:
#      x y z
#    x 3.615420 0.000000 0.000000 
#    y 0.000000 3.578720 0.000000 
#    z 0.000000 0.000000 3.234430 
# 
# 
# High freq. dielectric constant tensor:
#      x y z
#    x 1.737740 0.000000 0.000000 
#    y 0.000000 1.780150 0.000000 
#    z 0.000000 0.000000 1.715720 
# 
# From -- ./inp_files/2816.got.cif
#   From: 2010.03.12/outbox.cif.g09.slc.cpg/sg47_2_cif.got.tgz:2816.got - 2010.04.14 03:12:58.
