data_PCOD8199067
_publ_section_title
;
Structure prediction by ZEFSAII (Michael W. Deem and Ramdas Pophale) SiO2 
 PCOD8199067
Probable space group: P M M M
;
_chemical_formula_sum "Si O2"
_cell_formula_units_Z 44
_cell_length_a 15.352182
_cell_length_b 9.320181
_cell_length_c 17.253117
_cell_angle_alpha 90.000000
_cell_angle_beta 90.000000
_cell_angle_gamma 90.000000
_cell_volume 2468.664230
_symmetry_space_group_name_H-M "P M M M"
_symmetry_group_IT_number 47
_symmetry_cell_setting 'orthorhombic'
loop_
_space_group_symop_operation_xyz
x,y,z
-x,-y,z
x,-y,-z
-x,y,-z
-x,-y,-z
x,y,-z
-x,y,z
x,-y,z
loop_
_atom_site_type_symbol
_atom_site_label
_atom_site_fract_x
_atom_site_fract_y
_atom_site_fract_z
Si Si1 0.099368 0.346977 0.500000
Si Si2 0.760190 0.829925 0.791589
Si Si3 0.820030 0.841202 0.375866
Si Si4 0.902919 0.829619 0.087456
Si Si5 0.402764 0.333699 0.737582
Si Si6 0.374777 0.161096 0.585672
O O1 0.150500 0.500000 0.500000
O O2 0.116948 0.263685 0.420813
O O3 0.000000 0.382703 0.500000
O O4 0.809369 0.790497 0.712459
O O5 0.824286 0.771056 0.858961
O O6 0.666580 0.749654 0.792290
O O7 0.741720 0.000000 0.797849
O O8 0.728715 0.838716 0.419489
O O9 0.861152 0.000000 0.378110
O O10 0.000000 0.776053 0.113686
O O11 0.902197 0.000000 0.091649
O O12 0.884536 0.776846 0.000000
O O13 0.500000 0.317926 0.773774
O O14 0.375200 0.500000 0.732592
O O15 0.407476 0.270766 0.650534
O O16 0.410084 0.204862 0.500000
O O17 0.406927 0.000000 0.607220
#
# Coordination Sequence:
#
# PCOD8199067 Si02
#       6
#     4   8   8   8   8   8
#     4  11  23  33  41  59  88 123 164 207 249 290
#     4   9  18  32  53  78 101 130 167 204 246 299
#     4   9  17  31  47  64  88 120 161 203 241 287
#     4   8  14  27  51  84 115 134 153 194 252 307
#     4  10  21  34  47  68  99 134 172 211 252 298
#     4   9  17  31  50  69  90 118 158 208 258 303
#
# _framework density 17.823402999999999
#
# number of rings (size 3 to 8) (size 9 to 14) (size 15 to 20)
#    0.000    2.818    0.909    2.455    0.000    6.545 
#    0.000    3.636    0.000    1.636    0.000    5.091 
#    0.000    0.000    0.000    0.000    0.000    0.000 
#
# Total GULP energy -545201.359684 kJ/mol
# GULP energy per Si atom -12390.939993 kJ/mol
# Density = 1.778284 g / cm^3
# Si number density = 17.823403 Si / 1000 Ang^3
#
#
#
# Elastic Constant Matrix: (Units=GPa)
#
#
# Indices 1 2 3 4 5 6 
#
# 1 111.5716 45.0587 63.2646 0.0000 0.0000 0.0000
# 2 45.0587 73.9042 33.3494 0.0000 0.0000 0.0000
# 3 63.2646 33.3494 95.0632 0.0000 0.0000 0.0000
# 4 0.0000 0.0000 0.0000 5.6010 0.0000 0.0000
# 5 0.0000 0.0000 0.0000 0.0000 -28.4154 0.0000
# 6 0.0000 0.0000 0.0000 0.0000 0.0000 21.2153
#
#
#
# Elastic Compliance Matrix: (Units=1/GPa)
#
#
# Indices 1 2 3 4 5 6 
#
# 1 0.016376 -0.006019 -0.008787 0.000000 0.000000 0.000000
# 2 -0.006019 0.018288 -0.002410 0.000000 0.000000 0.000000
# 3 -0.008787 -0.002410 0.017212 0.000000 0.000000 0.000000
# 4 0.000000 0.000000 0.000000 0.178541 0.000000 0.000000
# 5 0.000000 0.000000 0.000000 0.000000 -0.035192 0.000000
# 6 0.000000 0.000000 0.000000 0.000000 0.000000 0.047136
#
#
# Mechanical properties :
#
#
# Convention : Reuss Voigt Hill
#
# Bulk Modulus (GPa) = 57.32319 62.65385 59.98852
# Shear Modulus (GPa) = 17.69233 8.93792 13.31512
#
# Velocity S-wave (km/s) = 3.15405 2.24178 2.73620
# Velocity P-wave (km/s) = 6.74504 6.47531 6.61155
#
# Compressibility (1/GPa) = 0.01744495
#
# Stress axis : x y z
#
# Youngs Moduli (GPa) = 61.06461 54.67928 58.09810
#
# Poissons Ratio (x) = 0.32913 0.51049
# Poissons Ratio (y) = 0.36757 0.14001
# Poissons Ratio (z) = 0.53655 0.13177
#
# Static dielectric constant tensor:
#      x y z
#    x 3.364050 0.000000 0.000000 
#    y 0.000000 3.130860 0.000000 
#    z 0.000000 0.000000 3.233690 
# 
# 
# High freq. dielectric constant tensor:
#      x y z
#    x 1.690670 0.000000 0.000000 
#    y 0.000000 1.667360 0.000000 
#    z 0.000000 0.000000 1.666030 
# 
# From -- ./inp_files/24295.got.cif
#   From: 2010.03.12/outbox.cif.g09.slc.cpg/sg47_13_cif.got.tgz:24295.got - 2010.04.14 03:12:58.
