data_PCOD8199706
_publ_section_title
;
Structure prediction by ZEFSAII (Michael W. Deem and Ramdas Pophale) SiO2 
 PCOD8199706
Probable space group: P M M M
;
_chemical_formula_sum "Si O2"
_cell_formula_units_Z 56
_cell_length_a 9.009844
_cell_length_b 14.350678
_cell_length_c 23.465936
_cell_angle_alpha 90.000000
_cell_angle_beta 90.000000
_cell_angle_gamma 90.000000
_cell_volume 3034.083811
_symmetry_space_group_name_H-M "P M M M"
_symmetry_group_IT_number 47
_symmetry_cell_setting 'orthorhombic'
loop_
_space_group_symop_operation_xyz
x,y,z
-x,-y,z
x,-y,-z
-x,y,-z
-x,-y,-z
x,y,-z
-x,y,z
x,-y,z
loop_
_atom_site_type_symbol
_atom_site_label
_atom_site_fract_x
_atom_site_fract_y
_atom_site_fract_z
Si Si1 0.330161 0.391801 0.064386
Si Si2 0.325671 0.893966 0.645239
Si Si3 0.174119 0.757099 0.435551
Si Si4 0.667358 0.107003 0.065524
Si Si5 0.325095 0.743390 0.737793
Si Si6 0.825872 0.393182 0.343896
Si Si7 0.173774 0.750464 0.141481
O O1 0.500000 0.371847 0.081819
O O2 0.293814 0.500000 0.067911
O O3 0.220879 0.342066 0.108005
O O4 0.302196 0.355374 0.000000
O O5 0.500000 0.891274 0.635056
O O6 0.250484 0.849081 0.589786
O O7 0.281044 0.834154 0.700770
O O8 0.269307 0.000000 0.653500
O O9 0.229656 0.742275 0.500000
O O10 0.218505 0.664311 0.400519
O O11 0.000000 0.774438 0.432923
O O12 0.500000 0.145394 0.075392
O O13 0.784563 0.160452 0.103970
O O14 0.674285 0.000000 0.083532
O O15 0.712841 0.120036 0.000000
O O16 0.500000 0.731214 0.742760
O O17 0.259280 0.649662 0.710046
O O18 0.257802 0.758104 0.799364
O O19 0.776106 0.500000 0.352637
O O20 0.000000 0.385948 0.331427
O O21 0.000000 0.748256 0.153068
#
# Coordination Sequence:
#
# PCOD8199706 Si02
#       7
#     8   8   8   8   8   8   8
#     4   9  19  37  59  80 103 135 176 218 259 309
#     4   9  19  36  56  76  99 132 174 217 260 302
#     4   9  18  32  51  79 112 141 171 206 246 301
#     4   9  19  37  59  80 104 138 178 216 256 308
#     4  10  21  37  55  74  99 134 177 221 261 307
#     4   9  18  34  55  77 104 138 173 213 261 306
#     4  12  24  35  52  80 111 140 171 213 267 320
#
# _framework density 18.456972
#
# number of rings (size 3 to 8) (size 9 to 14) (size 15 to 20)
#    0.000    2.429    0.000    3.000    0.000    6.000 
#    0.000    5.714    0.000    0.000    0.000    4.000 
#    0.000    0.000    0.000    0.000    0.000    0.000 
#
# Total GULP energy -694491.614024 kJ/mol
# GULP energy per Si atom -12401.635965 kJ/mol
# Density = 1.841496 g / cm^3
# Si number density = 18.456972 Si / 1000 Ang^3
#
#
#
# Elastic Constant Matrix: (Units=GPa)
#
#
# Indices 1 2 3 4 5 6 
#
# 1 48.2014 36.3636 32.5809 0.0000 0.0000 0.0000
# 2 36.3636 128.5145 52.0930 0.0000 0.0000 0.0000
# 3 32.5809 52.0930 107.9412 0.0000 0.0000 0.0000
# 4 0.0000 0.0000 0.0000 24.6148 0.0000 0.0000
# 5 0.0000 0.0000 0.0000 0.0000 31.2627 0.0000
# 6 0.0000 0.0000 0.0000 0.0000 0.0000 28.6442
#
#
#
# Elastic Compliance Matrix: (Units=1/GPa)
#
#
# Indices 1 2 3 4 5 6 
#
# 1 0.029200 -0.005830 -0.006000 0.000000 0.000000 0.000000
# 2 -0.005830 0.010838 -0.003471 0.000000 0.000000 0.000000
# 3 -0.006000 -0.003471 0.012750 0.000000 0.000000 0.000000
# 4 0.000000 0.000000 0.000000 0.040626 0.000000 0.000000
# 5 0.000000 0.000000 0.000000 0.000000 0.031987 0.000000
# 6 0.000000 0.000000 0.000000 0.000000 0.000000 0.034911
#
#
# Mechanical properties :
#
#
# Convention : Reuss Voigt Hill
#
# Bulk Modulus (GPa) = 45.07235 58.52580 51.79907
# Shear Modulus (GPa) = 25.21309 27.81229 26.51269
#
# Velocity S-wave (km/s) = 3.70002 3.88606 3.79418
# Velocity P-wave (km/s) = 6.53657 7.20510 6.87896
#
# Compressibility (1/GPa) = 0.02218655
#
# Stress axis : x y z
#
# Youngs Moduli (GPa) = 34.24619 92.27080 78.42973
#
# Poissons Ratio (x) = 0.53796 0.47059
# Poissons Ratio (y) = 0.19966 0.27219
# Poissons Ratio (z) = 0.20548 0.32023
#
# Static dielectric constant tensor:
#      x y z
#    x 3.298020 0.000000 0.000000 
#    y 0.000000 3.510590 0.000000 
#    z 0.000000 0.000000 3.463920 
# 
# 
# High freq. dielectric constant tensor:
#      x y z
#    x 1.707910 0.000000 0.000000 
#    y 0.000000 1.723120 0.000000 
#    z 0.000000 0.000000 1.716360 
# 
# From -- ./inp_files/7226.got.cif
#   From: 2010.03.12/outbox.cif.g09.slc.cpg/sg47_4_cif.got.tgz:7226.got - 2010.04.14 03:12:58.
