data_PCOD8199694
_publ_section_title
;
Structure prediction by ZEFSAII (Michael W. Deem and Ramdas Pophale) SiO2 
 PCOD8199694
Probable space group: P M M M
;
_chemical_formula_sum "Si O2"
_cell_formula_units_Z 40
_cell_length_a 9.109370
_cell_length_b 31.407777
_cell_length_c 7.481799
_cell_angle_alpha 90.000000
_cell_angle_beta 90.000000
_cell_angle_gamma 90.000000
_cell_volume 2140.580564
_symmetry_space_group_name_H-M "P M M M"
_symmetry_group_IT_number 47
_symmetry_cell_setting 'orthorhombic'
loop_
_space_group_symop_operation_xyz
x,y,z
-x,-y,z
x,-y,-z
-x,y,-z
-x,-y,-z
x,y,-z
-x,y,z
x,-y,z
loop_
_atom_site_type_symbol
_atom_site_label
_atom_site_fract_x
_atom_site_fract_y
_atom_site_fract_z
Si Si1 0.169996 0.803472 0.796779
Si Si2 0.326026 0.352402 0.500000
Si Si3 0.173210 0.500000 0.805616
Si Si4 0.674472 0.047428 0.500000
Si Si5 0.170880 0.407628 0.788231
Si Si6 0.828971 0.263560 0.500000
Si Si7 0.672946 0.888733 0.797811
O O1 0.211556 0.763359 0.675686
O O2 0.257410 0.844762 0.729961
O O3 0.000000 0.814840 0.776636
O O4 0.212020 0.791616 0.000000
O O5 0.500000 0.354573 0.500000
O O6 0.266993 0.374153 0.680315
O O7 0.274290 0.304097 0.500000
O O8 0.215907 0.455091 0.712887
O O9 0.000000 0.500000 0.831706
O O10 0.248376 0.500000 0.000000
O O11 0.500000 0.044423 0.500000
O O12 0.729490 0.072471 0.324329
O O13 0.743031 0.000000 0.500000
O O14 0.000000 0.398500 0.749585
O O15 0.202995 0.403693 0.000000
O O16 0.000000 0.277009 0.500000
O O17 0.500000 0.883207 0.781015
O O18 0.722116 0.898971 0.000000
#
# Coordination Sequence:
#
# PCOD8199694 Si02
#       7
#     8   4   4   4   8   4   8
#     4   9  18  33  54  77  97 120 155 204 259 305
#     4  12  26  38  50  76 114 149 177 209 259 321
#     4   7  12  27  55  86 105 125 170 226 267 297
#     4   9  17  28  43  66  97 132 167 200 233 272
#     4   9  18  36  61  83 105 137 179 224 263 304
#     4  10  21  37  54  72  96 128 171 213 247 298
#     4   9  17  29  47  71  96 123 158 199 242 290
#
# _framework density 18.686519000000001
#
# number of rings (size 3 to 8) (size 9 to 14) (size 15 to 20)
#    0.000    2.800    0.000    2.700    0.000    2.800 
#    0.000    6.500    0.000    3.000    0.000    2.800 
#    0.000    0.000    0.000    0.000    0.000    0.000 
#
# Total GULP energy -495778.279946 kJ/mol
# GULP energy per Si atom -12394.456999 kJ/mol
# Density = 1.864399 g / cm^3
# Si number density = 18.686519 Si / 1000 Ang^3
#
#
#
# Elastic Constant Matrix: (Units=GPa)
#
#
# Indices 1 2 3 4 5 6 
#
# 1 60.8231 58.3293 41.2060 0.0000 0.0000 0.0000
# 2 58.3293 167.3545 78.1057 0.0000 0.0000 0.0000
# 3 41.2060 78.1057 105.8053 0.0000 0.0000 0.0000
# 4 0.0000 0.0000 0.0000 26.8895 0.0000 0.0000
# 5 0.0000 0.0000 0.0000 0.0000 17.7657 0.0000
# 6 0.0000 0.0000 0.0000 0.0000 0.0000 36.4357
#
#
#
# Elastic Compliance Matrix: (Units=1/GPa)
#
#
# Indices 1 2 3 4 5 6 
#
# 1 0.026544 -0.006754 -0.005352 0.000000 0.000000 0.000000
# 2 -0.006754 0.010834 -0.005368 0.000000 0.000000 0.000000
# 3 -0.005352 -0.005368 0.015498 0.000000 0.000000 0.000000
# 4 0.000000 0.000000 0.000000 0.037189 0.000000 0.000000
# 5 0.000000 0.000000 0.000000 0.000000 0.056288 0.000000
# 6 0.000000 0.000000 0.000000 0.000000 0.000000 0.027446
#
#
# Mechanical properties :
#
#
# Convention : Reuss Voigt Hill
#
# Bulk Modulus (GPa) = 55.77388 76.58501 66.17944
# Shear Modulus (GPa) = 23.28588 26.64099 24.96343
#
# Velocity S-wave (km/s) = 3.53389 3.77991 3.65897
# Velocity P-wave (km/s) = 6.82371 7.75393 7.30365
#
# Compressibility (1/GPa) = 0.01792954
#
# Stress axis : x y z
#
# Youngs Moduli (GPa) = 37.67374 92.29819 64.52396
#
# Poissons Ratio (x) = 0.62336 0.34532
# Poissons Ratio (y) = 0.25444 0.34635
# Poissons Ratio (z) = 0.20163 0.49544
#
# Static dielectric constant tensor:
#      x y z
#    x 3.100180 0.000000 0.000000 
#    y 0.000000 3.610930 0.000000 
#    z 0.000000 0.000000 3.601160 
# 
# 
# High freq. dielectric constant tensor:
#      x y z
#    x 1.688420 0.000000 0.000000 
#    y 0.000000 1.728960 0.000000 
#    z 0.000000 0.000000 1.732730 
# 
# From -- ./inp_files/1920.got.cif
#   From: 2010.03.12/outbox.cif.g09.slc.cpg/sg47_1_cif.got.tgz:1920.got - 2010.04.14 03:12:58.
