data_PCOD8199380
_publ_section_title
;
Structure prediction by ZEFSAII (Michael W. Deem and Ramdas Pophale) SiO2 
 PCOD8199380
Probable space group: P M M M
;
_chemical_formula_sum "Si O2"
_cell_formula_units_Z 56
_cell_length_a 18.786444
_cell_length_b 16.612228
_cell_length_c 9.592421
_cell_angle_alpha 90.000000
_cell_angle_beta 90.000000
_cell_angle_gamma 90.000000
_cell_volume 2993.647744
_symmetry_space_group_name_H-M "P M M M"
_symmetry_group_IT_number 47
_symmetry_cell_setting 'orthorhombic'
loop_
_space_group_symop_operation_xyz
x,y,z
-x,-y,z
x,-y,-z
-x,y,-z
-x,-y,-z
x,y,-z
-x,y,z
x,-y,z
loop_
_atom_site_type_symbol
_atom_site_label
_atom_site_fract_x
_atom_site_fract_y
_atom_site_fract_z
Si Si1 0.355025 0.641236 0.158298
Si Si2 0.077495 0.404193 0.656077
Si Si3 0.232472 0.905942 0.334055
Si Si4 0.799827 0.591245 0.157215
Si Si5 0.357956 0.824690 0.163662
Si Si6 0.583884 0.500000 0.341950
Si Si7 0.923832 0.904546 0.343659
Si Si8 0.500000 0.910102 0.165462
O O1 0.270457 0.642578 0.178578
O O2 0.378338 0.731765 0.189603
O O3 0.391279 0.580396 0.264560
O O4 0.374657 0.614811 0.000000
O O5 0.093994 0.376146 0.500000
O O6 0.077941 0.500000 0.667805
O O7 0.138150 0.366869 0.753250
O O8 0.000000 0.371744 0.702878
O O9 0.239390 0.891226 0.500000
O O10 0.289886 0.852782 0.251722
O O11 0.152916 0.877884 0.279220
O O12 0.245488 0.000000 0.299696
O O13 0.783291 0.500000 0.206113
O O14 0.827207 0.592085 0.000000
O O15 0.427834 0.869652 0.220997
O O16 0.342751 0.841207 0.000000
O O17 0.500000 0.500000 0.343950
O O18 0.614213 0.500000 0.500000
O O19 0.926292 0.870470 0.500000
O O20 0.000000 0.877019 0.269969
O O21 0.921982 0.000000 0.347737
O O22 0.500000 0.000000 0.223433
O O23 0.500000 0.905868 0.000000
#
# Coordination Sequence:
#
# PCOD8199380 Si02
#       8
#     8   8   8   8   8   4   8   4
#     4  10  21  38  58  80 106 139 181 220 259 316
#     4   8  14  24  39  63  94 126 162 206 256 308
#     4   9  17  30  50  77 109 144 181 222 272 325
#     4   9  16  28  46  69  95 124 165 214 258 303
#     4  10  21  35  55  80 105 140 182 223 268 315
#     4  11  25  41  59  85 112 137 168 209 265 322
#     4   7  10  19  39  68  99 132 174 220 260 306
#     4   9  18  34  55  80 107 134 174 221 257 299
#
# _framework density 18.706275999999999
#
# number of rings (size 3 to 8) (size 9 to 14) (size 15 to 20)
#    0.000    3.000    0.714    2.357    1.000    2.857 
#    0.000    1.786    0.000    2.571    0.000    6.000 
#    0.000    0.000    0.000    0.000    0.000    0.000 
#
# Total GULP energy -693753.542338 kJ/mol
# GULP energy per Si atom -12388.456113 kJ/mol
# Density = 1.866370 g / cm^3
# Si number density = 18.706276 Si / 1000 Ang^3
#
#
#
# Elastic Constant Matrix: (Units=GPa)
#
#
# Indices 1 2 3 4 5 6 
#
# 1 143.5021 49.1550 55.6972 0.0000 0.0000 0.0000
# 2 49.1550 73.5731 38.6209 0.0000 0.0000 0.0000
# 3 55.6972 38.6209 70.8028 0.0000 0.0000 0.0000
# 4 0.0000 0.0000 0.0000 17.3123 0.0000 0.0000
# 5 0.0000 0.0000 0.0000 0.0000 30.1600 0.0000
# 6 0.0000 0.0000 0.0000 0.0000 0.0000 8.0222
#
#
#
# Elastic Compliance Matrix: (Units=1/GPa)
#
#
# Indices 1 2 3 4 5 6 
#
# 1 0.010756 -0.003846 -0.006363 0.000000 0.000000 0.000000
# 2 -0.003846 0.020420 -0.008113 0.000000 0.000000 0.000000
# 3 -0.006363 -0.008113 0.023555 0.000000 0.000000 0.000000
# 4 0.000000 0.000000 0.000000 0.057762 0.000000 0.000000
# 5 0.000000 0.000000 0.000000 0.000000 0.033156 0.000000
# 6 0.000000 0.000000 0.000000 0.000000 0.000000 0.124654
#
#
# Mechanical properties :
#
#
# Convention : Reuss Voigt Hill
#
# Bulk Modulus (GPa) = 55.29074 63.86935 59.58005
# Shear Modulus (GPa) = 15.97564 20.72591 18.35078
#
# Velocity S-wave (km/s) = 2.92554 3.33222 3.13548
# Velocity P-wave (km/s) = 6.40572 7.00160 6.71027
#
# Compressibility (1/GPa) = 0.01808621
#
# Stress axis : x y z
#
# Youngs Moduli (GPa) = 92.97517 48.97091 42.45382
#
# Poissons Ratio (x) = 0.18833 0.27014
# Poissons Ratio (y) = 0.35755 0.34445
# Poissons Ratio (z) = 0.59162 0.39732
#
# Static dielectric constant tensor:
#      x y z
#    x 3.870060 0.000000 0.000000 
#    y 0.000000 2.995020 0.000000 
#    z 0.000000 0.000000 3.263510 
# 
# 
# High freq. dielectric constant tensor:
#      x y z
#    x 1.746680 0.000000 0.000000 
#    y 0.000000 1.697710 0.000000 
#    z 0.000000 0.000000 1.691670 
# 
# From -- ./inp_files/11286.got.cif
#   From: 2010.03.12/outbox.cif.g09.slc.cpg/sg47_6_cif.got.tgz:11286.got - 2010.04.14 03:12:58.
