data_PCOD8199575
_publ_section_title
;
Structure prediction by ZEFSAII (Michael W. Deem and Ramdas Pophale) SiO2 
 PCOD8199575
Probable space group: P M M M
;
_chemical_formula_sum "Si O2"
_cell_formula_units_Z 40
_cell_length_a 9.102597
_cell_length_b 7.835345
_cell_length_c 26.943069
_cell_angle_alpha 90.000000
_cell_angle_beta 90.000000
_cell_angle_gamma 90.000000
_cell_volume 1921.633241
_symmetry_space_group_name_H-M "P M M M"
_symmetry_group_IT_number 47
_symmetry_cell_setting 'orthorhombic'
loop_
_space_group_symop_operation_xyz
x,y,z
-x,-y,z
x,-y,-z
-x,y,-z
-x,-y,-z
x,y,-z
-x,y,z
x,-y,z
loop_
_atom_site_type_symbol
_atom_site_label
_atom_site_fract_x
_atom_site_fract_y
_atom_site_fract_z
Si Si1 0.166211 0.694167 0.795447
Si Si2 0.332724 0.803788 0.702563
Si Si3 0.834996 0.296496 0.500000
Si Si4 0.329169 0.192846 0.888224
Si Si5 0.333414 0.298073 0.404398
Si Si6 0.831132 0.500000 0.941361
O O1 0.168257 0.500000 0.814662
O O2 0.231831 0.699430 0.740269
O O3 0.265181 0.804578 0.832569
O O4 0.000000 0.765448 0.794789
O O5 0.500000 0.734261 0.705289
O O6 0.270707 0.778054 0.646957
O O7 0.325324 0.000000 0.717864
O O8 0.826082 0.500000 0.500000
O O9 0.757914 0.223814 0.549404
O O10 0.000000 0.228640 0.500000
O O11 0.500000 0.242956 0.886371
O O12 0.245279 0.327245 0.922635
O O13 0.308461 0.000000 0.909155
O O14 0.500000 0.237400 0.412277
O O15 0.320925 0.500000 0.401738
O O16 0.000000 0.500000 0.923259
O O17 0.819240 0.500000 0.000000
#
# Coordination Sequence:
#
# PCOD8199575 Si02
#       6
#     8   8   4   8   8   4
#     4  11  23  38  59  88 121 159 202 249 305 367
#     4  10  21  36  54  79 111 147 189 237 291 353
#     4   9  17  29  48  73  98 126 168 225 282 339
#     4  11  24  42  67  98 131 171 218 267 318 373
#     4   9  17  31  51  73  98 133 177 225 280 343
#     4  11  25  45  69  99 135 175 219 266 319 376
#
# _framework density 20.815626999999999
#
# number of rings (size 3 to 8) (size 9 to 14) (size 15 to 20)
#    0.000    1.800    1.000    3.000    0.000    9.600 
#    0.000    4.500    0.000    3.000    0.000    0.000 
#    0.000    0.000    0.000    0.000    0.000    0.000 
#
# Total GULP energy -496111.121474 kJ/mol
# GULP energy per Si atom -12402.778037 kJ/mol
# Density = 2.076825 g / cm^3
# Si number density = 20.815627 Si / 1000 Ang^3
#
#
#
# Elastic Constant Matrix: (Units=GPa)
#
#
# Indices 1 2 3 4 5 6 
#
# 1 151.1764 47.3788 72.5307 0.0000 0.0000 0.0000
# 2 47.3788 76.0913 35.3805 0.0000 0.0000 0.0000
# 3 72.5307 35.3805 119.3508 0.0000 0.0000 0.0000
# 4 0.0000 0.0000 0.0000 18.0742 0.0000 0.0000
# 5 0.0000 0.0000 0.0000 0.0000 34.4663 0.0000
# 6 0.0000 0.0000 0.0000 0.0000 0.0000 19.6790
#
#
#
# Elastic Compliance Matrix: (Units=1/GPa)
#
#
# Indices 1 2 3 4 5 6 
#
# 1 0.010321 -0.004071 -0.005065 0.000000 0.000000 0.000000
# 2 -0.004071 0.016849 -0.002521 0.000000 0.000000 0.000000
# 3 -0.005065 -0.002521 0.012204 0.000000 0.000000 0.000000
# 4 0.000000 0.000000 0.000000 0.055328 0.000000 0.000000
# 5 0.000000 0.000000 0.000000 0.000000 0.029014 0.000000
# 6 0.000000 0.000000 0.000000 0.000000 0.000000 0.050816
#
#
# Mechanical properties :
#
#
# Convention : Reuss Voigt Hill
#
# Bulk Modulus (GPa) = 62.26689 73.02205 67.64447
# Shear Modulus (GPa) = 24.60647 27.19913 25.90280
#
# Velocity S-wave (km/s) = 3.44192 3.61871 3.53142
# Velocity P-wave (km/s) = 6.76567 7.25373 7.01395
#
# Compressibility (1/GPa) = 0.01605990
#
# Stress axis : x y z
#
# Youngs Moduli (GPa) = 96.89117 59.35038 81.93972
#
# Poissons Ratio (x) = 0.24162 0.41504
# Poissons Ratio (y) = 0.39446 0.20654
# Poissons Ratio (z) = 0.49078 0.14960
#
# Static dielectric constant tensor:
#      x y z
#    x 3.830300 0.000000 0.000000 
#    y 0.000000 3.561870 0.000000 
#    z 0.000000 0.000000 3.775860 
# 
# 
# High freq. dielectric constant tensor:
#      x y z
#    x 1.812890 0.000000 0.000000 
#    y 0.000000 1.807420 0.000000 
#    z 0.000000 0.000000 1.820280 
# 
# From -- ./inp_files/33057.got.cif
#   From: 2010.03.12/outbox.cif.g09.slc.cpg/sg47_17_cif.got.tgz:33057.got - 2010.04.14 03:12:58.
