data_PCOD8199561
_publ_section_title
;
Structure prediction by ZEFSAII (Michael W. Deem and Ramdas Pophale) SiO2 
 PCOD8199561
Probable space group: P M M M
;
_chemical_formula_sum "Si O2"
_cell_formula_units_Z 40
_cell_length_a 27.504216
_cell_length_b 9.097187
_cell_length_c 7.881458
_cell_angle_alpha 90.000000
_cell_angle_beta 90.000000
_cell_angle_gamma 90.000000
_cell_volume 1972.027458
_symmetry_space_group_name_H-M "P M M M"
_symmetry_group_IT_number 47
_symmetry_cell_setting 'orthorhombic'
loop_
_space_group_symop_operation_xyz
x,y,z
-x,-y,z
x,-y,-z
-x,y,-z
-x,-y,-z
x,y,-z
-x,y,z
x,-y,z
loop_
_atom_site_type_symbol
_atom_site_label
_atom_site_fract_x
_atom_site_fract_y
_atom_site_fract_z
Si Si1 0.813966 0.338004 0.304533
Si Si2 0.554173 0.325854 0.500000
Si Si3 0.279007 0.167181 0.198187
Si Si4 0.378337 0.327565 0.806151
Si Si5 0.000000 0.667035 0.799941
Si Si6 0.904495 0.837055 0.301609
O O1 0.826598 0.359113 0.500000
O O2 0.809978 0.500000 0.218642
O O3 0.763639 0.252305 0.291358
O O4 0.858231 0.247111 0.218462
O O5 0.551177 0.500000 0.500000
O O6 0.500000 0.257490 0.500000
O O7 0.580894 0.273635 0.327274
O O8 0.329661 0.243012 0.244526
O O9 0.280554 0.000000 0.263719
O O10 0.268680 0.175078 0.000000
O O11 0.367936 0.500000 0.786847
O O12 0.394748 0.290400 0.000000
O O13 0.952950 0.747003 0.729882
O O14 0.000000 0.500000 0.733097
O O15 0.000000 0.673413 0.000000
O O16 0.895918 0.854264 0.500000
O O17 0.908466 0.000000 0.219442
#
# Coordination Sequence:
#
# PCOD8199561 Si02
#       6
#     8   4   8   8   4   8
#     4  10  21  36  56  82 110 141 178 221 270 325
#     4   9  18  32  53  83 113 143 187 238 285 336
#     4  10  21  36  54  78 109 145 183 224 274 329
#     4   9  18  33  53  78 110 147 187 233 284 337
#     4  11  24  39  56  80 108 141 182 225 272 326
#     4  10  21  38  59  82 108 140 180 224 273 329
#
# _framework density 20.283693
#
# number of rings (size 3 to 8) (size 9 to 14) (size 15 to 20)
#    0.000    2.200    0.000    2.400    1.400    6.800 
#    0.000    2.000    0.000    1.200    0.000    2.800 
#    0.000    0.000    0.000    0.000    0.000    0.000 
#
# Total GULP energy -495969.244425 kJ/mol
# GULP energy per Si atom -12399.231111 kJ/mol
# Density = 2.023753 g / cm^3
# Si number density = 20.283693 Si / 1000 Ang^3
#
#
#
# Elastic Constant Matrix: (Units=GPa)
#
#
# Indices 1 2 3 4 5 6 
#
# 1 178.4700 82.9152 47.4242 0.0000 0.0000 0.0000
# 2 82.9152 148.5870 29.3122 0.0000 0.0000 0.0000
# 3 47.4242 29.3122 57.2266 0.0000 0.0000 0.0000
# 4 0.0000 0.0000 0.0000 18.5943 0.0000 0.0000
# 5 0.0000 0.0000 0.0000 0.0000 860.8044 0.0000
# 6 0.0000 0.0000 0.0000 0.0000 0.0000 -29.7326
#
#
#
# Elastic Compliance Matrix: (Units=1/GPa)
#
#
# Indices 1 2 3 4 5 6 
#
# 1 0.008815 -0.003869 -0.005324 0.000000 0.000000 0.000000
# 2 -0.003869 0.009185 -0.001498 0.000000 0.000000 0.000000
# 3 -0.005324 -0.001498 0.022654 0.000000 0.000000 0.000000
# 4 0.000000 0.000000 0.000000 0.053780 0.000000 0.000000
# 5 0.000000 0.000000 0.000000 0.000000 0.001162 0.000000
# 6 0.000000 0.000000 0.000000 0.000000 0.000000 -0.033633
#
#
# Mechanical properties :
#
#
# Convention : Reuss Voigt Hill
#
# Bulk Modulus (GPa) = 51.88913 78.17631 65.03272
# Shear Modulus (GPa) = 55.69958 184.90870 120.30414
#
# Velocity S-wave (km/s) = 5.24594 9.55820 7.70970
# Velocity P-wave (km/s) = 7.89496 12.66639 10.55386
#
# Compressibility (1/GPa) = 0.01927186
#
# Stress axis : x y z
#
# Youngs Moduli (GPa) = 113.43971 108.87808 44.14327
#
# Poissons Ratio (x) = 0.42124 0.23500
# Poissons Ratio (y) = 0.43889 0.06614
# Poissons Ratio (z) = 0.60390 0.16313
#
# Static dielectric constant tensor:
#      x y z
#    x 3.750050 0.000000 0.000000 
#    y 0.000000 3.967940 0.000000 
#    z 0.000000 0.000000 3.586210 
# 
# 
# High freq. dielectric constant tensor:
#      x y z
#    x 1.794380 0.000000 0.000000 
#    y 0.000000 1.794290 0.000000 
#    z 0.000000 0.000000 1.781510 
# 
# From -- ./inp_files/1794.got.cif
#   From: 2010.03.12/outbox.cif.g09.slc.cpg/sg47_1_cif.got.tgz:1794.got - 2010.04.14 03:12:58.
