data_PCOD8199343
_publ_section_title
;
Structure prediction by ZEFSAII (Michael W. Deem and Ramdas Pophale) SiO2 
 PCOD8199343
Probable space group: P M M M
;
_chemical_formula_sum "Si O2"
_cell_formula_units_Z 44
_cell_length_a 9.374378
_cell_length_b 29.385169
_cell_length_c 7.842596
_cell_angle_alpha 90.000000
_cell_angle_beta 90.000000
_cell_angle_gamma 90.000000
_cell_volume 2160.381739
_symmetry_space_group_name_H-M "P M M M"
_symmetry_group_IT_number 47
_symmetry_cell_setting 'orthorhombic'
loop_
_space_group_symop_operation_xyz
x,y,z
-x,-y,z
x,-y,-z
-x,y,-z
-x,-y,-z
x,y,-z
-x,y,z
x,-y,z
loop_
_atom_site_type_symbol
_atom_site_label
_atom_site_fract_x
_atom_site_fract_y
_atom_site_fract_z
Si Si1 0.159182 0.795860 0.301477
Si Si2 0.843352 0.365901 0.196382
Si Si3 0.167042 0.900399 0.696424
Si Si4 0.343510 0.285549 0.196054
Si Si5 0.660965 0.551277 0.700846
Si Si6 0.335982 0.946215 0.000000
O O1 0.163807 0.785047 0.500000
O O2 0.202275 0.847807 0.266145
O O3 0.269940 0.763469 0.207759
O O4 0.000000 0.786584 0.230462
O O5 0.750284 0.325606 0.284384
O O6 0.769031 0.414643 0.210209
O O7 0.000000 0.367531 0.283759
O O8 0.862930 0.353726 0.000000
O O9 0.207146 0.912663 0.500000
O O10 0.259528 0.929514 0.827611
O O11 0.000000 0.910185 0.726817
O O12 0.500000 0.283888 0.283965
O O13 0.363631 0.298045 0.000000
O O14 0.673539 0.556816 0.500000
O O15 0.500000 0.562428 0.760616
O O16 0.701696 0.500000 0.755909
O O17 0.500000 0.929395 0.000000
O O18 0.327272 0.000000 0.000000
#
# Coordination Sequence:
#
# PCOD8199343 Si02
#       6
#     8   8   8   8   8   4
#     4   9  19  36  57  82 111 143 182 227 277 332
#     4  10  21  36  53  75 104 138 177 219 265 318
#     4   9  20  40  64  90 120 157 204 255 303 356
#     4  10  21  35  52  77 108 142 180 220 265 321
#     4   9  19  36  56  77 101 131 169 213 264 323
#     4  11  25  41  59  89 127 165 205 249 304 367
#
# _framework density 20.366772000000001
#
# number of rings (size 3 to 8) (size 9 to 14) (size 15 to 20)
#    0.000    2.455    0.000    3.000    1.273    6.545 
#    0.000    6.364    0.000    0.000    0.000    0.000 
#    0.000    0.000    0.000    0.000    0.000    0.000 
#
# Total GULP energy -545490.478422 kJ/mol
# GULP energy per Si atom -12397.510873 kJ/mol
# Density = 2.032042 g / cm^3
# Si number density = 20.366772 Si / 1000 Ang^3
#
#
#
# Elastic Constant Matrix: (Units=GPa)
#
#
# Indices 1 2 3 4 5 6 
#
# 1 163.1390 83.8102 44.6684 0.0000 0.0000 0.0000
# 2 83.8102 114.8014 35.0345 0.0000 0.0000 0.0000
# 3 44.6684 35.0345 58.2418 0.0000 0.0000 0.0000
# 4 0.0000 0.0000 0.0000 445.4090 0.0000 0.0000
# 5 0.0000 0.0000 0.0000 0.0000 21.1410 0.0000
# 6 0.0000 0.0000 0.0000 0.0000 0.0000 39.8723
#
#
#
# Elastic Compliance Matrix: (Units=1/GPa)
#
#
# Indices 1 2 3 4 5 6 
#
# 1 0.010606 -0.006443 -0.004258 0.000000 0.000000 0.000000
# 2 -0.006443 0.014584 -0.003831 0.000000 0.000000 0.000000
# 3 -0.004258 -0.003831 0.022740 0.000000 0.000000 0.000000
# 4 0.000000 0.000000 0.000000 0.002245 0.000000 0.000000
# 5 0.000000 0.000000 0.000000 0.000000 0.047301 0.000000
# 6 0.000000 0.000000 0.000000 0.000000 0.000000 0.025080
#
#
# Mechanical properties :
#
#
# Convention : Reuss Voigt Hill
#
# Bulk Modulus (GPa) = 53.00915 73.68980 63.34947
# Shear Modulus (GPa) = 31.66376 112.79574 72.22975
#
# Velocity S-wave (km/s) = 3.94722 7.45000 5.96167
# Velocity P-wave (km/s) = 6.84528 10.50063 8.86344
#
# Compressibility (1/GPa) = 0.01886467
#
# Stress axis : x y z
#
# Youngs Moduli (GPa) = 94.28840 68.57006 43.97515
#
# Poissons Ratio (x) = 0.44181 0.18726
# Poissons Ratio (y) = 0.60752 0.16847
# Poissons Ratio (z) = 0.40150 0.26269
#
# Static dielectric constant tensor:
#      x y z
#    x 3.993220 0.000000 0.000000 
#    y 0.000000 3.684310 0.000000 
#    z 0.000000 0.000000 3.441560 
# 
# 
# High freq. dielectric constant tensor:
#      x y z
#    x 1.800050 0.000000 0.000000 
#    y 0.000000 1.797190 0.000000 
#    z 0.000000 0.000000 1.780780 
# 
# From -- ./inp_files/2189.got.cif
#   From: 2010.03.12/outbox.cif.g09.slc.cpg/sg47_2_cif.got.tgz:2189.got - 2010.04.14 03:12:58.
