data_PCOD8199415
_publ_section_title
;
Structure prediction by ZEFSAII (Michael W. Deem and Ramdas Pophale) SiO2 
 PCOD8199415
Probable space group: P M M M
;
_chemical_formula_sum "Si O2"
_cell_formula_units_Z 56
_cell_length_a 14.360627
_cell_length_b 9.033668
_cell_length_c 23.633500
_cell_angle_alpha 90.000000
_cell_angle_beta 90.000000
_cell_angle_gamma 90.000000
_cell_volume 3065.953550
_symmetry_space_group_name_H-M "P M M M"
_symmetry_group_IT_number 47
_symmetry_cell_setting 'orthorhombic'
loop_
_space_group_symop_operation_xyz
x,y,z
-x,-y,z
x,-y,-z
-x,y,-z
-x,-y,-z
x,y,-z
-x,y,z
x,-y,z
loop_
_atom_site_type_symbol
_atom_site_label
_atom_site_fract_x
_atom_site_fract_y
_atom_site_fract_z
Si Si1 0.252577 0.325642 0.235623
Si Si2 0.396593 0.824143 0.437302
Si Si3 0.890342 0.666567 0.563531
Si Si4 0.753381 0.826636 0.936003
Si Si5 0.106004 0.673758 0.141063
Si Si6 0.606922 0.173849 0.157309
Si Si7 0.761826 0.825406 0.355029
O O1 0.265430 0.500000 0.240799
O O2 0.163899 0.282971 0.197004
O O3 0.347405 0.258064 0.210206
O O4 0.232644 0.257299 0.296098
O O5 0.368673 0.765438 0.500000
O O6 0.500000 0.768330 0.421699
O O7 0.327189 0.763659 0.389652
O O8 0.393174 0.000000 0.438000
O O9 0.858660 0.709912 0.500000
O O10 0.855941 0.500000 0.577946
O O11 0.851355 0.784799 0.607846
O O12 0.000000 0.673962 0.568359
O O13 0.846382 0.748750 0.913142
O O14 0.662210 0.782152 0.899771
O O15 0.771699 0.000000 0.932558
O O16 0.734913 0.774060 0.000000
O O17 0.107993 0.500000 0.130647
O O18 0.000000 0.731169 0.147863
O O19 0.500000 0.224543 0.150376
O O20 0.613728 0.000000 0.169514
O O21 0.758016 0.000000 0.344418
#
# Coordination Sequence:
#
# PCOD8199415 Si02
#       7
#     8   8   8   8   8   8   8
#     4  10  21  36  52  72 100 134 173 215 257 304
#     4   8  15  29  48  70  97 128 160 195 240 296
#     4   9  19  36  55  74 100 136 173 208 254 313
#     4   9  18  32  51  79 111 136 162 201 249 302
#     4   9  19  36  55  72  94 131 175 213 250 294
#     4   9  18  34  55  76 101 136 174 211 252 297
#     4  11  21  32  51  79 105 130 166 213 263 309
#
# _framework density 18.265117
#
# number of rings (size 3 to 8) (size 9 to 14) (size 15 to 20)
#    0.000    2.714    0.000    2.143    0.000    4.286 
#    0.000    6.429    0.000    1.286    0.000    9.000 
#    0.000    0.000    0.000    0.000    0.000    0.000 
#
# Total GULP energy -694351.933565 kJ/mol
# GULP energy per Si atom -12399.141671 kJ/mol
# Density = 1.822354 g / cm^3
# Si number density = 18.265117 Si / 1000 Ang^3
#
#
#
# Elastic Constant Matrix: (Units=GPa)
#
#
# Indices 1 2 3 4 5 6 
#
# 1 122.7375 34.7321 57.5408 0.0000 0.0000 0.0000
# 2 34.7321 38.8554 36.2556 0.0000 0.0000 0.0000
# 3 57.5408 36.2556 129.8894 0.0000 0.0000 0.0000
# 4 0.0000 0.0000 0.0000 29.0568 0.0000 0.0000
# 5 0.0000 0.0000 0.0000 0.0000 -230.4550 0.0000
# 6 0.0000 0.0000 0.0000 0.0000 0.0000 25.7511
#
#
#
# Elastic Compliance Matrix: (Units=1/GPa)
#
#
# Indices 1 2 3 4 5 6 
#
# 1 0.011749 -0.007634 -0.003074 0.000000 0.000000 0.000000
# 2 -0.007634 0.039760 -0.007716 0.000000 0.000000 0.000000
# 3 -0.003074 -0.007716 0.011214 0.000000 0.000000 0.000000
# 4 0.000000 0.000000 0.000000 0.034415 0.000000 0.000000
# 5 0.000000 0.000000 0.000000 0.000000 -0.004339 0.000000
# 6 0.000000 0.000000 0.000000 0.000000 0.000000 0.038833
#
#
# Mechanical properties :
#
#
# Convention : Reuss Voigt Hill
#
# Bulk Modulus (GPa) = 38.64685 60.94881 49.79783
# Shear Modulus (GPa) = 28.23168 -24.26583 1.98293
#
# Velocity S-wave (km/s) = 3.93575 -3.64886 1.04307
# Velocity P-wave (km/s) = 6.46980 3.96096 5.36412
#
# Compressibility (1/GPa) = 0.02587533
#
# Stress axis : x y z
#
# Youngs Moduli (GPa) = 85.11558 25.15075 89.17073
#
# Poissons Ratio (x) = 0.19199 0.27410
# Poissons Ratio (y) = 0.64975 0.68808
# Poissons Ratio (z) = 0.26164 0.19407
#
# Static dielectric constant tensor:
#      x y z
#    x 3.523400 0.000000 0.000000 
#    y 0.000000 3.237540 0.000000 
#    z 0.000000 0.000000 3.465520 
# 
# 
# High freq. dielectric constant tensor:
#      x y z
#    x 1.711260 0.000000 0.000000 
#    y 0.000000 1.692670 0.000000 
#    z 0.000000 0.000000 1.710130 
# 
# From -- ./inp_files/11270.got.cif
#   From: 2010.03.12/outbox.cif.g09.slc.cpg/sg47_6_cif.got.tgz:11270.got - 2010.04.14 03:12:58.
