data_PCOD8199793
_publ_section_title
;
Structure prediction by ZEFSAII (Michael W. Deem and Ramdas Pophale) SiO2 
 PCOD8199793
Probable space group: P M M M
;
_chemical_formula_sum "Si O2"
_cell_formula_units_Z 37
_cell_length_a 9.655316
_cell_length_b 8.992219
_cell_length_c 22.658940
_cell_angle_alpha 90.000000
_cell_angle_beta 90.000000
_cell_angle_gamma 90.000000
_cell_volume 1967.310712
_symmetry_space_group_name_H-M "P M M M"
_symmetry_group_IT_number 47
_symmetry_cell_setting 'orthorhombic'
loop_
_space_group_symop_operation_xyz
x,y,z
-x,-y,z
x,-y,-z
-x,y,-z
-x,-y,-z
x,y,-z
-x,y,z
x,-y,z
loop_
_atom_site_type_symbol
_atom_site_label
_atom_site_fract_x
_atom_site_fract_y
_atom_site_fract_z
Si Si1 0.840704 0.672652 0.337678
Si Si2 0.723868 0.838747 0.000000
Si Si3 0.340245 0.170049 0.431876
Si Si4 0.838590 0.173623 0.217826
Si Si5 0.658301 0.671204 0.119027
Si Si6 0.000000 0.000000 0.000000
O O1 0.817628 0.500000 0.324801
O O2 0.752302 0.719843 0.393883
O O3 0.789279 0.761841 0.280417
O O4 0.000000 0.709619 0.351651
O O5 0.677022 0.746574 0.943669
O O6 0.888955 0.864801 0.000000
O O7 0.647078 0.000000 0.000000
O O8 0.312567 0.207514 0.500000
O O9 0.500000 0.197221 0.415978
O O10 0.298995 0.000000 0.418329
O O11 0.755301 0.249211 0.165921
O O12 0.000000 0.206746 0.207109
O O13 0.806343 0.000000 0.216878
O O14 0.500000 0.686742 0.140129
O O15 0.702840 0.500000 0.114269
#
# Coordination Sequence:
#
# PCOD8199793 Si02
#       6
#     8   4   8   8   8   1
#     4  10  21  37  56  82 114 148 186 230 282 335
#     4  10  22  40  62  84 118 148 188 232 277 329
#     4   9  19  36  57  81 110 146 188 232 278 332
#     4  10  22  39  61  84 111 146 190 236 279 333
#     4  11  24  40  59  86 119 152 188 231 282 336
#     4   8  24  40  60  92 120 144 192 240 274 336
#
# _framework density 18.807400999999999
#
# number of rings (size 3 to 8) (size 9 to 14) (size 15 to 20)
#    0.324    1.730    0.000    3.243    1.514    7.784 
#    0.000    3.784    0.000    0.000    0.000    0.000 
#    0.000    0.000    0.000    0.000    0.000    0.000 
#
# Total GULP energy -458370.858848 kJ/mol
# GULP energy per Si atom -12388.401590 kJ/mol
# Density = 1.876459 g / cm^3
# Si number density = 18.807401 Si / 1000 Ang^3
#
#
#
# Elastic Constant Matrix: (Units=GPa)
#
#
# Indices 1 2 3 4 5 6 
#
# 1 69.4884 54.7746 55.8047 0.0000 0.0000 0.0000
# 2 54.7746 124.7561 73.7033 0.0000 0.0000 0.0000
# 3 55.8047 73.7033 127.9646 0.0000 0.0000 0.0000
# 4 0.0000 0.0000 0.0000 49.3806 0.0000 0.0000
# 5 0.0000 0.0000 0.0000 0.0000 36.7254 0.0000
# 6 0.0000 0.0000 0.0000 0.0000 0.0000 36.0354
#
#
#
# Elastic Compliance Matrix: (Units=1/GPa)
#
#
# Indices 1 2 3 4 5 6 
#
# 1 0.025688 -0.007064 -0.007134 0.000000 0.000000 0.000000
# 2 -0.007064 0.014092 -0.005036 0.000000 0.000000 0.000000
# 3 -0.007134 -0.005036 0.013826 0.000000 0.000000 0.000000
# 4 0.000000 0.000000 0.000000 0.020251 0.000000 0.000000
# 5 0.000000 0.000000 0.000000 0.000000 0.027229 0.000000
# 6 0.000000 0.000000 0.000000 0.000000 0.000000 0.027750
#
#
# Mechanical properties :
#
#
# Convention : Reuss Voigt Hill
#
# Bulk Modulus (GPa) = 66.05498 76.75271 71.40384
# Shear Modulus (GPa) = 29.01047 33.62339 31.31693
#
# Velocity S-wave (km/s) = 3.93173 4.23280 4.08504
# Velocity P-wave (km/s) = 7.47057 8.04905 7.76520
#
# Compressibility (1/GPa) = 0.01513891
#
# Stress axis : x y z
#
# Youngs Moduli (GPa) = 38.92848 70.96054 72.32540
#
# Poissons Ratio (x) = 0.50126 0.51596
# Poissons Ratio (y) = 0.27499 0.36424
# Poissons Ratio (z) = 0.27771 0.35737
#
# Static dielectric constant tensor:
#      x y z
#    x 3.457810 0.000000 0.000000 
#    y 0.000000 3.565730 0.000000 
#    z 0.000000 0.000000 3.371480 
# 
# 
# High freq. dielectric constant tensor:
#      x y z
#    x 1.734690 0.000000 0.000000 
#    y 0.000000 1.745830 0.000000 
#    z 0.000000 0.000000 1.730570 
# 
# From -- ./inp_files/31705.got.cif
#   From: 2010.03.12/outbox.cif.g09.slc.cpg/sg47_16_cif.got.tgz:31705.got - 2010.04.14 03:12:58.
