data_PCOD8199821
_publ_section_title
;
Structure prediction by ZEFSAII (Michael W. Deem and Ramdas Pophale) SiO2 
 PCOD8199821
Probable space group: P M M M
;
_chemical_formula_sum "Si O2"
_cell_formula_units_Z 40
_cell_length_a 9.238482
_cell_length_b 27.660745
_cell_length_c 7.840198
_cell_angle_alpha 90.000000
_cell_angle_beta 90.000000
_cell_angle_gamma 90.000000
_cell_volume 2003.510029
_symmetry_space_group_name_H-M "P M M M"
_symmetry_group_IT_number 47
_symmetry_cell_setting 'orthorhombic'
loop_
_space_group_symop_operation_xyz
x,y,z
-x,-y,z
x,-y,-z
-x,y,-z
-x,-y,-z
x,y,-z
-x,y,z
x,-y,z
loop_
_atom_site_type_symbol
_atom_site_label
_atom_site_fract_x
_atom_site_fract_y
_atom_site_fract_z
Si Si1 0.337695 0.304421 0.195691
Si Si2 0.670062 0.877537 0.302733
Si Si3 0.328528 0.946153 0.000000
Si Si4 0.164423 0.604218 0.703688
Si Si5 0.171061 0.500000 0.314183
Si Si6 0.841246 0.215041 0.304478
O O1 0.500000 0.303948 0.272342
O O2 0.272379 0.357566 0.215151
O O3 0.239501 0.265917 0.291951
O O4 0.341010 0.289368 0.000000
O O5 0.710211 0.890636 0.500000
O O6 0.500000 0.868161 0.286703
O O7 0.746445 0.829024 0.231530
O O8 0.722393 0.919800 0.174619
O O9 0.500000 0.949030 0.000000
O O10 0.261059 0.000000 0.000000
O O11 0.176010 0.604719 0.500000
O O12 0.212192 0.550917 0.777095
O O13 0.000000 0.616458 0.759735
O O14 0.245752 0.500000 0.500000
O O15 0.000000 0.500000 0.339350
O O16 0.865400 0.203587 0.500000
O O17 0.000000 0.217592 0.214585
#
# Coordination Sequence:
#
# PCOD8199821 Si02
#       6
#     8   8   4   8   4   8
#     4  11  24  37  49  71 105 141 174 211 259 315
#     4   9  18  33  54  80 111 146 183 226 275 323
#     4   9  18  32  53  83 115 147 187 230 269 316
#     4   9  17  32  55  79 101 128 167 214 261 311
#     4   7  12  26  50  77 100 124 160 209 260 307
#     4  10  21  37  57  80 104 133 173 221 271 321
#
# _framework density 19.964960999999999
#
# number of rings (size 3 to 8) (size 9 to 14) (size 15 to 20)
#    0.000    2.600    0.000    3.000    1.400    6.000 
#    0.000    3.000    0.000    6.000    0.000    2.800 
#    0.000    0.000    0.000    0.000    0.000    0.000 
#
# Total GULP energy -495670.501996 kJ/mol
# GULP energy per Si atom -12391.762550 kJ/mol
# Density = 1.991952 g / cm^3
# Si number density = 19.964961 Si / 1000 Ang^3
#
#
#
# Elastic Constant Matrix: (Units=GPa)
#
#
# Indices 1 2 3 4 5 6 
#
# 1 100.5139 60.8351 22.0896 0.0000 0.0000 0.0000
# 2 60.8351 172.3667 34.7110 0.0000 0.0000 0.0000
# 3 22.0896 34.7110 57.0184 0.0000 0.0000 0.0000
# 4 0.0000 0.0000 0.0000 13.1947 0.0000 0.0000
# 5 0.0000 0.0000 0.0000 0.0000 12.5380 0.0000
# 6 0.0000 0.0000 0.0000 0.0000 0.0000 22.5398
#
#
#
# Elastic Compliance Matrix: (Units=1/GPa)
#
#
# Indices 1 2 3 4 5 6 
#
# 1 0.012969 -0.004064 -0.002551 0.000000 0.000000 0.000000
# 2 -0.004064 0.007885 -0.003226 0.000000 0.000000 0.000000
# 3 -0.002551 -0.003226 0.020490 0.000000 0.000000 0.000000
# 4 0.000000 0.000000 0.000000 0.075788 0.000000 0.000000
# 5 0.000000 0.000000 0.000000 0.000000 0.079757 0.000000
# 6 0.000000 0.000000 0.000000 0.000000 0.000000 0.044366
#
#
# Mechanical properties :
#
#
# Convention : Reuss Voigt Hill
#
# Bulk Modulus (GPa) = 46.15931 62.79671 54.47801
# Shear Modulus (GPa) = 18.64576 23.80540 21.22558
#
# Velocity S-wave (km/s) = 3.05933 3.45680 3.26412
# Velocity P-wave (km/s) = 5.97074 6.88871 6.44609
#
# Compressibility (1/GPa) = 0.02166410
#
# Stress axis : x y z
#
# Youngs Moduli (GPa) = 77.10784 126.81565 48.80370
#
# Poissons Ratio (x) = 0.51533 0.12447
# Poissons Ratio (y) = 0.31334 0.15745
# Poissons Ratio (z) = 0.19666 0.40912
#
# Static dielectric constant tensor:
#      x y z
#    x 3.647480 0.000000 0.000000 
#    y 0.000000 3.917110 0.000000 
#    z 0.000000 0.000000 3.452720 
# 
# 
# High freq. dielectric constant tensor:
#      x y z
#    x 1.754090 0.000000 0.000000 
#    y 0.000000 1.786480 0.000000 
#    z 0.000000 0.000000 1.762900 
# 
# From -- ./inp_files/1697.got.cif
#   From: 2010.03.12/outbox.cif.g09.slc.cpg/sg47_1_cif.got.tgz:1697.got - 2010.04.14 03:12:58.
