data_PCOD8199482
_publ_section_title
;
Structure prediction by ZEFSAII (Michael W. Deem and Ramdas Pophale) SiO2 
 PCOD8199482
Probable space group: P M M M
;
_chemical_formula_sum "Si O2"
_cell_formula_units_Z 64
_cell_length_a 8.950597
_cell_length_b 25.721124
_cell_length_c 14.212219
_cell_angle_alpha 90.000000
_cell_angle_beta 90.000000
_cell_angle_gamma 90.000000
_cell_volume 3271.928748
_symmetry_space_group_name_H-M "P M M M"
_symmetry_group_IT_number 47
_symmetry_cell_setting 'orthorhombic'
loop_
_space_group_symop_operation_xyz
x,y,z
-x,-y,z
x,-y,-z
-x,y,-z
-x,-y,-z
x,y,-z
-x,y,z
x,-y,z
loop_
_atom_site_type_symbol
_atom_site_label
_atom_site_fract_x
_atom_site_fract_y
_atom_site_fract_z
Si Si1 0.824370 0.746112 0.892382
Si Si2 0.324219 0.690690 0.607827
Si Si3 0.329051 0.559830 0.108551
Si Si4 0.832616 0.204413 0.611491
Si Si5 0.323480 0.899750 0.392421
Si Si6 0.327638 0.149059 0.888963
Si Si7 0.824551 0.354192 0.775056
Si Si8 0.172082 0.058243 0.222536
O O1 0.746437 0.797747 0.850039
O O2 0.771377 0.695583 0.835314
O O3 0.000000 0.754547 0.884496
O O4 0.774224 0.737199 0.000000
O O5 0.280712 0.678099 0.500000
O O6 0.500000 0.696832 0.618790
O O7 0.246762 0.743243 0.645361
O O8 0.260751 0.645338 0.674616
O O9 0.500000 0.576340 0.127466
O O10 0.304786 0.500000 0.136278
O O11 0.217957 0.593529 0.171069
O O12 0.287763 0.568791 0.000000
O O13 0.838981 0.203542 0.500000
O O14 0.735762 0.155630 0.646207
O O15 0.000000 0.202196 0.654362
O O16 0.274790 0.910336 0.500000
O O17 0.500000 0.901029 0.382041
O O18 0.248217 0.942452 0.325869
O O19 0.500000 0.149130 0.859655
O O20 0.251804 0.098170 0.846557
O O21 0.303966 0.146002 0.000000
O O22 0.000000 0.353577 0.756620
O O23 0.000000 0.074129 0.233198
O O24 0.188692 0.000000 0.181125
#
# Coordination Sequence:
#
# PCOD8199482 Si02
#       8
#     8   8   8   8   8   8   8   8
#     4   9  19  36  56  81 116 152 183 220 273 340
#     4  10  21  36  53  76 111 155 200 243 287 336
#     4   9  19  37  60  86 119 159 200 242 288 340
#     4   9  17  31  52  77 106 141 181 225 274 330
#     4  10  21  37  58  83 111 144 181 225 278 334
#     4  10  22  40  62  86 111 142 181 229 284 338
#     4  11  22  34  55  87 120 156 195 240 292 341
#     4  11  25  42  60  82 108 142 184 230 281 339
#
# _framework density 19.560327999999998
#
# number of rings (size 3 to 8) (size 9 to 14) (size 15 to 20)
#    0.000    2.125    0.000    3.000    1.750    7.250 
#    0.000    4.375    0.000    0.375    0.000    2.625 
#    0.000    0.000    0.000    0.000    0.000    0.000 
#
# Total GULP energy -793766.926338 kJ/mol
# GULP energy per Si atom -12402.608224 kJ/mol
# Density = 1.951581 g / cm^3
# Si number density = 19.560328 Si / 1000 Ang^3
#
#
#
# Elastic Constant Matrix: (Units=GPa)
#
#
# Indices 1 2 3 4 5 6 
#
# 1 98.3865 44.9827 35.0982 0.0000 0.0000 0.0000
# 2 44.9827 98.6896 42.4113 0.0000 0.0000 0.0000
# 3 35.0982 42.4113 57.9685 0.0000 0.0000 0.0000
# 4 0.0000 0.0000 0.0000 30.8114 0.0000 0.0000
# 5 0.0000 0.0000 0.0000 0.0000 30.6623 0.0000
# 6 0.0000 0.0000 0.0000 0.0000 0.0000 32.6904
#
#
#
# Elastic Compliance Matrix: (Units=1/GPa)
#
#
# Indices 1 2 3 4 5 6 
#
# 1 0.013961 -0.003983 -0.005539 0.000000 0.000000 0.000000
# 2 -0.003983 0.015916 -0.009233 0.000000 0.000000 0.000000
# 3 -0.005539 -0.009233 0.027359 0.000000 0.000000 0.000000
# 4 0.000000 0.000000 0.000000 0.032455 0.000000 0.000000
# 5 0.000000 0.000000 0.000000 0.000000 0.032613 0.000000
# 6 0.000000 0.000000 0.000000 0.000000 0.000000 0.030590
#
#
# Mechanical properties :
#
#
# Convention : Reuss Voigt Hill
#
# Bulk Modulus (GPa) = 50.69273 55.55877 53.12575
# Shear Modulus (GPa) = 25.38318 27.66964 26.52641
#
# Velocity S-wave (km/s) = 3.60625 3.76517 3.68657
# Velocity P-wave (km/s) = 6.58122 6.88240 6.73349
#
# Compressibility (1/GPa) = 0.01972669
#
# Stress axis : x y z
#
# Youngs Moduli (GPa) = 71.62812 62.82935 36.55049
#
# Poissons Ratio (x) = 0.25026 0.20245
# Poissons Ratio (y) = 0.28531 0.33747
# Poissons Ratio (z) = 0.39673 0.58010
#
# Static dielectric constant tensor:
#      x y z
#    x 3.585870 0.000000 0.000000 
#    y 0.000000 3.438080 0.000000 
#    z 0.000000 0.000000 3.592790 
# 
# 
# High freq. dielectric constant tensor:
#      x y z
#    x 1.769740 0.000000 0.000000 
#    y 0.000000 1.746160 0.000000 
#    z 0.000000 0.000000 1.763920 
# 
# From -- ./inp_files/12657.got.cif
#   From: 2010.03.12/outbox.cif.g09.slc.cpg/sg47_7_cif.got.tgz:12657.got - 2010.04.14 03:12:58.
