data_PCOD8199961
_publ_section_title
;
Structure prediction by ZEFSAII (Michael W. Deem and Ramdas Pophale) SiO2 
 PCOD8199961
Probable space group: P M M M
;
_chemical_formula_sum "Si O2"
_cell_formula_units_Z 52
_cell_length_a 13.740360
_cell_length_b 21.029784
_cell_length_c 8.920393
_cell_angle_alpha 90.000000
_cell_angle_beta 90.000000
_cell_angle_gamma 90.000000
_cell_volume 2577.608242
_symmetry_space_group_name_H-M "P M M M"
_symmetry_group_IT_number 47
_symmetry_cell_setting 'orthorhombic'
loop_
_space_group_symop_operation_xyz
x,y,z
-x,-y,z
x,-y,-z
-x,y,-z
-x,-y,-z
x,y,-z
-x,y,z
x,-y,z
loop_
_atom_site_type_symbol
_atom_site_label
_atom_site_fract_x
_atom_site_fract_y
_atom_site_fract_z
Si Si1 0.109264 0.432491 0.177735
Si Si2 0.116044 0.296158 0.830086
Si Si3 0.383833 0.373900 0.670052
Si Si4 0.778869 0.816967 0.324586
Si Si5 0.616580 0.500000 0.830065
Si Si6 0.887527 0.072772 0.171629
Si Si7 0.609804 0.754546 0.177015
O O1 0.163304 0.500000 0.223580
O O2 0.156833 0.365222 0.231766
O O3 0.000000 0.436545 0.242297
O O4 0.103861 0.427341 0.000000
O O5 0.150860 0.240338 0.722765
O O6 0.000000 0.298247 0.828192
O O7 0.153200 0.282576 0.000000
O O8 0.345556 0.371091 0.500000
O O9 0.500000 0.376544 0.675011
O O10 0.341476 0.437034 0.749403
O O11 0.347505 0.311708 0.758955
O O12 0.761294 0.814643 0.500000
O O13 0.824205 0.884399 0.281355
O O14 0.675043 0.811324 0.241679
O O15 0.500000 0.500000 0.825421
O O16 0.655234 0.500000 0.000000
O O17 0.000000 0.081616 0.213922
O O18 0.855583 0.000000 0.195187
O O19 0.870150 0.093724 0.000000
O O20 0.500000 0.766250 0.232330
O O21 0.615949 0.751929 0.000000
#
# Coordination Sequence:
#
# PCOD8199961 Si02
#       7
#     8   8   8   8   4   8   8
#     4   7  10  19  39  67  95 126 170 223 274 318
#     4   9  17  30  50  76 107 143 183 228 275 325
#     4   9  16  27  45  70  99 129 165 218 286 347
#     4  12  24  35  53  82 117 152 184 223 274 334
#     4   9  15  23  39  65  95 129 172 217 266 335
#     4   9  19  38  64  92 122 156 191 225 264 315
#     4  10  21  38  59  79 101 136 186 241 289 337
#
# _framework density 20.173741
#
# number of rings (size 3 to 8) (size 9 to 14) (size 15 to 20)
#    0.000    2.692    0.000    4.846    0.000    6.462 
#    0.000    0.769    1.692    0.923    0.000    5.385 
#    0.000    0.000    0.000    0.000    0.000    0.000 
#
# Total GULP energy -644556.847160 kJ/mol
# GULP energy per Si atom -12395.323984 kJ/mol
# Density = 2.012782 g / cm^3
# Si number density = 20.173741 Si / 1000 Ang^3
#
#
#
# Elastic Constant Matrix: (Units=GPa)
#
#
# Indices 1 2 3 4 5 6 
#
# 1 40.7568 38.7725 16.5455 0.0000 0.0000 0.0000
# 2 38.7725 119.8483 42.5892 0.0000 0.0000 0.0000
# 3 16.5455 42.5892 100.2355 0.0000 0.0000 0.0000
# 4 0.0000 0.0000 0.0000 21.4619 0.0000 0.0000
# 5 0.0000 0.0000 0.0000 0.0000 15.8368 0.0000
# 6 0.0000 0.0000 0.0000 0.0000 0.0000 31.2813
#
#
#
# Elastic Compliance Matrix: (Units=1/GPa)
#
#
# Indices 1 2 3 4 5 6 
#
# 1 0.035558 -0.011092 -0.001156 0.000000 0.000000 0.000000
# 2 -0.011092 0.013288 -0.003815 0.000000 0.000000 0.000000
# 3 -0.001156 -0.003815 0.011788 0.000000 0.000000 0.000000
# 4 0.000000 0.000000 0.000000 0.046594 0.000000 0.000000
# 5 0.000000 0.000000 0.000000 0.000000 0.063144 0.000000
# 6 0.000000 0.000000 0.000000 0.000000 0.000000 0.031968
#
#
# Mechanical properties :
#
#
# Convention : Reuss Voigt Hill
#
# Bulk Modulus (GPa) = 35.07966 50.73945 42.90956
# Shear Modulus (GPa) = 20.49432 24.57822 22.53627
#
# Velocity S-wave (km/s) = 3.19076 3.49424 3.34594
# Velocity P-wave (km/s) = 5.56787 6.44092 6.02024
#
# Compressibility (1/GPa) = 0.02850654
#
# Stress axis : x y z
#
# Youngs Moduli (GPa) = 28.12343 75.25506 84.82961
#
# Poissons Ratio (x) = 0.83476 0.09809
# Poissons Ratio (y) = 0.31196 0.32363
# Poissons Ratio (z) = 0.03252 0.28710
#
# Static dielectric constant tensor:
#      x y z
#    x 3.509510 0.000000 0.000000 
#    y 0.000000 3.776680 0.000000 
#    z 0.000000 0.000000 3.427510 
# 
# 
# High freq. dielectric constant tensor:
#      x y z
#    x 1.779640 0.000000 0.000000 
#    y 0.000000 1.783280 0.000000 
#    z 0.000000 0.000000 1.765310 
# 
# From -- ./inp_files/7095.got.cif
#   From: 2010.03.12/outbox.cif.g09.slc.cpg/sg47_4_cif.got.tgz:7095.got - 2010.04.14 03:12:58.
