data_PCOD8199907
_publ_section_title
;
Structure prediction by ZEFSAII (Michael W. Deem and Ramdas Pophale) SiO2 
 PCOD8199907
Probable space group: P M M M
;
_chemical_formula_sum "Si O2"
_cell_formula_units_Z 48
_cell_length_a 9.214679
_cell_length_b 15.235749
_cell_length_c 17.227965
_cell_angle_alpha 90.000000
_cell_angle_beta 90.000000
_cell_angle_gamma 90.000000
_cell_volume 2418.677703
_symmetry_space_group_name_H-M "P M M M"
_symmetry_group_IT_number 47
_symmetry_cell_setting 'orthorhombic'
loop_
_space_group_symop_operation_xyz
x,y,z
-x,-y,z
x,-y,-z
-x,y,-z
-x,-y,-z
x,y,-z
-x,y,z
x,-y,z
loop_
_atom_site_type_symbol
_atom_site_label
_atom_site_fract_x
_atom_site_fract_y
_atom_site_fract_z
Si Si1 0.330190 0.174096 0.825462
Si Si2 0.660937 0.903268 0.408958
Si Si3 0.327393 0.000000 0.088671
Si Si4 0.669680 0.601531 0.589904
Si Si5 0.342478 0.656052 0.090702
Si Si6 0.172717 0.241540 0.327398
Si Si7 0.841748 0.500000 0.093105
O O1 0.500000 0.167143 0.803108
O O2 0.298854 0.244650 0.892548
O O3 0.237917 0.206217 0.752770
O O4 0.272096 0.083577 0.862128
O O5 0.654837 0.910796 0.500000
O O6 0.500000 0.874977 0.378070
O O7 0.783427 0.832781 0.388898
O O8 0.699460 0.000000 0.374153
O O9 0.500000 0.000000 0.083166
O O10 0.265193 0.000000 0.000000
O O11 0.708687 0.621547 0.500000
O O12 0.500000 0.619849 0.604092
O O13 0.706945 0.500000 0.609232
O O14 0.761797 0.664608 0.646505
O O15 0.500000 0.635749 0.127094
O O16 0.232982 0.586543 0.128134
O O17 0.346317 0.641184 0.000000
O O18 0.000000 0.250245 0.321791
O O19 0.000000 0.500000 0.128926
O O20 0.843273 0.500000 0.000000
#
# Coordination Sequence:
#
# PCOD8199907 Si02
#       7
#     8   8   4   8   8   8   4
#     4  10  21  37  58  84 113 150 190 236 295 349
#     4   9  19  37  61  85 109 145 194 241 283 333
#     4   9  18  36  65  95 114 137 190 257 305 346
#     4   9  19  39  67  93 116 150 200 252 296 345
#     4   9  17  32  55  81 107 137 181 234 282 332
#     4  12  25  37  53  83 124 161 192 233 287 348
#     4   9  17  29  49  77 107 139 172 211 266 333
#
# _framework density 19.845555000000001
#
# number of rings (size 3 to 8) (size 9 to 14) (size 15 to 20)
#    0.000    2.333    0.000    3.750    1.167    7.000 
#    1.500    1.667    0.000    2.000    0.000    0.000 
#    0.000    0.000    0.000    0.000    0.000    0.000 
#
# Total GULP energy -594869.867957 kJ/mol
# GULP energy per Si atom -12393.122249 kJ/mol
# Density = 1.980039 g / cm^3
# Si number density = 19.845555 Si / 1000 Ang^3
#
#
#
# Elastic Constant Matrix: (Units=GPa)
#
#
# Indices 1 2 3 4 5 6 
#
# 1 113.0530 83.7089 42.7288 0.0000 0.0000 0.0000
# 2 83.7089 175.6004 51.7648 0.0000 0.0000 0.0000
# 3 42.7288 51.7648 71.8797 0.0000 0.0000 0.0000
# 4 0.0000 0.0000 0.0000 30.4813 0.0000 0.0000
# 5 0.0000 0.0000 0.0000 0.0000 14.8551 0.0000
# 6 0.0000 0.0000 0.0000 0.0000 0.0000 5.8571
#
#
#
# Elastic Compliance Matrix: (Units=1/GPa)
#
#
# Indices 1 2 3 4 5 6 
#
# 1 0.014838 -0.005679 -0.004731 0.000000 0.000000 0.000000
# 2 -0.005679 0.009403 -0.003396 0.000000 0.000000 0.000000
# 3 -0.004731 -0.003396 0.019170 0.000000 0.000000 0.000000
# 4 0.000000 0.000000 0.000000 0.032807 0.000000 0.000000
# 5 0.000000 0.000000 0.000000 0.000000 0.067317 0.000000
# 6 0.000000 0.000000 0.000000 0.000000 0.000000 0.170733
#
#
# Mechanical properties :
#
#
# Convention : Reuss Voigt Hill
#
# Bulk Modulus (GPa) = 63.29117 79.65977 71.47547
# Shear Modulus (GPa) = 14.40316 22.39408 18.39862
#
# Velocity S-wave (km/s) = 2.69692 3.36284 3.04812
# Velocity P-wave (km/s) = 6.45437 7.43675 6.96291
#
# Compressibility (1/GPa) = 0.01579999
#
# Stress axis : x y z
#
# Youngs Moduli (GPa) = 67.39310 106.35035 52.16496
#
# Poissons Ratio (x) = 0.60394 0.24679
# Poissons Ratio (y) = 0.38271 0.17714
# Poissons Ratio (z) = 0.31883 0.36115
#
# Static dielectric constant tensor:
#      x y z
#    x 3.810780 0.000000 0.000000 
#    y 0.000000 4.318370 0.000000 
#    z 0.000000 0.000000 3.483520 
# 
# 
# High freq. dielectric constant tensor:
#      x y z
#    x 1.746370 0.000000 0.000000 
#    y 0.000000 1.793490 0.000000 
#    z 0.000000 0.000000 1.758370 
# 
# From -- ./inp_files/6433.got.cif
#   From: 2010.03.12/outbox.cif.g09.slc.cpg/sg47_4_cif.got.tgz:6433.got - 2010.04.14 03:12:58.
