data_PCOD8199584
_publ_section_title
;
Structure prediction by ZEFSAII (Michael W. Deem and Ramdas Pophale) SiO2 
 PCOD8199584
Probable space group: P M M M
;
_chemical_formula_sum "Si O2"
_cell_formula_units_Z 64
_cell_length_a 17.941782
_cell_length_b 13.346484
_cell_length_c 14.073187
_cell_angle_alpha 90.000000
_cell_angle_beta 90.000000
_cell_angle_gamma 90.000000
_cell_volume 3369.961227
_symmetry_space_group_name_H-M "P M M M"
_symmetry_group_IT_number 47
_symmetry_cell_setting 'orthorhombic'
loop_
_space_group_symop_operation_xyz
x,y,z
-x,-y,z
x,-y,-z
-x,y,-z
-x,-y,-z
x,y,-z
-x,y,z
x,-y,z
loop_
_atom_site_type_symbol
_atom_site_label
_atom_site_fract_x
_atom_site_fract_y
_atom_site_fract_z
Si Si1 0.310447 0.615992 0.771634
Si Si2 0.911939 0.612279 0.606718
Si Si3 0.585160 0.273716 0.892775
Si Si4 0.822877 0.756114 0.739449
Si Si5 0.913524 0.115849 0.109934
Si Si6 0.719458 0.882365 0.392878
Si Si7 0.582983 0.618880 0.394169
Si Si8 0.415578 0.114258 0.736051
O O1 0.289589 0.500000 0.761390
O O2 0.363537 0.632415 0.862611
O O3 0.236024 0.679535 0.784931
O O4 0.355464 0.658837 0.679536
O O5 0.884164 0.638120 0.500000
O O6 0.884226 0.500000 0.633468
O O7 0.881903 0.692610 0.680252
O O8 0.000000 0.616600 0.610857
O O9 0.500000 0.307838 0.880486
O O10 0.605250 0.178125 0.828686
O O11 0.603136 0.242532 0.000000
O O12 0.863022 0.813723 0.824790
O O13 0.784390 0.834484 0.669562
O O14 0.000000 0.137241 0.132230
O O15 0.894786 0.000000 0.131564
O O16 0.896100 0.140523 0.000000
O O17 0.722543 0.840106 0.500000
O O18 0.637801 0.856457 0.351193
O O19 0.734020 0.000000 0.391789
O O20 0.605031 0.654721 0.500000
O O21 0.500000 0.658998 0.366814
O O22 0.581461 0.500000 0.389509
O O23 0.500000 0.133468 0.701647
O O24 0.403244 0.000000 0.767432
#
# Coordination Sequence:
#
# PCOD8199584 Si02
#       8
#     8   8   8   8   8   8   8   8
#     4  11  23  36  51  76 112 150 192 238 282 330
#     4   9  19  36  57  82 113 151 196 236 265 309
#     4  10  21  38  57  77 102 138 190 245 291 336
#     4  12  21  35  57  86 118 151 184 220 281 336
#     4   9  20  41  68  94 115 138 176 227 282 343
#     4  10  21  36  54  82 119 153 183 221 273 333
#     4   8  15  30  51  72  97 136 189 246 294 329
#     4   9  18  36  59  81 106 141 188 236 282 335
#
# _framework density 18.991318
#
# number of rings (size 3 to 8) (size 9 to 14) (size 15 to 20)
#    0.000    2.250    1.250    3.000    0.000    3.000 
#    0.000    4.375    0.000    1.125    0.000    9.625 
#    0.000    0.000    0.000    0.000    0.000    0.000 
#
# Total GULP energy -793565.208885 kJ/mol
# GULP energy per Si atom -12399.456389 kJ/mol
# Density = 1.894809 g / cm^3
# Si number density = 18.991318 Si / 1000 Ang^3
#
#
#
# Elastic Constant Matrix: (Units=GPa)
#
#
# Indices 1 2 3 4 5 6 
#
# 1 97.5842 55.0612 69.8714 0.0000 0.0000 0.0000
# 2 55.0612 91.5417 64.2357 0.0000 0.0000 0.0000
# 3 69.8714 64.2357 137.7651 0.0000 0.0000 0.0000
# 4 0.0000 0.0000 0.0000 33.6668 0.0000 0.0000
# 5 0.0000 0.0000 0.0000 0.0000 28.9654 0.0000
# 6 0.0000 0.0000 0.0000 0.0000 0.0000 31.0140
#
#
#
# Elastic Compliance Matrix: (Units=1/GPa)
#
#
# Indices 1 2 3 4 5 6 
#
# 1 0.018539 -0.006767 -0.006247 0.000000 0.000000 0.000000
# 2 -0.006767 0.018707 -0.005290 0.000000 0.000000 0.000000
# 3 -0.006247 -0.005290 0.012894 0.000000 0.000000 0.000000
# 4 0.000000 0.000000 0.000000 0.029703 0.000000 0.000000
# 5 0.000000 0.000000 0.000000 0.000000 0.034524 0.000000
# 6 0.000000 0.000000 0.000000 0.000000 0.000000 0.032244
#
#
# Mechanical properties :
#
#
# Convention : Reuss Voigt Hill
#
# Bulk Modulus (GPa) = 73.90868 78.35863 76.13366
# Shear Modulus (GPa) = 26.63417 27.91075 27.27246
#
# Velocity S-wave (km/s) = 3.74898 3.83777 3.79363
# Velocity P-wave (km/s) = 7.59877 7.80947 7.70484
#
# Compressibility (1/GPa) = 0.01353021
#
# Stress axis : x y z
#
# Youngs Moduli (GPa) = 53.94032 53.45733 77.55681
#
# Poissons Ratio (x) = 0.36176 0.48451
# Poissons Ratio (y) = 0.36503 0.41028
# Poissons Ratio (z) = 0.33698 0.28279
#
# Static dielectric constant tensor:
#      x y z
#    x 3.423170 0.000000 0.000000 
#    y 0.000000 3.497620 0.000000 
#    z 0.000000 0.000000 3.520480 
# 
# 
# High freq. dielectric constant tensor:
#      x y z
#    x 1.733060 0.000000 0.000000 
#    y 0.000000 1.744460 0.000000 
#    z 0.000000 0.000000 1.732610 
# 
# From -- ./inp_files/17877.got.cif
#   From: 2010.03.12/outbox.cif.g09.slc.cpg/sg47_9_cif.got.tgz:17877.got - 2010.04.14 03:12:58.
