data_PCOD8199514
_publ_section_title
;
Structure prediction by ZEFSAII (Michael W. Deem and Ramdas Pophale) SiO2 
 PCOD8199514
Probable space group: P M M M
;
_chemical_formula_sum "Si O2"
_cell_formula_units_Z 40
_cell_length_a 9.164226
_cell_length_b 25.714891
_cell_length_c 9.198453
_cell_angle_alpha 90.000000
_cell_angle_beta 90.000000
_cell_angle_gamma 90.000000
_cell_volume 2167.680507
_symmetry_space_group_name_H-M "P M M M"
_symmetry_group_IT_number 47
_symmetry_cell_setting 'orthorhombic'
loop_
_space_group_symop_operation_xyz
x,y,z
-x,-y,z
x,-y,-z
-x,y,-z
-x,-y,-z
x,y,-z
-x,y,z
x,-y,z
loop_
_atom_site_type_symbol
_atom_site_label
_atom_site_fract_x
_atom_site_fract_y
_atom_site_fract_z
Si Si1 0.670729 0.092781 0.830290
Si Si2 0.830281 0.000000 0.328124
Si Si3 0.167241 0.197302 0.830540
Si Si4 0.837492 0.500000 0.673799
Si Si5 0.332495 0.713402 0.329056
Si Si6 0.338321 0.402463 0.672628
O O1 0.500000 0.091519 0.792722
O O2 0.753861 0.050437 0.736515
O O3 0.734841 0.148362 0.784095
O O4 0.698419 0.081339 0.000000
O O5 0.809073 0.000000 0.500000
O O6 0.000000 0.000000 0.284158
O O7 0.223456 0.247797 0.748778
O O8 0.000000 0.186124 0.786878
O O9 0.182999 0.208383 0.000000
O O10 0.832135 0.500000 0.500000
O O11 0.763101 0.552157 0.737009
O O12 0.000000 0.500000 0.734119
O O13 0.316282 0.721300 0.500000
O O14 0.500000 0.723478 0.281551
O O15 0.283668 0.655080 0.282572
O O16 0.342468 0.405922 0.500000
O O17 0.500000 0.411768 0.735010
#
# Coordination Sequence:
#
# PCOD8199514 Si02
#       6
#     8   4   8   4   8   8
#     4  10  21  38  60  82 103 133 174 214 251 294
#     4  11  24  39  56  82 114 143 170 203 248 300
#     4  10  21  36  54  77 104 135 171 209 251 300
#     4   9  15  21  33  57  88 121 158 199 242 290
#     4   9  18  32  50  73 100 131 168 209 254 303
#     4   8  14  25  40  59  87 123 160 198 243 295
#
# _framework density 18.452905000000001
#
# number of rings (size 3 to 8) (size 9 to 14) (size 15 to 20)
#    0.000    2.600    0.000    3.300    0.000    7.600 
#    0.000    2.000    0.000    0.000    0.000    0.700 
#    0.000    5.600    0.000    0.000    0.000    0.000 
#
# Total GULP energy -495944.492264 kJ/mol
# GULP energy per Si atom -12398.612307 kJ/mol
# Density = 1.841091 g / cm^3
# Si number density = 18.452905 Si / 1000 Ang^3
#
#
#
# Elastic Constant Matrix: (Units=GPa)
#
#
# Indices 1 2 3 4 5 6 
#
# 1 144.3561 94.3584 44.6916 0.0000 0.0000 0.0000
# 2 94.3584 163.4646 47.5816 0.0000 0.0000 0.0000
# 3 44.6916 47.5816 35.5613 0.0000 0.0000 0.0000
# 4 0.0000 0.0000 0.0000 82.1080 0.0000 0.0000
# 5 0.0000 0.0000 0.0000 0.0000 24.4476 0.0000
# 6 0.0000 0.0000 0.0000 0.0000 0.0000 5.2201
#
#
#
# Elastic Compliance Matrix: (Units=1/GPa)
#
#
# Indices 1 2 3 4 5 6 
#
# 1 0.013120 -0.004543 -0.010409 0.000000 0.000000 0.000000
# 2 -0.004543 0.011593 -0.009802 0.000000 0.000000 0.000000
# 3 -0.010409 -0.009802 0.054318 0.000000 0.000000 0.000000
# 4 0.000000 0.000000 0.000000 0.012179 0.000000 0.000000
# 5 0.000000 0.000000 0.000000 0.000000 0.040904 0.000000
# 6 0.000000 0.000000 0.000000 0.000000 0.000000 0.191568
#
#
# Mechanical properties :
#
#
# Convention : Reuss Voigt Hill
#
# Bulk Modulus (GPa) = 33.87386 79.62724 56.75055
# Shear Modulus (GPa) = 13.05377 32.80518 22.92947
#
# Velocity S-wave (km/s) = 2.66260 4.22095 3.52887
# Velocity P-wave (km/s) = 5.27725 8.18538 6.88658
#
# Compressibility (1/GPa) = 0.02952129
#
# Stress axis : x y z
#
# Youngs Moduli (GPa) = 76.22191 86.25607 18.41021
#
# Poissons Ratio (x) = 0.39188 0.19163
# Poissons Ratio (y) = 0.34630 0.18046
# Poissons Ratio (z) = 0.79340 0.84551
#
# Static dielectric constant tensor:
#      x y z
#    x 3.578320 0.000000 0.000000 
#    y 0.000000 3.656850 0.000000 
#    z 0.000000 0.000000 2.993730 
# 
# 
# High freq. dielectric constant tensor:
#      x y z
#    x 1.723890 0.000000 0.000000 
#    y 0.000000 1.733600 0.000000 
#    z 0.000000 0.000000 1.672420 
# 
# From -- ./inp_files/1782.got.cif
#   From: 2010.03.12/outbox.cif.g09.slc.cpg/sg47_1_cif.got.tgz:1782.got - 2010.04.14 03:12:58.
