data_PCOD8199059
_publ_section_title
;
Structure prediction by ZEFSAII (Michael W. Deem and Ramdas Pophale) SiO2 
 PCOD8199059
Probable space group: P M M M
;
_chemical_formula_sum "Si O2"
_cell_formula_units_Z 48
_cell_length_a 24.098575
_cell_length_b 9.300744
_cell_length_c 13.765499
_cell_angle_alpha 90.000000
_cell_angle_beta 90.000000
_cell_angle_gamma 90.000000
_cell_volume 3085.325670
_symmetry_space_group_name_H-M "P M M M"
_symmetry_group_IT_number 47
_symmetry_cell_setting 'orthorhombic'
loop_
_space_group_symop_operation_xyz
x,y,z
-x,-y,z
x,-y,-z
-x,y,-z
-x,-y,-z
x,y,-z
-x,y,z
x,-y,z
loop_
_atom_site_type_symbol
_atom_site_label
_atom_site_fract_x
_atom_site_fract_y
_atom_site_fract_z
Si Si1 0.321710 0.328380 0.389274
Si Si2 0.225583 0.835695 0.290026
Si Si3 0.936450 0.334371 0.782519
Si Si4 0.111254 0.833669 0.610421
Si Si5 0.558680 0.660673 0.384775
Si Si6 0.845444 0.166176 0.109880
O O1 0.309492 0.278351 0.500000
O O2 0.320801 0.500000 0.383254
O O3 0.276532 0.265469 0.316609
O O4 0.382510 0.268416 0.352935
O O5 0.175465 0.806267 0.364256
O O6 0.205619 0.795791 0.181040
O O7 0.245558 0.000000 0.296478
O O8 0.918825 0.500000 0.774236
O O9 0.928187 0.261644 0.677643
O O10 0.899335 0.259413 0.864667
O O11 0.000000 0.317774 0.814753
O O12 0.100701 0.786837 0.500000
O O13 0.096163 0.000000 0.627628
O O14 0.560886 0.652344 0.500000
O O15 0.500000 0.739088 0.352593
O O16 0.556523 0.500000 0.342075
O O17 0.862182 0.000000 0.124794
O O18 0.826686 0.198977 0.000000
#
# Coordination Sequence:
#
# PCOD8199059 Si02
#       6
#     8   8   8   8   8   8
#     4   9  16  24  37  60  87 115 146 174 200 236
#     4   9  17  29  44  62  84 107 133 169 212 252
#     4  10  21  34  47  67  93 114 133 164 209 258
#     4   9  18  32  48  64  84 115 152 181 203 235
#     4   7  10  18  32  50  75 109 147 180 202 223
#     4   9  19  36  54  67  80 104 139 175 210 252
#
# _framework density 15.557515
#
# number of rings (size 3 to 8) (size 9 to 14) (size 15 to 20)
#    0.000    3.167    0.000    3.500    0.000    6.333 
#    0.000    3.333    0.000    0.500    0.000    2.333 
#    0.000    0.667    0.000    8.333    0.000    0.333 
#
# Total GULP energy -594737.034440 kJ/mol
# GULP energy per Si atom -12390.354884 kJ/mol
# Density = 1.552211 g / cm^3
# Si number density = 15.557515 Si / 1000 Ang^3
#
#
#
# Elastic Constant Matrix: (Units=GPa)
#
#
# Indices 1 2 3 4 5 6 
#
# 1 110.5331 44.3857 41.5956 0.0000 0.0000 0.0000
# 2 44.3857 51.7269 31.0457 0.0000 0.0000 0.0000
# 3 41.5956 31.0457 87.9331 0.0000 0.0000 0.0000
# 4 0.0000 0.0000 0.0000 13.8756 0.0000 0.0000
# 5 0.0000 0.0000 0.0000 0.0000 12.2829 0.0000
# 6 0.0000 0.0000 0.0000 0.0000 0.0000 2.3240
#
#
#
# Elastic Compliance Matrix: (Units=1/GPa)
#
#
# Indices 1 2 3 4 5 6 
#
# 1 0.014447 -0.010525 -0.003118 0.000000 0.000000 0.000000
# 2 -0.010525 0.032198 -0.006389 0.000000 0.000000 0.000000
# 3 -0.003118 -0.006389 0.015103 0.000000 0.000000 0.000000
# 4 0.000000 0.000000 0.000000 0.072069 0.000000 0.000000
# 5 0.000000 0.000000 0.000000 0.000000 0.081414 0.000000
# 6 0.000000 0.000000 0.000000 0.000000 0.000000 0.430284
#
#
# Mechanical properties :
#
#
# Convention : Reuss Voigt Hill
#
# Bulk Modulus (GPa) = 46.11762 53.80525 49.96143
# Shear Modulus (GPa) = 7.21701 14.57424 10.89563
#
# Velocity S-wave (km/s) = 2.15615 3.06404 2.64927
# Velocity P-wave (km/s) = 5.99219 6.86859 6.44530
#
# Compressibility (1/GPa) = 0.02168369
#
# Stress axis : x y z
#
# Youngs Moduli (GPa) = 69.21902 31.05740 66.21249
#
# Poissons Ratio (x) = 0.32689 0.20644
# Poissons Ratio (y) = 0.72855 0.42304
# Poissons Ratio (z) = 0.21582 0.19843
#
# Static dielectric constant tensor:
#      x y z
#    x 3.186520 0.000000 0.000000 
#    y 0.000000 2.814500 0.000000 
#    z 0.000000 0.000000 2.853460 
# 
# 
# High freq. dielectric constant tensor:
#      x y z
#    x 1.598240 0.000000 0.000000 
#    y 0.000000 1.579700 0.000000 
#    z 0.000000 0.000000 1.566270 
# 
# From -- ./inp_files/7526.got.cif
#   From: 2010.03.12/outbox.cif.g09.slc.cpg/sg47_4_cif.got.tgz:7526.got - 2010.04.14 03:12:58.
