data_PCOD8199031
_publ_section_title
;
Structure prediction by ZEFSAII (Michael W. Deem and Ramdas Pophale) SiO2 
 PCOD8199031
Probable space group: P M M M
;
_chemical_formula_sum "Si O2"
_cell_formula_units_Z 64
_cell_length_a 25.910351
_cell_length_b 14.468318
_cell_length_c 9.148539
_cell_angle_alpha 90.000000
_cell_angle_beta 90.000000
_cell_angle_gamma 90.000000
_cell_volume 3429.596961
_symmetry_space_group_name_H-M "P M M M"
_symmetry_group_IT_number 47
_symmetry_cell_setting 'orthorhombic'
loop_
_space_group_symop_operation_xyz
x,y,z
-x,-y,z
x,-y,-z
-x,y,-z
-x,-y,-z
x,y,-z
-x,y,z
x,-y,z
loop_
_atom_site_type_symbol
_atom_site_label
_atom_site_fract_x
_atom_site_fract_y
_atom_site_fract_z
Si Si1 0.325424 0.104825 0.825344
Si Si2 0.853184 0.609693 0.335443
Si Si3 0.943054 0.287802 0.172731
Si Si4 0.213954 0.108509 0.842182
Si Si5 0.896212 0.898045 0.825552
Si Si6 0.739183 0.603385 0.673832
Si Si7 0.357522 0.277871 0.672979
Si Si8 0.440658 0.392540 0.166220
O O1 0.268002 0.131026 0.761513
O O2 0.363331 0.177124 0.747563
O O3 0.341007 0.000000 0.781618
O O4 0.327108 0.115513 0.000000
O O5 0.861587 0.645871 0.500000
O O6 0.855979 0.500000 0.330532
O O7 0.898807 0.648512 0.237103
O O8 0.796129 0.640266 0.276821
O O9 0.936537 0.180433 0.222011
O O10 0.000000 0.319490 0.226451
O O11 0.938922 0.296177 0.000000
O O12 0.160205 0.132936 0.759053
O O13 0.213280 0.000000 0.869903
O O14 0.214556 0.159069 0.000000
O O15 0.913282 0.000000 0.767197
O O16 0.890704 0.902782 0.000000
O O17 0.738568 0.598124 0.500000
O O18 0.729252 0.500000 0.736703
O O19 0.694334 0.671022 0.731359
O O20 0.357028 0.266480 0.500000
O O21 0.407081 0.336071 0.718923
O O22 0.500000 0.365367 0.191381
O O23 0.432047 0.500000 0.198232
O O24 0.424265 0.368964 0.000000
#
# Coordination Sequence:
#
# PCOD8199031 Si02
#       8
#     8   8   8   8   8   8   8   8
#     4   9  18  32  49  71 103 143 184 223 261 303
#     4   9  19  37  57  71  89 126 172 209 245 301
#     4  10  21  33  47  73 102 124 154 205 264 310
#     4   7  11  22  41  64  88 119 162 206 244 286
#     4   8  14  26  45  68  95 127 160 195 241 301
#     4   8  16  32  51  73 103 134 163 201 252 309
#     4  11  21  31  51  83 114 144 175 213 266 320
#     4   9  19  37  59  82 111 147 185 223 259 300
#
# _framework density 18.661085
#
# number of rings (size 3 to 8) (size 9 to 14) (size 15 to 20)
#    0.000    3.125    0.000    3.375    1.750    2.250 
#    0.000    3.750    0.000    2.250    0.000    3.500 
#    0.000    0.000    0.000    0.000    0.000    0.000 
#
# Total GULP energy -792858.131489 kJ/mol
# GULP energy per Si atom -12388.408305 kJ/mol
# Density = 1.861861 g / cm^3
# Si number density = 18.661085 Si / 1000 Ang^3
#
#
#
# Elastic Constant Matrix: (Units=GPa)
#
#
# Indices 1 2 3 4 5 6 
#
# 1 104.8484 52.3009 33.8702 0.0000 0.0000 0.0000
# 2 52.3009 72.1154 30.1177 0.0000 0.0000 0.0000
# 3 33.8702 30.1177 38.8903 0.0000 0.0000 0.0000
# 4 0.0000 0.0000 0.0000 16.9097 0.0000 0.0000
# 5 0.0000 0.0000 0.0000 0.0000 20.8118 0.0000
# 6 0.0000 0.0000 0.0000 0.0000 0.0000 26.8773
#
#
#
# Elastic Compliance Matrix: (Units=1/GPa)
#
#
# Indices 1 2 3 4 5 6 
#
# 1 0.016281 -0.008700 -0.007442 0.000000 0.000000 0.000000
# 2 -0.008700 0.025144 -0.011895 0.000000 0.000000 0.000000
# 3 -0.007442 -0.011895 0.041407 0.000000 0.000000 0.000000
# 4 0.000000 0.000000 0.000000 0.059138 0.000000 0.000000
# 5 0.000000 0.000000 0.000000 0.000000 0.048050 0.000000
# 6 0.000000 0.000000 0.000000 0.000000 0.000000 0.037206
#
#
# Mechanical properties :
#
#
# Convention : Reuss Voigt Hill
#
# Bulk Modulus (GPa) = 37.37278 49.82573 43.59925
# Shear Modulus (GPa) = 17.11039 19.55746 18.33392
#
# Velocity S-wave (km/s) = 3.03132 3.24085 3.13784
# Velocity P-wave (km/s) = 5.68529 6.38455 6.04504
#
# Compressibility (1/GPa) = 0.02675744
#
# Stress axis : x y z
#
# Youngs Moduli (GPa) = 61.41974 39.77104 24.15035
#
# Poissons Ratio (x) = 0.34600 0.17974
# Poissons Ratio (y) = 0.53433 0.28728
# Poissons Ratio (z) = 0.45711 0.47309
#
# Static dielectric constant tensor:
#      x y z
#    x 3.586600 0.000000 0.000000 
#    y 0.000000 3.393850 0.000000 
#    z 0.000000 0.000000 2.981940 
# 
# 
# High freq. dielectric constant tensor:
#      x y z
#    x 1.720410 0.000000 0.000000 
#    y 0.000000 1.721110 0.000000 
#    z 0.000000 0.000000 1.677360 
# 
# From -- ./inp_files/12675.got.cif
#   From: 2010.03.12/outbox.cif.g09.slc.cpg/sg47_7_cif.got.tgz:12675.got - 2010.04.14 03:12:58.
