data_PCOD8199210
_publ_section_title
;
Structure prediction by ZEFSAII (Michael W. Deem and Ramdas Pophale) SiO2 
 PCOD8199210
Probable space group: P M M M
;
_chemical_formula_sum "Si O2"
_cell_formula_units_Z 44
_cell_length_a 8.086491
_cell_length_b 30.047691
_cell_length_c 9.495908
_cell_angle_alpha 90.000000
_cell_angle_beta 90.000000
_cell_angle_gamma 90.000000
_cell_volume 2307.319361
_symmetry_space_group_name_H-M "P M M M"
_symmetry_group_IT_number 47
_symmetry_cell_setting 'orthorhombic'
loop_
_space_group_symop_operation_xyz
x,y,z
-x,-y,z
x,-y,-z
-x,y,-z
-x,-y,-z
x,y,-z
-x,y,z
x,-y,z
loop_
_atom_site_type_symbol
_atom_site_label
_atom_site_fract_x
_atom_site_fract_y
_atom_site_fract_z
Si Si1 0.695079 0.291464 0.657728
Si Si2 0.000000 0.050463 0.667906
Si Si3 0.813413 0.197433 0.667227
Si Si4 0.805667 0.449472 0.659097
Si Si5 0.316606 0.895265 0.667655
Si Si6 0.307910 0.370802 0.155753
O O1 0.770179 0.296092 0.500000
O O2 0.500000 0.296045 0.649968
O O3 0.741202 0.243790 0.726248
O O4 0.772993 0.330662 0.753608
O O5 0.167722 0.073823 0.726664
O O6 0.000000 0.052690 0.500000
O O7 0.000000 0.000000 0.722834
O O8 0.803145 0.198695 0.500000
O O9 0.709213 0.155236 0.723021
O O10 0.000000 0.191371 0.720065
O O11 0.749766 0.437765 0.500000
O O12 0.754933 0.500000 0.695214
O O13 0.714503 0.417775 0.767991
O O14 0.000000 0.443015 0.674698
O O15 0.308538 0.896187 0.500000
O O16 0.500000 0.911515 0.718056
O O17 0.500000 0.361053 0.139894
O O18 0.226138 0.372283 0.000000
#
# Coordination Sequence:
#
# PCOD8199210 Si02
#       6
#     8   4   8   8   8   8
#     4   9  17  29  45  65  88 116 153 195 238 285
#     4   9  16  24  32  46  72 106 147 193 236 285
#     4   9  15  24  39  59  81 104 138 188 240 285
#     4   9  19  36  56  76  97 123 159 203 247 290
#     4   9  15  23  35  50  72 104 142 188 240 288
#     4  10  21  35  50  71 101 133 162 195 239 293
#
# _framework density 19.069749000000002
#
# number of rings (size 3 to 8) (size 9 to 14) (size 15 to 20)
#    0.000    2.818    0.909    1.636    0.000    5.455 
#    0.000    6.364    0.000    0.000    0.000    0.000 
#    0.000    0.000    0.000    0.000    0.000    1.818 
#
# Total GULP energy -545333.860693 kJ/mol
# GULP energy per Si atom -12393.951379 kJ/mol
# Density = 1.902635 g / cm^3
# Si number density = 19.069749 Si / 1000 Ang^3
#
#
#
# Elastic Constant Matrix: (Units=GPa)
#
#
# Indices 1 2 3 4 5 6 
#
# 1 79.9977 47.6123 20.5865 0.0000 0.0000 0.0000
# 2 47.6123 156.5359 50.5962 0.0000 0.0000 0.0000
# 3 20.5865 50.5962 62.0369 0.0000 0.0000 0.0000
# 4 0.0000 0.0000 0.0000 2.5464 0.0000 0.0000
# 5 0.0000 0.0000 0.0000 0.0000 8.5526 0.0000
# 6 0.0000 0.0000 0.0000 0.0000 0.0000 32.1511
#
#
#
# Elastic Compliance Matrix: (Units=1/GPa)
#
#
# Indices 1 2 3 4 5 6 
#
# 1 0.015402 -0.004118 -0.001752 0.000000 0.000000 0.000000
# 2 -0.004118 0.009776 -0.006607 0.000000 0.000000 0.000000
# 3 -0.001752 -0.006607 0.022089 0.000000 0.000000 0.000000
# 4 0.000000 0.000000 0.000000 0.392712 0.000000 0.000000
# 5 0.000000 0.000000 0.000000 0.000000 0.116923 0.000000
# 6 0.000000 0.000000 0.000000 0.000000 0.000000 0.031103
#
#
# Mechanical properties :
#
#
# Convention : Reuss Voigt Hill
#
# Bulk Modulus (GPa) = 44.81660 59.57341 52.19501
# Shear Modulus (GPa) = 8.05933 20.63506 14.34719
#
# Velocity S-wave (km/s) = 2.05801 3.29307 2.74588
# Velocity P-wave (km/s) = 5.40367 6.76511 6.12235
#
# Compressibility (1/GPa) = 0.02231316
#
# Stress axis : x y z
#
# Youngs Moduli (GPa) = 64.92454 102.28617 45.27071
#
# Poissons Ratio (x) = 0.42126 0.07933
# Poissons Ratio (y) = 0.26739 0.29910
# Poissons Ratio (z) = 0.11376 0.67579
#
# Static dielectric constant tensor:
#      x y z
#    x 3.457260 0.000000 0.000000 
#    y 0.000000 3.710420 0.000000 
#    z 0.000000 0.000000 3.157400 
# 
# 
# High freq. dielectric constant tensor:
#      x y z
#    x 1.737590 0.000000 0.000000 
#    y 0.000000 1.751530 0.000000 
#    z 0.000000 0.000000 1.672340 
# 
# From -- ./inp_files/2038.got.cif
#   From: 2010.03.12/outbox.cif.g09.slc.cpg/sg47_2_cif.got.tgz:2038.got - 2010.04.14 03:12:58.
