data_PCOD8199454
_publ_section_title
;
Structure prediction by ZEFSAII (Michael W. Deem and Ramdas Pophale) SiO2 
 PCOD8199454
Probable space group: P M M M
;
_chemical_formula_sum "Si O2"
_cell_formula_units_Z 64
_cell_length_a 19.886869
_cell_length_b 8.967309
_cell_length_c 19.679394
_cell_angle_alpha 90.000000
_cell_angle_beta 90.000000
_cell_angle_gamma 90.000000
_cell_volume 3509.459775
_symmetry_space_group_name_H-M "P M M M"
_symmetry_group_IT_number 47
_symmetry_cell_setting 'orthorhombic'
loop_
_space_group_symop_operation_xyz
x,y,z
-x,-y,z
x,-y,-z
-x,y,-z
-x,-y,-z
x,y,-z
-x,y,z
x,-y,z
loop_
_atom_site_type_symbol
_atom_site_label
_atom_site_fract_x
_atom_site_fract_y
_atom_site_fract_z
Si Si1 0.578062 0.825464 0.321732
Si Si2 0.678873 0.672938 0.579640
Si Si3 0.421371 0.327352 0.183360
Si Si4 0.078384 0.671602 0.669793
Si Si5 0.184675 0.826439 0.578420
Si Si6 0.327022 0.173407 0.079049
Si Si7 0.074028 0.676768 0.176837
Si Si8 0.189114 0.674621 0.078139
O O1 0.500000 0.789050 0.334047
O O2 0.618033 0.756984 0.384387
O O3 0.603732 0.751784 0.251985
O O4 0.591982 0.000000 0.317195
O O5 0.669582 0.701036 0.500000
O O6 0.676567 0.500000 0.598838
O O7 0.749887 0.738521 0.604839
O O8 0.500000 0.301363 0.172483
O O9 0.402422 0.500000 0.188600
O O10 0.385682 0.255816 0.118855
O O11 0.099009 0.500000 0.658072
O O12 0.119719 0.776157 0.619797
O O13 0.094846 0.721819 0.746810
O O14 0.000000 0.694581 0.654019
O O15 0.170545 0.789092 0.500000
O O16 0.197959 0.000000 0.590163
O O17 0.255436 0.239016 0.101488
O O18 0.328244 0.000000 0.096827
O O19 0.340042 0.204150 0.000000
O O20 0.070288 0.500000 0.171687
O O21 0.128129 0.739145 0.123377
O O22 0.000000 0.742459 0.159302
O O23 0.201155 0.500000 0.090884
O O24 0.171176 0.707638 0.000000
#
# Coordination Sequence:
#
# PCOD8199454 Si02
#       8
#     8   8   8   8   8   8   8   8
#     4  10  21  37  57  81 110 142 175 213 258 310
#     4  10  21  37  57  80 107 140 178 219 261 308
#     4  10  21  37  57  80 106 136 172 216 263 311
#     4   9  18  33  52  73 100 135 172 211 258 315
#     4  10  21  36  53  74 102 134 169 214 265 314
#     4  10  21  36  53  74 104 141 177 215 261 314
#     4   8  15  29  49  74 102 130 164 208 255 301
#     4   9  17  30  50  75 102 133 170 212 255 301
#
# _framework density 18.236426999999999
#
# number of rings (size 3 to 8) (size 9 to 14) (size 15 to 20)
#    0.000    2.500    0.000    2.625    0.000    6.000 
#    0.000    9.375    0.000    1.125    0.000    1.750 
#    0.000    0.000    0.000    0.000    0.000    0.000 
#
# Total GULP energy -793772.427807 kJ/mol
# GULP energy per Si atom -12402.694184 kJ/mol
# Density = 1.819492 g / cm^3
# Si number density = 18.236427 Si / 1000 Ang^3
#
#
#
# Elastic Constant Matrix: (Units=GPa)
#
#
# Indices 1 2 3 4 5 6 
#
# 1 93.7020 55.1215 63.5593 0.0000 0.0000 0.0000
# 2 55.1215 89.1065 48.7821 0.0000 0.0000 0.0000
# 3 63.5593 48.7821 83.2432 0.0000 0.0000 0.0000
# 4 0.0000 0.0000 0.0000 29.2454 0.0000 0.0000
# 5 0.0000 0.0000 0.0000 0.0000 34.6025 0.0000
# 6 0.0000 0.0000 0.0000 0.0000 0.0000 25.8207
#
#
#
# Elastic Compliance Matrix: (Units=1/GPa)
#
#
# Indices 1 2 3 4 5 6 
#
# 1 0.025067 -0.007404 -0.014801 0.000000 0.000000 0.000000
# 2 -0.007404 0.018710 -0.005312 0.000000 0.000000 0.000000
# 3 -0.014801 -0.005312 0.026427 0.000000 0.000000 0.000000
# 4 0.000000 0.000000 0.000000 0.034193 0.000000 0.000000
# 5 0.000000 0.000000 0.000000 0.000000 0.028900 0.000000
# 6 0.000000 0.000000 0.000000 0.000000 0.000000 0.038729
#
#
# Mechanical properties :
#
#
# Convention : Reuss Voigt Hill
#
# Bulk Modulus (GPa) = 65.91224 66.77531 66.34378
# Shear Modulus (GPa) = 21.54093 24.50630 23.02362
#
# Velocity S-wave (km/s) = 3.44059 3.66978 3.55703
# Velocity P-wave (km/s) = 7.21146 7.39272 7.30265
#
# Compressibility (1/GPa) = 0.01517169
#
# Stress axis : x y z
#
# Youngs Moduli (GPa) = 39.89273 53.44631 37.84020
#
# Poissons Ratio (x) = 0.39570 0.56008
# Poissons Ratio (y) = 0.29535 0.20099
# Poissons Ratio (z) = 0.59046 0.28389
#
# Static dielectric constant tensor:
#      x y z
#    x 3.467950 0.000000 0.000000 
#    y 0.000000 3.316520 0.000000 
#    z 0.000000 0.000000 3.379910 
# 
# 
# High freq. dielectric constant tensor:
#      x y z
#    x 1.710260 0.000000 0.000000 
#    y 0.000000 1.702230 0.000000 
#    z 0.000000 0.000000 1.707420 
# 
# From -- ./inp_files/28765.got.cif
#   From: 2010.03.12/outbox.cif.g09.slc.cpg/sg47_15_cif.got.tgz:28765.got - 2010.04.14 03:12:58.
