data_PCOD8199876
_publ_section_title
;
Structure prediction by ZEFSAII (Michael W. Deem and Ramdas Pophale) SiO2 
 PCOD8199876
Probable space group: P M M M
;
_chemical_formula_sum "Si O2"
_cell_formula_units_Z 48
_cell_length_a 27.717214
_cell_length_b 9.539749
_cell_length_c 9.037616
_cell_angle_alpha 90.000000
_cell_angle_beta 90.000000
_cell_angle_gamma 90.000000
_cell_volume 2389.683625
_symmetry_space_group_name_H-M "P M M M"
_symmetry_group_IT_number 47
_symmetry_cell_setting 'orthorhombic'
loop_
_space_group_symop_operation_xyz
x,y,z
-x,-y,z
x,-y,-z
-x,y,-z
-x,-y,-z
x,y,-z
-x,y,z
x,-y,z
loop_
_atom_site_type_symbol
_atom_site_label
_atom_site_fract_x
_atom_site_fract_y
_atom_site_fract_z
Si Si1 0.443595 0.500000 0.163453
Si Si2 0.554979 0.778944 0.675215
Si Si3 0.278947 0.337749 0.326203
Si Si4 0.104291 0.659461 0.823020
Si Si5 0.355196 0.848518 0.168526
Si Si6 0.185832 0.837237 0.673817
Si Si7 0.000000 0.335163 0.160320
O O1 0.500000 0.500000 0.139889
O O2 0.427937 0.630315 0.261491
O O3 0.418912 0.500000 0.000000
O O4 0.559944 0.780901 0.500000
O O5 0.500000 0.818804 0.720701
O O6 0.593683 0.880290 0.750104
O O7 0.287320 0.322747 0.500000
O O8 0.272405 0.500000 0.279585
O O9 0.325190 0.273447 0.246381
O O10 0.232544 0.249685 0.274392
O O11 0.117644 0.500000 0.773625
O O12 0.140509 0.771879 0.756776
O O13 0.050781 0.702700 0.759474
O O14 0.104559 0.668654 0.000000
O O15 0.328132 0.000000 0.175722
O O16 0.364697 0.802917 0.000000
O O17 0.177522 0.820484 0.500000
O O18 0.191953 0.000000 0.718563
O O19 0.000000 0.500000 0.134685
O O20 0.000000 0.260344 0.000000
#
# Coordination Sequence:
#
# PCOD8199876 Si02
#       7
#     4   8   8   8   8   8   4
#     4   9  17  31  53  81 113 147 183 227 275 318
#     4  10  21  37  59  86 116 152 193 233 275 329
#     4  10  22  41  65  88 109 140 185 235 285 340
#     4   9  17  31  54  82 111 147 193 242 288 335
#     4  11  25  42  60  85 118 154 188 228 283 341
#     4  10  21  37  57  82 114 151 188 229 283 344
#     4   7  12  26  48  75 108 146 190 239 286 331
#
# _framework density 20.08634
#
# number of rings (size 3 to 8) (size 9 to 14) (size 15 to 20)
#    0.000    2.333    0.000    3.250    1.167    6.667 
#    0.000    2.500    0.000    4.000    0.000    0.000 
#    0.000    0.000    0.000    0.000    0.000    0.000 
#
# Total GULP energy -594797.667037 kJ/mol
# GULP energy per Si atom -12391.618063 kJ/mol
# Density = 2.004062 g / cm^3
# Si number density = 20.086340 Si / 1000 Ang^3
#
#
#
# Elastic Constant Matrix: (Units=GPa)
#
#
# Indices 1 2 3 4 5 6 
#
# 1 148.5894 66.2159 53.1537 0.0000 0.0000 0.0000
# 2 66.2159 132.9967 41.4069 0.0000 0.0000 0.0000
# 3 53.1537 41.4069 61.4361 0.0000 0.0000 0.0000
# 4 0.0000 0.0000 0.0000 27.7425 0.0000 0.0000
# 5 0.0000 0.0000 0.0000 0.0000 24.9261 0.0000
# 6 0.0000 0.0000 0.0000 0.0000 0.0000 21.9447
#
#
#
# Elastic Compliance Matrix: (Units=1/GPa)
#
#
# Indices 1 2 3 4 5 6 
#
# 1 0.010660 -0.003083 -0.007145 0.000000 0.000000 0.000000
# 2 -0.003083 0.010407 -0.004347 0.000000 0.000000 0.000000
# 3 -0.007145 -0.004347 0.025389 0.000000 0.000000 0.000000
# 4 0.000000 0.000000 0.000000 0.036046 0.000000 0.000000
# 5 0.000000 0.000000 0.000000 0.000000 0.040119 0.000000
# 6 0.000000 0.000000 0.000000 0.000000 0.000000 0.045569
#
#
# Mechanical properties :
#
#
# Convention : Reuss Voigt Hill
#
# Bulk Modulus (GPa) = 57.78346 73.84167 65.81257
# Shear Modulus (GPa) = 24.61757 27.07237 25.84497
#
# Velocity S-wave (km/s) = 3.50464 3.67522 3.59094
# Velocity P-wave (km/s) = 6.72359 7.40619 7.07313
#
# Compressibility (1/GPa) = 0.01730599
#
# Stress axis : x y z
#
# Youngs Moduli (GPa) = 93.81257 96.08710 39.38768
#
# Poissons Ratio (x) = 0.29621 0.28142
# Poissons Ratio (y) = 0.28919 0.17123
# Poissons Ratio (z) = 0.67027 0.41771
#
# Static dielectric constant tensor:
#      x y z
#    x 3.837150 0.000000 0.000000 
#    y 0.000000 3.644680 0.000000 
#    z 0.000000 0.000000 3.438700 
# 
# 
# High freq. dielectric constant tensor:
#      x y z
#    x 1.787990 0.000000 0.000000 
#    y 0.000000 1.784150 0.000000 
#    z 0.000000 0.000000 1.767780 
# 
# From -- ./inp_files/13933.got.cif
#   From: 2010.03.12/outbox.cif.g09.slc.cpg/sg47_7_cif.got.tgz:13933.got - 2010.04.14 03:12:58.
