data_PCOD8199509
_publ_section_title
;
Structure prediction by ZEFSAII (Michael W. Deem and Ramdas Pophale) SiO2 
 PCOD8199509
Probable space group: P M M M
;
_chemical_formula_sum "Si O2"
_cell_formula_units_Z 44
_cell_length_a 28.054207
_cell_length_b 8.790813
_cell_length_c 9.684334
_cell_angle_alpha 90.000000
_cell_angle_beta 90.000000
_cell_angle_gamma 90.000000
_cell_volume 2388.343552
_symmetry_space_group_name_H-M "P M M M"
_symmetry_group_IT_number 47
_symmetry_cell_setting 'orthorhombic'
loop_
_space_group_symop_operation_xyz
x,y,z
-x,-y,z
x,-y,-z
-x,y,-z
-x,-y,-z
x,y,-z
-x,y,z
x,-y,z
loop_
_atom_site_type_symbol
_atom_site_label
_atom_site_fract_x
_atom_site_fract_y
_atom_site_fract_z
Si Si1 0.552608 0.319104 0.345571
Si Si2 0.365308 0.680763 0.152606
Si Si3 0.741245 0.674508 0.837408
Si Si4 0.819908 0.824778 0.657313
Si Si5 0.000000 0.820143 0.841487
Si Si6 0.918983 0.321453 0.341988
O O1 0.560103 0.256484 0.500000
O O2 0.500000 0.270611 0.291059
O O3 0.556480 0.500000 0.345816
O O4 0.594125 0.247553 0.250873
O O5 0.369466 0.500000 0.147205
O O6 0.312404 0.723984 0.204832
O O7 0.373825 0.747954 0.000000
O O8 0.750777 0.500000 0.795117
O O9 0.776524 0.783493 0.756120
O O10 0.748955 0.696481 0.000000
O O11 0.804326 0.792394 0.500000
O O12 0.865308 0.723296 0.697445
O O13 0.833794 0.000000 0.679024
O O14 0.953393 0.761734 0.763868
O O15 0.000000 0.000000 0.837232
O O16 0.000000 0.761453 0.000000
O O17 0.930495 0.271888 0.500000
O O18 0.925814 0.500000 0.323943
#
# Coordination Sequence:
#
# PCOD8199509 Si02
#       6
#     8   8   8   8   4   8
#     4   8  13  20  30  48  77 112 149 189 234 284
#     4   8  14  24  37  55  81 114 153 194 235 283
#     4   9  18  32  49  70  97 129 165 205 249 297
#     4  10  21  36  54  77 103 131 166 207 250 298
#     4  11  24  39  56  82 114 145 176 209 248 294
#     4  10  21  38  60  83 106 136 174 212 252 298
#
# _framework density 18.422809999999998
#
# number of rings (size 3 to 8) (size 9 to 14) (size 15 to 20)
#    0.000    2.818    0.000    3.273    0.000    6.182 
#    0.000    3.636    0.000    0.000    0.000    0.000 
#    0.000    0.727    0.000    8.000    0.000   13.091 
#
# Total GULP energy -545486.149235 kJ/mol
# GULP energy per Si atom -12397.412483 kJ/mol
# Density = 1.838088 g / cm^3
# Si number density = 18.422810 Si / 1000 Ang^3
#
#
#
# Elastic Constant Matrix: (Units=GPa)
#
#
# Indices 1 2 3 4 5 6 
#
# 1 136.9806 25.1709 80.5626 0.0000 0.0000 0.0000
# 2 25.1709 37.1414 27.8907 0.0000 0.0000 0.0000
# 3 80.5626 27.8907 97.1762 0.0000 0.0000 0.0000
# 4 0.0000 0.0000 0.0000 21.6957 0.0000 0.0000
# 5 0.0000 0.0000 0.0000 0.0000 29.3651 0.0000
# 6 0.0000 0.0000 0.0000 0.0000 0.0000 -2.9780
#
#
#
# Elastic Compliance Matrix: (Units=1/GPa)
#
#
# Indices 1 2 3 4 5 6 
#
# 1 0.014276 -0.001004 -0.011547 0.000000 0.000000 0.000000
# 2 -0.001004 0.034392 -0.009039 0.000000 0.000000 0.000000
# 3 -0.011547 -0.009039 0.022458 0.000000 0.000000 0.000000
# 4 0.000000 0.000000 0.000000 0.046092 0.000000 0.000000
# 5 0.000000 0.000000 0.000000 0.000000 0.034054 0.000000
# 6 0.000000 0.000000 0.000000 0.000000 0.000000 -0.335793
#
#
# Mechanical properties :
#
#
# Convention : Reuss Voigt Hill
#
# Bulk Modulus (GPa) = 35.78291 59.83853 47.81072
# Shear Modulus (GPa) = -37.87145 18.79482 -9.53832
#
# Velocity S-wave (km/s) = -4.53888 3.19751 -2.27787
# Velocity P-wave (km/s) = 2.82901 6.79583 4.36921
#
# Compressibility (1/GPa) = 0.02794630
#
# Stress axis : x y z
#
# Youngs Moduli (GPa) = 70.04721 29.07669 44.52763
#
# Poissons Ratio (x) = 0.02918 0.51417
# Poissons Ratio (y) = 0.07031 0.40247
# Poissons Ratio (z) = 0.80886 0.26282
#
# Static dielectric constant tensor:
#      x y z
#    x 3.569560 0.000000 0.000000 
#    y 0.000000 3.016660 0.000000 
#    z 0.000000 0.000000 3.571770 
# 
# 
# High freq. dielectric constant tensor:
#      x y z
#    x 1.726500 0.000000 0.000000 
#    y 0.000000 1.677220 0.000000 
#    z 0.000000 0.000000 1.712260 
# 
# From -- ./inp_files/2126.got.cif
#   From: 2010.03.12/outbox.cif.g09.slc.cpg/sg47_2_cif.got.tgz:2126.got - 2010.04.14 03:12:58.
