data_PCOD8199878
_publ_section_title
;
Structure prediction by ZEFSAII (Michael W. Deem and Ramdas Pophale) SiO2 
 PCOD8199878
Probable space group: P M M M
;
_chemical_formula_sum "Si O2"
_cell_formula_units_Z 56
_cell_length_a 9.170515
_cell_length_b 20.866075
_cell_length_c 14.449240
_cell_angle_alpha 90.000000
_cell_angle_beta 90.000000
_cell_angle_gamma 90.000000
_cell_volume 2764.900419
_symmetry_space_group_name_H-M "P M M M"
_symmetry_group_IT_number 47
_symmetry_cell_setting 'orthorhombic'
loop_
_space_group_symop_operation_xyz
x,y,z
-x,-y,z
x,-y,-z
-x,y,-z
-x,-y,-z
x,y,-z
-x,y,z
x,-y,z
loop_
_atom_site_type_symbol
_atom_site_label
_atom_site_fract_x
_atom_site_fract_y
_atom_site_fract_z
Si Si1 0.832169 0.926824 0.391682
Si Si2 0.161686 0.500000 0.890077
Si Si3 0.336303 0.000000 0.890645
Si Si4 0.172205 0.872998 0.106579
Si Si5 0.666097 0.377506 0.102703
Si Si6 0.671316 0.177430 0.271401
Si Si7 0.335152 0.680913 0.711272
Si Si8 0.828057 0.571043 0.395199
O O1 0.806138 0.916153 0.500000
O O2 0.728183 0.878560 0.337448
O O3 0.000000 0.912492 0.365841
O O4 0.792276 0.000000 0.364668
O O5 0.242624 0.436604 0.855891
O O6 0.000000 0.500000 0.846909
O O7 0.158276 0.500000 0.000000
O O8 0.245607 0.938674 0.857959
O O9 0.500000 0.000000 0.847712
O O10 0.347457 0.000000 0.000000
O O11 0.242518 0.820159 0.173495
O O12 0.000000 0.878241 0.120831
O O13 0.210796 0.857187 0.000000
O O14 0.500000 0.400749 0.095810
O O15 0.684556 0.320633 0.176706
O O16 0.720691 0.355597 0.000000
O O17 0.500000 0.167800 0.252378
O O18 0.701751 0.246404 0.319529
O O19 0.500000 0.663381 0.683795
O O20 0.233901 0.629046 0.663946
O O21 0.771095 0.578174 0.500000
O O22 0.782008 0.500000 0.357267
O O23 0.000000 0.577371 0.392384
#
# Coordination Sequence:
#
# PCOD8199878 Si02
#       8
#     8   4   4   8   8   8   8   8
#     4   9  20  41  67  91 115 148 192 241 295 356
#     4   9  17  29  47  75 106 135 176 231 285 330
#     4   9  17  31  53  81 110 143 188 241 295 345
#     4  10  21  37  57  82 115 157 203 248 293 345
#     4   9  18  34  54  75 106 150 194 233 276 331
#     4  11  24  39  57  86 123 160 197 242 297 352
#     4  10  23  39  56  84 118 155 198 239 285 343
#     4   9  20  40  64  89 116 148 188 236 294 355
#
# _framework density 20.253893000000001
#
# number of rings (size 3 to 8) (size 9 to 14) (size 15 to 20)
#    0.000    2.429    0.000    2.143    2.000    6.571 
#    0.000    5.714    0.000    1.714    0.000    0.000 
#    0.000    0.000    0.000    0.000    0.000    0.000 
#
# Total GULP energy -694194.192724 kJ/mol
# GULP energy per Si atom -12396.324870 kJ/mol
# Density = 2.020779 g / cm^3
# Si number density = 20.253893 Si / 1000 Ang^3
#
#
#
# Elastic Constant Matrix: (Units=GPa)
#
#
# Indices 1 2 3 4 5 6 
#
# 1 96.5829 53.6282 38.2295 0.0000 0.0000 0.0000
# 2 53.6282 118.6967 52.3478 0.0000 0.0000 0.0000
# 3 38.2295 52.3478 74.1185 0.0000 0.0000 0.0000
# 4 0.0000 0.0000 0.0000 23.9102 0.0000 0.0000
# 5 0.0000 0.0000 0.0000 0.0000 30.6141 0.0000
# 6 0.0000 0.0000 0.0000 0.0000 0.0000 29.5397
#
#
#
# Elastic Compliance Matrix: (Units=1/GPa)
#
#
# Indices 1 2 3 4 5 6 
#
# 1 0.014665 -0.004778 -0.004189 0.000000 0.000000 0.000000
# 2 -0.004778 0.013793 -0.007277 0.000000 0.000000 0.000000
# 3 -0.004189 -0.007277 0.020792 0.000000 0.000000 0.000000
# 4 0.000000 0.000000 0.000000 0.041823 0.000000 0.000000
# 5 0.000000 0.000000 0.000000 0.000000 0.032665 0.000000
# 6 0.000000 0.000000 0.000000 0.000000 0.000000 0.033853
#
#
# Mechanical properties :
#
#
# Convention : Reuss Voigt Hill
#
# Bulk Modulus (GPa) = 59.66179 64.20100 61.93139
# Shear Modulus (GPa) = 25.55354 26.49231 26.02292
#
# Velocity S-wave (km/s) = 3.55584 3.62057 3.58835
# Velocity P-wave (km/s) = 6.81025 7.01747 6.91464
#
# Compressibility (1/GPa) = 0.01676115
#
# Stress axis : x y z
#
# Youngs Moduli (GPa) = 68.18869 72.50039 48.09459
#
# Poissons Ratio (x) = 0.34642 0.20149
# Poissons Ratio (y) = 0.32582 0.34999
# Poissons Ratio (z) = 0.28567 0.52759
#
# Static dielectric constant tensor:
#      x y z
#    x 3.652250 0.000000 0.000000 
#    y 0.000000 3.623850 0.000000 
#    z 0.000000 0.000000 3.662730 
# 
# 
# High freq. dielectric constant tensor:
#      x y z
#    x 1.788720 0.000000 0.000000 
#    y 0.000000 1.784690 0.000000 
#    z 0.000000 0.000000 1.789820 
# 
# From -- ./inp_files/21596.got.cif
#   From: 2010.03.12/outbox.cif.g09.slc.cpg/sg47_11_cif.got.tgz:21596.got - 2010.04.14 03:12:58.
