data_PCOD8199065
_publ_section_title
;
Structure prediction by ZEFSAII (Michael W. Deem and Ramdas Pophale) SiO2 
 PCOD8199065
Probable space group: P M M M
;
_chemical_formula_sum "Si O2"
_cell_formula_units_Z 44
_cell_length_a 9.217738
_cell_length_b 17.206695
_cell_length_c 15.191894
_cell_angle_alpha 90.000000
_cell_angle_beta 90.000000
_cell_angle_gamma 90.000000
_cell_volume 2409.537790
_symmetry_space_group_name_H-M "P M M M"
_symmetry_group_IT_number 47
_symmetry_cell_setting 'orthorhombic'
loop_
_space_group_symop_operation_xyz
x,y,z
-x,-y,z
x,-y,-z
-x,y,-z
-x,-y,-z
x,y,-z
-x,y,z
x,-y,z
loop_
_atom_site_type_symbol
_atom_site_label
_atom_site_fract_x
_atom_site_fract_y
_atom_site_fract_z
Si Si1 0.833888 0.591488 0.099304
Si Si2 0.169602 0.909621 0.000000
Si Si3 0.165957 0.084851 0.328948
Si Si4 0.663860 0.691134 0.760285
Si Si5 0.336352 0.863209 0.168483
Si Si6 0.830707 0.751143 0.598761
O O1 0.817517 0.500000 0.111579
O O2 0.736975 0.631081 0.173423
O O3 0.000000 0.617308 0.113156
O O4 0.783851 0.614988 0.000000
O O5 0.238924 0.869055 0.916713
O O6 0.000000 0.892875 0.000000
O O7 0.206773 0.000000 0.000000
O O8 0.267998 0.083573 0.243943
O O9 0.208506 0.156886 0.391693
O O10 0.000000 0.094852 0.297277
O O11 0.185760 0.000000 0.376070
O O12 0.500000 0.663302 0.742266
O O13 0.667184 0.774272 0.804682
O O14 0.745497 0.696043 0.666486
O O15 0.500000 0.891766 0.150090
O O16 0.786567 0.726590 0.500000
O O17 0.000000 0.737795 0.615781
#
# Coordination Sequence:
#
# PCOD8199065 Si02
#       6
#     8   4   8   8   8   8
#     4   9  19  36  58  85 114 142 172 206 248 301
#     4  11  23  35  47  65  90 125 172 221 265 306
#     4   9  17  30  48  70  97 128 167 217 268 315
#     4  10  21  35  53  78 108 140 173 211 256 307
#     4  10  21  34  47  67  96 131 171 212 255 307
#     4   9  18  33  53  76 102 136 178 220 266 317
#
# _framework density 18.260764000000002
#
# number of rings (size 3 to 8) (size 9 to 14) (size 15 to 20)
#    0.000    2.455    0.000    2.455    1.273    6.909 
#    0.000    2.727    0.000    0.545    0.000    8.909 
#    0.000    0.000    0.000    0.000    0.000    0.000 
#
# Total GULP energy -545479.400033 kJ/mol
# GULP energy per Si atom -12397.259092 kJ/mol
# Density = 1.821920 g / cm^3
# Si number density = 18.260764 Si / 1000 Ang^3
#
#
#
# Elastic Constant Matrix: (Units=GPa)
#
#
# Indices 1 2 3 4 5 6 
#
# 1 97.2653 32.9963 69.1149 0.0000 0.0000 0.0000
# 2 32.9963 48.3339 38.8490 0.0000 0.0000 0.0000
# 3 69.1149 38.8490 140.8144 0.0000 0.0000 0.0000
# 4 0.0000 0.0000 0.0000 7.6835 0.0000 0.0000
# 5 0.0000 0.0000 0.0000 0.0000 24.3781 0.0000
# 6 0.0000 0.0000 0.0000 0.0000 0.0000 24.0203
#
#
#
# Elastic Compliance Matrix: (Units=1/GPa)
#
#
# Indices 1 2 3 4 5 6 
#
# 1 0.017187 -0.006364 -0.006680 0.000000 0.000000 0.000000
# 2 -0.006364 0.028941 -0.004861 0.000000 0.000000 0.000000
# 3 -0.006680 -0.004861 0.011721 0.000000 0.000000 0.000000
# 4 0.000000 0.000000 0.000000 0.130149 0.000000 0.000000
# 5 0.000000 0.000000 0.000000 0.000000 0.041020 0.000000
# 6 0.000000 0.000000 0.000000 0.000000 0.000000 0.041631
#
#
# Mechanical properties :
#
#
# Convention : Reuss Voigt Hill
#
# Bulk Modulus (GPa) = 45.37312 63.14823 54.26067
# Shear Modulus (GPa) = 15.93343 20.91328 18.42335
#
# Velocity S-wave (km/s) = 2.95710 3.38784 3.17977
# Velocity P-wave (km/s) = 6.04653 7.06822 6.57724
#
# Compressibility (1/GPa) = 0.02203948
#
# Stress axis : x y z
#
# Youngs Moduli (GPa) = 58.18479 34.55326 85.31508
#
# Poissons Ratio (x) = 0.21989 0.56990
# Poissons Ratio (y) = 0.37028 0.41471
# Poissons Ratio (z) = 0.38867 0.16796
#
# Static dielectric constant tensor:
#      x y z
#    x 3.533310 0.000000 0.000000 
#    y 0.000000 3.181810 0.000000 
#    z 0.000000 0.000000 3.327200 
# 
# 
# High freq. dielectric constant tensor:
#      x y z
#    x 1.711630 0.000000 0.000000 
#    y 0.000000 1.690820 0.000000 
#    z 0.000000 0.000000 1.702300 
# 
# From -- ./inp_files/6076.got.cif
#   From: 2010.03.12/outbox.cif.g09.slc.cpg/sg47_4_cif.got.tgz:6076.got - 2010.04.14 03:12:58.
