data_PCOD8199532
_publ_section_title
;
Structure prediction by ZEFSAII (Michael W. Deem and Ramdas Pophale) SiO2 
 PCOD8199532
Probable space group: P M M M
;
_chemical_formula_sum "Si O2"
_cell_formula_units_Z 48
_cell_length_a 30.754478
_cell_length_b 9.378318
_cell_length_c 8.968839
_cell_angle_alpha 90.000000
_cell_angle_beta 90.000000
_cell_angle_gamma 90.000000
_cell_volume 2586.839851
_symmetry_space_group_name_H-M "P M M M"
_symmetry_group_IT_number 47
_symmetry_cell_setting 'orthorhombic'
loop_
_space_group_symop_operation_xyz
x,y,z
-x,-y,z
x,-y,-z
-x,y,-z
-x,-y,-z
x,y,-z
-x,y,z
x,-y,z
loop_
_atom_site_type_symbol
_atom_site_label
_atom_site_fract_x
_atom_site_fract_y
_atom_site_fract_z
Si Si1 0.666585 0.335378 0.672581
Si Si2 0.000000 0.669578 0.831598
Si Si3 0.086088 0.335816 0.325430
Si Si4 0.423050 0.335304 0.175019
Si Si5 0.742177 0.832065 0.829096
Si Si6 0.830130 0.834192 0.328099
Si Si7 0.500000 0.166739 0.674840
O O1 0.657595 0.302072 0.500000
O O2 0.678330 0.500000 0.698464
O O3 0.624182 0.291824 0.765588
O O4 0.706385 0.242632 0.728778
O O5 0.956680 0.728989 0.752726
O O6 0.000000 0.500000 0.818982
O O7 0.000000 0.724220 0.000000
O O8 0.079227 0.315406 0.500000
O O9 0.093223 0.500000 0.281807
O O10 0.128068 0.250493 0.268412
O O11 0.433506 0.500000 0.212408
O O12 0.457489 0.235980 0.255212
O O13 0.424890 0.306361 0.000000
O O14 0.789282 0.784781 0.769947
O O15 0.735898 0.000000 0.810859
O O16 0.737481 0.783330 0.000000
O O17 0.820121 0.796814 0.500000
O O18 0.840024 0.000000 0.306892
O O19 0.500000 0.196695 0.500000
O O20 0.500000 0.000000 0.712086
#
# Coordination Sequence:
#
# PCOD8199532 Si02
#       7
#     8   4   8   8   8   8   4
#     4  10  21  37  58  83 109 139 177 220 264 311
#     4   9  17  29  46  69  96 124 156 197 246 298
#     4   9  17  30  49  71  94 123 161 203 246 295
#     4  10  21  38  60  84 110 142 179 219 267 319
#     4  10  21  36  54  77 106 141 177 213 259 313
#     4   9  18  33  51  71  98 132 168 207 252 302
#     4  11  24  39  56  82 114 147 184 223 262 308
#
# _framework density 18.555458999999999
#
# number of rings (size 3 to 8) (size 9 to 14) (size 15 to 20)
#    0.000    2.333    0.000    2.250    0.000    7.667 
#    0.000    2.083    0.000    2.500    0.000    0.000 
#    0.000    0.000    0.000    0.000    0.000    0.000 
#
# Total GULP energy -595368.179559 kJ/mol
# GULP energy per Si atom -12403.503741 kJ/mol
# Density = 1.851323 g / cm^3
# Si number density = 18.555459 Si / 1000 Ang^3
#
#
#
# Elastic Constant Matrix: (Units=GPa)
#
#
# Indices 1 2 3 4 5 6 
#
# 1 154.0100 67.4583 61.0155 0.0000 0.0000 0.0000
# 2 67.4583 59.3261 44.9100 0.0000 0.0000 0.0000
# 3 61.0155 44.9100 85.3523 0.0000 0.0000 0.0000
# 4 0.0000 0.0000 0.0000 24.8832 0.0000 0.0000
# 5 0.0000 0.0000 0.0000 0.0000-1206.7457 0.0000
# 6 0.0000 0.0000 0.0000 0.0000 0.0000 158.0828
#
#
#
# Elastic Compliance Matrix: (Units=1/GPa)
#
#
# Indices 1 2 3 4 5 6 
#
# 1 0.013267 -0.013139 -0.002570 0.000000 0.000000 0.000000
# 2 -0.013139 0.041028 -0.012195 0.000000 0.000000 0.000000
# 3 -0.002570 -0.012195 0.019970 0.000000 0.000000 0.000000
# 4 0.000000 0.000000 0.000000 0.040188 0.000000 0.000000
# 5 0.000000 0.000000 0.000000 0.000000 -0.000829 0.000000
# 6 0.000000 0.000000 0.000000 0.000000 0.000000 0.006326
#
#
# Mechanical properties :
#
#
# Convention : Reuss Voigt Hill
#
# Bulk Modulus (GPa) = 54.18386 71.71734 62.95060
# Shear Modulus (GPa) = 27.48600 -196.40230 -84.45815
#
# Velocity S-wave (km/s) = 3.85293 -10.29931 -6.75392
# Velocity P-wave (km/s) = 7.00413 10.13412 5.17892
#
# Compressibility (1/GPa) = 0.01845568
#
# Stress axis : x y z
#
# Youngs Moduli (GPa) = 75.37715 24.37354 50.07483
#
# Poissons Ratio (x) = 0.32026 0.12870
# Poissons Ratio (y) = 0.99042 0.61066
# Poissons Ratio (z) = 0.19374 0.29723
#
# Static dielectric constant tensor:
#      x y z
#    x 3.640100 0.000000 0.000000 
#    y 0.000000 3.281050 0.000000 
#    z 0.000000 0.000000 3.499680 
# 
# 
# High freq. dielectric constant tensor:
#      x y z
#    x 1.734000 0.000000 0.000000 
#    y 0.000000 1.702860 0.000000 
#    z 0.000000 0.000000 1.727700 
# 
# From -- ./inp_files/13859.got.cif
#   From: 2010.03.12/outbox.cif.g09.slc.cpg/sg47_7_cif.got.tgz:13859.got - 2010.04.14 03:12:58.
