data_PCOD8199538
_publ_section_title
;
Structure prediction by ZEFSAII (Michael W. Deem and Ramdas Pophale) SiO2 
 PCOD8199538
Probable space group: P M M M
;
_chemical_formula_sum "Si O2"
_cell_formula_units_Z 44
_cell_length_a 17.951180
_cell_length_b 14.979173
_cell_length_c 8.407712
_cell_angle_alpha 90.000000
_cell_angle_beta 90.000000
_cell_angle_gamma 90.000000
_cell_volume 2260.781888
_symmetry_space_group_name_H-M "P M M M"
_symmetry_group_IT_number 47
_symmetry_cell_setting 'orthorhombic'
loop_
_space_group_symop_operation_xyz
x,y,z
-x,-y,z
x,-y,-z
-x,y,-z
-x,-y,-z
x,y,-z
-x,y,z
x,-y,z
loop_
_atom_site_type_symbol
_atom_site_label
_atom_site_fract_x
_atom_site_fract_y
_atom_site_fract_z
Si Si1 0.227949 0.760907 0.821665
Si Si2 0.912005 0.000000 0.823661
Si Si3 0.665556 0.396648 0.820960
Si Si4 0.655687 0.100486 0.313723
Si Si5 0.082726 0.184645 0.685640
Si Si6 0.418278 0.394437 0.500000
Si Si7 0.500000 0.105687 0.820371
O O1 0.260070 0.661361 0.812903
O O2 0.277957 0.833203 0.730909
O O3 0.144898 0.748324 0.751200
O O4 0.222080 0.796389 0.000000
O O5 0.885682 0.913351 0.727975
O O6 0.000000 0.000000 0.834081
O O7 0.876708 0.000000 0.000000
O O8 0.687057 0.500000 0.798901
O O9 0.617721 0.363240 0.668289
O O10 0.628334 0.383195 0.000000
O O11 0.652092 0.093571 0.500000
O O12 0.576476 0.141991 0.257046
O O13 0.668828 0.000000 0.242567
O O14 0.076279 0.195523 0.500000
O O15 0.000000 0.201914 0.760756
O O16 0.421727 0.500000 0.500000
O O17 0.500000 0.351835 0.500000
O O18 0.500000 0.000000 0.802204
O O19 0.500000 0.139201 0.000000
#
# Coordination Sequence:
#
# PCOD8199538 Si02
#       7
#     8   4   8   8   8   4   4
#     4  11  23  37  57  83 110 144 187 232 281 338
#     4   9  17  31  51  75 105 142 181 220 271 331
#     4   9  20  39  60  85 117 151 190 237 288 342
#     4  10  21  36  54  77 108 146 186 229 275 325
#     4  10  21  36  55  79 110 146 184 230 282 338
#     4   9  18  34  60  90 116 150 191 232 288 348
#     4   9  17  33  55  75 102 141 186 233 275 320
#
# _framework density 19.462292999999999
#
# number of rings (size 3 to 8) (size 9 to 14) (size 15 to 20)
#    0.000    2.273    0.000    2.182    3.818    4.727 
#    1.636    1.818    0.000    0.545    0.000    3.818 
#    0.000    0.000    0.000    0.000    0.000    0.000 
#
# Total GULP energy -545208.112015 kJ/mol
# GULP energy per Si atom -12391.093455 kJ/mol
# Density = 1.941800 g / cm^3
# Si number density = 19.462293 Si / 1000 Ang^3
#
#
#
# Elastic Constant Matrix: (Units=GPa)
#
#
# Indices 1 2 3 4 5 6 
#
# 1 132.6884 39.4518 53.7136 0.0000 0.0000 0.0000
# 2 39.4518 52.0747 28.8737 0.0000 0.0000 0.0000
# 3 53.7136 28.8737 121.4800 0.0000 0.0000 0.0000
# 4 0.0000 0.0000 0.0000 21.5289 0.0000 0.0000
# 5 0.0000 0.0000 0.0000 0.0000 29.6911 0.0000
# 6 0.0000 0.0000 0.0000 0.0000 0.0000 21.6372
#
#
#
# Elastic Compliance Matrix: (Units=1/GPa)
#
#
# Indices 1 2 3 4 5 6 
#
# 1 0.010731 -0.006334 -0.003239 0.000000 0.000000 0.000000
# 2 -0.006334 0.025856 -0.003345 0.000000 0.000000 0.000000
# 3 -0.003239 -0.003345 0.010459 0.000000 0.000000 0.000000
# 4 0.000000 0.000000 0.000000 0.046449 0.000000 0.000000
# 5 0.000000 0.000000 0.000000 0.000000 0.033680 0.000000
# 6 0.000000 0.000000 0.000000 0.000000 0.000000 0.046217
#
#
# Mechanical properties :
#
#
# Convention : Reuss Voigt Hill
#
# Bulk Modulus (GPa) = 47.14722 61.14682 54.14702
# Shear Modulus (GPa) = 24.23669 26.85171 25.54420
#
# Velocity S-wave (km/s) = 3.53273 3.71843 3.62677
# Velocity P-wave (km/s) = 6.39670 7.06555 6.73943
#
# Compressibility (1/GPa) = 0.02121016
#
# Stress axis : x y z
#
# Youngs Moduli (GPa) = 93.18840 38.67531 95.60940
#
# Poissons Ratio (x) = 0.24495 0.30972
# Poissons Ratio (y) = 0.59022 0.31983
# Poissons Ratio (z) = 0.30187 0.12937
#
# Static dielectric constant tensor:
#      x y z
#    x 2.853010 0.000000 0.000000 
#    y 0.000000 3.268020 0.000000 
#    z 0.000000 0.000000 3.850650 
# 
# 
# High freq. dielectric constant tensor:
#      x y z
#    x 1.749190 0.000000 0.000000 
#    y 0.000000 1.728980 0.000000 
#    z 0.000000 0.000000 1.775780 
# 
# From -- ./inp_files/9024.got.cif
#   From: 2010.03.12/outbox.cif.g09.slc.cpg/sg47_5_cif.got.tgz:9024.got - 2010.04.14 03:12:58.
