data_PCOD8199250
_publ_section_title
;
Structure prediction by ZEFSAII (Michael W. Deem and Ramdas Pophale) SiO2 
 PCOD8199250
Probable space group: P M M M
;
_chemical_formula_sum "Si O2"
_cell_formula_units_Z 44
_cell_length_a 29.744990
_cell_length_b 8.039797
_cell_length_c 9.408032
_cell_angle_alpha 90.000000
_cell_angle_beta 90.000000
_cell_angle_gamma 90.000000
_cell_volume 2249.871407
_symmetry_space_group_name_H-M "P M M M"
_symmetry_group_IT_number 47
_symmetry_cell_setting 'orthorhombic'
loop_
_space_group_symop_operation_xyz
x,y,z
-x,-y,z
x,-y,-z
-x,y,-z
-x,-y,-z
x,y,-z
-x,y,z
x,-y,z
loop_
_atom_site_type_symbol
_atom_site_label
_atom_site_fract_x
_atom_site_fract_y
_atom_site_fract_z
Si Si1 0.893728 0.684776 0.331130
Si Si2 0.631541 0.192849 0.657082
Si Si3 0.051015 0.000000 0.669581
Si Si4 0.792034 0.306547 0.660194
Si Si5 0.550931 0.304457 0.160713
Si Si6 0.288342 0.192734 0.842889
O O1 0.896432 0.680057 0.500000
O O2 0.908144 0.500000 0.273838
O O3 0.842720 0.724947 0.285364
O O4 0.925393 0.831939 0.270403
O O5 0.630968 0.275945 0.500000
O O6 0.583458 0.213288 0.730536
O O7 0.671383 0.276439 0.750916
O O8 0.642068 0.000000 0.639887
O O9 0.053433 0.000000 0.500000
O O10 0.000000 0.000000 0.724503
O O11 0.785922 0.236524 0.500000
O O12 0.780411 0.500000 0.662675
O O13 0.759265 0.211913 0.766077
O O14 0.500000 0.252634 0.198384
O O15 0.557222 0.500000 0.176433
O O16 0.562470 0.248508 0.000000
O O17 0.298893 0.000000 0.860899
O O18 0.286877 0.276012 0.000000
#
# Coordination Sequence:
#
# PCOD8199250 Si02
#       6
#     8   8   4   8   8   8
#     4   8  15  27  41  62  94 129 168 214 258 306
#     4  10  21  36  53  75 103 134 169 207 250 302
#     4   9  16  24  38  64  95 133 177 211 254 313
#     4   9  18  32  50  72  97 129 170 209 250 304
#     4   9  19  36  56  77 101 131 168 208 252 302
#     4  10  21  35  51  73 100 130 165 205 251 303
#
# _framework density 19.556671999999999
#
# number of rings (size 3 to 8) (size 9 to 14) (size 15 to 20)
#    0.000    2.818    0.000    2.727    1.273    4.727 
#    0.000    4.545    0.000    0.000    0.000    0.000 
#    0.000    1.455    0.000    4.000    0.000    4.000 
#
# Total GULP energy -545413.111440 kJ/mol
# GULP energy per Si atom -12395.752533 kJ/mol
# Density = 1.951216 g / cm^3
# Si number density = 19.556672 Si / 1000 Ang^3
#
#
#
# Elastic Constant Matrix: (Units=GPa)
#
#
# Indices 1 2 3 4 5 6 
#
# 1 142.7146 46.7411 65.6035 0.0000 0.0000 0.0000
# 2 46.7411 60.3363 26.6568 0.0000 0.0000 0.0000
# 3 65.6035 26.6568 108.6183 0.0000 0.0000 0.0000
# 4 0.0000 0.0000 0.0000 15.6186 0.0000 0.0000
# 5 0.0000 0.0000 0.0000 0.0000 9.0857 0.0000
# 6 0.0000 0.0000 0.0000 0.0000 0.0000 12.1045
#
#
#
# Elastic Compliance Matrix: (Units=1/GPa)
#
#
# Indices 1 2 3 4 5 6 
#
# 1 0.011677 -0.006651 -0.005420 0.000000 0.000000 0.000000
# 2 -0.006651 0.022378 -0.001475 0.000000 0.000000 0.000000
# 3 -0.005420 -0.001475 0.012842 0.000000 0.000000 0.000000
# 4 0.000000 0.000000 0.000000 0.064026 0.000000 0.000000
# 5 0.000000 0.000000 0.000000 0.000000 0.110063 0.000000
# 6 0.000000 0.000000 0.000000 0.000000 0.000000 0.082614
#
#
# Mechanical properties :
#
#
# Convention : Reuss Voigt Hill
#
# Bulk Modulus (GPa) = 50.49338 65.51909 58.00624
# Shear Modulus (GPa) = 14.82388 18.87297 16.84842
#
# Velocity S-wave (km/s) = 2.75616 3.10988 2.93835
# Velocity P-wave (km/s) = 6.00030 6.81689 6.42159
#
# Compressibility (1/GPa) = 0.01980458
#
# Stress axis : x y z
#
# Youngs Moduli (GPa) = 85.63848 44.68715 77.86780
#
# Poissons Ratio (x) = 0.29722 0.42207
# Poissons Ratio (y) = 0.56959 0.11483
# Poissons Ratio (z) = 0.46419 0.06590
#
# Static dielectric constant tensor:
#      x y z
#    x 3.628030 0.000000 0.000000 
#    y 0.000000 3.497040 0.000000 
#    z 0.000000 0.000000 3.494110 
# 
# 
# High freq. dielectric constant tensor:
#      x y z
#    x 1.764310 0.000000 0.000000 
#    y 0.000000 1.749750 0.000000 
#    z 0.000000 0.000000 1.728430 
# 
# From -- ./inp_files/2133.got.cif
#   From: 2010.03.12/outbox.cif.g09.slc.cpg/sg47_2_cif.got.tgz:2133.got - 2010.04.14 03:12:58.
