data_PCOD8199020
_publ_section_title
;
Structure prediction by ZEFSAII (Michael W. Deem and Ramdas Pophale) SiO2 
 PCOD8199020
Probable space group: P M M M
;
_chemical_formula_sum "Si O2"
_cell_formula_units_Z 52
_cell_length_a 9.957700
_cell_length_b 20.454456
_cell_length_c 14.715327
_cell_angle_alpha 90.000000
_cell_angle_beta 90.000000
_cell_angle_gamma 90.000000
_cell_volume 2997.208040
_symmetry_space_group_name_H-M "P M M M"
_symmetry_group_IT_number 47
_symmetry_cell_setting 'orthorhombic'
loop_
_space_group_symop_operation_xyz
x,y,z
-x,-y,z
x,-y,-z
-x,y,-z
-x,-y,-z
x,y,-z
-x,y,z
x,-y,z
loop_
_atom_site_type_symbol
_atom_site_label
_atom_site_fract_x
_atom_site_fract_y
_atom_site_fract_z
Si Si1 0.850594 0.671151 0.712961
Si Si2 0.345228 0.424999 0.606275
Si Si3 0.261440 0.659772 0.898550
Si Si4 0.159266 0.072384 0.399001
Si Si5 0.349144 0.194943 0.101034
Si Si6 0.500000 0.428609 0.107736
Si Si7 0.842089 0.181370 0.738305
O O1 0.747158 0.624500 0.662146
O O2 0.854622 0.660579 0.822631
O O3 0.811162 0.747065 0.696285
O O4 0.000000 0.656574 0.675937
O O5 0.324594 0.410833 0.500000
O O6 0.500000 0.412782 0.633892
O O7 0.304979 0.500000 0.628101
O O8 0.341892 0.727032 0.901793
O O9 0.365119 0.606396 0.860392
O O10 0.204020 0.643345 0.000000
O O11 0.216787 0.085364 0.500000
O O12 0.214093 0.128131 0.332434
O O13 0.000000 0.076306 0.402002
O O14 0.204212 0.000000 0.365485
O O15 0.500000 0.175322 0.131717
O O16 0.238493 0.166567 0.169318
O O17 0.319147 0.167028 0.000000
O O18 0.500000 0.500000 0.152691
O O19 0.500000 0.430996 0.000000
O O20 0.000000 0.173815 0.759709
#
# Coordination Sequence:
#
# PCOD8199020 Si02
#       7
#     8   8   8   8   8   4   8
#     4  10  21  32  47  75 104 129 156 192 245 299
#     4   9  20  39  58  72  88 118 163 209 247 285
#     4   9  17  30  46  65  94 127 160 197 234 279
#     4   8  14  27  49  74  98 127 162 196 233 283
#     4   9  16  28  47  67  91 127 167 202 237 280
#     4   9  16  26  42  64  85 111 154 201 239 273
#     4   9  18  30  46  73 104 128 156 198 242 283
#
# _framework density 17.34948
#
# number of rings (size 3 to 8) (size 9 to 14) (size 15 to 20)
#    0.000    3.000    0.769    0.923    1.077    3.077 
#    0.000    5.385    0.000    1.385    0.000    7.538 
#    0.000    0.000    0.000    0.000    0.000    0.000 
#
# Total GULP energy -644417.288368 kJ/mol
# GULP energy per Si atom -12392.640161 kJ/mol
# Density = 1.730999 g / cm^3
# Si number density = 17.349480 Si / 1000 Ang^3
#
#
#
# Elastic Constant Matrix: (Units=GPa)
#
#
# Indices 1 2 3 4 5 6 
#
# 1 72.3848 43.1387 52.0859 0.0000 0.0000 0.0000
# 2 43.1387 106.4798 66.9379 0.0000 0.0000 0.0000
# 3 52.0859 66.9379 98.5539 0.0000 0.0000 0.0000
# 4 0.0000 0.0000 0.0000 20.6546 0.0000 0.0000
# 5 0.0000 0.0000 0.0000 0.0000 25.1107 0.0000
# 6 0.0000 0.0000 0.0000 0.0000 0.0000 14.7156
#
#
#
# Elastic Compliance Matrix: (Units=1/GPa)
#
#
# Indices 1 2 3 4 5 6 
#
# 1 0.022795 -0.002900 -0.010077 0.000000 0.000000 0.000000
# 2 -0.002900 0.016758 -0.009850 0.000000 0.000000 0.000000
# 3 -0.010077 -0.009850 0.022163 0.000000 0.000000 0.000000
# 4 0.000000 0.000000 0.000000 0.048415 0.000000 0.000000
# 5 0.000000 0.000000 0.000000 0.000000 0.039824 0.000000
# 6 0.000000 0.000000 0.000000 0.000000 0.000000 0.067955
#
#
# Mechanical properties :
#
#
# Convention : Reuss Voigt Hill
#
# Bulk Modulus (GPa) = 62.26017 66.86038 64.56028
# Shear Modulus (GPa) = 18.59310 19.77993 19.18651
#
# Velocity S-wave (km/s) = 3.27720 3.38018 3.32909
# Velocity P-wave (km/s) = 7.09111 7.33861 7.21592
#
# Compressibility (1/GPa) = 0.01606163
#
# Stress axis : x y z
#
# Youngs Moduli (GPa) = 43.86999 59.67240 45.12115
#
# Poissons Ratio (x) = 0.17304 0.45471
# Poissons Ratio (y) = 0.12721 0.44443
# Poissons Ratio (z) = 0.44210 0.58775
#
# Static dielectric constant tensor:
#      x y z
#    x 2.969850 0.000000 0.000000 
#    y 0.000000 3.283180 0.000000 
#    z 0.000000 0.000000 3.361330 
# 
# 
# High freq. dielectric constant tensor:
#      x y z
#    x 1.646260 0.000000 0.000000 
#    y 0.000000 1.652970 0.000000 
#    z 0.000000 0.000000 1.671980 
# 
# From -- ./inp_files/7006.got.cif
#   From: 2010.03.12/outbox.cif.g09.slc.cpg/sg47_4_cif.got.tgz:7006.got - 2010.04.14 03:12:58.
