data_PCOD8199085
_publ_section_title
;
Structure prediction by ZEFSAII (Michael W. Deem and Ramdas Pophale) SiO2 
 PCOD8199085
Probable space group: P M M M
;
_chemical_formula_sum "Si O2"
_cell_formula_units_Z 52
_cell_length_a 15.757084
_cell_length_b 9.152768
_cell_length_c 20.052175
_cell_angle_alpha 90.000000
_cell_angle_beta 90.000000
_cell_angle_gamma 90.000000
_cell_volume 2891.943411
_symmetry_space_group_name_H-M "P M M M"
_symmetry_group_IT_number 47
_symmetry_cell_setting 'orthorhombic'
loop_
_space_group_symop_operation_xyz
x,y,z
-x,-y,z
x,-y,-z
-x,y,-z
-x,-y,-z
x,y,-z
-x,y,z
x,-y,z
loop_
_atom_site_type_symbol
_atom_site_label
_atom_site_fract_x
_atom_site_fract_y
_atom_site_fract_z
Si Si1 0.644232 0.667058 0.166891
Si Si2 0.900266 0.337398 0.926667
Si Si3 0.500000 0.673369 0.927615
Si Si4 0.595601 0.332286 0.316605
Si Si5 0.768510 0.173399 0.333560
Si Si6 0.191820 0.829025 0.184957
Si Si7 0.096111 0.332946 0.421429
O O1 0.674390 0.500000 0.156418
O O2 0.582507 0.725839 0.110511
O O3 0.597741 0.683147 0.237295
O O4 0.719717 0.778444 0.155334
O O5 0.862644 0.500000 0.915541
O O6 0.879265 0.239516 0.862395
O O7 0.000000 0.345211 0.929498
O O8 0.867949 0.278527 0.000000
O O9 0.500000 0.500000 0.930708
O O10 0.500000 0.746194 0.000000
O O11 0.500000 0.280564 0.339684
O O12 0.609253 0.500000 0.338685
O O13 0.673842 0.238733 0.347063
O O14 0.808500 0.223395 0.262406
O O15 0.834650 0.228357 0.388359
O O16 0.759471 0.000000 0.337900
O O17 0.180269 0.000000 0.181161
O O18 0.106126 0.315336 0.500000
O O19 0.113518 0.500000 0.399869
O O20 0.000000 0.288187 0.400127
#
# Coordination Sequence:
#
# PCOD8199085 Si02
#       7
#     8   8   4   8   8   8   8
#     4   9  16  29  47  67  92 124 164 208 251 298
#     4   9  19  36  55  72  90 119 165 216 263 312
#     4   9  16  26  43  67  91 117 156 207 256 299
#     4   9  16  29  51  74  98 134 179 223 264 306
#     4  10  21  34  50  79 114 144 177 215 259 315
#     4  10  21  34  48  72 104 135 166 204 253 307
#     4   9  19  37  60  84 110 142 179 217 259 309
#
# _framework density 17.980988
#
# number of rings (size 3 to 8) (size 9 to 14) (size 15 to 20)
#    0.000    2.692    0.769    1.846    0.000    4.615 
#    0.000    6.538    0.000    0.923    0.000    3.231 
#    0.000    0.000    0.000    0.000    0.000    0.000 
#
# Total GULP energy -644303.174839 kJ/mol
# GULP energy per Si atom -12390.445670 kJ/mol
# Density = 1.794006 g / cm^3
# Si number density = 17.980988 Si / 1000 Ang^3
#
#
#
# Elastic Constant Matrix: (Units=GPa)
#
#
# Indices 1 2 3 4 5 6 
#
# 1 103.8658 39.8793 45.0016 0.0000 0.0000 0.0000
# 2 39.8793 58.9626 28.6397 0.0000 0.0000 0.0000
# 3 45.0016 28.6397 57.8163 0.0000 0.0000 0.0000
# 4 0.0000 0.0000 0.0000 19.7097 0.0000 0.0000
# 5 0.0000 0.0000 0.0000 0.0000 28.3627 0.0000
# 6 0.0000 0.0000 0.0000 0.0000 0.0000 -46.2697
#
#
#
# Elastic Compliance Matrix: (Units=1/GPa)
#
#
# Indices 1 2 3 4 5 6 
#
# 1 0.016147 -0.006342 -0.009426 0.000000 0.000000 0.000000
# 2 -0.006342 0.024825 -0.007360 0.000000 0.000000 0.000000
# 3 -0.009426 -0.007360 0.028279 0.000000 0.000000 0.000000
# 4 0.000000 0.000000 0.000000 0.050736 0.000000 0.000000
# 5 0.000000 0.000000 0.000000 0.000000 0.035258 0.000000
# 6 0.000000 0.000000 0.000000 0.000000 0.000000 -0.021612
#
#
# Mechanical properties :
#
#
# Convention : Reuss Voigt Hill
#
# Bulk Modulus (GPa) = 43.49230 49.74288 46.61759
# Shear Modulus (GPa) = 26.65877 7.50216 17.08047
#
# Velocity S-wave (km/s) = 3.85464 2.04483 3.08542
# Velocity P-wave (km/s) = 6.63713 5.77056 6.21895
#
# Compressibility (1/GPa) = 0.02299258
#
# Stress axis : x y z
#
# Youngs Moduli (GPa) = 61.93047 40.28240 35.36156
#
# Poissons Ratio (x) = 0.25549 0.33333
# Poissons Ratio (y) = 0.39279 0.26028
# Poissons Ratio (z) = 0.58378 0.29650
#
# Static dielectric constant tensor:
#      x y z
#    x 3.399320 0.000000 0.000000 
#    y 0.000000 3.205590 0.000000 
#    z 0.000000 0.000000 3.326350 
# 
# 
# High freq. dielectric constant tensor:
#      x y z
#    x 1.700470 0.000000 0.000000 
#    y 0.000000 1.679960 0.000000 
#    z 0.000000 0.000000 1.680670 
# 
# From -- ./inp_files/30854.got.cif
#   From: 2010.03.12/outbox.cif.g09.slc.cpg/sg47_16_cif.got.tgz:30854.got - 2010.04.14 03:12:58.
