data_PCOD8199262
_publ_section_title
;
Structure prediction by ZEFSAII (Michael W. Deem and Ramdas Pophale) SiO2 
 PCOD8199262
Probable space group: P M M M
;
_chemical_formula_sum "Si O2"
_cell_formula_units_Z 52
_cell_length_a 21.873411
_cell_length_b 8.859249
_cell_length_c 14.296843
_cell_angle_alpha 90.000000
_cell_angle_beta 90.000000
_cell_angle_gamma 90.000000
_cell_volume 2770.470752
_symmetry_space_group_name_H-M "P M M M"
_symmetry_group_IT_number 47
_symmetry_cell_setting 'orthorhombic'
loop_
_space_group_symop_operation_xyz
x,y,z
-x,-y,z
x,-y,-z
-x,y,-z
-x,-y,-z
x,y,-z
-x,y,z
x,-y,z
loop_
_atom_site_type_symbol
_atom_site_label
_atom_site_fract_x
_atom_site_fract_y
_atom_site_fract_z
Si Si1 0.369956 0.821097 0.393779
Si Si2 0.000000 0.820254 0.394420
Si Si3 0.326651 0.821062 0.106460
Si Si4 0.931860 0.179173 0.899578
Si Si5 0.747191 0.178414 0.716750
Si Si6 0.880767 0.179618 0.710708
Si Si7 0.429748 0.325688 0.222923
O O1 0.380136 0.764890 0.500000
O O2 0.302296 0.770611 0.360075
O O3 0.419244 0.746215 0.325470
O O4 0.377264 0.000000 0.386650
O O5 0.062507 0.753916 0.349009
O O6 0.000000 0.764833 0.500000
O O7 0.000000 0.000000 0.384560
O O8 0.273437 0.767291 0.178852
O O9 0.390604 0.752595 0.141487
O O10 0.333660 0.000000 0.110013
O O11 0.312141 0.767147 0.000000
O O12 0.888357 0.235799 0.817401
O O13 0.000000 0.243253 0.883462
O O14 0.935181 0.000000 0.897813
O O15 0.906076 0.235047 0.000000
O O16 0.813469 0.243710 0.684082
O O17 0.752928 0.000000 0.719966
O O18 0.882439 0.000000 0.700833
O O19 0.500000 0.302764 0.195380
O O20 0.411384 0.500000 0.228378
#
# Coordination Sequence:
#
# PCOD8199262 Si02
#       7
#     8   4   8   8   8   8   8
#     4   9  18  33  51  70  94 126 164 203 243 288
#     4   9  16  22  27  41  69 105 145 188 232 278
#     4   9  18  33  51  71  97 129 164 199 235 279
#     4   8  12  17  25  38  59  89 126 169 216 264
#     4   8  15  26  41  60  82 113 156 202 239 276
#     4   9  14  21  32  47  71 104 144 189 233 274
#     4  10  21  35  51  74 102 128 156 193 237 285
#
# _framework density 18.769373000000002
#
# number of rings (size 3 to 8) (size 9 to 14) (size 15 to 20)
#    0.000    3.154    0.769    1.846    0.000    3.692 
#    0.000    9.231    0.000    0.000    0.000    0.000 
#    0.000    0.000    0.000   11.077    0.000   42.462 
#
# Total GULP energy -644220.543525 kJ/mol
# GULP energy per Si atom -12388.856606 kJ/mol
# Density = 1.872665 g / cm^3
# Si number density = 18.769373 Si / 1000 Ang^3
#
#
#
# Elastic Constant Matrix: (Units=GPa)
#
#
# Indices 1 2 3 4 5 6 
#
# 1 104.9862 12.3736 31.7204 0.0000 0.0000 0.0000
# 2 12.3736 16.7258 14.9746 0.0000 0.0000 0.0000
# 3 31.7204 14.9746 103.6974 0.0000 0.0000 0.0000
# 4 0.0000 0.0000 0.0000 7.9451 0.0000 0.0000
# 5 0.0000 0.0000 0.0000 0.0000 17.7493 0.0000
# 6 0.0000 0.0000 0.0000 0.0000 0.0000 -0.1158
#
#
#
# Elastic Compliance Matrix: (Units=1/GPa)
#
#
# Indices 1 2 3 4 5 6 
#
# 1 0.010975 -0.005873 -0.002509 0.000000 0.000000 0.000000
# 2 -0.005873 0.071808 -0.008573 0.000000 0.000000 0.000000
# 3 -0.002509 -0.008573 0.011649 0.000000 0.000000 0.000000
# 4 0.000000 0.000000 0.000000 0.125864 0.000000 0.000000
# 5 0.000000 0.000000 0.000000 0.000000 0.056340 0.000000
# 6 0.000000 0.000000 0.000000 0.000000 0.000000 -8.632247
#
#
# Mechanical properties :
#
#
# Convention : Reuss Voigt Hill
#
# Bulk Modulus (GPa) = 16.52289 38.17182 27.34736
# Shear Modulus (GPa) = -0.60230 16.20510 7.80140
#
# Velocity S-wave (km/s) = -0.56709 2.94152 2.04095
# Velocity P-wave (km/s) = 2.89714 5.64962 4.48952
#
# Compressibility (1/GPa) = 0.06052210
#
# Stress axis : x y z
#
# Youngs Moduli (GPa) = 91.11304 13.92598 85.84425
#
# Poissons Ratio (x) = 0.08179 0.21540
# Poissons Ratio (y) = 0.53511 0.73595
# Poissons Ratio (z) = 0.22862 0.11939
#
# Static dielectric constant tensor:
#      x y z
#    x 3.670890 0.000000 0.000000 
#    y 0.000000 2.819730 0.000000 
#    z 0.000000 0.000000 3.719320 
# 
# 
# High freq. dielectric constant tensor:
#      x y z
#    x 1.731390 0.000000 0.000000 
#    y 0.000000 1.657680 0.000000 
#    z 0.000000 0.000000 1.734650 
# 
# From -- ./inp_files/25449.got.cif
#   From: 2010.03.12/outbox.cif.g09.slc.cpg/sg47_13_cif.got.tgz:25449.got - 2010.04.14 03:12:58.
