data_PCOD8199204
_publ_section_title
;
Structure prediction by ZEFSAII (Michael W. Deem and Ramdas Pophale) SiO2 
 PCOD8199204
Probable space group: P M M M
;
_chemical_formula_sum "Si O2"
_cell_formula_units_Z 44
_cell_length_a 9.181567
_cell_length_b 28.034708
_cell_length_c 9.696940
_cell_angle_alpha 90.000000
_cell_angle_beta 90.000000
_cell_angle_gamma 90.000000
_cell_volume 2496.017082
_symmetry_space_group_name_H-M "P M M M"
_symmetry_group_IT_number 47
_symmetry_cell_setting 'orthorhombic'
loop_
_space_group_symop_operation_xyz
x,y,z
-x,-y,z
x,-y,-z
-x,y,-z
-x,-y,-z
x,y,-z
-x,y,z
x,-y,z
loop_
_atom_site_type_symbol
_atom_site_label
_atom_site_fract_x
_atom_site_fract_y
_atom_site_fract_z
Si Si1 0.670456 0.275628 0.159128
Si Si2 0.326706 0.084798 0.345027
Si Si3 0.327022 0.809417 0.654460
Si Si4 0.829916 0.370705 0.159376
Si Si5 0.666539 0.555354 0.341516
Si Si6 0.325994 0.000000 0.156142
O O1 0.500000 0.282967 0.186825
O O2 0.735060 0.230509 0.242377
O O3 0.751043 0.322896 0.211845
O O4 0.704406 0.265601 0.000000
O O5 0.272596 0.072207 0.500000
O O6 0.500000 0.083535 0.343521
O O7 0.271267 0.137751 0.302547
O O8 0.264993 0.046604 0.235731
O O9 0.273766 0.797327 0.500000
O O10 0.500000 0.809158 0.660947
O O11 0.774449 0.415408 0.245580
O O12 0.000000 0.364230 0.184176
O O13 0.792401 0.380323 0.000000
O O14 0.696224 0.568859 0.500000
O O15 0.500000 0.567227 0.302442
O O16 0.699400 0.500000 0.316107
O O17 0.500000 0.000000 0.155693
O O18 0.265559 0.000000 0.000000
#
# Coordination Sequence:
#
# PCOD8199204 Si02
#       6
#     8   8   8   8   8   4
#     4   9  17  29  45  64  86 114 149 189 231 271
#     4   8  13  21  31  43  64  96 132 169 211 260
#     4   8  14  24  38  56  76 101 138 182 224 267
#     4  10  21  35  50  71 100 131 161 193 231 278
#     4   9  19  36  56  77 100 126 158 196 236 277
#     4   9  15  19  25  41  65  95 132 171 210 255
#
# _framework density 17.628084000000001
#
# number of rings (size 3 to 8) (size 9 to 14) (size 15 to 20)
#    0.000    3.182    0.000    2.455    0.000    4.727 
#    0.000    8.182    0.000    0.000    0.000    0.000 
#    0.000    0.000    0.000    0.818    0.000   17.455 
#
# Total GULP energy -545445.948971 kJ/mol
# GULP energy per Si atom -12396.498840 kJ/mol
# Density = 1.758796 g / cm^3
# Si number density = 17.628084 Si / 1000 Ang^3
#
#
#
# Elastic Constant Matrix: (Units=GPa)
#
#
# Indices 1 2 3 4 5 6 
#
# 1 31.6536 36.0923 28.8093 0.0000 0.0000 0.0000
# 2 36.0923 138.3396 82.8304 0.0000 0.0000 0.0000
# 3 28.8093 82.8304 100.1510 0.0000 0.0000 0.0000
# 4 0.0000 0.0000 0.0000 39.3564 0.0000 0.0000
# 5 0.0000 0.0000 0.0000 0.0000 14.9697 0.0000
# 6 0.0000 0.0000 0.0000 0.0000 0.0000 0.9026
#
#
#
# Elastic Compliance Matrix: (Units=1/GPa)
#
#
# Indices 1 2 3 4 5 6 
#
# 1 0.047143 -0.008280 -0.006713 0.000000 0.000000 0.000000
# 2 -0.008280 0.015774 -0.010664 0.000000 0.000000 0.000000
# 3 -0.006713 -0.010664 0.020736 0.000000 0.000000 0.000000
# 4 0.000000 0.000000 0.000000 0.025409 0.000000 0.000000
# 5 0.000000 0.000000 0.000000 0.000000 0.066801 0.000000
# 6 0.000000 0.000000 0.000000 0.000000 0.000000 1.107913
#
#
# Mechanical properties :
#
#
# Convention : Reuss Voigt Hill
#
# Bulk Modulus (GPa) = 30.92307 62.84535 46.88421
# Shear Modulus (GPa) = 3.71507 19.20657 11.46082
#
# Velocity S-wave (km/s) = 1.45329 3.30440 2.55256
# Velocity P-wave (km/s) = 4.51620 7.09132 5.94487
#
# Compressibility (1/GPa) = 0.03233831
#
# Stress axis : x y z
#
# Youngs Moduli (GPa) = 21.21212 63.39594 48.22597
#
# Poissons Ratio (x) = 0.52492 0.32374
# Poissons Ratio (y) = 0.17564 0.51428
# Poissons Ratio (z) = 0.14240 0.67606
#
# Static dielectric constant tensor:
#      x y z
#    x 2.746410 0.000000 0.000000 
#    y 0.000000 3.555880 0.000000 
#    z 0.000000 0.000000 3.365460 
# 
# 
# High freq. dielectric constant tensor:
#      x y z
#    x 1.624350 0.000000 0.000000 
#    y 0.000000 1.694560 0.000000 
#    z 0.000000 0.000000 1.681070 
# 
# From -- ./inp_files/2166.got.cif
#   From: 2010.03.12/outbox.cif.g09.slc.cpg/sg47_2_cif.got.tgz:2166.got - 2010.04.14 03:12:58.
