data_PCOD8199451
_publ_section_title
;
Structure prediction by ZEFSAII (Michael W. Deem and Ramdas Pophale) SiO2 
 PCOD8199451
Probable space group: P M M M
;
_chemical_formula_sum "Si O2"
_cell_formula_units_Z 64
_cell_length_a 40.755098
_cell_length_b 9.864341
_cell_length_c 8.890169
_cell_angle_alpha 90.000000
_cell_angle_beta 90.000000
_cell_angle_gamma 90.000000
_cell_volume 3574.045159
_symmetry_space_group_name_H-M "P M M M"
_symmetry_group_IT_number 47
_symmetry_cell_setting 'orthorhombic'
loop_
_space_group_symop_operation_xyz
x,y,z
-x,-y,z
x,-y,-z
-x,y,-z
-x,-y,-z
x,y,-z
-x,y,z
x,-y,z
loop_
_atom_site_type_symbol
_atom_site_label
_atom_site_fract_x
_atom_site_fract_y
_atom_site_fract_z
Si Si1 0.160926 0.344824 0.822873
Si Si2 0.408936 0.649670 0.678589
Si Si3 0.463610 0.151527 0.678939
Si Si4 0.335041 0.341401 0.673776
Si Si5 0.093193 0.655306 0.323156
Si Si6 0.785317 0.156363 0.675840
Si Si7 0.036375 0.847939 0.678790
Si Si8 0.717275 0.154998 0.174485
O O1 0.168098 0.500000 0.774753
O O2 0.126454 0.295548 0.755210
O O3 0.189211 0.250164 0.760826
O O4 0.159224 0.329270 0.000000
O O5 0.411968 0.645348 0.500000
O O6 0.415982 0.500000 0.743968
O O7 0.435838 0.751103 0.749495
O O8 0.372221 0.695766 0.721503
O O9 0.461220 0.151997 0.500000
O O10 0.500000 0.200930 0.728358
O O11 0.457258 0.000000 0.739755
O O12 0.328740 0.303883 0.500000
O O13 0.328159 0.500000 0.700986
O O14 0.312054 0.252917 0.779287
O O15 0.097607 0.677514 0.500000
O O16 0.085269 0.500000 0.283472
O O17 0.063327 0.744332 0.256487
O O18 0.787746 0.185427 0.500000
O O19 0.749141 0.195881 0.730606
O O20 0.793067 0.000000 0.714437
O O21 0.036472 0.841312 0.500000
O O22 0.000000 0.807309 0.737668
O O23 0.045129 0.000000 0.732693
O O24 0.706988 0.000000 0.208377
O O25 0.725478 0.176115 0.000000
#
# Coordination Sequence:
#
# PCOD8199451 Si02
#       8
#     8   8   8   8   8   8   8   8
#     4  10  21  36  53  74 102 135 168 202 243 291
#     4   8  14  24  37  55  81 113 150 191 232 275
#     4   8  13  20  30  48  77 112 149 188 230 277
#     4   9  18  32  49  70  96 126 162 202 241 284
#     4   9  17  29  46  69  96 125 160 203 246 288
#     4  10  21  37  57  79 101 127 161 200 242 288
#     4   8  14  25  42  66  95 124 156 198 246 292
#     4  10  21  36  53  74 100 128 159 196 238 286
#
# _framework density 17.906879
#
# number of rings (size 3 to 8) (size 9 to 14) (size 15 to 20)
#    0.000    3.000    0.000    2.625    0.000    4.500 
#    0.000    5.000    0.000    0.375    0.000    2.625 
#    0.000    0.500    0.000    5.500    0.000    9.000 
#
# Total GULP energy -793438.517793 kJ/mol
# GULP energy per Si atom -12397.476841 kJ/mol
# Density = 1.786612 g / cm^3
# Si number density = 17.906879 Si / 1000 Ang^3
#
#
#
# Elastic Constant Matrix: (Units=GPa)
#
#
# Indices 1 2 3 4 5 6 
#
# 1 124.3553 71.7613 10.8216 0.0000 0.0000 0.0000
# 2 71.7613 82.0159 12.4504 0.0000 0.0000 0.0000
# 3 10.8216 12.4504 17.7312 0.0000 0.0000 0.0000
# 4 0.0000 0.0000 0.0000 19.6628 0.0000 0.0000
# 5 0.0000 0.0000 0.0000 0.0000 -4.4081 0.0000
# 6 0.0000 0.0000 0.0000 0.0000 0.0000 42.4279
#
#
#
# Elastic Compliance Matrix: (Units=1/GPa)
#
#
# Indices 1 2 3 4 5 6 
#
# 1 0.016243 -0.014223 0.000074 0.000000 0.000000 0.000000
# 2 -0.014223 0.026102 -0.009648 0.000000 0.000000 0.000000
# 3 0.000074 -0.009648 0.063127 0.000000 0.000000 0.000000
# 4 0.000000 0.000000 0.000000 0.050857 0.000000 0.000000
# 5 0.000000 0.000000 0.000000 0.000000 -0.226853 0.000000
# 6 0.000000 0.000000 0.000000 0.000000 0.000000 0.023569
#
#
# Mechanical properties :
#
#
# Convention : Reuss Voigt Hill
#
# Bulk Modulus (GPa) = 17.27768 46.01878 31.64823
# Shear Modulus (GPa) = 250.85462 20.14113 135.49787
#
# Velocity S-wave (km/s) = 11.84874 3.35740 8.70818
# Velocity P-wave (km/s) = 14.03067 6.38625 10.90055
#
# Compressibility (1/GPa) = 0.05787814
#
# Stress axis : x y z
#
# Youngs Moduli (GPa) = 61.56604 38.31113 15.84110
#
# Poissons Ratio (x) = 0.54490 -0.00117
# Poissons Ratio (y) = 0.87566 0.15283
# Poissons Ratio (z) = -0.00455 0.36961
#
# Static dielectric constant tensor:
#      x y z
#    x 3.545510 0.000000 0.000000 
#    y 0.000000 3.496840 0.000000 
#    z 0.000000 0.000000 2.935650 
# 
# 
# High freq. dielectric constant tensor:
#      x y z
#    x 1.702850 0.000000 0.000000 
#    y 0.000000 1.693740 0.000000 
#    z 0.000000 0.000000 1.654630 
# 
# From -- ./inp_files/14176.got.cif
#   From: 2010.03.12/outbox.cif.g09.slc.cpg/sg47_8_cif.got.tgz:14176.got - 2010.04.14 03:12:58.
