data_PCOD8199666
_publ_section_title
;
Structure prediction by ZEFSAII (Michael W. Deem and Ramdas Pophale) SiO2 
 PCOD8199666
Probable space group: P M M M
;
_chemical_formula_sum "Si O2"
_cell_formula_units_Z 64
_cell_length_a 9.593818
_cell_length_b 23.837740
_cell_length_c 14.763627
_cell_angle_alpha 90.000000
_cell_angle_beta 90.000000
_cell_angle_gamma 90.000000
_cell_volume 3376.366778
_symmetry_space_group_name_H-M "P M M M"
_symmetry_group_IT_number 47
_symmetry_cell_setting 'orthorhombic'
loop_
_space_group_symop_operation_xyz
x,y,z
-x,-y,z
x,-y,-z
-x,y,-z
-x,-y,-z
x,y,-z
-x,y,z
x,-y,z
loop_
_atom_site_type_symbol
_atom_site_label
_atom_site_fract_x
_atom_site_fract_y
_atom_site_fract_z
Si Si1 0.166947 0.362446 0.265647
Si Si2 0.343836 0.819434 0.903087
Si Si3 0.656487 0.564465 0.606108
Si Si4 0.338357 0.848998 0.602870
Si Si5 0.153032 0.063013 0.706222
Si Si6 0.834753 0.562496 0.100490
Si Si7 0.336472 0.249202 0.265554
Si Si8 0.245763 0.938518 0.900095
O O1 0.222818 0.399593 0.347835
O O2 0.217968 0.391911 0.172584
O O3 0.239151 0.302679 0.272688
O O4 0.000000 0.356717 0.272108
O O5 0.500000 0.797402 0.907732
O O6 0.274983 0.786769 0.819268
O O7 0.351714 0.886709 0.889043
O O8 0.269075 0.805107 0.000000
O O9 0.672501 0.573720 0.500000
O O10 0.500000 0.583006 0.636445
O O11 0.680770 0.500000 0.632260
O O12 0.282280 0.848832 0.500000
O O13 0.500000 0.864887 0.606656
O O14 0.262258 0.895199 0.662652
O O15 0.313827 0.787348 0.644120
O O16 0.140780 0.067671 0.815810
O O17 0.000000 0.077243 0.667922
O O18 0.197191 0.000000 0.678375
O O19 0.778023 0.500000 0.124675
O O20 0.000000 0.560606 0.102089
O O21 0.782087 0.579978 0.000000
O O22 0.500000 0.265232 0.255261
O O23 0.321085 0.000000 0.893523
O O24 0.171563 0.934306 0.000000
#
# Coordination Sequence:
#
# PCOD8199666 Si02
#       8
#     8   8   8   8   8   8   8   8
#     4  11  22  34  54  85 116 146 186 234 276 319
#     4   9  17  31  52  77 106 141 182 228 277 328
#     4   9  19  37  60  85 114 148 182 217 268 335
#     4  10  22  41  62  80 100 135 186 237 282 331
#     4  10  21  36  56  84 116 145 174 216 275 339
#     4   8  15  30  52  78 111 150 186 220 263 314
#     4  10  21  38  55  75 106 146 188 229 277 329
#     4   9  17  30  51  81 114 145 178 218 269 332
#
# _framework density 18.955286999999998
#
# number of rings (size 3 to 8) (size 9 to 14) (size 15 to 20)
#    0.000    2.500    1.250    1.500    0.000    3.750 
#    0.000    6.875    0.000    1.125    0.000    4.375 
#    0.000    0.000    0.000    0.000    0.000    0.000 
#
# Total GULP energy -792869.329207 kJ/mol
# GULP energy per Si atom -12388.583269 kJ/mol
# Density = 1.891214 g / cm^3
# Si number density = 18.955287 Si / 1000 Ang^3
#
#
#
# Elastic Constant Matrix: (Units=GPa)
#
#
# Indices 1 2 3 4 5 6 
#
# 1 68.2844 56.5120 43.0010 0.0000 0.0000 0.0000
# 2 56.5120 124.7026 67.4495 0.0000 0.0000 0.0000
# 3 43.0010 67.4495 119.3060 0.0000 0.0000 0.0000
# 4 0.0000 0.0000 0.0000 -3.8097 0.0000 0.0000
# 5 0.0000 0.0000 0.0000 0.0000 16.6847 0.0000
# 6 0.0000 0.0000 0.0000 0.0000 0.0000 21.5870
#
#
#
# Elastic Compliance Matrix: (Units=1/GPa)
#
#
# Indices 1 2 3 4 5 6 
#
# 1 0.024505 -0.009115 -0.003679 0.000000 0.000000 0.000000
# 2 -0.009115 0.014942 -0.005162 0.000000 0.000000 0.000000
# 3 -0.003679 -0.005162 0.012626 0.000000 0.000000 0.000000
# 4 0.000000 0.000000 0.000000 -0.262487 0.000000 0.000000
# 5 0.000000 0.000000 0.000000 0.000000 0.059935 0.000000
# 6 0.000000 0.000000 0.000000 0.000000 0.000000 0.046324
#
#
# Mechanical properties :
#
#
# Convention : Reuss Voigt Hill
#
# Bulk Modulus (GPa) = 61.87844 71.80202 66.84023
# Shear Modulus (GPa) = -79.54788 16.58110 -31.48339
#
# Velocity S-wave (km/s) = -6.48515 2.96082 -4.07987
# Velocity P-wave (km/s) = 4.83331 7.04631 3.62558
#
# Compressibility (1/GPa) = 0.01616072
#
# Stress axis : x y z
#
# Youngs Moduli (GPa) = 40.80774 66.92585 79.20049
#
# Poissons Ratio (x) = 0.61004 0.29138
# Poissons Ratio (y) = 0.37197 0.40884
# Poissons Ratio (z) = 0.15013 0.34547
#
# Static dielectric constant tensor:
#      x y z
#    x 3.107720 0.000000 0.000000 
#    y 0.000000 3.469330 0.000000 
#    z 0.000000 0.000000 3.814730 
# 
# 
# High freq. dielectric constant tensor:
#      x y z
#    x 1.698610 0.000000 0.000000 
#    y 0.000000 1.736050 0.000000 
#    z 0.000000 0.000000 1.748610 
# 
# From -- ./inp_files/21948.got.cif
#   From: 2010.03.12/outbox.cif.g09.slc.cpg/sg47_11_cif.got.tgz:21948.got - 2010.04.14 03:12:58.
