data_PCOD8199277
_publ_section_title
;
Structure prediction by ZEFSAII (Michael W. Deem and Ramdas Pophale) SiO2 
 PCOD8199277
Probable space group: P M M M
;
_chemical_formula_sum "Si O2"
_cell_formula_units_Z 64
_cell_length_a 9.122372
_cell_length_b 25.851003
_cell_length_c 14.436366
_cell_angle_alpha 90.000000
_cell_angle_beta 90.000000
_cell_angle_gamma 90.000000
_cell_volume 3404.419429
_symmetry_space_group_name_H-M "P M M M"
_symmetry_group_IT_number 47
_symmetry_cell_setting 'orthorhombic'
loop_
_space_group_symop_operation_xyz
x,y,z
-x,-y,z
x,-y,-z
-x,y,-z
-x,-y,-z
x,y,-z
-x,y,z
x,-y,z
loop_
_atom_site_type_symbol
_atom_site_label
_atom_site_fract_x
_atom_site_fract_y
_atom_site_fract_z
Si Si1 0.832470 0.940653 0.107446
Si Si2 0.672237 0.348028 0.893724
Si Si3 0.668995 0.557297 0.768008
Si Si4 0.326922 0.814367 0.398861
Si Si5 0.170639 0.244358 0.109183
Si Si6 0.672772 0.851345 0.794076
Si Si7 0.827854 0.398097 0.606286
Si Si8 0.338924 0.298609 0.391154
O O1 0.722683 0.906179 0.166621
O O2 0.000000 0.925037 0.128963
O O3 0.804321 0.000000 0.134684
O O4 0.798369 0.931568 0.000000
O O5 0.500000 0.338527 0.882957
O O6 0.725633 0.399249 0.839568
O O7 0.754521 0.297239 0.854150
O O8 0.716685 0.357164 0.000000
O O9 0.500000 0.567114 0.744171
O O10 0.691942 0.500000 0.811569
O O11 0.757935 0.558489 0.671605
O O12 0.262527 0.832050 0.500000
O O13 0.500000 0.808673 0.409529
O O14 0.286164 0.853193 0.315823
O O15 0.268240 0.757466 0.368907
O O16 0.244706 0.195229 0.156467
O O17 0.000000 0.245531 0.134882
O O18 0.196025 0.238499 0.000000
O O19 0.500000 0.844146 0.809461
O O20 0.781508 0.408674 0.500000
O O21 0.768750 0.343102 0.644833
O O22 0.000000 0.398546 0.617310
O O23 0.357400 0.303567 0.500000
O O24 0.500000 0.305582 0.344093
#
# Coordination Sequence:
#
# PCOD8199277 Si02
#       8
#     8   8   8   8   8   8   8   8
#     4   9  19  37  58  78 106 147 189 226 269 323
#     4   9  19  37  59  80 103 131 166 213 265 314
#     4  10  22  38  56  78 101 129 169 214 261 319
#     4   8  16  31  49  72 105 143 179 215 259 310
#     4  10  21  36  53  76 110 147 176 205 253 320
#     4  11  21  31  52  85 114 142 180 226 269 309
#     4  10  21  35  51  74 104 135 168 211 261 309
#     4   8  14  28  50  71  93 128 172 211 250 303
#
# _framework density 18.799092999999999
#
# number of rings (size 3 to 8) (size 9 to 14) (size 15 to 20)
#    0.000    2.625    0.000    2.625    1.750    4.750 
#    0.000    3.750    0.000    2.625    0.000    5.250 
#    0.000    0.000    0.000    0.000    0.000    0.000 
#
# Total GULP energy -793368.874342 kJ/mol
# GULP energy per Si atom -12396.388662 kJ/mol
# Density = 1.875631 g / cm^3
# Si number density = 18.799093 Si / 1000 Ang^3
#
#
#
# Elastic Constant Matrix: (Units=GPa)
#
#
# Indices 1 2 3 4 5 6 
#
# 1 64.2979 42.0340 35.3666 0.0000 0.0000 0.0000
# 2 42.0340 112.7100 57.6881 0.0000 0.0000 0.0000
# 3 35.3666 57.6881 76.8228 0.0000 0.0000 0.0000
# 4 0.0000 0.0000 0.0000 30.6152 0.0000 0.0000
# 5 0.0000 0.0000 0.0000 0.0000 19.0678 0.0000
# 6 0.0000 0.0000 0.0000 0.0000 0.0000 3.9981
#
#
#
# Elastic Compliance Matrix: (Units=1/GPa)
#
#
# Indices 1 2 3 4 5 6 
#
# 1 0.022439 -0.005005 -0.006572 0.000000 0.000000 0.000000
# 2 -0.005005 0.015527 -0.009356 0.000000 0.000000 0.000000
# 3 -0.006572 -0.009356 0.023068 0.000000 0.000000 0.000000
# 4 0.000000 0.000000 0.000000 0.032664 0.000000 0.000000
# 5 0.000000 0.000000 0.000000 0.000000 0.052444 0.000000
# 6 0.000000 0.000000 0.000000 0.000000 0.000000 0.250119
#
#
# Mechanical properties :
#
#
# Convention : Reuss Voigt Hill
#
# Bulk Modulus (GPa) = 52.16659 58.22311 55.19485
# Shear Modulus (GPa) = 11.24817 18.65235 14.95026
#
# Velocity S-wave (km/s) = 2.44874 3.15333 2.82310
# Velocity P-wave (km/s) = 5.98372 6.65556 6.32856
#
# Compressibility (1/GPa) = 0.01916936
#
# Stress axis : x y z
#
# Youngs Moduli (GPa) = 44.56460 64.40240 43.34990
#
# Poissons Ratio (x) = 0.32231 0.28490
# Poissons Ratio (y) = 0.22303 0.40558
# Poissons Ratio (z) = 0.29288 0.60254
#
# Static dielectric constant tensor:
#      x y z
#    x 3.314600 0.000000 0.000000 
#    y 0.000000 3.443350 0.000000 
#    z 0.000000 0.000000 3.560650 
# 
# 
# High freq. dielectric constant tensor:
#      x y z
#    x 1.713650 0.000000 0.000000 
#    y 0.000000 1.719440 0.000000 
#    z 0.000000 0.000000 1.729040 
# 
# From -- ./inp_files/7782.got.cif
#   From: 2010.03.12/outbox.cif.g09.slc.cpg/sg47_4_cif.got.tgz:7782.got - 2010.04.14 03:12:58.
