data_PCOD8199228
_publ_section_title
;
Structure prediction by ZEFSAII (Michael W. Deem and Ramdas Pophale) SiO2 
 PCOD8199228
Probable space group: P M M M
;
_chemical_formula_sum "Si O2"
_cell_formula_units_Z 64
_cell_length_a 25.759628
_cell_length_b 14.528928
_cell_length_c 9.112170
_cell_angle_alpha 90.000000
_cell_angle_beta 90.000000
_cell_angle_gamma 90.000000
_cell_volume 3410.318744
_symmetry_space_group_name_H-M "P M M M"
_symmetry_group_IT_number 47
_symmetry_cell_setting 'orthorhombic'
loop_
_space_group_symop_operation_xyz
x,y,z
-x,-y,z
x,-y,-z
-x,y,-z
-x,-y,-z
x,y,-z
-x,y,z
x,-y,z
loop_
_atom_site_type_symbol
_atom_site_label
_atom_site_fract_x
_atom_site_fract_y
_atom_site_fract_z
Si Si1 0.749729 0.293803 0.174475
Si Si2 0.595796 0.103291 0.171121
Si Si3 0.345535 0.393224 0.327443
Si Si4 0.158541 0.605559 0.671690
Si Si5 0.938457 0.903059 0.336588
Si Si6 0.712815 0.099743 0.173909
Si Si7 0.442579 0.725426 0.330147
Si Si8 0.942423 0.293637 0.325434
O O1 0.702219 0.350370 0.240490
O O2 0.803529 0.332068 0.234003
O O3 0.747144 0.186552 0.225680
O O4 0.747765 0.303477 0.000000
O O5 0.654369 0.113970 0.232241
O O6 0.559727 0.176290 0.251447
O O7 0.575290 0.000000 0.202533
O O8 0.593843 0.125557 0.000000
O O9 0.335798 0.379274 0.500000
O O10 0.349798 0.500000 0.286877
O O11 0.398881 0.345493 0.273195
O O12 0.167806 0.624843 0.500000
O O13 0.169046 0.500000 0.710672
O O14 0.099359 0.629224 0.718455
O O15 0.914716 0.905927 0.500000
O O16 0.922657 0.806008 0.259768
O O17 0.000000 0.900905 0.346772
O O18 0.920966 0.000000 0.256234
O O19 0.734493 0.000000 0.231525
O O20 0.710620 0.096252 0.000000
O O21 0.433438 0.744324 0.500000
O O22 0.500000 0.683166 0.301126
O O23 0.945868 0.283361 0.500000
O O24 0.000000 0.320661 0.264929
#
# Coordination Sequence:
#
# PCOD8199228 Si02
#       8
#     8   8   8   8   8   8   8   8
#     4  11  21  35  58  81 101 129 168 212 253 303
#     4   9  17  32  54  77 102 135 174 211 250 302
#     4  10  21  37  56  76 100 133 172 214 260 306
#     4  10  21  35  50  72 105 139 169 211 264 306
#     4   7   9  15  31  57  88 120 153 192 240 288
#     4   8  15  30  53  78 101 127 162 204 250 299
#     4  10  21  35  51  75 107 139 171 211 258 307
#     4   8  14  26  45  68  94 129 173 211 243 292
#
# _framework density 18.766573999999999
#
# number of rings (size 3 to 8) (size 9 to 14) (size 15 to 20)
#    0.000    2.875    1.250    2.625    0.000    3.250 
#    0.000    4.375    0.000    2.625    0.000    2.625 
#    0.000    0.000    0.000    6.250    0.000    2.500 
#
# Total GULP energy -792872.565979 kJ/mol
# GULP energy per Si atom -12388.633843 kJ/mol
# Density = 1.872386 g / cm^3
# Si number density = 18.766574 Si / 1000 Ang^3
#
#
#
# Elastic Constant Matrix: (Units=GPa)
#
#
# Indices 1 2 3 4 5 6 
#
# 1 106.5302 59.7193 28.1858 0.0000 0.0000 0.0000
# 2 59.7193 130.4003 33.4124 0.0000 0.0000 0.0000
# 3 28.1858 33.4124 29.8438 0.0000 0.0000 0.0000
# 4 0.0000 0.0000 0.0000 22.1693 0.0000 0.0000
# 5 0.0000 0.0000 0.0000 0.0000 11.7860 0.0000
# 6 0.0000 0.0000 0.0000 0.0000 0.0000 25.7670
#
#
#
# Elastic Compliance Matrix: (Units=1/GPa)
#
#
# Indices 1 2 3 4 5 6 
#
# 1 0.014009 -0.004243 -0.008481 0.000000 0.000000 0.000000
# 2 -0.004243 0.012038 -0.009471 0.000000 0.000000 0.000000
# 3 -0.008481 -0.009471 0.052121 0.000000 0.000000 0.000000
# 4 0.000000 0.000000 0.000000 0.045108 0.000000 0.000000
# 5 0.000000 0.000000 0.000000 0.000000 0.084847 0.000000
# 6 0.000000 0.000000 0.000000 0.000000 0.000000 0.038809
#
#
# Mechanical properties :
#
#
# Convention : Reuss Voigt Hill
#
# Bulk Modulus (GPa) = 29.60373 56.60103 43.10238
# Shear Modulus (GPa) = 16.52448 21.64158 19.08303
#
# Velocity S-wave (km/s) = 2.97059 3.39956 3.19229
# Velocity P-wave (km/s) = 5.25117 6.75540 6.05021
#
# Compressibility (1/GPa) = 0.03377952
#
# Stress axis : x y z
#
# Youngs Moduli (GPa) = 71.38098 83.06699 19.18615
#
# Poissons Ratio (x) = 0.35243 0.16272
# Poissons Ratio (y) = 0.30285 0.18171
# Poissons Ratio (z) = 0.60538 0.78672
#
# Static dielectric constant tensor:
#      x y z
#    x 3.379190 0.000000 0.000000 
#    y 0.000000 3.974920 0.000000 
#    z 0.000000 0.000000 2.996170 
# 
# 
# High freq. dielectric constant tensor:
#      x y z
#    x 1.713890 0.000000 0.000000 
#    y 0.000000 1.747500 0.000000 
#    z 0.000000 0.000000 1.677080 
# 
# From -- ./inp_files/12783.got.cif
#   From: 2010.03.12/outbox.cif.g09.slc.cpg/sg47_7_cif.got.tgz:12783.got - 2010.04.14 03:12:58.
