data_PCOD8199942
_publ_section_title
;
Structure prediction by ZEFSAII (Michael W. Deem and Ramdas Pophale) SiO2 
 PCOD8199942
Probable space group: P M M M
;
_chemical_formula_sum "Si O2"
_cell_formula_units_Z 64
_cell_length_a 9.426469
_cell_length_b 19.467019
_cell_length_c 20.010018
_cell_angle_alpha 90.000000
_cell_angle_beta 90.000000
_cell_angle_gamma 90.000000
_cell_volume 3671.943378
_symmetry_space_group_name_H-M "P M M M"
_symmetry_group_IT_number 47
_symmetry_cell_setting 'orthorhombic'
loop_
_space_group_symop_operation_xyz
x,y,z
-x,-y,z
x,-y,-z
-x,y,-z
-x,-y,-z
x,y,-z
-x,y,z
x,-y,z
loop_
_atom_site_type_symbol
_atom_site_label
_atom_site_fract_x
_atom_site_fract_y
_atom_site_fract_z
Si Si1 0.339674 0.924592 0.383710
Si Si2 0.664517 0.419132 0.690560
Si Si3 0.838468 0.800205 0.771931
Si Si4 0.339902 0.924979 0.775220
Si Si5 0.339165 0.420021 0.922855
Si Si6 0.164195 0.797769 0.618482
Si Si7 0.165977 0.649257 0.189117
Si Si8 0.836899 0.351551 0.576039
O O1 0.500000 0.912701 0.407784
O O2 0.329861 0.922913 0.304226
O O3 0.245585 0.862909 0.413667
O O4 0.286975 0.000000 0.408810
O O5 0.500000 0.396335 0.691414
O O6 0.678877 0.500000 0.700265
O O7 0.747565 0.382912 0.750134
O O8 0.734219 0.398118 0.620381
O O9 0.751545 0.862667 0.805489
O O10 0.793090 0.786324 0.695568
O O11 0.810926 0.730966 0.812951
O O12 0.000000 0.823620 0.775110
O O13 0.500000 0.914079 0.799543
O O14 0.284929 0.000000 0.800090
O O15 0.500000 0.399704 0.902468
O O16 0.315590 0.500000 0.908778
O O17 0.224927 0.378258 0.880643
O O18 0.312086 0.402595 0.000000
O O19 0.207473 0.728385 0.580275
O O20 0.000000 0.814285 0.609516
O O21 0.000000 0.630692 0.197254
O O22 0.820069 0.376592 0.500000
O O23 0.000000 0.359979 0.600684
#
# Coordination Sequence:
#
# PCOD8199942 Si02
#       8
#     8   8   8   8   8   8   8   8
#     4   8  14  24  39  62  90 119 153 193 237 286
#     4  11  24  39  55  76 101 129 163 205 254 307
#     4   9  17  28  43  66  97 128 160 202 247 291
#     4   8  14  24  38  60  91 125 161 199 239 287
#     4   9  19  36  55  76 106 142 177 212 251 297
#     4   9  16  29  46  66  92 120 156 199 244 296
#     4  11  21  34  53  79 109 137 171 212 250 295
#     4  10  21  38  57  74  95 125 162 207 259 311
#
# _framework density 17.429462000000001
#
# number of rings (size 3 to 8) (size 9 to 14) (size 15 to 20)
#    0.000    2.625    1.250    2.250    0.000    5.500 
#    0.000    4.375    0.000    0.375    0.000    2.625 
#    0.000    0.500    0.000    5.500    0.000    4.250 
#
# Total GULP energy -793413.304318 kJ/mol
# GULP energy per Si atom -12397.082880 kJ/mol
# Density = 1.738979 g / cm^3
# Si number density = 17.429462 Si / 1000 Ang^3
#
#
#
# Elastic Constant Matrix: (Units=GPa)
#
#
# Indices 1 2 3 4 5 6 
#
# 1 101.1460 63.3365 39.0992 0.0000 0.0000 0.0000
# 2 63.3365 93.4474 31.4853 0.0000 0.0000 0.0000
# 3 39.0992 31.4853 55.5017 0.0000 0.0000 0.0000
# 4 0.0000 0.0000 0.0000 12.2416 0.0000 0.0000
# 5 0.0000 0.0000 0.0000 0.0000 21.7112 0.0000
# 6 0.0000 0.0000 0.0000 0.0000 0.0000 37.7863
#
#
#
# Elastic Compliance Matrix: (Units=1/GPa)
#
#
# Indices 1 2 3 4 5 6 
#
# 1 0.019534 -0.010636 -0.007727 0.000000 0.000000 0.000000
# 2 -0.010636 0.019021 -0.003298 0.000000 0.000000 0.000000
# 3 -0.007727 -0.003298 0.025332 0.000000 0.000000 0.000000
# 4 0.000000 0.000000 0.000000 0.081689 0.000000 0.000000
# 5 0.000000 0.000000 0.000000 0.000000 0.046059 0.000000
# 6 0.000000 0.000000 0.000000 0.000000 0.000000 0.026465
#
#
# Mechanical properties :
#
#
# Convention : Reuss Voigt Hill
#
# Bulk Modulus (GPa) = 48.62678 57.54858 53.08768
# Shear Modulus (GPa) = 18.63745 22.09274 20.36509
#
# Velocity S-wave (km/s) = 3.27357 3.56413 3.42194
# Velocity P-wave (km/s) = 6.49986 7.07298 6.79247
#
# Compressibility (1/GPa) = 0.02056480
#
# Stress axis : x y z
#
# Youngs Moduli (GPa) = 51.19275 52.57298 39.47589
#
# Poissons Ratio (x) = 0.55917 0.30505
# Poissons Ratio (y) = 0.54449 0.13018
# Poissons Ratio (z) = 0.39559 0.17337
#
# Static dielectric constant tensor:
#      x y z
#    x 3.352150 0.000000 0.000000 
#    y 0.000000 3.516900 0.000000 
#    z 0.000000 0.000000 2.869330 
# 
# 
# High freq. dielectric constant tensor:
#      x y z
#    x 1.674890 0.000000 0.000000 
#    y 0.000000 1.681880 0.000000 
#    z 0.000000 0.000000 1.627870 
# 
# From -- ./inp_files/26999.got.cif
#   From: 2010.03.12/outbox.cif.g09.slc.cpg/sg47_14_cif.got.tgz:26999.got - 2010.04.14 03:12:58.
