data_PCOD8199008
_publ_section_title
;
Structure prediction by ZEFSAII (Michael W. Deem and Ramdas Pophale) SiO2 
 PCOD8199008
Probable space group: P M M M
;
_chemical_formula_sum "Si O2"
_cell_formula_units_Z 64
_cell_length_a 9.402550
_cell_length_b 14.643955
_cell_length_c 23.486385
_cell_angle_alpha 90.000000
_cell_angle_beta 90.000000
_cell_angle_gamma 90.000000
_cell_volume 3233.852542
_symmetry_space_group_name_H-M "P M M M"
_symmetry_group_IT_number 47
_symmetry_cell_setting 'orthorhombic'
loop_
_space_group_symop_operation_xyz
x,y,z
-x,-y,z
x,-y,-z
-x,y,-z
-x,-y,-z
x,y,-z
-x,y,z
x,-y,z
loop_
_atom_site_type_symbol
_atom_site_label
_atom_site_fract_x
_atom_site_fract_y
_atom_site_fract_z
Si Si1 0.663247 0.773419 0.432471
Si Si2 0.167668 0.220678 0.244199
Si Si3 0.162962 0.649742 0.061700
Si Si4 0.840196 0.398664 0.432371
Si Si5 0.168251 0.399797 0.184292
Si Si6 0.842643 0.135345 0.063515
Si Si7 0.658020 0.900127 0.162448
Si Si8 0.167136 0.893779 0.647189
O O1 0.675582 0.779494 0.500000
O O2 0.500000 0.774146 0.412360
O O3 0.734794 0.679476 0.409107
O O4 0.745304 0.861720 0.408091
O O5 0.219388 0.325052 0.231586
O O6 0.230822 0.162798 0.193627
O O7 0.220183 0.175742 0.303284
O O8 0.000000 0.211507 0.241174
O O9 0.234824 0.611032 0.120131
O O10 0.177432 0.757087 0.065500
O O11 0.000000 0.618265 0.060663
O O12 0.230578 0.617065 0.000000
O O13 0.840446 0.397373 0.500000
O O14 0.791659 0.500000 0.411372
O O15 0.000000 0.378109 0.409765
O O16 0.210724 0.500000 0.207684
O O17 0.000000 0.388382 0.178110
O O18 0.717697 0.088233 0.098929
O O19 0.000000 0.109803 0.087181
O O20 0.827367 0.097775 0.000000
O O21 0.500000 0.856750 0.162325
O O22 0.652313 0.000000 0.191239
O O23 0.000000 0.882831 0.635081
O O24 0.202960 0.000000 0.661287
#
# Coordination Sequence:
#
# PCOD8199008 Si02
#       8
#     8   8   8   8   8   8   8   8
#     4  10  21  36  56  85 120 154 185 225 281 341
#     4  10  20  38  60  80 106 139 179 228 272 320
#     4   8  13  23  42  71 105 137 171 214 264 317
#     4   8  14  27  50  80 114 153 194 231 265 305
#     4   9  16  27  49  81 111 139 173 219 275 325
#     4   9  17  31  51  73  99 135 179 224 270 322
#     4  11  23  35  50  75 104 136 176 223 277 331
#     4  10  22  39  59  82 107 142 188 235 283 334
#
# _framework density 19.790635999999999
#
# number of rings (size 3 to 8) (size 9 to 14) (size 15 to 20)
#    0.000    2.625    1.250    2.250    0.000    4.250 
#    0.000    5.625    0.000    2.625    0.000    0.000 
#    0.000    2.000    0.000    0.000    0.000    0.000 
#
# Total GULP energy -792840.872170 kJ/mol
# GULP energy per Si atom -12388.138628 kJ/mol
# Density = 1.974559 g / cm^3
# Si number density = 19.790636 Si / 1000 Ang^3
#
#
#
# Elastic Constant Matrix: (Units=GPa)
#
#
# Indices 1 2 3 4 5 6 
#
# 1 40.6283 32.6522 26.9662 0.0000 0.0000 0.0000
# 2 32.6522 133.4060 46.1224 0.0000 0.0000 0.0000
# 3 26.9662 46.1224 56.7206 0.0000 0.0000 0.0000
# 4 0.0000 0.0000 0.0000 9.4288 0.0000 0.0000
# 5 0.0000 0.0000 0.0000 0.0000 12.6234 0.0000
# 6 0.0000 0.0000 0.0000 0.0000 0.0000 23.0060
#
#
#
# Elastic Compliance Matrix: (Units=1/GPa)
#
#
# Indices 1 2 3 4 5 6 
#
# 1 0.037582 -0.004203 -0.014450 0.000000 0.000000 0.000000
# 2 -0.004203 0.010897 -0.006863 0.000000 0.000000 0.000000
# 3 -0.014450 -0.006863 0.030081 0.000000 0.000000 0.000000
# 4 0.000000 0.000000 0.000000 0.106058 0.000000 0.000000
# 5 0.000000 0.000000 0.000000 0.000000 0.079218 0.000000
# 6 0.000000 0.000000 0.000000 0.000000 0.000000 0.043467
#
#
# Mechanical properties :
#
#
# Convention : Reuss Voigt Hill
#
# Bulk Modulus (GPa) = 36.32571 49.13736 42.73154
# Shear Modulus (GPa) = 13.60508 17.34592 15.47550
#
# Velocity S-wave (km/s) = 2.62477 2.96374 2.79939
# Velocity P-wave (km/s) = 5.25174 6.04931 5.66458
#
# Compressibility (1/GPa) = 0.02752871
#
# Stress axis : x y z
#
# Youngs Moduli (GPa) = 26.60866 91.76538 33.24387
#
# Poissons Ratio (x) = 0.38567 0.48036
# Poissons Ratio (y) = 0.11183 0.22816
# Poissons Ratio (z) = 0.38449 0.62980
#
# Static dielectric constant tensor:
#      x y z
#    x 3.284550 0.000000 0.000000 
#    y 0.000000 3.779620 0.000000 
#    z 0.000000 0.000000 3.625420 
# 
# 
# High freq. dielectric constant tensor:
#      x y z
#    x 1.725560 0.000000 0.000000 
#    y 0.000000 1.779860 0.000000 
#    z 0.000000 0.000000 1.755420 
# 
# From -- ./inp_files/32147.got.cif
#   From: 2010.03.12/outbox.cif.g09.slc.cpg/sg47_17_cif.got.tgz:32147.got - 2010.04.14 03:12:58.
