data_PCOD8199036
_publ_section_title
;
Structure prediction by ZEFSAII (Michael W. Deem and Ramdas Pophale) SiO2 
 PCOD8199036
Probable space group: P M M M
;
_chemical_formula_sum "Si O2"
_cell_formula_units_Z 44
_cell_length_a 17.235284
_cell_length_b 14.981663
_cell_length_c 9.472943
_cell_angle_alpha 90.000000
_cell_angle_beta 90.000000
_cell_angle_gamma 90.000000
_cell_volume 2446.039083
_symmetry_space_group_name_H-M "P M M M"
_symmetry_group_IT_number 47
_symmetry_cell_setting 'orthorhombic'
loop_
_space_group_symop_operation_xyz
x,y,z
-x,-y,z
x,-y,-z
-x,y,-z
-x,-y,-z
x,y,-z
-x,y,z
x,-y,z
loop_
_atom_site_type_symbol
_atom_site_label
_atom_site_fract_x
_atom_site_fract_y
_atom_site_fract_z
Si Si1 0.091794 0.500000 0.842923
Si Si2 0.332701 0.896297 0.833143
Si Si3 0.500000 0.394379 0.841269
Si Si4 0.760659 0.240002 0.339896
Si Si5 0.500000 0.103051 0.835077
Si Si6 0.912311 0.333496 0.661412
Si Si7 0.353161 0.397686 0.337026
O O1 0.118823 0.587363 0.759802
O O2 0.000000 0.500000 0.851258
O O3 0.128430 0.500000 0.000000
O O4 0.265915 0.839545 0.760294
O O5 0.417532 0.859271 0.777242
O O6 0.321995 0.000000 0.792829
O O7 0.325862 0.883789 0.000000
O O8 0.500000 0.500000 0.847173
O O9 0.576119 0.361736 0.758532
O O10 0.500000 0.353713 0.000000
O O11 0.741957 0.211976 0.500000
O O12 0.853192 0.251335 0.316782
O O13 0.719739 0.334363 0.304169
O O14 0.500000 0.000000 0.798747
O O15 0.500000 0.118727 0.000000
O O16 0.909039 0.367693 0.500000
O O17 0.000000 0.302835 0.700651
O O18 0.379054 0.391818 0.500000
O O19 0.330503 0.500000 0.298426
#
# Coordination Sequence:
#
# PCOD8199036 Si02
#       7
#     4   8   4   8   4   8   8
#     4   9  17  29  47  73 101 128 161 204 253 299
#     4   9  18  34  55  77 103 134 166 202 250 305
#     4   9  17  30  47  66  91 127 172 212 239 273
#     4  10  21  33  50  76 101 129 167 210 253 296
#     4   7  12  27  51  74  95 125 162 197 240 299
#     4   9  18  33  52  72  98 134 172 207 249 303
#     4   9  18  32  48  66  95 133 166 199 243 295
#
# _framework density 17.988265999999999
#
# number of rings (size 3 to 8) (size 9 to 14) (size 15 to 20)
#    0.000    3.000    0.000    1.636    1.273    4.727 
#    0.000    2.273    0.000    2.182    0.000    3.818 
#    0.000    0.000    0.000    0.000    0.000    0.000 
#
# Total GULP energy -545261.453279 kJ/mol
# GULP energy per Si atom -12392.305756 kJ/mol
# Density = 1.794732 g / cm^3
# Si number density = 17.988266 Si / 1000 Ang^3
#
#
#
# Elastic Constant Matrix: (Units=GPa)
#
#
# Indices 1 2 3 4 5 6 
#
# 1 111.5368 49.7625 47.4840 0.0000 0.0000 0.0000
# 2 49.7625 78.6367 42.1997 0.0000 0.0000 0.0000
# 3 47.4840 42.1997 75.3519 0.0000 0.0000 0.0000
# 4 0.0000 0.0000 0.0000 27.5297 0.0000 0.0000
# 5 0.0000 0.0000 0.0000 0.0000 21.5430 0.0000
# 6 0.0000 0.0000 0.0000 0.0000 0.0000 22.4427
#
#
#
# Elastic Compliance Matrix: (Units=1/GPa)
#
#
# Indices 1 2 3 4 5 6 
#
# 1 0.013917 -0.005862 -0.005487 0.000000 0.000000 0.000000
# 2 -0.005862 0.020650 -0.007871 0.000000 0.000000 0.000000
# 3 -0.005487 -0.007871 0.021136 0.000000 0.000000 0.000000
# 4 0.000000 0.000000 0.000000 0.036324 0.000000 0.000000
# 5 0.000000 0.000000 0.000000 0.000000 0.046419 0.000000
# 6 0.000000 0.000000 0.000000 0.000000 0.000000 0.044558
#
#
# Mechanical properties :
#
#
# Convention : Reuss Voigt Hill
#
# Bulk Modulus (GPa) = 57.92383 60.49087 59.20735
# Shear Modulus (GPa) = 22.00712 22.70838 22.35775
#
# Velocity S-wave (km/s) = 3.50153 3.55688 3.52931
# Velocity P-wave (km/s) = 6.97269 7.11122 7.04230
#
# Compressibility (1/GPa) = 0.01726405
#
# Stress axis : x y z
#
# Youngs Moduli (GPa) = 71.85401 48.42557 47.31158
#
# Poissons Ratio (x) = 0.28389 0.25959
# Poissons Ratio (y) = 0.42124 0.37237
# Poissons Ratio (z) = 0.39425 0.38114
#
# Static dielectric constant tensor:
#      x y z
#    x 3.427230 0.000000 0.000000 
#    y 0.000000 3.011100 0.000000 
#    z 0.000000 0.000000 3.347730 
# 
# 
# High freq. dielectric constant tensor:
#      x y z
#    x 1.695060 0.000000 0.000000 
#    y 0.000000 1.667690 0.000000 
#    z 0.000000 0.000000 1.685710 
# 
# From -- ./inp_files/9048.got.cif
#   From: 2010.03.12/outbox.cif.g09.slc.cpg/sg47_5_cif.got.tgz:9048.got - 2010.04.14 03:12:58.
