data_PCOD8199755
_publ_section_title
;
Structure prediction by ZEFSAII (Michael W. Deem and Ramdas Pophale) SiO2 
 PCOD8199755
Probable space group: P M M M
;
_chemical_formula_sum "Si O2"
_cell_formula_units_Z 48
_cell_length_a 9.281042
_cell_length_b 30.709414
_cell_length_c 8.884786
_cell_angle_alpha 90.000000
_cell_angle_beta 90.000000
_cell_angle_gamma 90.000000
_cell_volume 2532.300490
_symmetry_space_group_name_H-M "P M M M"
_symmetry_group_IT_number 47
_symmetry_cell_setting 'orthorhombic'
loop_
_space_group_symop_operation_xyz
x,y,z
-x,-y,z
x,-y,-z
-x,y,-z
-x,-y,-z
x,y,-z
-x,y,z
x,-y,z
loop_
_atom_site_type_symbol
_atom_site_label
_atom_site_fract_x
_atom_site_fract_y
_atom_site_fract_z
Si Si1 0.833604 0.703085 0.323015
Si Si2 0.667970 0.129810 0.673175
Si Si3 0.837379 0.952388 0.678917
Si Si4 0.667736 0.375518 0.175510
Si Si5 0.664895 0.218706 0.177541
Si Si6 0.165448 0.449568 0.673428
O O1 0.815345 0.707916 0.500000
O O2 0.750769 0.660436 0.270246
O O3 0.767499 0.745288 0.246364
O O4 0.000000 0.698893 0.275805
O O5 0.712639 0.137085 0.500000
O O6 0.500000 0.122030 0.691071
O O7 0.742172 0.086956 0.744410
O O8 0.719266 0.171862 0.765495
O O9 0.829261 0.951517 0.500000
O O10 0.000000 0.945218 0.734504
O O11 0.781824 0.000000 0.735433
O O12 0.500000 0.373712 0.217133
O O13 0.729656 0.422610 0.218939
O O14 0.692581 0.366705 0.000000
O O15 0.500000 0.227129 0.229592
O O16 0.677922 0.220493 0.000000
O O17 0.199153 0.438461 0.500000
O O18 0.195103 0.500000 0.706527
O O19 0.000000 0.437759 0.709865
#
# Coordination Sequence:
#
# PCOD8199755 Si02
#       6
#     8   8   8   8   8   8
#     4  11  24  40  59  83 108 136 175 221 266 315
#     4   9  17  29  47  72 100 130 166 209 256 306
#     4   8  14  25  42  66  96 128 163 207 257 304
#     4  11  24  39  56  82 115 148 182 221 266 317
#     4  10  21  37  56  78 106 139 174 213 260 315
#     4   9  19  37  60  85 113 146 186 230 272 315
#
# _framework density 18.955095
#
# number of rings (size 3 to 8) (size 9 to 14) (size 15 to 20)
#    0.000    2.333    0.000    3.500    0.000    9.667 
#    0.000    5.833    0.000    0.500    0.000    3.500 
#    0.000    0.000    0.000    0.000    0.000    0.000 
#
# Total GULP energy -595235.317395 kJ/mol
# GULP energy per Si atom -12400.735779 kJ/mol
# Density = 1.891195 g / cm^3
# Si number density = 18.955095 Si / 1000 Ang^3
#
#
#
# Elastic Constant Matrix: (Units=GPa)
#
#
# Indices 1 2 3 4 5 6 
#
# 1 78.3310 60.7311 31.4381 0.0000 0.0000 0.0000
# 2 60.7311 133.9966 33.6783 0.0000 0.0000 0.0000
# 3 31.4381 33.6783 45.6634 0.0000 0.0000 0.0000
# 4 0.0000 0.0000 0.0000 -10.3456 0.0000 0.0000
# 5 0.0000 0.0000 0.0000 0.0000 25.2361 0.0000
# 6 0.0000 0.0000 0.0000 0.0000 0.0000 42.2051
#
#
#
# Elastic Compliance Matrix: (Units=1/GPa)
#
#
# Indices 1 2 3 4 5 6 
#
# 1 0.022845 -0.007857 -0.009933 0.000000 0.000000 0.000000
# 2 -0.007857 0.011864 -0.003340 0.000000 0.000000 0.000000
# 3 -0.009933 -0.003340 0.031201 0.000000 0.000000 0.000000
# 4 0.000000 0.000000 0.000000 -0.096660 0.000000 0.000000
# 5 0.000000 0.000000 0.000000 0.000000 0.039626 0.000000
# 6 0.000000 0.000000 0.000000 0.000000 0.000000 0.023694
#
#
# Mechanical properties :
#
#
# Convention : Reuss Voigt Hill
#
# Bulk Modulus (GPa) = 42.28547 56.63176 49.45861
# Shear Modulus (GPa) = 60.44927 20.22869 40.33898
#
# Velocity S-wave (km/s) = 5.65332 3.27033 4.61817
# Velocity P-wave (km/s) = 8.06040 6.64844 7.38823
#
# Compressibility (1/GPa) = 0.02364879
#
# Stress axis : x y z
#
# Youngs Moduli (GPa) = 43.77340 84.29144 32.04974
#
# Poissons Ratio (x) = 0.66232 0.31835
# Poissons Ratio (y) = 0.34395 0.10705
# Poissons Ratio (z) = 0.43480 0.28155
#
# Static dielectric constant tensor:
#      x y z
#    x 3.544730 0.000000 0.000000 
#    y 0.000000 3.816860 0.000000 
#    z 0.000000 0.000000 3.291570 
# 
# 
# High freq. dielectric constant tensor:
#      x y z
#    x 1.734840 0.000000 0.000000 
#    y 0.000000 1.754680 0.000000 
#    z 0.000000 0.000000 1.717700 
# 
# From -- ./inp_files/2448.got.cif
#   From: 2010.03.12/outbox.cif.g09.slc.cpg/sg47_2_cif.got.tgz:2448.got - 2010.04.14 03:12:58.
