data_PCOD8199078
_publ_section_title
;
Structure prediction by ZEFSAII (Michael W. Deem and Ramdas Pophale) SiO2 
 PCOD8199078
Probable space group: P M M M
;
_chemical_formula_sum "Si O2"
_cell_formula_units_Z 40
_cell_length_a 9.462137
_cell_length_b 8.081777
_cell_length_c 27.438305
_cell_angle_alpha 90.000000
_cell_angle_beta 90.000000
_cell_angle_gamma 90.000000
_cell_volume 2098.231361
_symmetry_space_group_name_H-M "P M M M"
_symmetry_group_IT_number 47
_symmetry_cell_setting 'orthorhombic'
loop_
_space_group_symop_operation_xyz
x,y,z
-x,-y,z
x,-y,-z
-x,y,-z
-x,-y,-z
x,y,-z
-x,y,z
x,-y,z
loop_
_atom_site_type_symbol
_atom_site_label
_atom_site_fract_x
_atom_site_fract_y
_atom_site_fract_z
Si Si1 0.332164 0.816072 0.114370
Si Si2 0.342278 0.306419 0.397791
Si Si3 0.668556 0.500000 0.944640
Si Si4 0.340654 0.192163 0.775196
Si Si5 0.333529 0.189017 0.500000
Si Si6 0.843849 0.307999 0.688952
O O1 0.500000 0.820699 0.111105
O O2 0.271649 0.667806 0.080679
O O3 0.286997 0.777783 0.169772
O O4 0.275363 0.000000 0.098488
O O5 0.500000 0.227099 0.394303
O O6 0.354156 0.500000 0.389480
O O7 0.272282 0.270947 0.450700
O O8 0.245403 0.226147 0.355391
O O9 0.500000 0.500000 0.941670
O O10 0.722491 0.500000 0.000000
O O11 0.500000 0.261704 0.768608
O O12 0.235302 0.287567 0.740006
O O13 0.337732 0.000000 0.762138
O O14 0.500000 0.219084 0.500000
O O15 0.288864 0.000000 0.500000
O O16 0.861187 0.500000 0.678032
O O17 0.000000 0.225655 0.691403
#
# Coordination Sequence:
#
# PCOD8199078 Si02
#       6
#     8   8   4   8   4   8
#     4   8  15  27  41  62  93 126 164 208 248 294
#     4   9  17  31  50  70  93 124 160 195 237 289
#     4   9  16  24  38  64  95 131 169 200 245 302
#     4   9  18  32  50  71  94 126 168 207 246 293
#     4   9  17  29  48  73  94 114 150 201 244 279
#     4  10  21  34  48  71 101 129 160 200 247 298
#
# _framework density 19.063673999999999
#
# number of rings (size 3 to 8) (size 9 to 14) (size 15 to 20)
#    0.000    3.000    0.000    2.100    1.400    4.000 
#    0.000    4.500    0.000    3.000    0.000    0.000 
#    0.000    1.600    0.000    4.400    0.000    4.400 
#
# Total GULP energy -495738.237185 kJ/mol
# GULP energy per Si atom -12393.455930 kJ/mol
# Density = 1.902028 g / cm^3
# Si number density = 19.063674 Si / 1000 Ang^3
#
#
#
# Elastic Constant Matrix: (Units=GPa)
#
#
# Indices 1 2 3 4 5 6 
#
# 1 67.1704 20.7848 51.1153 0.0000 0.0000 0.0000
# 2 20.7848 68.8359 55.2471 0.0000 0.0000 0.0000
# 3 51.1153 55.2471 154.0930 0.0000 0.0000 0.0000
# 4 0.0000 0.0000 0.0000 13.7683 0.0000 0.0000
# 5 0.0000 0.0000 0.0000 0.0000 2.9208 0.0000
# 6 0.0000 0.0000 0.0000 0.0000 0.0000 9.2212
#
#
#
# Elastic Compliance Matrix: (Units=1/GPa)
#
#
# Indices 1 2 3 4 5 6 
#
# 1 0.019964 -0.001001 -0.006263 0.000000 0.000000 0.000000
# 2 -0.001001 0.020447 -0.006999 0.000000 0.000000 0.000000
# 3 -0.006263 -0.006999 0.011076 0.000000 0.000000 0.000000
# 4 0.000000 0.000000 0.000000 0.072630 0.000000 0.000000
# 5 0.000000 0.000000 0.000000 0.000000 0.342376 0.000000
# 6 0.000000 0.000000 0.000000 0.000000 0.000000 0.108446
#
#
# Mechanical properties :
#
#
# Convention : Reuss Voigt Hill
#
# Bulk Modulus (GPa) = 43.55297 60.48817 52.02057
# Shear Modulus (GPa) = 8.18171 16.04553 12.11362
#
# Velocity S-wave (km/s) = 2.07391 2.90432 2.52351
# Velocity P-wave (km/s) = 5.35074 6.56088 5.98647
#
# Compressibility (1/GPa) = 0.02296055
#
# Stress axis : x y z
#
# Youngs Moduli (GPa) = 50.09131 48.90780 90.28129
#
# Poissons Ratio (x) = 0.04896 0.56546
# Poissons Ratio (y) = 0.05014 0.63185
# Poissons Ratio (z) = 0.31374 0.34229
#
# Static dielectric constant tensor:
#      x y z
#    x 3.244860 0.000000 0.000000 
#    y 0.000000 3.479780 0.000000 
#    z 0.000000 0.000000 3.632350 
# 
# 
# High freq. dielectric constant tensor:
#      x y z
#    x 1.682610 0.000000 0.000000 
#    y 0.000000 1.733640 0.000000 
#    z 0.000000 0.000000 1.748520 
# 
# From -- ./inp_files/1689.got.cif
#   From: 2010.03.12/outbox.cif.g09.slc.cpg/sg47_1_cif.got.tgz:1689.got - 2010.04.14 03:12:58.
