data_PCOD8199476
_publ_section_title
;
Structure prediction by ZEFSAII (Michael W. Deem and Ramdas Pophale) SiO2 
 PCOD8199476
Probable space group: P M M M
;
_chemical_formula_sum "Si O2"
_cell_formula_units_Z 32
_cell_length_a 8.619886
_cell_length_b 14.633107
_cell_length_c 12.589362
_cell_angle_alpha 90.000000
_cell_angle_beta 90.000000
_cell_angle_gamma 90.000000
_cell_volume 1587.968167
_symmetry_space_group_name_H-M "P M M M"
_symmetry_group_IT_number 47
_symmetry_cell_setting 'orthorhombic'
loop_
_space_group_symop_operation_xyz
x,y,z
-x,-y,z
x,-y,-z
-x,y,-z
-x,-y,-z
x,y,-z
-x,y,z
x,-y,z
loop_
_atom_site_type_symbol
_atom_site_label
_atom_site_fract_x
_atom_site_fract_y
_atom_site_fract_z
Si Si1 0.819843 0.000000 0.873510
Si Si2 0.672251 0.099171 0.376089
Si Si3 0.178273 0.724581 0.692723
Si Si4 0.814897 0.396241 0.500000
Si Si5 0.318070 0.191453 0.117286
O O1 0.739570 0.905502 0.831430
O O2 0.000000 0.000000 0.841530
O O3 0.796004 0.000000 0.000000
O O4 0.656090 0.086285 0.500000
O O5 0.500000 0.127861 0.331162
O O6 0.802044 0.174451 0.354473
O O7 0.723488 0.000000 0.327334
O O8 0.248814 0.652409 0.607401
O O9 0.265882 0.724348 0.806649
O O10 0.000000 0.702194 0.713756
O O11 0.755405 0.500000 0.500000
O O12 0.000000 0.388971 0.500000
O O13 0.500000 0.189895 0.106960
O O14 0.244191 0.206103 0.000000
#
# Coordination Sequence:
#
# PCOD8199476 Si02
#       5
#     4   8   8   4   8
#     4   9  17  31  51  76 107 146 195 241 271 304
#     4   9  18  32  49  71 106 150 186 218 262 322
#     4  11  21  34  56  83 109 141 184 234 279 323
#     4   9  20  40  62  85 112 140 174 224 290 351
#     4  10  21  36  53  75 109 153 193 227 271 326
#
# _framework density 20.151536
#
# number of rings (size 3 to 8) (size 9 to 14) (size 15 to 20)
#    0.000    2.250    1.250    2.625    1.750    3.500 
#    0.000    1.250    0.000    6.750    0.000    5.250 
#    0.000    0.000    0.000    0.000    0.000    0.000 
#
# Total GULP energy -396594.053590 kJ/mol
# GULP energy per Si atom -12393.564175 kJ/mol
# Density = 2.010567 g / cm^3
# Si number density = 20.151536 Si / 1000 Ang^3
#
#
#
# Elastic Constant Matrix: (Units=GPa)
#
#
# Indices 1 2 3 4 5 6 
#
# 1 61.1090 19.0069 11.0660 0.0000 0.0000 0.0000
# 2 19.0069 107.9801 68.1383 0.0000 0.0000 0.0000
# 3 11.0660 68.1383 121.4714 0.0000 0.0000 0.0000
# 4 0.0000 0.0000 0.0000 24.9336 0.0000 0.0000
# 5 0.0000 0.0000 0.0000 0.0000 22.5669 0.0000
# 6 0.0000 0.0000 0.0000 0.0000 0.0000 8.9752
#
#
#
# Elastic Compliance Matrix: (Units=1/GPa)
#
#
# Indices 1 2 3 4 5 6 
#
# 1 0.017315 -0.003177 0.000205 0.000000 0.000000 0.000000
# 2 -0.003177 0.014918 -0.008079 0.000000 0.000000 0.000000
# 3 0.000205 -0.008079 0.012745 0.000000 0.000000 0.000000
# 4 0.000000 0.000000 0.000000 0.040107 0.000000 0.000000
# 5 0.000000 0.000000 0.000000 0.000000 0.044313 0.000000
# 6 0.000000 0.000000 0.000000 0.000000 0.000000 0.111419
#
#
# Mechanical properties :
#
#
# Convention : Reuss Voigt Hill
#
# Bulk Modulus (GPa) = 43.71267 54.10923 48.91095
# Shear Modulus (GPa) = 18.48126 24.11841 21.29983
#
# Velocity S-wave (km/s) = 3.03167 3.46331 3.25465
# Velocity P-wave (km/s) = 5.83042 6.54997 6.20064
#
# Compressibility (1/GPa) = 0.02287666
#
# Stress axis : x y z
#
# Youngs Moduli (GPa) = 57.75242 67.03271 78.45945
#
# Poissons Ratio (x) = 0.21297 -0.01606
# Poissons Ratio (y) = 0.18348 0.63385
# Poissons Ratio (z) = -0.01182 0.54154
#
# Static dielectric constant tensor:
#      x y z
#    x 3.413730 0.000000 0.000000 
#    y 0.000000 3.389450 0.000000 
#    z 0.000000 0.000000 4.265630 
# 
# 
# High freq. dielectric constant tensor:
#      x y z
#    x 1.767790 0.000000 0.000000 
#    y 0.000000 1.733530 0.000000 
#    z 0.000000 0.000000 1.824840 
# 
# From -- ./inp_files/20403.got.cif
#   From: 2010.03.12/outbox.cif.g09.slc.cpg/sg47_11_cif.got.tgz:20403.got - 2010.04.14 03:12:58.
