data_PCOD8199170
_publ_section_title
;
Structure prediction by ZEFSAII (Michael W. Deem and Ramdas Pophale) SiO2 
 PCOD8199170
Probable space group: P M M M
;
_chemical_formula_sum "Si O2"
_cell_formula_units_Z 48
_cell_length_a 32.499829
_cell_length_b 7.972372
_cell_length_c 9.660078
_cell_angle_alpha 90.000000
_cell_angle_beta 90.000000
_cell_angle_gamma 90.000000
_cell_volume 2502.933230
_symmetry_space_group_name_H-M "P M M M"
_symmetry_group_IT_number 47
_symmetry_cell_setting 'orthorhombic'
loop_
_space_group_symop_operation_xyz
x,y,z
-x,-y,z
x,-y,-z
-x,y,-z
-x,-y,-z
x,y,-z
-x,y,z
x,-y,z
loop_
_atom_site_type_symbol
_atom_site_label
_atom_site_fract_x
_atom_site_fract_y
_atom_site_fract_z
Si Si1 0.000000 0.200588 0.655976
Si Si2 0.602259 0.193337 0.837267
Si Si3 0.840976 0.309040 0.153405
Si Si4 0.927694 0.806995 0.845774
Si Si5 0.321869 0.801656 0.652579
Si Si6 0.454109 0.500000 0.163959
Si Si7 0.769011 0.807302 0.338617
O O1 0.040069 0.272220 0.737151
O O2 0.000000 0.273752 0.500000
O O3 0.000000 0.000000 0.649152
O O4 0.644165 0.252468 0.763765
O O5 0.567877 0.326974 0.787371
O O6 0.589828 0.000000 0.797675
O O7 0.609968 0.206969 0.000000
O O8 0.854464 0.500000 0.145906
O O9 0.881021 0.211762 0.210813
O O10 0.802206 0.294701 0.253263
O O11 0.829045 0.241660 0.000000
O O12 0.938981 0.000000 0.858872
O O13 0.931449 0.724436 0.000000
O O14 0.333933 0.731409 0.500000
O O15 0.276681 0.735252 0.696504
O O16 0.318707 0.000000 0.643103
O O17 0.500000 0.500000 0.227738
O O18 0.456200 0.500000 0.000000
O O19 0.778158 0.783477 0.500000
O O20 0.772504 0.000000 0.294302
#
# Coordination Sequence:
#
# PCOD8199170 Si02
#       7
#     4   8   8   8   8   4   8
#     4   9  17  29  48  75  98 114 146 199 248 289
#     4   9  17  30  50  75 100 130 169 210 255 306
#     4  10  21  35  49  70 101 134 167 203 245 293
#     4   9  17  31  51  71  92 122 158 195 239 291
#     4   8  15  30  51  73  98 128 162 202 249 298
#     4   9  18  32  49  73 105 135 167 213 261 304
#     4   9  18  33  53  75  98 128 167 207 249 300
#
# _framework density 19.177499999999998
#
# number of rings (size 3 to 8) (size 9 to 14) (size 15 to 20)
#    0.000    3.000    0.000    1.750    0.000    4.000 
#    1.500    5.833    0.000    3.500    0.000    2.333 
#    0.000    0.000    0.000    0.000    0.000    0.000 
#
# Total GULP energy -594861.458381 kJ/mol
# GULP energy per Si atom -12392.947050 kJ/mol
# Density = 1.913385 g / cm^3
# Si number density = 19.177500 Si / 1000 Ang^3
#
#
#
# Elastic Constant Matrix: (Units=GPa)
#
#
# Indices 1 2 3 4 5 6 
#
# 1 163.7667 37.4607 73.4172 0.0000 0.0000 0.0000
# 2 37.4607 52.6906 25.2429 0.0000 0.0000 0.0000
# 3 73.4172 25.2429 77.4004 0.0000 0.0000 0.0000
# 4 0.0000 0.0000 0.0000 13.1686 0.0000 0.0000
# 5 0.0000 0.0000 0.0000 0.0000 13.8854 0.0000
# 6 0.0000 0.0000 0.0000 0.0000 0.0000 -1.3072
#
#
#
# Elastic Compliance Matrix: (Units=1/GPa)
#
#
# Indices 1 2 3 4 5 6 
#
# 1 0.011109 -0.003377 -0.009436 0.000000 0.000000 0.000000
# 2 -0.003377 0.023520 -0.004467 0.000000 0.000000 0.000000
# 3 -0.009436 -0.004467 0.023327 0.000000 0.000000 0.000000
# 4 0.000000 0.000000 0.000000 0.075938 0.000000 0.000000
# 5 0.000000 0.000000 0.000000 0.000000 0.072018 0.000000
# 6 0.000000 0.000000 0.000000 0.000000 0.000000 -0.764979
#
#
# Mechanical properties :
#
#
# Convention : Reuss Voigt Hill
#
# Bulk Modulus (GPa) = 42.74357 62.89990 52.82174
# Shear Modulus (GPa) = -9.67665 15.66515 2.99425
#
# Velocity S-wave (km/s) = -2.24873 2.86116 1.25089
# Velocity P-wave (km/s) = 3.94897 6.61702 5.44882
#
# Compressibility (1/GPa) = 0.02339533
#
# Stress axis : x y z
#
# Youngs Moduli (GPa) = 90.01817 42.51702 42.86922
#
# Poissons Ratio (x) = 0.14360 0.40450
# Poissons Ratio (y) = 0.30404 0.19150
# Poissons Ratio (z) = 0.84938 0.18992
#
# Static dielectric constant tensor:
#      x y z
#    x 3.636440 0.000000 0.000000 
#    y 0.000000 3.270060 0.000000 
#    z 0.000000 0.000000 3.526990 
# 
# 
# High freq. dielectric constant tensor:
#      x y z
#    x 1.746720 0.000000 0.000000 
#    y 0.000000 1.725020 0.000000 
#    z 0.000000 0.000000 1.729280 
# 
# From -- ./inp_files/13969.got.cif
#   From: 2010.03.12/outbox.cif.g09.slc.cpg/sg47_7_cif.got.tgz:13969.got - 2010.04.14 03:12:58.
