data_PCOD8199192
_publ_section_title
;
Structure prediction by ZEFSAII (Michael W. Deem and Ramdas Pophale) SiO2 
 PCOD8199192
Probable space group: P M M M
;
_chemical_formula_sum "Si O2"
_cell_formula_units_Z 36
_cell_length_a 23.054029
_cell_length_b 9.760533
_cell_length_c 9.188460
_cell_angle_alpha 90.000000
_cell_angle_beta 90.000000
_cell_angle_gamma 90.000000
_cell_volume 2067.583693
_symmetry_space_group_name_H-M "P M M M"
_symmetry_group_IT_number 47
_symmetry_cell_setting 'orthorhombic'
loop_
_space_group_symop_operation_xyz
x,y,z
-x,-y,z
x,-y,-z
-x,y,-z
-x,-y,-z
x,y,-z
-x,y,z
x,-y,z
loop_
_atom_site_type_symbol
_atom_site_label
_atom_site_fract_x
_atom_site_fract_y
_atom_site_fract_z
Si Si1 0.727972 0.657961 0.829882
Si Si2 0.624393 0.153953 0.174102
Si Si3 0.500000 0.162410 0.159108
Si Si4 0.067424 0.842817 0.833498
Si Si5 0.156073 0.341872 0.329924
O O1 0.714595 0.500000 0.796213
O O2 0.673971 0.744705 0.767855
O O3 0.785422 0.708398 0.748168
O O4 0.737671 0.684837 0.000000
O O5 0.561031 0.202619 0.238025
O O6 0.639252 0.000000 0.226908
O O7 0.620764 0.157965 0.000000
O O8 0.500000 0.000000 0.140180
O O9 0.500000 0.232389 0.000000
O O10 0.102396 0.745887 0.726033
O O11 0.000000 0.818672 0.801643
O O12 0.084250 0.000000 0.802596
O O13 0.082078 0.804829 0.000000
O O14 0.163796 0.317623 0.500000
O O15 0.143532 0.500000 0.292455
#
# Coordination Sequence:
#
# PCOD8199192 Si02
#       5
#     8   8   4   8   8
#     4   9  17  29  44  63  89 119 151 190 234 275
#     4   8  13  22  38  60  85 114 147 182 224 276
#     4   7  10  18  33  55  84 113 140 176 224 275
#     4   9  19  36  56  77 100 125 154 190 233 280
#     4  10  21  35  50  70  97 129 163 197 234 277
#
# _framework density 17.411626999999999
#
# number of rings (size 3 to 8) (size 9 to 14) (size 15 to 20)
#    0.000    3.222    0.000    2.667    0.000    3.556 
#    0.000    6.111    0.000    3.333    0.000    0.778 
#    0.000    6.222    0.000    0.000    0.000    0.000 
#
# Total GULP energy -446167.847426 kJ/mol
# GULP energy per Si atom -12393.551317 kJ/mol
# Density = 1.737200 g / cm^3
# Si number density = 17.411627 Si / 1000 Ang^3
#
#
#
# Elastic Constant Matrix: (Units=GPa)
#
#
# Indices 1 2 3 4 5 6 
#
# 1 134.4592 67.4457 43.5878 0.0000 0.0000 0.0000
# 2 67.4457 69.8623 30.4091 0.0000 0.0000 0.0000
# 3 43.5878 30.4091 42.2949 0.0000 0.0000 0.0000
# 4 0.0000 0.0000 0.0000 18.4303 0.0000 0.0000
# 5 0.0000 0.0000 0.0000 0.0000 1.3985 0.0000
# 6 0.0000 0.0000 0.0000 0.0000 0.0000 25.3467
#
#
#
# Elastic Compliance Matrix: (Units=1/GPa)
#
#
# Indices 1 2 3 4 5 6 
#
# 1 0.016031 -0.012060 -0.007851 0.000000 0.000000 0.000000
# 2 -0.012060 0.029906 -0.009073 0.000000 0.000000 0.000000
# 3 -0.007851 -0.009073 0.038258 0.000000 0.000000 0.000000
# 4 0.000000 0.000000 0.000000 0.054259 0.000000 0.000000
# 5 0.000000 0.000000 0.000000 0.000000 0.715073 0.000000
# 6 0.000000 0.000000 0.000000 0.000000 0.000000 0.039453
#
#
# Mechanical properties :
#
#
# Convention : Reuss Voigt Hill
#
# Bulk Modulus (GPa) = 38.12803 58.83353 48.48078
# Shear Modulus (GPa) = 5.21002 16.04667 10.62835
#
# Velocity S-wave (km/s) = 1.73169 3.03909 2.47334
# Velocity P-wave (km/s) = 5.09352 6.79543 6.00507
#
# Compressibility (1/GPa) = 0.02622742
#
# Stress axis : x y z
#
# Youngs Moduli (GPa) = 62.37744 33.43845 26.13844
#
# Poissons Ratio (x) = 0.40326 0.20521
# Poissons Ratio (y) = 0.75225 0.23716
# Poissons Ratio (z) = 0.48972 0.30340
#
# Static dielectric constant tensor:
#      x y z
#    x 3.562990 0.000000 0.000000 
#    y 0.000000 3.148400 0.000000 
#    z 0.000000 0.000000 2.849830 
# 
# 
# High freq. dielectric constant tensor:
#      x y z
#    x 1.689430 0.000000 0.000000 
#    y 0.000000 1.658310 0.000000 
#    z 0.000000 0.000000 1.629520 
# 
# From -- ./inp_files/1450.got.cif
#   From: 2010.03.12/outbox.cif.g09.slc.cpg/sg47_1_cif.got.tgz:1450.got - 2010.04.14 03:12:58.
