data_PCOD8199891
_publ_section_title
;
Structure prediction by ZEFSAII (Michael W. Deem and Ramdas Pophale) SiO2 
 PCOD8199891
Probable space group: P M M M
;
_chemical_formula_sum "Si O2"
_cell_formula_units_Z 52
_cell_length_a 9.196168
_cell_length_b 10.107837
_cell_length_c 30.112901
_cell_angle_alpha 90.000000
_cell_angle_beta 90.000000
_cell_angle_gamma 90.000000
_cell_volume 2799.095543
_symmetry_space_group_name_H-M "P M M M"
_symmetry_group_IT_number 47
_symmetry_cell_setting 'orthorhombic'
loop_
_space_group_symop_operation_xyz
x,y,z
-x,-y,z
x,-y,-z
-x,y,-z
-x,-y,-z
x,y,-z
-x,y,z
x,-y,z
loop_
_atom_site_type_symbol
_atom_site_label
_atom_site_fract_x
_atom_site_fract_y
_atom_site_fract_z
Si Si1 0.833747 0.853643 0.641022
Si Si2 0.671166 0.347061 0.124080
Si Si3 0.659423 0.500000 0.552422
Si Si4 0.672626 0.147838 0.950544
Si Si5 0.670792 0.346540 0.700849
Si Si6 0.163497 0.343268 0.211468
Si Si7 0.834389 0.247735 0.450760
O O1 0.726619 0.744385 0.660897
O O2 0.815247 0.862325 0.587276
O O3 0.000000 0.815672 0.653063
O O4 0.795551 0.000000 0.659280
O O5 0.500000 0.328291 0.131889
O O6 0.708220 0.500000 0.113574
O O7 0.731419 0.257929 0.083585
O O8 0.752551 0.294010 0.167782
O O9 0.500000 0.500000 0.574965
O O10 0.646075 0.500000 0.500000
O O11 0.743400 0.629368 0.567796
O O12 0.500000 0.152864 0.951129
O O13 0.724085 0.000000 0.936420
O O14 0.731704 0.180912 0.000000
O O15 0.500000 0.326830 0.707414
O O16 0.708028 0.500000 0.690471
O O17 0.749999 0.294923 0.745258
O O18 0.159340 0.500000 0.211134
O O19 0.000000 0.284657 0.212139
O O20 0.782317 0.197793 0.500000
O O21 0.000000 0.295056 0.454510
#
# Coordination Sequence:
#
# PCOD8199891 Si02
#       7
#     8   8   4   8   8   8   8
#     4  10  22  38  55  78 108 140 173 211 256 305
#     4   9  16  26  44  71  99 125 159 207 254 294
#     4   9  17  29  47  73 103 131 163 207 251 289
#     4   8  14  25  41  63  94 131 168 205 246 293
#     4  10  21  37  58  82 105 133 172 214 257 309
#     4   9  17  31  52  76 101 130 164 204 253 307
#     4   9  18  33  53  76 103 136 172 209 251 299
#
# _framework density 18.577428999999999
#
# number of rings (size 3 to 8) (size 9 to 14) (size 15 to 20)
#    0.000    2.846    0.000    1.615    1.077    5.231 
#    0.000    3.846    0.000    3.692    0.000    6.462 
#    0.000    0.000    0.000    0.000    0.000    0.000 
#
# Total GULP energy -644502.163068 kJ/mol
# GULP energy per Si atom -12394.272367 kJ/mol
# Density = 1.853515 g / cm^3
# Si number density = 18.577429 Si / 1000 Ang^3
#
#
#
# Elastic Constant Matrix: (Units=GPa)
#
#
# Indices 1 2 3 4 5 6 
#
# 1 77.0348 36.4947 43.7413 0.0000 0.0000 0.0000
# 2 36.4947 79.6031 54.7238 0.0000 0.0000 0.0000
# 3 43.7413 54.7238 127.1628 0.0000 0.0000 0.0000
# 4 0.0000 0.0000 0.0000 16.6992 0.0000 0.0000
# 5 0.0000 0.0000 0.0000 0.0000 21.0690 0.0000
# 6 0.0000 0.0000 0.0000 0.0000 0.0000 13.6048
#
#
#
# Elastic Compliance Matrix: (Units=1/GPa)
#
#
# Indices 1 2 3 4 5 6 
#
# 1 0.017725 -0.005588 -0.003692 0.000000 0.000000 0.000000
# 2 -0.005588 0.019602 -0.006513 0.000000 0.000000 0.000000
# 3 -0.003692 -0.006513 0.011937 0.000000 0.000000 0.000000
# 4 0.000000 0.000000 0.000000 0.059883 0.000000 0.000000
# 5 0.000000 0.000000 0.000000 0.000000 0.047463 0.000000
# 6 0.000000 0.000000 0.000000 0.000000 0.000000 0.073503
#
#
# Mechanical properties :
#
#
# Convention : Reuss Voigt Hill
#
# Bulk Modulus (GPa) = 56.57192 61.52447 59.04820
# Shear Modulus (GPa) = 18.68513 20.19733 19.44123
#
# Velocity S-wave (km/s) = 3.17487 3.30084 3.23847
# Velocity P-wave (km/s) = 6.63007 6.90776 6.77034
#
# Compressibility (1/GPa) = 0.01767661
#
# Stress axis : x y z
#
# Youngs Moduli (GPa) = 56.41789 51.01559 83.77293
#
# Poissons Ratio (x) = 0.28507 0.30931
# Poissons Ratio (y) = 0.31525 0.54565
# Poissons Ratio (z) = 0.20831 0.33229
#
# Static dielectric constant tensor:
#      x y z
#    x 3.363850 0.000000 0.000000 
#    y 0.000000 3.248920 0.000000 
#    z 0.000000 0.000000 3.568010 
# 
# 
# High freq. dielectric constant tensor:
#      x y z
#    x 1.702730 0.000000 0.000000 
#    y 0.000000 1.696090 0.000000 
#    z 0.000000 0.000000 1.724110 
# 
# From -- ./inp_files/34279.got.cif
#   From: 2010.03.12/outbox.cif.g09.slc.cpg/sg47_18_cif.got.tgz:34279.got - 2010.04.14 03:12:58.
