data_PCOD8199929
_publ_section_title
;
Structure prediction by ZEFSAII (Michael W. Deem and Ramdas Pophale) SiO2 
 PCOD8199929
Probable space group: P M M M
;
_chemical_formula_sum "Si O2"
_cell_formula_units_Z 48
_cell_length_a 13.875774
_cell_length_b 9.078146
_cell_length_c 19.044131
_cell_angle_alpha 90.000000
_cell_angle_beta 90.000000
_cell_angle_gamma 90.000000
_cell_volume 2398.918761
_symmetry_space_group_name_H-M "P M M M"
_symmetry_group_IT_number 47
_symmetry_cell_setting 'orthorhombic'
loop_
_space_group_symop_operation_xyz
x,y,z
-x,-y,z
x,-y,-z
-x,y,-z
-x,-y,-z
x,y,-z
-x,y,z
x,-y,z
loop_
_atom_site_type_symbol
_atom_site_label
_atom_site_fract_x
_atom_site_fract_y
_atom_site_fract_z
Si Si1 0.225127 0.328546 0.819599
Si Si2 0.109984 0.173081 0.298760
Si Si3 0.394316 0.165063 0.583249
Si Si4 0.206680 0.328513 0.581865
Si Si5 0.391662 0.674916 0.921085
Si Si6 0.112512 0.160913 0.076686
O O1 0.232712 0.500000 0.801077
O O2 0.194087 0.241940 0.749777
O O3 0.321900 0.266240 0.858461
O O4 0.141322 0.297917 0.875452
O O5 0.124071 0.241485 0.376162
O O6 0.000000 0.208737 0.273468
O O7 0.126176 0.000000 0.302243
O O8 0.397632 0.165773 0.500000
O O9 0.500000 0.214851 0.611945
O O10 0.312031 0.276490 0.609402
O O11 0.370435 0.000000 0.610106
O O12 0.192333 0.292174 0.500000
O O13 0.196910 0.500000 0.597646
O O14 0.500000 0.727156 0.902970
O O15 0.384751 0.500000 0.921596
O O16 0.363621 0.731780 0.000000
O O17 0.000000 0.164446 0.068792
O O18 0.143604 0.000000 0.108395
O O19 0.159992 0.180397 0.000000
#
# Coordination Sequence:
#
# PCOD8199929 Si02
#       6
#     8   8   8   8   8   8
#     4  11  21  33  54  82 109 139 179 228 279 326
#     4  11  25  43  60  77 103 145 191 231 281 350
#     4   8  14  27  50  80 113 147 179 211 252 309
#     4  10  21  37  59  87 115 142 178 232 296 353
#     4   8  15  30  53  82 116 151 185 222 267 321
#     4   9  18  32  49  71 103 143 181 215 258 316
#
# _framework density 20.009012999999999
#
# number of rings (size 3 to 8) (size 9 to 14) (size 15 to 20)
#    0.000    2.500    0.000    4.000    0.000    6.333 
#    0.000    5.000    0.000    5.000    0.000    5.833 
#    0.000    0.000    0.000    0.000    0.000    0.000 
#
# Total GULP energy -594700.730398 kJ/mol
# GULP energy per Si atom -12389.598550 kJ/mol
# Density = 1.996347 g / cm^3
# Si number density = 20.009013 Si / 1000 Ang^3
#
#
#
# Elastic Constant Matrix: (Units=GPa)
#
#
# Indices 1 2 3 4 5 6 
#
# 1 100.3124 44.9398 54.5047 0.0000 0.0000 0.0000
# 2 44.9398 79.5462 44.1303 0.0000 0.0000 0.0000
# 3 54.5047 44.1303 89.1065 0.0000 0.0000 0.0000
# 4 0.0000 0.0000 0.0000 27.7851 0.0000 0.0000
# 5 0.0000 0.0000 0.0000 0.0000 39.1263 0.0000
# 6 0.0000 0.0000 0.0000 0.0000 0.0000 27.7615
#
#
#
# Elastic Compliance Matrix: (Units=1/GPa)
#
#
# Indices 1 2 3 4 5 6 
#
# 1 0.016289 -0.005067 -0.007454 0.000000 0.000000 0.000000
# 2 -0.005067 0.018910 -0.006266 0.000000 0.000000 0.000000
# 3 -0.007454 -0.006266 0.018885 0.000000 0.000000 0.000000
# 4 0.000000 0.000000 0.000000 0.035990 0.000000 0.000000
# 5 0.000000 0.000000 0.000000 0.000000 0.025558 0.000000
# 6 0.000000 0.000000 0.000000 0.000000 0.000000 0.036021
#
#
# Mechanical properties :
#
#
# Convention : Reuss Voigt Hill
#
# Bulk Modulus (GPa) = 60.56874 61.79052 61.17963
# Shear Modulus (GPa) = 25.67627 27.29395 26.48511
#
# Velocity S-wave (km/s) = 3.58611 3.69736 3.64216
# Velocity P-wave (km/s) = 6.89082 7.01253 6.95194
#
# Compressibility (1/GPa) = 0.01651017
#
# Stress axis : x y z
#
# Youngs Moduli (GPa) = 61.39036 52.88163 52.95132
#
# Poissons Ratio (x) = 0.26796 0.39471
# Poissons Ratio (y) = 0.31108 0.33178
# Poissons Ratio (z) = 0.45762 0.33135
#
# Static dielectric constant tensor:
#      x y z
#    x 3.889760 0.000000 0.000000 
#    y 0.000000 3.533320 0.000000 
#    z 0.000000 0.000000 3.593880 
# 
# 
# High freq. dielectric constant tensor:
#      x y z
#    x 1.780410 0.000000 0.000000 
#    y 0.000000 1.763160 0.000000 
#    z 0.000000 0.000000 1.765770 
# 
# From -- ./inp_files/9118.got.cif
#   From: 2010.03.12/outbox.cif.g09.slc.cpg/sg47_5_cif.got.tgz:9118.got - 2010.04.14 03:12:58.
