data_PCOD8199033
_publ_section_title
;
Structure prediction by ZEFSAII (Michael W. Deem and Ramdas Pophale) SiO2 
 PCOD8199033
Probable space group: P M M M
;
_chemical_formula_sum "Si O2"
_cell_formula_units_Z 56
_cell_length_a 9.741194
_cell_length_b 21.706830
_cell_length_c 14.799342
_cell_angle_alpha 90.000000
_cell_angle_beta 90.000000
_cell_angle_gamma 90.000000
_cell_volume 3129.327410
_symmetry_space_group_name_H-M "P M M M"
_symmetry_group_IT_number 47
_symmetry_cell_setting 'orthorhombic'
loop_
_space_group_symop_operation_xyz
x,y,z
-x,-y,z
x,-y,-z
-x,y,-z
-x,-y,-z
x,y,-z
-x,y,z
x,-y,z
loop_
_atom_site_type_symbol
_atom_site_label
_atom_site_fract_x
_atom_site_fract_y
_atom_site_fract_z
Si Si1 0.155839 0.500000 0.606973
Si Si2 0.850506 0.693917 0.716080
Si Si3 0.162955 0.068887 0.600320
Si Si4 0.348001 0.196221 0.100611
Si Si5 0.728845 0.334308 0.896668
Si Si6 0.844853 0.835378 0.745108
Si Si7 0.500000 0.430609 0.893700
Si Si8 0.658464 0.386879 0.393049
O O1 0.146225 0.500000 0.500000
O O2 0.243977 0.442048 0.640400
O O3 0.000000 0.500000 0.647524
O O4 0.846894 0.670532 0.820675
O O5 0.840706 0.766875 0.706377
O O6 0.721968 0.671927 0.656494
O O7 0.000000 0.672147 0.678425
O O8 0.221018 0.083573 0.500000
O O9 0.221298 0.118502 0.671343
O O10 0.000000 0.073947 0.597447
O O11 0.207832 0.000000 0.629754
O O12 0.500000 0.172170 0.122893
O O13 0.352953 0.270313 0.109844
O O14 0.243340 0.160592 0.164417
O O15 0.302892 0.178006 0.000000
O O16 0.634137 0.391731 0.865616
O O17 0.785363 0.343807 0.000000
O O18 0.000000 0.854980 0.769450
O O19 0.500000 0.500000 0.850533
O O20 0.500000 0.437011 0.000000
O O21 0.665686 0.377405 0.500000
O O22 0.500000 0.397900 0.363084
#
# Coordination Sequence:
#
# PCOD8199033 Si02
#       8
#     4   8   8   8   8   8   4   8
#     4   9  17  33  57  77  94 119 154 201 255 304
#     4  10  21  33  48  73 102 131 161 198 250 301
#     4   8  14  27  49  75 101 130 164 200 240 291
#     4   9  16  28  48  70  94 128 165 199 242 296
#     4   9  17  31  50  69  94 125 161 204 248 297
#     4   9  18  30  47  74 102 126 159 204 248 289
#     4   9  16  28  48  72  93 119 160 207 253 297
#     4  10  21  36  53  72  95 126 165 205 242 289
#
# _framework density 17.895219999999998
#
# number of rings (size 3 to 8) (size 9 to 14) (size 15 to 20)
#    0.000    2.857    0.714    1.071    1.000    3.429 
#    1.286    4.286    0.000    1.286    0.000    6.000 
#    0.000    0.000    0.000    0.000    0.000    0.000 
#
# Total GULP energy -693917.854099 kJ/mol
# GULP energy per Si atom -12391.390252 kJ/mol
# Density = 1.785449 g / cm^3
# Si number density = 17.895220 Si / 1000 Ang^3
#
#
#
# Elastic Constant Matrix: (Units=GPa)
#
#
# Indices 1 2 3 4 5 6 
#
# 1 104.9788 42.8327 52.2731 0.0000 0.0000 0.0000
# 2 42.8327 93.2538 55.7439 0.0000 0.0000 0.0000
# 3 52.2731 55.7439 78.8813 0.0000 0.0000 0.0000
# 4 0.0000 0.0000 0.0000 23.6071 0.0000 0.0000
# 5 0.0000 0.0000 0.0000 0.0000 26.3337 0.0000
# 6 0.0000 0.0000 0.0000 0.0000 0.0000 15.6017
#
#
#
# Elastic Compliance Matrix: (Units=1/GPa)
#
#
# Indices 1 2 3 4 5 6 
#
# 1 0.014348 -0.001570 -0.008399 0.000000 0.000000 0.000000
# 2 -0.001570 0.018738 -0.012202 0.000000 0.000000 0.000000
# 3 -0.008399 -0.012202 0.026866 0.000000 0.000000 0.000000
# 4 0.000000 0.000000 0.000000 0.042360 0.000000 0.000000
# 5 0.000000 0.000000 0.000000 0.000000 0.037974 0.000000
# 6 0.000000 0.000000 0.000000 0.000000 0.000000 0.064096
#
#
# Mechanical properties :
#
#
# Convention : Reuss Voigt Hill
#
# Bulk Modulus (GPa) = 64.05556 64.31259 64.18407
# Shear Modulus (GPa) = 19.69066 21.52611 20.60838
#
# Velocity S-wave (km/s) = 3.32072 3.47204 3.39723
# Velocity P-wave (km/s) = 7.11164 7.21733 7.16468
#
# Compressibility (1/GPa) = 0.01561145
#
# Stress axis : x y z
#
# Youngs Moduli (GPa) = 69.69376 53.36712 37.22182
#
# Poissons Ratio (x) = 0.08377 0.31263
# Poissons Ratio (y) = 0.10940 0.45417
# Poissons Ratio (z) = 0.58537 0.65117
#
# Static dielectric constant tensor:
#      x y z
#    x 3.229400 0.000000 0.000000 
#    y 0.000000 3.294350 0.000000 
#    z 0.000000 0.000000 3.340620 
# 
# 
# High freq. dielectric constant tensor:
#      x y z
#    x 1.675150 0.000000 0.000000 
#    y 0.000000 1.672600 0.000000 
#    z 0.000000 0.000000 1.687920 
# 
# From -- ./inp_files/21650.got.cif
#   From: 2010.03.12/outbox.cif.g09.slc.cpg/sg47_11_cif.got.tgz:21650.got - 2010.04.14 03:12:58.
