data_PCOD8199816
_publ_section_title
;
Structure prediction by ZEFSAII (Michael W. Deem and Ramdas Pophale) SiO2 
 PCOD8199816
Probable space group: P M M M
;
_chemical_formula_sum "Si O2"
_cell_formula_units_Z 44
_cell_length_a 28.934333
_cell_length_b 9.189604
_cell_length_c 9.261860
_cell_angle_alpha 90.000000
_cell_angle_beta 90.000000
_cell_angle_gamma 90.000000
_cell_volume 2462.682841
_symmetry_space_group_name_H-M "P M M M"
_symmetry_group_IT_number 47
_symmetry_cell_setting 'orthorhombic'
loop_
_space_group_symop_operation_xyz
x,y,z
-x,-y,z
x,-y,-z
-x,y,-z
-x,-y,-z
x,y,-z
-x,y,z
x,-y,z
loop_
_atom_site_type_symbol
_atom_site_label
_atom_site_fract_x
_atom_site_fract_y
_atom_site_fract_z
Si Si1 0.236190 0.670067 0.833750
Si Si2 0.581406 0.829779 0.331799
Si Si3 0.500000 0.669753 0.170584
Si Si4 0.048948 0.173109 0.162180
Si Si5 0.325937 0.666414 0.332101
Si Si6 0.147582 0.836148 0.827227
O O1 0.230587 0.500000 0.811173
O O2 0.281311 0.727597 0.751042
O O3 0.189983 0.741319 0.767122
O O4 0.242318 0.713876 0.000000
O O5 0.570536 0.801340 0.500000
O O6 0.544884 0.744630 0.236203
O O7 0.631451 0.768535 0.289297
O O8 0.579326 0.000000 0.295008
O O9 0.500000 0.500000 0.211686
O O10 0.500000 0.693605 0.000000
O O11 0.097746 0.225593 0.233575
O O12 0.000000 0.220635 0.240396
O O13 0.051857 0.000000 0.157465
O O14 0.046568 0.234413 0.000000
O O15 0.314722 0.676573 0.500000
O O16 0.337327 0.500000 0.286799
O O17 0.156020 0.000000 0.773331
O O18 0.145507 0.829552 0.000000
#
# Coordination Sequence:
#
# PCOD8199816 Si02
#       6
#     8   8   4   8   8   8
#     4   9  17  28  42  61  86 115 145 180 223 268
#     4  10  21  37  57  80 104 130 161 198 241 285
#     4  11  24  39  56  80 108 137 168 199 230 270
#     4   7   9  14  26  45  69  98 133 171 208 250
#     4   9  18  33  51  69  91 122 158 191 224 268
#     4   8  13  21  34  53  77 106 140 175 213 262
#
# _framework density 17.866693999999999
#
# number of rings (size 3 to 8) (size 9 to 14) (size 15 to 20)
#    0.000    3.182    0.000    2.727    0.000    4.364 
#    0.000    1.818    0.000    0.545    0.000    3.818 
#    0.000    0.727    0.000    9.091    0.000    8.364 
#
# Total GULP energy -545109.395521 kJ/mol
# GULP energy per Si atom -12388.849898 kJ/mol
# Density = 1.782603 g / cm^3
# Si number density = 17.866694 Si / 1000 Ang^3
#
#
#
# Elastic Constant Matrix: (Units=GPa)
#
#
# Indices 1 2 3 4 5 6 
#
# 1 209.3687 76.3736 58.2465 0.0000 0.0000 0.0000
# 2 76.3736 73.9404 32.9933 0.0000 0.0000 0.0000
# 3 58.2465 32.9933 36.2330 0.0000 0.0000 0.0000
# 4 0.0000 0.0000 0.0000 15.2657 0.0000 0.0000
# 5 0.0000 0.0000 0.0000 0.0000 -4.7330 0.0000
# 6 0.0000 0.0000 0.0000 0.0000 0.0000 -97.3710
#
#
#
# Elastic Compliance Matrix: (Units=1/GPa)
#
#
# Indices 1 2 3 4 5 6 
#
# 1 0.009678 -0.005145 -0.010873 0.000000 0.000000 0.000000
# 2 -0.005145 0.025515 -0.014964 0.000000 0.000000 0.000000
# 3 -0.010873 -0.014964 0.058704 0.000000 0.000000 0.000000
# 4 0.000000 0.000000 0.000000 0.065506 0.000000 0.000000
# 5 0.000000 0.000000 0.000000 0.000000 -0.211284 0.000000
# 6 0.000000 0.000000 0.000000 0.000000 0.000000 -0.010270
#
#
# Mechanical properties :
#
#
# Convention : Reuss Voigt Hill
#
# Bulk Modulus (GPa) = 31.31429 72.75209 52.03319
# Shear Modulus (GPa) = 478.16729 -7.23908 235.46410
#
# Velocity S-wave (km/s) = 16.37716 -2.01507 11.49241
# Velocity P-wave (km/s) = 19.36957 5.94927 14.32784
#
# Compressibility (1/GPa) = 0.03193430
#
# Stress axis : x y z
#
# Youngs Moduli (GPa) = 103.32973 39.19213 17.03473
#
# Poissons Ratio (x) = 0.20163 0.18522
# Poissons Ratio (y) = 0.53159 0.25490
# Poissons Ratio (z) = 1.12349 0.58646
#
# Static dielectric constant tensor:
#      x y z
#    x 3.910260 0.000000 0.000000 
#    y 0.000000 3.159130 0.000000 
#    z 0.000000 0.000000 2.893280 
# 
# 
# High freq. dielectric constant tensor:
#      x y z
#    x 1.721680 0.000000 0.000000 
#    y 0.000000 1.668100 0.000000 
#    z 0.000000 0.000000 1.637360 
# 
# From -- ./inp_files/13556.got.cif
#   From: 2010.03.12/outbox.cif.g09.slc.cpg/sg47_7_cif.got.tgz:13556.got - 2010.04.14 03:12:58.
