data_PCOD8199028
_publ_section_title
;
Structure prediction by ZEFSAII (Michael W. Deem and Ramdas Pophale) SiO2 
 PCOD8199028
Probable space group: P M M M
;
_chemical_formula_sum "Si O2"
_cell_formula_units_Z 36
_cell_length_a 7.788794
_cell_length_b 13.669482
_cell_length_c 17.581064
_cell_angle_alpha 90.000000
_cell_angle_beta 90.000000
_cell_angle_gamma 90.000000
_cell_volume 1871.834424
_symmetry_space_group_name_H-M "P M M M"
_symmetry_group_IT_number 47
_symmetry_cell_setting 'orthorhombic'
loop_
_space_group_symop_operation_xyz
x,y,z
-x,-y,z
x,-y,-z
-x,y,-z
-x,-y,-z
x,y,-z
-x,y,z
x,-y,z
loop_
_atom_site_type_symbol
_atom_site_label
_atom_site_fract_x
_atom_site_fract_y
_atom_site_fract_z
Si Si1 0.194683 0.800431 0.915737
Si Si2 0.000000 0.613504 0.589444
Si Si3 0.304024 0.893813 0.234500
Si Si4 0.299209 0.298781 0.314705
Si Si5 0.698285 0.608892 0.845454
O O1 0.297981 0.862558 0.853868
O O2 0.197925 0.684994 0.896746
O O3 0.000000 0.836717 0.913225
O O4 0.272406 0.818329 0.000000
O O5 0.825380 0.664097 0.619128
O O6 0.000000 0.500000 0.612830
O O7 0.000000 0.627707 0.500000
O O8 0.500000 0.905208 0.256752
O O9 0.229536 0.809002 0.289025
O O10 0.212243 0.000000 0.246810
O O11 0.500000 0.296957 0.341359
O O12 0.276983 0.371095 0.243838
O O13 0.500000 0.619833 0.867476
O O14 0.766732 0.500000 0.862796
#
# Coordination Sequence:
#
# PCOD8199028 Si02
#       5
#     8   4   8   8   8
#     4  10  21  33  44  68 107 142 175 221 276 330
#     4  11  24  38  57  89 120 149 183 211 255 325
#     4   9  19  36  58  81 101 132 183 232 275 322
#     4   9  19  37  58  82 114 146 181 228 273 317
#     4   9  18  32  51  73  95 132 187 233 272 319
#
# _framework density 19.232471
#
# number of rings (size 3 to 8) (size 9 to 14) (size 15 to 20)
#    0.000    2.556    0.000    2.667    6.222    5.333 
#    0.000    5.556    0.000    1.333    0.000    3.111 
#    0.000    0.000    0.000    0.000    0.000    0.000 
#
# Total GULP energy -446157.213167 kJ/mol
# GULP energy per Si atom -12393.255921 kJ/mol
# Density = 1.918870 g / cm^3
# Si number density = 19.232471 Si / 1000 Ang^3
#
#
#
# Elastic Constant Matrix: (Units=GPa)
#
#
# Indices 1 2 3 4 5 6 
#
# 1 61.7930 24.7523 34.5122 0.0000 0.0000 0.0000
# 2 24.7523 140.8409 44.1021 0.0000 0.0000 0.0000
# 3 34.5122 44.1021 86.2711 0.0000 0.0000 0.0000
# 4 0.0000 0.0000 0.0000 14.3849 0.0000 0.0000
# 5 0.0000 0.0000 0.0000 0.0000 21.6139 0.0000
# 6 0.0000 0.0000 0.0000 0.0000 0.0000 9.6676
#
#
#
# Elastic Compliance Matrix: (Units=1/GPa)
#
#
# Indices 1 2 3 4 5 6 
#
# 1 0.021026 -0.001264 -0.007765 0.000000 0.000000 0.000000
# 2 -0.001264 0.008529 -0.003855 0.000000 0.000000 0.000000
# 3 -0.007765 -0.003855 0.016668 0.000000 0.000000 0.000000
# 4 0.000000 0.000000 0.000000 0.069517 0.000000 0.000000
# 5 0.000000 0.000000 0.000000 0.000000 0.046266 0.000000
# 6 0.000000 0.000000 0.000000 0.000000 0.000000 0.103438
#
#
# Mechanical properties :
#
#
# Convention : Reuss Voigt Hill
#
# Bulk Modulus (GPa) = 48.88439 55.07093 51.97766
# Shear Modulus (GPa) = 16.77667 21.50250 19.13959
#
# Velocity S-wave (km/s) = 2.95669 3.34732 3.15805
# Velocity P-wave (km/s) = 6.09335 6.60575 6.35472
#
# Compressibility (1/GPa) = 0.02045643
#
# Stress axis : x y z
#
# Youngs Moduli (GPa) = 47.55935 117.24237 59.99357
#
# Poissons Ratio (x) = 0.14816 0.46588
# Poissons Ratio (y) = 0.06010 0.23126
# Poissons Ratio (z) = 0.36932 0.45194
#
# Static dielectric constant tensor:
#      x y z
#    x 3.373900 0.000000 0.000000 
#    y 0.000000 4.047070 0.000000 
#    z 0.000000 0.000000 3.183580 
# 
# 
# High freq. dielectric constant tensor:
#      x y z
#    x 1.741820 0.000000 0.000000 
#    y 0.000000 1.757610 0.000000 
#    z 0.000000 0.000000 1.711430 
# 
# From -- ./inp_files/5554.got.cif
#   From: 2010.03.12/outbox.cif.g09.slc.cpg/sg47_3_cif.got.tgz:5554.got - 2010.04.14 03:12:58.
