data_PCOD8199748
_publ_section_title
;
Structure prediction by ZEFSAII (Michael W. Deem and Ramdas Pophale) SiO2 
 PCOD8199748
Probable space group: P M M M
;
_chemical_formula_sum "Si O2"
_cell_formula_units_Z 44
_cell_length_a 14.981079
_cell_length_b 8.996304
_cell_length_c 17.281097
_cell_angle_alpha 90.000000
_cell_angle_beta 90.000000
_cell_angle_gamma 90.000000
_cell_volume 2329.048459
_symmetry_space_group_name_H-M "P M M M"
_symmetry_group_IT_number 47
_symmetry_cell_setting 'orthorhombic'
loop_
_space_group_symop_operation_xyz
x,y,z
-x,-y,z
x,-y,-z
-x,y,-z
-x,-y,-z
x,y,-z
-x,y,z
x,-y,z
loop_
_atom_site_type_symbol
_atom_site_label
_atom_site_fract_x
_atom_site_fract_y
_atom_site_fract_z
Si Si1 0.500000 0.666304 0.091387
Si Si2 0.602984 0.823093 0.667595
Si Si3 0.319706 0.824800 0.911135
Si Si4 0.105851 0.832462 0.500000
Si Si5 0.250938 0.324926 0.228135
Si Si6 0.101435 0.673593 0.347294
Si Si7 0.394925 0.161548 0.500000
O O1 0.500000 0.500000 0.127513
O O2 0.586762 0.756678 0.117991
O O3 0.500000 0.654862 0.000000
O O4 0.500000 0.785428 0.685995
O O5 0.662689 0.737705 0.728751
O O6 0.630523 0.759738 0.581456
O O7 0.619005 0.000000 0.672026
O O8 0.244031 0.752491 0.856338
O O9 0.323999 0.000000 0.899207
O O10 0.298136 0.783453 0.000000
O O11 0.142329 0.753873 0.422766
O O12 0.000000 0.820364 0.500000
O O13 0.140648 0.000000 0.500000
O O14 0.260918 0.500000 0.217502
O O15 0.160847 0.282420 0.273613
O O16 0.105585 0.500000 0.364759
O O17 0.000000 0.725174 0.329959
O O18 0.500000 0.137097 0.500000
O O19 0.348365 0.000000 0.500000
#
# Coordination Sequence:
#
# PCOD8199748 Si02
#       7
#     4   8   8   4   8   8   4
#     4   9  17  31  53  79 105 134 169 212 259 305
#     4   9  18  33  52  73 102 140 178 215 257 311
#     4  10  21  37  56  77 104 139 177 215 263 325
#     4   9  17  30  53  84 111 137 174 222 273 321
#     4  11  23  35  52  79 106 136 176 223 271 316
#     4   9  19  37  57  77 107 146 183 220 269 326
#     4   7  12  27  49  68  89 129 180 215 243 288
#
# _framework density 18.891835
#
# number of rings (size 3 to 8) (size 9 to 14) (size 15 to 20)
#    0.000    2.636    0.000    2.727    1.273    5.818 
#    0.000    2.273    0.000    2.182    0.000    3.818 
#    0.000    0.000    0.000    0.000    0.000    0.000 
#
# Total GULP energy -545379.124423 kJ/mol
# GULP energy per Si atom -12394.980101 kJ/mol
# Density = 1.884884 g / cm^3
# Si number density = 18.891835 Si / 1000 Ang^3
#
#
#
# Elastic Constant Matrix: (Units=GPa)
#
#
# Indices 1 2 3 4 5 6 
#
# 1 74.6106 41.7211 58.5525 0.0000 0.0000 0.0000
# 2 41.7211 85.2438 61.8104 0.0000 0.0000 0.0000
# 3 58.5525 61.8104 142.3421 0.0000 0.0000 0.0000
# 4 0.0000 0.0000 0.0000 29.8240 0.0000 0.0000
# 5 0.0000 0.0000 0.0000 0.0000 23.4425 0.0000
# 6 0.0000 0.0000 0.0000 0.0000 0.0000 15.8066
#
#
#
# Elastic Compliance Matrix: (Units=1/GPa)
#
#
# Indices 1 2 3 4 5 6 
#
# 1 0.021749 -0.006068 -0.006311 0.000000 0.000000 0.000000
# 2 -0.006068 0.018815 -0.005674 0.000000 0.000000 0.000000
# 3 -0.006311 -0.005674 0.012086 0.000000 0.000000 0.000000
# 4 0.000000 0.000000 0.000000 0.033530 0.000000 0.000000
# 5 0.000000 0.000000 0.000000 0.000000 0.042657 0.000000
# 6 0.000000 0.000000 0.000000 0.000000 0.000000 0.063265
#
#
# Mechanical properties :
#
#
# Convention : Reuss Voigt Hill
#
# Bulk Modulus (GPa) = 60.45120 69.59605 65.02363
# Shear Modulus (GPa) = 21.39269 23.15546 22.27407
#
# Velocity S-wave (km/s) = 3.36873 3.50478 3.43743
# Velocity P-wave (km/s) = 6.87017 7.30049 7.08859
#
# Compressibility (1/GPa) = 0.01654227
#
# Stress axis : x y z
#
# Youngs Moduli (GPa) = 45.97839 53.14781 82.74373
#
# Poissons Ratio (x) = 0.32252 0.52224
# Poissons Ratio (y) = 0.27901 0.46950
# Poissons Ratio (z) = 0.29019 0.30157
#
# Static dielectric constant tensor:
#      x y z
#    x 3.310490 0.000000 0.000000 
#    y 0.000000 3.378060 0.000000 
#    z 0.000000 0.000000 3.731710 
# 
# 
# High freq. dielectric constant tensor:
#      x y z
#    x 1.705470 0.000000 0.000000 
#    y 0.000000 1.726050 0.000000 
#    z 0.000000 0.000000 1.742400 
# 
# From -- ./inp_files/27944.got.cif
#   From: 2010.03.12/outbox.cif.g09.slc.cpg/sg47_14_cif.got.tgz:27944.got - 2010.04.14 03:12:58.
