data_PCOD8199710
_publ_section_title
;
Structure prediction by ZEFSAII (Michael W. Deem and Ramdas Pophale) SiO2 
 PCOD8199710
Probable space group: P M M M
;
_chemical_formula_sum "Si O2"
_cell_formula_units_Z 48
_cell_length_a 20.287383
_cell_length_b 8.162026
_cell_length_c 13.990490
_cell_angle_alpha 90.000000
_cell_angle_beta 90.000000
_cell_angle_gamma 90.000000
_cell_volume 2316.631341
_symmetry_space_group_name_H-M "P M M M"
_symmetry_group_IT_number 47
_symmetry_cell_setting 'orthorhombic'
loop_
_space_group_symop_operation_xyz
x,y,z
-x,-y,z
x,-y,-z
-x,y,-z
-x,-y,-z
x,y,-z
-x,y,z
x,-y,z
loop_
_atom_site_type_symbol
_atom_site_label
_atom_site_fract_x
_atom_site_fract_y
_atom_site_fract_z
Si Si1 0.197662 0.186761 0.715464
Si Si2 0.000000 0.814541 0.886673
Si Si3 0.677804 0.808204 0.394232
Si Si4 0.577179 0.188324 0.768202
Si Si5 0.926537 0.687784 0.387315
Si Si6 0.578060 0.500000 0.892851
Si Si7 0.137503 0.689013 0.895409
O O1 0.257376 0.270888 0.656486
O O2 0.128534 0.201170 0.660961
O O3 0.194487 0.260977 0.821959
O O4 0.215802 0.000000 0.730547
O O5 0.066613 0.731289 0.847316
O O6 0.000000 0.000000 0.852313
O O7 0.000000 0.793741 0.000000
O O8 0.668833 0.729521 0.500000
O O9 0.613162 0.773036 0.331566
O O10 0.689686 0.000000 0.406040
O O11 0.500000 0.205203 0.748081
O O12 0.601106 0.329490 0.842302
O O13 0.593393 0.000000 0.803683
O O14 0.921905 0.711766 0.500000
O O15 0.912852 0.500000 0.358837
O O16 0.000000 0.740318 0.352387
O O17 0.500000 0.500000 0.897223
O O18 0.607870 0.500000 0.000000
O O19 0.141699 0.500000 0.913285
O O20 0.146386 0.776255 0.000000
#
# Coordination Sequence:
#
# PCOD8199710 Si02
#       7
#     8   4   8   8   8   4   8
#     4  11  22  35  55  80 110 145 183 232 286 343
#     4   9  17  31  53  79 102 127 170 227 285 343
#     4   9  19  37  59  84 116 153 193 238 291 349
#     4   9  18  35  61  91 124 163 205 247 295 352
#     4   9  19  36  55  75 103 139 180 228 279 334
#     4   9  18  34  57  89 129 165 201 250 296 342
#     4  10  21  37  55  75 104 143 184 229 282 342
#
# _framework density 20.719740999999999
#
# number of rings (size 3 to 8) (size 9 to 14) (size 15 to 20)
#    0.000    2.500    0.000    2.250    1.167    4.000 
#    3.000    5.417    0.000    4.500    0.000    0.000 
#    0.000    0.000    0.000    0.000    0.000    0.000 
#
# Total GULP energy -594910.594090 kJ/mol
# GULP energy per Si atom -12393.970710 kJ/mol
# Density = 2.067258 g / cm^3
# Si number density = 20.719741 Si / 1000 Ang^3
#
#
#
# Elastic Constant Matrix: (Units=GPa)
#
#
# Indices 1 2 3 4 5 6 
#
# 1 83.1503 26.6057 60.4542 0.0000 0.0000 0.0000
# 2 26.6057 82.2566 47.8153 0.0000 0.0000 0.0000
# 3 60.4542 47.8153 133.4954 0.0000 0.0000 0.0000
# 4 0.0000 0.0000 0.0000 28.4504 0.0000 0.0000
# 5 0.0000 0.0000 0.0000 0.0000 33.8161 0.0000
# 6 0.0000 0.0000 0.0000 0.0000 0.0000 7.7883
#
#
#
# Elastic Compliance Matrix: (Units=1/GPa)
#
#
# Indices 1 2 3 4 5 6 
#
# 1 0.018052 -0.001373 -0.007683 0.000000 0.000000 0.000000
# 2 -0.001373 0.015458 -0.004915 0.000000 0.000000 0.000000
# 3 -0.007683 -0.004915 0.012731 0.000000 0.000000 0.000000
# 4 0.000000 0.000000 0.000000 0.035149 0.000000 0.000000
# 5 0.000000 0.000000 0.000000 0.000000 0.029572 0.000000
# 6 0.000000 0.000000 0.000000 0.000000 0.000000 0.128397
#
#
# Mechanical properties :
#
#
# Convention : Reuss Voigt Hill
#
# Bulk Modulus (GPa) = 54.64871 63.18366 58.91619
# Shear Modulus (GPa) = 18.28824 24.94610 21.61717
#
# Velocity S-wave (km/s) = 2.97416 3.47360 3.23354
# Velocity P-wave (km/s) = 6.18277 6.82997 6.51441
#
# Compressibility (1/GPa) = 0.01829869
#
# Stress axis : x y z
#
# Youngs Moduli (GPa) = 55.39667 64.69041 78.54961
#
# Poissons Ratio (x) = 0.08879 0.60351
# Poissons Ratio (y) = 0.07604 0.38609
# Poissons Ratio (z) = 0.42562 0.31797
#
# Static dielectric constant tensor:
#      x y z
#    x 3.421940 0.000000 0.000000 
#    y 0.000000 3.635750 0.000000 
#    z 0.000000 0.000000 4.159660 
# 
# 
# High freq. dielectric constant tensor:
#      x y z
#    x 1.793450 0.000000 0.000000 
#    y 0.000000 1.794740 0.000000 
#    z 0.000000 0.000000 1.817530 
# 
# From -- ./inp_files/24447.got.cif
#   From: 2010.03.12/outbox.cif.g09.slc.cpg/sg47_13_cif.got.tgz:24447.got - 2010.04.14 03:12:58.
