data_PCOD8199024
_publ_section_title
;
Structure prediction by ZEFSAII (Michael W. Deem and Ramdas Pophale) SiO2 
 PCOD8199024
Probable space group: P M M M
;
_chemical_formula_sum "Si O2"
_cell_formula_units_Z 36
_cell_length_a 9.182668
_cell_length_b 17.042272
_cell_length_c 12.910194
_cell_angle_alpha 90.000000
_cell_angle_beta 90.000000
_cell_angle_gamma 90.000000
_cell_volume 2020.361777
_symmetry_space_group_name_H-M "P M M M"
_symmetry_group_IT_number 47
_symmetry_cell_setting 'orthorhombic'
loop_
_space_group_symop_operation_xyz
x,y,z
-x,-y,z
x,-y,-z
-x,y,-z
-x,-y,-z
x,y,-z
-x,y,z
x,-y,z
loop_
_atom_site_type_symbol
_atom_site_label
_atom_site_fract_x
_atom_site_fract_y
_atom_site_fract_z
Si Si1 0.832223 0.087521 0.688490
Si Si2 0.664951 0.126864 0.115366
Si Si3 0.674844 0.410798 0.000000
Si Si4 0.334765 0.697509 0.177888
Si Si5 0.671188 0.235116 0.614249
O O1 0.775135 0.085978 0.806250
O O2 0.744033 0.149517 0.619679
O O3 0.000000 0.112980 0.688709
O O4 0.813317 0.000000 0.641622
O O5 0.500000 0.102277 0.144003
O O6 0.679493 0.220578 0.118963
O O7 0.704530 0.098454 0.000000
O O8 0.738950 0.368598 0.104142
O O9 0.729315 0.500000 0.000000
O O10 0.500000 0.403798 0.000000
O O11 0.500000 0.671131 0.193555
O O12 0.266467 0.707365 0.294709
O O13 0.701684 0.271200 0.500000
O O14 0.500000 0.221734 0.633377
#
# Coordination Sequence:
#
# PCOD8199024 Si02
#       5
#     8   8   4   8   8
#     4  10  21  33  43  61  91 121 148 188 243 290
#     4   9  16  28  47  65  85 120 162 197 227 265
#     4   9  14  20  38  70 102 127 146 170 215 273
#     4   8  13  24  41  63  92 119 148 183 218 262
#     4   9  18  32  50  67  83 114 159 200 233 267
#
# _framework density 17.818591000000001
#
# number of rings (size 3 to 8) (size 9 to 14) (size 15 to 20)
#    0.000    3.000    1.111    2.000    0.000    3.556 
#    0.000    4.444    0.000    0.667    0.000    4.667 
#    0.000   28.444    0.000    8.000    0.000    8.889 
#
# Total GULP energy -445995.300365 kJ/mol
# GULP energy per Si atom -12388.758343 kJ/mol
# Density = 1.777803 g / cm^3
# Si number density = 17.818591 Si / 1000 Ang^3
#
#
#
# Elastic Constant Matrix: (Units=GPa)
#
#
# Indices 1 2 3 4 5 6 
#
# 1 37.7093 16.3500 20.0969 0.0000 0.0000 0.0000
# 2 16.3500 85.1659 47.9317 0.0000 0.0000 0.0000
# 3 20.0969 47.9317 143.9758 0.0000 0.0000 0.0000
# 4 0.0000 0.0000 0.0000 12.1547 0.0000 0.0000
# 5 0.0000 0.0000 0.0000 0.0000 9.7410 0.0000
# 6 0.0000 0.0000 0.0000 0.0000 0.0000 1.0143
#
#
#
# Elastic Compliance Matrix: (Units=1/GPa)
#
#
# Indices 1 2 3 4 5 6 
#
# 1 0.029801 -0.004159 -0.002775 0.000000 0.000000 0.000000
# 2 -0.004159 0.015030 -0.004423 0.000000 0.000000 0.000000
# 3 -0.002775 -0.004423 0.008805 0.000000 0.000000 0.000000
# 4 0.000000 0.000000 0.000000 0.082273 0.000000 0.000000
# 5 0.000000 0.000000 0.000000 0.000000 0.102659 0.000000
# 6 0.000000 0.000000 0.000000 0.000000 0.000000 0.985928
#
#
# Mechanical properties :
#
#
# Convention : Reuss Voigt Hill
#
# Bulk Modulus (GPa) = 32.34020 48.40089 40.37055
# Shear Modulus (GPa) = 3.97609 16.74684 10.36146
#
# Velocity S-wave (km/s) = 1.49542 3.06903 2.41404
# Velocity P-wave (km/s) = 4.60117 6.30719 5.52048
#
# Compressibility (1/GPa) = 0.03092127
#
# Stress axis : x y z
#
# Youngs Moduli (GPa) = 33.55589 66.53558 113.56609
#
# Poissons Ratio (x) = 0.27674 0.31515
# Poissons Ratio (y) = 0.13957 0.50230
# Poissons Ratio (z) = 0.09312 0.29429
#
# Static dielectric constant tensor:
#      x y z
#    x 2.917820 0.000000 0.000000 
#    y 0.000000 3.076210 0.000000 
#    z 0.000000 0.000000 3.597630 
# 
# 
# High freq. dielectric constant tensor:
#      x y z
#    x 1.643160 0.000000 0.000000 
#    y 0.000000 1.654360 0.000000 
#    z 0.000000 0.000000 1.702810 
# 
# From -- ./inp_files/20569.got.cif
#   From: 2010.03.12/outbox.cif.g09.slc.cpg/sg47_11_cif.got.tgz:20569.got - 2010.04.14 03:12:58.
