data_PCOD8199173
_publ_section_title
;
Structure prediction by ZEFSAII (Michael W. Deem and Ramdas Pophale) SiO2 
 PCOD8199173
Probable space group: P M M M
;
_chemical_formula_sum "Si O2"
_cell_formula_units_Z 64
_cell_length_a 14.540288
_cell_length_b 8.847541
_cell_length_c 26.240119
_cell_angle_alpha 90.000000
_cell_angle_beta 90.000000
_cell_angle_gamma 90.000000
_cell_volume 3375.680949
_symmetry_space_group_name_H-M "P M M M"
_symmetry_group_IT_number 47
_symmetry_cell_setting 'orthorhombic'
loop_
_space_group_symop_operation_xyz
x,y,z
-x,-y,z
x,-y,-z
-x,y,-z
-x,-y,-z
x,y,-z
-x,y,z
x,-y,z
loop_
_atom_site_type_symbol
_atom_site_label
_atom_site_fract_x
_atom_site_fract_y
_atom_site_fract_z
Si Si1 0.897027 0.179565 0.056258
Si Si2 0.892760 0.824795 0.347580
Si Si3 0.391645 0.166158 0.284837
Si Si4 0.106747 0.322087 0.757540
Si Si5 0.394989 0.323459 0.816333
Si Si6 0.219161 0.820737 0.849450
Si Si7 0.217299 0.819997 0.555700
Si Si8 0.601048 0.179326 0.395984
O O1 0.829381 0.243269 0.099543
O O2 0.000000 0.239923 0.067291
O O3 0.897494 0.000000 0.057826
O O4 0.864629 0.234687 0.000000
O O5 0.858365 0.736497 0.297445
O O6 0.845294 0.756412 0.398460
O O7 0.000000 0.799829 0.355873
O O8 0.867317 0.000000 0.339874
O O9 0.500000 0.148644 0.288402
O O10 0.364207 0.285373 0.241468
O O11 0.359368 0.226526 0.340097
O O12 0.349034 0.000000 0.271949
O O13 0.121623 0.500000 0.760478
O O14 0.167248 0.243950 0.800590
O O15 0.000000 0.277311 0.765715
O O16 0.500000 0.270032 0.827155
O O17 0.384598 0.500000 0.825454
O O18 0.324876 0.235146 0.853024
O O19 0.216304 0.000000 0.846995
O O20 0.184859 0.759581 0.500000
O O21 0.323305 0.766387 0.563339
O O22 0.211269 0.000000 0.556510
O O23 0.500000 0.250784 0.407931
O O24 0.591342 0.000000 0.396417
#
# Coordination Sequence:
#
# PCOD8199173 Si02
#       8
#     8   8   8   8   8   8   8   8
#     4   8  15  30  53  82 114 143 173 214 262 309
#     4   9  18  32  49  69  94 126 165 207 252 304
#     4   8  14  26  44  65  89 121 164 209 252 301
#     4  10  21  36  53  76 108 140 169 208 261 319
#     4  10  21  35  49  70 105 145 183 222 264 309
#     4  11  21  32  54  84 111 142 179 218 260 310
#     4   9  17  27  41  64  91 120 159 206 255 307
#     4   8  14  24  39  61  89 119 152 195 247 301
#
# _framework density 18.959139
#
# number of rings (size 3 to 8) (size 9 to 14) (size 15 to 20)
#    0.000    2.875    0.000    2.625    1.750    2.500 
#    0.000    2.500    0.000    2.250    0.000    8.750 
#    0.000    0.000    0.000    6.000    0.000    6.250 
#
# Total GULP energy -793165.967535 kJ/mol
# GULP energy per Si atom -12393.218243 kJ/mol
# Density = 1.891599 g / cm^3
# Si number density = 18.959139 Si / 1000 Ang^3
#
#
#
# Elastic Constant Matrix: (Units=GPa)
#
#
# Indices 1 2 3 4 5 6 
#
# 1 90.4451 29.8629 77.2076 0.0000 0.0000 0.0000
# 2 29.8629 43.7514 30.9473 0.0000 0.0000 0.0000
# 3 77.2076 30.9473 148.1754 0.0000 0.0000 0.0000
# 4 0.0000 0.0000 0.0000 -0.5539 0.0000 0.0000
# 5 0.0000 0.0000 0.0000 0.0000 31.0548 0.0000
# 6 0.0000 0.0000 0.0000 0.0000 0.0000 20.0562
#
#
#
# Elastic Compliance Matrix: (Units=1/GPa)
#
#
# Indices 1 2 3 4 5 6 
#
# 1 0.022146 -0.008159 -0.009835 0.000000 0.000000 0.000000
# 2 -0.008159 0.029824 -0.001978 0.000000 0.000000 0.000000
# 3 -0.009835 -0.001978 0.012287 0.000000 0.000000 0.000000
# 4 0.000000 0.000000 0.000000 -1.805354 0.000000 0.000000
# 5 0.000000 0.000000 0.000000 0.000000 0.032201 0.000000
# 6 0.000000 0.000000 0.000000 0.000000 0.000000 0.049860
#
#
# Mechanical properties :
#
#
# Convention : Reuss Voigt Hill
#
# Bulk Modulus (GPa) = 41.13031 62.04525 51.58778
# Shear Modulus (GPa) = -3.10369 19.73503 8.31567
#
# Velocity S-wave (km/s) = -1.28086 3.22984 2.09657
# Velocity P-wave (km/s) = 4.42197 6.83417 5.75586
#
# Compressibility (1/GPa) = 0.02431297
#
# Stress axis : x y z
#
# Youngs Moduli (GPa) = 45.15442 33.52963 81.38984
#
# Poissons Ratio (x) = 0.27357 0.80050
# Poissons Ratio (y) = 0.36842 0.16096
# Poissons Ratio (z) = 0.44411 0.06631
#
# Static dielectric constant tensor:
#      x y z
#    x 3.677620 0.000000 0.000000 
#    y 0.000000 3.052640 0.000000 
#    z 0.000000 0.000000 3.783310 
# 
# 
# High freq. dielectric constant tensor:
#      x y z
#    x 1.741110 0.000000 0.000000 
#    y 0.000000 1.689900 0.000000 
#    z 0.000000 0.000000 1.728190 
# 
# From -- ./inp_files/32804.got.cif
#   From: 2010.03.12/outbox.cif.g09.slc.cpg/sg47_17_cif.got.tgz:32804.got - 2010.04.14 03:12:58.
