data_PCOD8199519
_publ_section_title
;
Structure prediction by ZEFSAII (Michael W. Deem and Ramdas Pophale) SiO2 
 PCOD8199519
Probable space group: P M M M
;
_chemical_formula_sum "Si O2"
_cell_formula_units_Z 44
_cell_length_a 9.423127
_cell_length_b 14.004925
_cell_length_c 15.993536
_cell_angle_alpha 90.000000
_cell_angle_beta 90.000000
_cell_angle_gamma 90.000000
_cell_volume 2110.669935
_symmetry_space_group_name_H-M "P M M M"
_symmetry_group_IT_number 47
_symmetry_cell_setting 'orthorhombic'
loop_
_space_group_symop_operation_xyz
x,y,z
-x,-y,z
x,-y,-z
-x,y,-z
-x,-y,-z
x,y,-z
-x,y,z
x,-y,z
loop_
_atom_site_type_symbol
_atom_site_label
_atom_site_fract_x
_atom_site_fract_y
_atom_site_fract_z
Si Si1 0.165413 0.889030 0.835021
Si Si2 0.341467 0.113910 0.322667
Si Si3 0.161852 0.613692 0.407402
Si Si4 0.666178 0.609310 0.750146
Si Si5 0.662990 0.267519 0.092312
Si Si6 0.331420 0.104701 0.500000
O O1 0.232126 0.852976 0.747560
O O2 0.241892 0.828333 0.906784
O O3 0.000000 0.866696 0.833571
O O4 0.196371 0.000000 0.851745
O O5 0.500000 0.151529 0.299756
O O6 0.288304 0.157044 0.412766
O O7 0.345502 0.000000 0.330766
O O8 0.211629 0.650444 0.500000
O O9 0.175277 0.500000 0.406680
O O10 0.258078 0.655616 0.331629
O O11 0.000000 0.645161 0.391426
O O12 0.500000 0.620129 0.735066
O O13 0.711967 0.500000 0.761276
O O14 0.715208 0.660215 0.835843
O O15 0.500000 0.238328 0.107095
O O16 0.681952 0.314261 0.000000
O O17 0.500000 0.093209 0.500000
O O18 0.259671 0.000000 0.500000
#
# Coordination Sequence:
#
# PCOD8199519 Si02
#       6
#     8   8   8   8   8   4
#     4  10  21  36  54  77 105 137 175 223 278 327
#     4   8  13  24  45  71  98 130 168 209 255 310
#     4   8  14  26  47  77 112 149 185 217 255 308
#     4   9  18  33  55  84 115 144 176 219 269 318
#     4  10  22  39  58  80 106 139 180 224 272 330
#     4   7  10  18  37  67  97 125 162 205 248 299
#
# _framework density 20.846463
#
# number of rings (size 3 to 8) (size 9 to 14) (size 15 to 20)
#    0.000    3.182    0.000    2.182    0.000    3.273 
#    0.000    5.909    2.000    2.727    0.000    3.818 
#    0.000    0.000    0.000    0.000    0.000    0.000 
#
# Total GULP energy -545232.285640 kJ/mol
# GULP energy per Si atom -12391.642855 kJ/mol
# Density = 2.079902 g / cm^3
# Si number density = 20.846463 Si / 1000 Ang^3
#
#
#
# Elastic Constant Matrix: (Units=GPa)
#
#
# Indices 1 2 3 4 5 6 
#
# 1 74.7578 25.4567 62.0969 0.0000 0.0000 0.0000
# 2 25.4567 39.8073 47.3097 0.0000 0.0000 0.0000
# 3 62.0969 47.3097 181.6452 0.0000 0.0000 0.0000
# 4 0.0000 0.0000 0.0000 28.5018 0.0000 0.0000
# 5 0.0000 0.0000 0.0000 0.0000 3.2144 0.0000
# 6 0.0000 0.0000 0.0000 0.0000 0.0000 15.9963
#
#
#
# Elastic Compliance Matrix: (Units=1/GPa)
#
#
# Indices 1 2 3 4 5 6 
#
# 1 0.019844 -0.006702 -0.005038 0.000000 0.000000 0.000000
# 2 -0.006702 0.038647 -0.007774 0.000000 0.000000 0.000000
# 3 -0.005038 -0.007774 0.009252 0.000000 0.000000 0.000000
# 4 0.000000 0.000000 0.000000 0.035085 0.000000 0.000000
# 5 0.000000 0.000000 0.000000 0.000000 0.311097 0.000000
# 6 0.000000 0.000000 0.000000 0.000000 0.000000 0.062514
#
#
# Mechanical properties :
#
#
# Convention : Reuss Voigt Hill
#
# Bulk Modulus (GPa) = 34.82722 62.88188 48.85455
# Shear Modulus (GPa) = 9.52309 20.29899 14.91104
#
# Velocity S-wave (km/s) = 2.13965 3.12386 2.67737
# Velocity P-wave (km/s) = 4.77985 6.57580 5.74840
#
# Compressibility (1/GPa) = 0.02871318
#
# Stress axis : x y z
#
# Youngs Moduli (GPa) = 50.39395 25.87546 108.08030
#
# Poissons Ratio (x) = 0.17343 0.54452
# Poissons Ratio (y) = 0.33776 0.84025
# Poissons Ratio (z) = 0.25389 0.20116
#
# Static dielectric constant tensor:
#      x y z
#    x 3.541410 0.000000 0.000000 
#    y 0.000000 3.477160 0.000000 
#    z 0.000000 0.000000 4.224140 
# 
# 
# High freq. dielectric constant tensor:
#      x y z
#    x 1.789660 0.000000 0.000000 
#    y 0.000000 1.792710 0.000000 
#    z 0.000000 0.000000 1.830870 
# 
# From -- ./inp_files/26383.got.cif
#   From: 2010.03.12/outbox.cif.g09.slc.cpg/sg47_14_cif.got.tgz:26383.got - 2010.04.14 03:12:58.
