data_PCOD8199112
_publ_section_title
;
Structure prediction by ZEFSAII (Michael W. Deem and Ramdas Pophale) SiO2 
 PCOD8199112
Probable space group: P M M M
;
_chemical_formula_sum "Si O2"
_cell_formula_units_Z 64
_cell_length_a 14.524599
_cell_length_b 9.100233
_cell_length_c 25.972935
_cell_angle_alpha 90.000000
_cell_angle_beta 90.000000
_cell_angle_gamma 90.000000
_cell_volume 3433.030737
_symmetry_space_group_name_H-M "P M M M"
_symmetry_group_IT_number 47
_symmetry_cell_setting 'orthorhombic'
loop_
_space_group_symop_operation_xyz
x,y,z
-x,-y,z
x,-y,-z
-x,y,-z
-x,-y,-z
x,y,-z
-x,y,z
x,-y,z
loop_
_atom_site_type_symbol
_atom_site_label
_atom_site_fract_x
_atom_site_fract_y
_atom_site_fract_z
Si Si1 0.897125 0.174476 0.057009
Si Si2 0.898137 0.674208 0.353859
Si Si3 0.391386 0.161371 0.287372
Si Si4 0.108239 0.329542 0.761732
Si Si5 0.394086 0.327763 0.812707
Si Si6 0.223337 0.825204 0.848918
Si Si7 0.232000 0.670460 0.557129
Si Si8 0.603558 0.172903 0.400885
O O1 0.827314 0.235027 0.099884
O O2 0.000000 0.234184 0.068771
O O3 0.898825 0.000000 0.058946
O O4 0.865602 0.227376 0.000000
O O5 0.903757 0.500000 0.358751
O O6 0.862326 0.714938 0.296536
O O7 0.834369 0.740044 0.399191
O O8 0.000000 0.740935 0.361750
O O9 0.500000 0.145686 0.291561
O O10 0.363810 0.281704 0.245003
O O11 0.357347 0.211718 0.343675
O O12 0.350895 0.000000 0.272169
O O13 0.130938 0.500000 0.772607
O O14 0.167257 0.228453 0.799361
O O15 0.000000 0.299429 0.770024
O O16 0.500000 0.282751 0.824327
O O17 0.379447 0.500000 0.818750
O O18 0.326346 0.242091 0.851309
O O19 0.229856 0.000000 0.847904
O O20 0.189673 0.695108 0.500000
O O21 0.247649 0.500000 0.568445
O O22 0.330952 0.748270 0.558438
O O23 0.500000 0.232736 0.408758
O O24 0.605991 0.000000 0.410108
#
# Coordination Sequence:
#
# PCOD8199112 Si02
#       8
#     8   8   8   8   8   8   8   8
#     4   8  15  30  52  78 109 143 178 217 260 306
#     4   8  16  33  54  73  96 129 166 204 250 303
#     4   8  15  30  50  71  95 123 161 209 255 300
#     4   9  18  33  52  75 106 140 171 207 255 315
#     4  10  21  35  50  71 103 143 182 216 256 310
#     4  11  21  31  51  82 111 140 176 220 264 307
#     4  10  21  34  50  75 100 124 165 217 257 296
#     4   9  19  35  53  72  97 130 164 200 250 313
#
# _framework density 18.642419
#
# number of rings (size 3 to 8) (size 9 to 14) (size 15 to 20)
#    0.000    2.875    0.000    3.000    1.750    3.000 
#    0.000    3.750    0.000    3.000    0.000    7.875 
#    0.000    0.000    0.000    0.000    0.000    0.000 
#
# Total GULP energy -793280.558073 kJ/mol
# GULP energy per Si atom -12395.008720 kJ/mol
# Density = 1.859999 g / cm^3
# Si number density = 18.642419 Si / 1000 Ang^3
#
#
#
# Elastic Constant Matrix: (Units=GPa)
#
#
# Indices 1 2 3 4 5 6 
#
# 1 96.2103 34.8416 69.9087 0.0000 0.0000 0.0000
# 2 34.8416 48.5779 34.9601 0.0000 0.0000 0.0000
# 3 69.9087 34.9601 123.5693 0.0000 0.0000 0.0000
# 4 0.0000 0.0000 0.0000 18.3763 0.0000 0.0000
# 5 0.0000 0.0000 0.0000 0.0000 31.6965 0.0000
# 6 0.0000 0.0000 0.0000 0.0000 0.0000 24.1676
#
#
#
# Elastic Compliance Matrix: (Units=1/GPa)
#
#
# Indices 1 2 3 4 5 6 
#
# 1 0.019687 -0.007665 -0.008969 0.000000 0.000000 0.000000
# 2 -0.007665 0.028833 -0.003821 0.000000 0.000000 0.000000
# 3 -0.008969 -0.003821 0.014248 0.000000 0.000000 0.000000
# 4 0.000000 0.000000 0.000000 0.054418 0.000000 0.000000
# 5 0.000000 0.000000 0.000000 0.000000 0.031549 0.000000
# 6 0.000000 0.000000 0.000000 0.000000 0.000000 0.041378
#
#
# Mechanical properties :
#
#
# Convention : Reuss Voigt Hill
#
# Bulk Modulus (GPa) = 45.75119 60.86426 53.30772
# Shear Modulus (GPa) = 20.98115 23.42455 22.20285
#
# Velocity S-wave (km/s) = 3.35842 3.54859 3.45481
# Velocity P-wave (km/s) = 6.29550 7.03627 6.67617
#
# Compressibility (1/GPa) = 0.02185736
#
# Stress axis : x y z
#
# Youngs Moduli (GPa) = 50.79490 34.68243 70.18599
#
# Poissons Ratio (x) = 0.26585 0.62951
# Poissons Ratio (y) = 0.38936 0.26817
# Poissons Ratio (z) = 0.45559 0.13251
#
# Static dielectric constant tensor:
#      x y z
#    x 3.545910 0.000000 0.000000 
#    y 0.000000 3.085630 0.000000 
#    z 0.000000 0.000000 3.586150 
# 
# 
# High freq. dielectric constant tensor:
#      x y z
#    x 1.721640 0.000000 0.000000 
#    y 0.000000 1.694450 0.000000 
#    z 0.000000 0.000000 1.714340 
# 
# From -- ./inp_files/21942.got.cif
#   From: 2010.03.12/outbox.cif.g09.slc.cpg/sg47_11_cif.got.tgz:21942.got - 2010.04.14 03:12:58.
