data_PCOD8199554
_publ_section_title
;
Structure prediction by ZEFSAII (Michael W. Deem and Ramdas Pophale) SiO2 
 PCOD8199554
Probable space group: P M M M
;
_chemical_formula_sum "Si O2"
_cell_formula_units_Z 56
_cell_length_a 15.196049
_cell_length_b 9.112745
_cell_length_c 21.216412
_cell_angle_alpha 90.000000
_cell_angle_beta 90.000000
_cell_angle_gamma 90.000000
_cell_volume 2938.000351
_symmetry_space_group_name_H-M "P M M M"
_symmetry_group_IT_number 47
_symmetry_cell_setting 'orthorhombic'
loop_
_space_group_symop_operation_xyz
x,y,z
-x,-y,z
x,-y,-z
-x,y,-z
-x,-y,-z
x,y,-z
-x,y,z
x,-y,z
loop_
_atom_site_type_symbol
_atom_site_label
_atom_site_fract_x
_atom_site_fract_y
_atom_site_fract_z
Si Si1 0.098732 0.662986 0.321031
Si Si2 0.766243 0.828614 0.242003
Si Si3 0.234612 0.673200 0.890726
Si Si4 0.403749 0.161139 0.073324
Si Si5 0.836261 0.834199 0.428511
Si Si6 0.102134 0.674352 0.000000
Si Si7 0.500000 0.326453 0.427331
Si Si8 0.653848 0.834708 0.358068
O O1 0.141806 0.500000 0.316449
O O2 0.147451 0.783402 0.279671
O O3 0.100460 0.720391 0.392830
O O4 0.000000 0.654165 0.296217
O O5 0.772581 0.740694 0.177809
O O6 0.680561 0.791478 0.285627
O O7 0.769964 0.000000 0.227323
O O8 0.228855 0.500000 0.885557
O O9 0.330981 0.716378 0.914655
O O10 0.156609 0.729301 0.938004
O O11 0.500000 0.207949 0.101329
O O12 0.376825 0.000000 0.101666
O O13 0.414497 0.142624 0.000000
O O14 0.833543 0.782300 0.500000
O O15 0.738740 0.824324 0.401372
O O16 0.872576 0.000000 0.421793
O O17 0.099723 0.500000 0.000000
O O18 0.000000 0.733878 0.000000
O O19 0.500000 0.500000 0.429021
O O20 0.500000 0.266015 0.500000
O O21 0.416093 0.274922 0.387669
O O22 0.615524 0.000000 0.358745
#
# Coordination Sequence:
#
# PCOD8199554 Si02
#       8
#     8   8   8   8   8   4   4   8
#     4  10  21  36  54  78 108 142 181 226 277 334
#     4  10  22  40  60  81 108 147 192 237 286 341
#     4  11  21  36  60  88 117 152 193 240 296 352
#     4   9  18  34  57  84 115 152 189 228 279 336
#     4   9  18  33  54  79 106 139 179 223 274 331
#     4   9  20  38  58  85 122 158 191 233 288 353
#     4  11  23  35  53  85 119 148 183 234 291 341
#     4   9  19  37  57  76 103 143 189 231 274 332
#
# _framework density 19.060583999999999
#
# number of rings (size 3 to 8) (size 9 to 14) (size 15 to 20)
#    0.000    2.286    0.714    3.214    0.000    6.571 
#    1.286    3.571    0.000    3.000    0.000    0.000 
#    0.000    0.000    0.000    0.000    0.000    0.000 
#
# Total GULP energy -693942.138411 kJ/mol
# GULP energy per Si atom -12391.823900 kJ/mol
# Density = 1.901720 g / cm^3
# Si number density = 19.060584 Si / 1000 Ang^3
#
#
#
# Elastic Constant Matrix: (Units=GPa)
#
#
# Indices 1 2 3 4 5 6 
#
# 1 103.6338 41.8928 49.2006 0.0000 0.0000 0.0000
# 2 41.8928 74.7457 40.5166 0.0000 0.0000 0.0000
# 3 49.2006 40.5166 122.7939 0.0000 0.0000 0.0000
# 4 0.0000 0.0000 0.0000 54.0791 0.0000 0.0000
# 5 0.0000 0.0000 0.0000 0.0000 13.8350 0.0000
# 6 0.0000 0.0000 0.0000 0.0000 0.0000 31.9866
#
#
#
# Elastic Compliance Matrix: (Units=1/GPa)
#
#
# Indices 1 2 3 4 5 6 
#
# 1 0.013662 -0.005712 -0.003590 0.000000 0.000000 0.000000
# 2 -0.005712 0.018680 -0.003875 0.000000 0.000000 0.000000
# 3 -0.003590 -0.003875 0.010861 0.000000 0.000000 0.000000
# 4 0.000000 0.000000 0.000000 0.018491 0.000000 0.000000
# 5 0.000000 0.000000 0.000000 0.000000 0.072280 0.000000
# 6 0.000000 0.000000 0.000000 0.000000 0.000000 0.031263
#
#
# Mechanical properties :
#
#
# Convention : Reuss Voigt Hill
#
# Bulk Modulus (GPa) = 59.34493 62.71036 61.02764
# Shear Modulus (GPa) = 25.35392 31.28439 28.31916
#
# Velocity S-wave (km/s) = 3.65111 4.05571 3.85872
# Velocity P-wave (km/s) = 6.99833 7.40970 7.20695
#
# Compressibility (1/GPa) = 0.01685064
#
# Stress axis : x y z
#
# Youngs Moduli (GPa) = 73.19366 53.53188 92.07539
#
# Poissons Ratio (x) = 0.30575 0.33052
# Poissons Ratio (y) = 0.41805 0.35681
# Poissons Ratio (z) = 0.26274 0.20745
#
# Static dielectric constant tensor:
#      x y z
#    x 3.762790 0.000000 0.000000 
#    y 0.000000 3.575970 0.000000 
#    z 0.000000 0.000000 3.843370 
# 
# 
# High freq. dielectric constant tensor:
#      x y z
#    x 1.736200 0.000000 0.000000 
#    y 0.000000 1.736140 0.000000 
#    z 0.000000 0.000000 1.742020 
# 
# From -- ./inp_files/31077.got.cif
#   From: 2010.03.12/outbox.cif.g09.slc.cpg/sg47_16_cif.got.tgz:31077.got - 2010.04.14 03:12:58.
