data_PCOD8199079
_publ_section_title
;
Structure prediction by ZEFSAII (Michael W. Deem and Ramdas Pophale) SiO2 
 PCOD8199079
Probable space group: P M M M
;
_chemical_formula_sum "Si O2"
_cell_formula_units_Z 40
_cell_length_a 29.434212
_cell_length_b 7.734860
_cell_length_c 9.374717
_cell_angle_alpha 90.000000
_cell_angle_beta 90.000000
_cell_angle_gamma 90.000000
_cell_volume 2134.337217
_symmetry_space_group_name_H-M "P M M M"
_symmetry_group_IT_number 47
_symmetry_cell_setting 'orthorhombic'
loop_
_space_group_symop_operation_xyz
x,y,z
-x,-y,z
x,-y,-z
-x,y,-z
-x,-y,-z
x,y,-z
-x,y,z
x,-y,z
loop_
_atom_site_type_symbol
_atom_site_label
_atom_site_fract_x
_atom_site_fract_y
_atom_site_fract_z
Si Si1 0.387231 0.191447 0.330329
Si Si2 0.202201 0.301290 0.156674
Si Si3 0.285828 0.796675 0.340950
Si Si4 0.883226 0.299820 0.667088
Si Si5 0.551253 0.500000 0.670412
Si Si6 0.050473 0.000000 0.668782
O O1 0.389048 0.184369 0.500000
O O2 0.336439 0.248959 0.285195
O O3 0.423370 0.329403 0.270120
O O4 0.398945 0.000000 0.269452
O O5 0.191618 0.500000 0.135438
O O6 0.250601 0.283160 0.231449
O O7 0.161590 0.226956 0.253534
O O8 0.203035 0.211003 0.000000
O O9 0.278020 0.719393 0.500000
O O10 0.279223 0.000000 0.346613
O O11 0.873443 0.278822 0.500000
O O12 0.895161 0.500000 0.703854
O O13 0.924173 0.175738 0.718127
O O14 0.500000 0.500000 0.729358
O O15 0.551881 0.500000 0.500000
O O16 0.046922 0.000000 0.500000
O O17 0.000000 0.000000 0.736784
#
# Coordination Sequence:
#
# PCOD8199079 Si02
#       6
#     8   8   8   8   4   4
#     4   8  15  27  40  59  89 121 157 200 241 288
#     4  10  21  34  48  71 102 133 166 206 253 301
#     4   9  18  31  48  70  95 128 169 207 246 296
#     4   9  18  33  52  74 102 135 169 205 248 298
#     4   9  16  24  38  62  89 123 163 197 242 297
#     4   9  18  32  53  81 105 127 165 215 256 293
#
# _framework density 18.741181999999998
#
# number of rings (size 3 to 8) (size 9 to 14) (size 15 to 20)
#    0.000    3.000    0.000    1.800    2.800    2.400 
#    0.000    4.000    0.000    1.200    0.000    2.800 
#    0.000    1.600    0.000    4.400    0.000    4.400 
#
# Total GULP energy -495750.257777 kJ/mol
# GULP energy per Si atom -12393.756444 kJ/mol
# Density = 1.869853 g / cm^3
# Si number density = 18.741182 Si / 1000 Ang^3
#
#
#
# Elastic Constant Matrix: (Units=GPa)
#
#
# Indices 1 2 3 4 5 6 
#
# 1 171.5662 74.7875 45.6761 0.0000 0.0000 0.0000
# 2 74.7875 94.3002 25.9667 0.0000 0.0000 0.0000
# 3 45.6761 25.9667 57.0629 0.0000 0.0000 0.0000
# 4 0.0000 0.0000 0.0000 7.8736 0.0000 0.0000
# 5 0.0000 0.0000 0.0000 0.0000 -0.4120 0.0000
# 6 0.0000 0.0000 0.0000 0.0000 0.0000 32.9644
#
#
#
# Elastic Compliance Matrix: (Units=1/GPa)
#
#
# Indices 1 2 3 4 5 6 
#
# 1 0.010035 -0.006570 -0.005043 0.000000 0.000000 0.000000
# 2 -0.006570 0.016425 -0.002215 0.000000 0.000000 0.000000
# 3 -0.005043 -0.002215 0.022569 0.000000 0.000000 0.000000
# 4 0.000000 0.000000 0.000000 0.127007 0.000000 0.000000
# 5 0.000000 0.000000 0.000000 0.000000 -2.427436 0.000000
# 6 0.000000 0.000000 0.000000 0.000000 0.000000 0.030336
#
#
# Mechanical properties :
#
#
# Convention : Reuss Voigt Hill
#
# Bulk Modulus (GPa) = 46.78824 68.42111 57.60468
# Shear Modulus (GPa) = -2.28699 19.85181 8.78241
#
# Velocity S-wave (km/s) = -1.10587 3.25816 2.16710
# Velocity P-wave (km/s) = 4.83622 7.12333 6.08814
#
# Compressibility (1/GPa) = 0.02137289
#
# Stress axis : x y z
#
# Youngs Moduli (GPa) = 99.64916 60.88275 44.30815
#
# Poissons Ratio (x) = 0.40000 0.22344
# Poissons Ratio (y) = 0.65470 0.09815
# Poissons Ratio (z) = 0.50253 0.13487
#
# Static dielectric constant tensor:
#      x y z
#    x 3.677500 0.000000 0.000000 
#    y 0.000000 3.594280 0.000000 
#    z 0.000000 0.000000 3.265340 
# 
# 
# High freq. dielectric constant tensor:
#      x y z
#    x 1.727710 0.000000 0.000000 
#    y 0.000000 1.731570 0.000000 
#    z 0.000000 0.000000 1.673210 
# 
# From -- ./inp_files/13013.got.cif
#   From: 2010.03.12/outbox.cif.g09.slc.cpg/sg47_7_cif.got.tgz:13013.got - 2010.04.14 03:12:58.
