data_PCOD8199812
_publ_section_title
;
Structure prediction by ZEFSAII (Michael W. Deem and Ramdas Pophale) SiO2 
 PCOD8199812
Probable space group: P M M M
;
_chemical_formula_sum "Si O2"
_cell_formula_units_Z 32
_cell_length_a 15.138224
_cell_length_b 8.765393
_cell_length_c 12.637894
_cell_angle_alpha 90.000000
_cell_angle_beta 90.000000
_cell_angle_gamma 90.000000
_cell_volume 1676.953531
_symmetry_space_group_name_H-M "P M M M"
_symmetry_group_IT_number 47
_symmetry_cell_setting 'orthorhombic'
loop_
_space_group_symop_operation_xyz
x,y,z
-x,-y,z
x,-y,-z
-x,y,-z
-x,-y,-z
x,y,-z
-x,y,z
x,-y,z
loop_
_atom_site_type_symbol
_atom_site_label
_atom_site_fract_x
_atom_site_fract_y
_atom_site_fract_z
Si Si1 0.821195 0.820016 0.119841
Si Si2 0.595802 0.833045 0.622073
Si Si3 0.769124 0.677398 0.675145
Si Si4 0.104397 0.818810 0.500000
Si Si5 0.000000 0.668596 0.876047
O O1 0.758856 0.740590 0.205079
O O2 0.917205 0.767613 0.159146
O O3 0.813855 0.000000 0.126254
O O4 0.799803 0.763860 0.000000
O O5 0.580888 0.856865 0.500000
O O6 0.500000 0.782137 0.671322
O O7 0.670758 0.705526 0.633754
O O8 0.623813 0.000000 0.670073
O O9 0.791468 0.500000 0.674358
O O10 0.845070 0.758095 0.604651
O O11 0.000000 0.769336 0.500000
O O12 0.112120 0.000000 0.500000
O O13 0.000000 0.500000 0.822006
O O14 0.000000 0.645585 0.000000
#
# Coordination Sequence:
#
# PCOD8199812 Si02
#       5
#     8   8   8   4   4
#     4  10  21  37  57  79 107 149 197 238 278 333
#     4   9  18  35  60  86 113 147 187 232 280 336
#     4  12  24  37  58  87 120 152 186 236 291 343
#     4  11  25  43  60  79 112 159 203 238 277 336
#     4   9  17  31  51  76 105 136 179 237 288 323
#
# _framework density 19.082224
#
# number of rings (size 3 to 8) (size 9 to 14) (size 15 to 20)
#    0.000    1.750    1.250    4.500    1.750    4.500 
#    0.000    1.250    0.000    0.750    0.000    5.250 
#    0.000    0.000    0.000    0.000    0.000    0.000 
#
# Total GULP energy -396435.242319 kJ/mol
# GULP energy per Si atom -12388.601322 kJ/mol
# Density = 1.903879 g / cm^3
# Si number density = 19.082224 Si / 1000 Ang^3
#
#
#
# Elastic Constant Matrix: (Units=GPa)
#
#
# Indices 1 2 3 4 5 6 
#
# 1 110.9018 38.2337 35.2835 0.0000 0.0000 0.0000
# 2 38.2337 104.8957 40.7968 0.0000 0.0000 0.0000
# 3 35.2835 40.7968 94.0210 0.0000 0.0000 0.0000
# 4 0.0000 0.0000 0.0000 25.6896 0.0000 0.0000
# 5 0.0000 0.0000 0.0000 0.0000 13.6074 0.0000
# 6 0.0000 0.0000 0.0000 0.0000 0.0000 19.6908
#
#
#
# Elastic Compliance Matrix: (Units=1/GPa)
#
#
# Indices 1 2 3 4 5 6 
#
# 1 0.010913 -0.002869 -0.002850 0.000000 0.000000 0.000000
# 2 -0.002869 0.012223 -0.004227 0.000000 0.000000 0.000000
# 3 -0.002850 -0.004227 0.013540 0.000000 0.000000 0.000000
# 4 0.000000 0.000000 0.000000 0.038926 0.000000 0.000000
# 5 0.000000 0.000000 0.000000 0.000000 0.073490 0.000000
# 6 0.000000 0.000000 0.000000 0.000000 0.000000 0.050785
#
#
# Mechanical properties :
#
#
# Convention : Reuss Voigt Hill
#
# Bulk Modulus (GPa) = 59.58511 59.82739 59.70625
# Shear Modulus (GPa) = 22.18630 24.83117 23.50874
#
# Velocity S-wave (km/s) = 3.41349 3.61123 3.51375
# Velocity P-wave (km/s) = 6.84318 6.98630 6.91511
#
# Compressibility (1/GPa) = 0.01678272
#
# Stress axis : x y z
#
# Youngs Moduli (GPa) = 91.63404 81.81262 73.85653
#
# Poissons Ratio (x) = 0.23473 0.21052
# Poissons Ratio (y) = 0.26291 0.31219
# Poissons Ratio (z) = 0.26119 0.34583
#
# Static dielectric constant tensor:
#      x y z
#    x 3.565870 0.000000 0.000000 
#    y 0.000000 3.504400 0.000000 
#    z 0.000000 0.000000 3.485280 
# 
# 
# High freq. dielectric constant tensor:
#      x y z
#    x 1.734380 0.000000 0.000000 
#    y 0.000000 1.746590 0.000000 
#    z 0.000000 0.000000 1.724410 
# 
# From -- ./inp_files/3433.got.cif
#   From: 2010.03.12/outbox.cif.g09.slc.cpg/sg47_2_cif.got.tgz:3433.got - 2010.04.14 03:12:58.
