data_PCOD8199165
_publ_section_title
;
Structure prediction by ZEFSAII (Michael W. Deem and Ramdas Pophale) SiO2 
 PCOD8199165
Probable space group: P M M M
;
_chemical_formula_sum "Si O2"
_cell_formula_units_Z 52
_cell_length_a 9.277683
_cell_length_b 29.811719
_cell_length_c 10.144747
_cell_angle_alpha 90.000000
_cell_angle_beta 90.000000
_cell_angle_gamma 90.000000
_cell_volume 2805.871443
_symmetry_space_group_name_H-M "P M M M"
_symmetry_group_IT_number 47
_symmetry_cell_setting 'orthorhombic'
loop_
_space_group_symop_operation_xyz
x,y,z
-x,-y,z
x,-y,-z
-x,y,-z
-x,-y,-z
x,y,-z
-x,y,z
x,-y,z
loop_
_atom_site_type_symbol
_atom_site_label
_atom_site_fract_x
_atom_site_fract_y
_atom_site_fract_z
Si Si1 0.332482 0.716456 0.653686
Si Si2 0.667258 0.204997 0.150508
Si Si3 0.665114 0.052622 0.350087
Si Si4 0.831036 0.114209 0.848936
Si Si5 0.654655 0.447596 0.000000
Si Si6 0.843282 0.366996 0.646523
Si Si7 0.327713 0.448993 0.283301
O O1 0.298939 0.727420 0.500000
O O2 0.500000 0.706134 0.672940
O O3 0.282534 0.757324 0.745961
O O4 0.250481 0.672611 0.711739
O O5 0.500000 0.193115 0.170704
O O6 0.758905 0.161425 0.185386
O O7 0.696401 0.221056 0.000000
O O8 0.703024 0.067046 0.500000
O O9 0.500000 0.065424 0.318551
O O10 0.769324 0.076732 0.247689
O O11 0.689423 0.000000 0.332874
O O12 0.000000 0.118821 0.824201
O O13 0.797333 0.100391 0.000000
O O14 0.734028 0.436219 0.136583
O O15 0.622719 0.500000 0.000000
O O16 0.500000 0.422637 0.000000
O O17 0.872108 0.350214 0.500000
O O18 0.755918 0.413594 0.628838
O O19 0.000000 0.373227 0.717176
O O20 0.500000 0.443102 0.293368
O O21 0.286858 0.500000 0.323535
#
# Coordination Sequence:
#
# PCOD8199165 Si02
#       7
#     8   8   8   8   4   8   8
#     4   9  18  34  55  75  96 127 168 211 253 301
#     4   9  18  34  55  78 104 133 169 216 265 309
#     4   9  19  36  56  78 106 142 186 234 277 316
#     4  10  21  35  52  78 112 147 180 217 265 321
#     4   7  12  26  47  69  91 115 147 189 233 273
#     4  10  21  35  49  68  98 132 162 196 241 293
#     4   9  17  31  52  74  95 123 160 200 240 285
#
# _framework density 18.532568000000001
#
# number of rings (size 3 to 8) (size 9 to 14) (size 15 to 20)
#    0.000    2.846    0.000    2.308    0.000    4.615 
#    1.385    5.769    0.000    1.385    0.000    0.000 
#    0.000    0.000    0.000    0.000    0.000    0.000 
#
# Total GULP energy -644298.552839 kJ/mol
# GULP energy per Si atom -12390.356785 kJ/mol
# Density = 1.849039 g / cm^3
# Si number density = 18.532568 Si / 1000 Ang^3
#
#
#
# Elastic Constant Matrix: (Units=GPa)
#
#
# Indices 1 2 3 4 5 6 
#
# 1 89.9497 66.0397 42.3638 0.0000 0.0000 0.0000
# 2 66.0397 112.7612 54.6742 0.0000 0.0000 0.0000
# 3 42.3638 54.6742 77.6602 0.0000 0.0000 0.0000
# 4 0.0000 0.0000 0.0000 23.1874 0.0000 0.0000
# 5 0.0000 0.0000 0.0000 0.0000 21.6645 0.0000
# 6 0.0000 0.0000 0.0000 0.0000 0.0000 11.1887
#
#
#
# Elastic Compliance Matrix: (Units=1/GPa)
#
#
# Indices 1 2 3 4 5 6 
#
# 1 0.020333 -0.009915 -0.004112 0.000000 0.000000 0.000000
# 2 -0.009915 0.018299 -0.007474 0.000000 0.000000 0.000000
# 3 -0.004112 -0.007474 0.020382 0.000000 0.000000 0.000000
# 4 0.000000 0.000000 0.000000 0.043127 0.000000 0.000000
# 5 0.000000 0.000000 0.000000 0.000000 0.046159 0.000000
# 6 0.000000 0.000000 0.000000 0.000000 0.000000 0.089376
#
#
# Mechanical properties :
#
#
# Convention : Reuss Voigt Hill
#
# Bulk Modulus (GPa) = 62.45181 67.39184 64.92183
# Shear Modulus (GPa) = 17.48171 19.02768 18.25469
#
# Velocity S-wave (km/s) = 3.07465 3.20772 3.14189
# Velocity P-wave (km/s) = 6.81000 7.08253 6.94760
#
# Compressibility (1/GPa) = 0.01601235
#
# Stress axis : x y z
#
# Youngs Moduli (GPa) = 49.18128 54.64787 49.06392
#
# Poissons Ratio (x) = 0.54181 0.20173
# Poissons Ratio (y) = 0.48761 0.36672
# Poissons Ratio (z) = 0.20221 0.40846
#
# Static dielectric constant tensor:
#      x y z
#    x 3.419120 0.000000 0.000000 
#    y 0.000000 3.239990 0.000000 
#    z 0.000000 0.000000 3.775990 
# 
# 
# High freq. dielectric constant tensor:
#      x y z
#    x 1.708570 0.000000 0.000000 
#    y 0.000000 1.709990 0.000000 
#    z 0.000000 0.000000 1.716260 
# 
# From -- ./inp_files/15476.got.cif
#   From: 2010.03.12/outbox.cif.g09.slc.cpg/sg47_8_cif.got.tgz:15476.got - 2010.04.14 03:12:58.
