data_PCOD8199856
_publ_section_title
;
Structure prediction by ZEFSAII (Michael W. Deem and Ramdas Pophale) SiO2 
 PCOD8199856
Probable space group: P M M M
;
_chemical_formula_sum "Si O2"
_cell_formula_units_Z 40
_cell_length_a 9.109878
_cell_length_b 8.979432
_cell_length_c 25.754984
_cell_angle_alpha 90.000000
_cell_angle_beta 90.000000
_cell_angle_gamma 90.000000
_cell_volume 2106.797097
_symmetry_space_group_name_H-M "P M M M"
_symmetry_group_IT_number 47
_symmetry_cell_setting 'orthorhombic'
loop_
_space_group_symop_operation_xyz
x,y,z
-x,-y,z
x,-y,-z
-x,y,-z
-x,-y,-z
x,y,-z
-x,y,z
x,-y,z
loop_
_atom_site_type_symbol
_atom_site_label
_atom_site_fract_x
_atom_site_fract_y
_atom_site_fract_z
Si Si1 0.325317 0.831626 0.000000
Si Si2 0.329608 0.326690 0.102272
Si Si3 0.828885 0.330234 0.204827
Si Si4 0.328342 0.674405 0.596035
Si Si5 0.829162 0.826214 0.689728
Si Si6 0.170571 0.824390 0.500000
O O1 0.262497 0.754012 0.948238
O O2 0.500000 0.817091 0.000000
O O3 0.270518 0.000000 0.000000
O O4 0.500000 0.290211 0.108474
O O5 0.298636 0.500000 0.094707
O O6 0.251617 0.266500 0.154046
O O7 0.779862 0.500000 0.216865
O O8 0.784496 0.226413 0.252886
O O9 0.000000 0.321805 0.193455
O O10 0.500000 0.709341 0.591328
O O11 0.296121 0.500000 0.591528
O O12 0.269848 0.733316 0.650579
O O13 0.244294 0.758108 0.550724
O O14 0.000000 0.792272 0.678506
O O15 0.794430 0.000000 0.683761
O O16 0.000000 0.781651 0.500000
O O17 0.194114 0.000000 0.500000
#
# Coordination Sequence:
#
# PCOD8199856 Si02
#       6
#     4   8   8   8   8   4
#     4   9  17  29  46  69  96 126 162 205 254 308
#     4   9  17  30  49  71  95 126 166 210 254 304
#     4   9  18  33  52  74 102 136 172 212 260 312
#     4  11  24  40  59  85 115 146 183 226 269 314
#     4  10  21  37  57  81 109 143 182 221 265 320
#     4  11  24  41  62  88 116 147 184 223 266 320
#
# _framework density 18.986166999999998
#
# number of rings (size 3 to 8) (size 9 to 14) (size 15 to 20)
#    0.000    2.200    0.000    2.700    0.000   10.000 
#    0.000    2.500    0.000    3.000    0.000    0.000 
#    0.000    0.000    0.000    0.000    0.000    0.000 
#
# Total GULP energy -496121.403371 kJ/mol
# GULP energy per Si atom -12403.035084 kJ/mol
# Density = 1.894295 g / cm^3
# Si number density = 18.986167 Si / 1000 Ang^3
#
#
#
# Elastic Constant Matrix: (Units=GPa)
#
#
# Indices 1 2 3 4 5 6 
#
# 1 78.5938 59.3002 72.6311 0.0000 0.0000 0.0000
# 2 59.3002 79.1296 60.9955 0.0000 0.0000 0.0000
# 3 72.6311 60.9955 161.0519 0.0000 0.0000 0.0000
# 4 0.0000 0.0000 0.0000 87.4200 0.0000 0.0000
# 5 0.0000 0.0000 0.0000 0.0000 38.1631 0.0000
# 6 0.0000 0.0000 0.0000 0.0000 0.0000 23.7363
#
#
#
# Elastic Compliance Matrix: (Units=1/GPa)
#
#
# Indices 1 2 3 4 5 6 
#
# 1 0.035973 -0.020412 -0.008492 0.000000 0.000000 0.000000
# 2 -0.020412 0.029431 -0.001941 0.000000 0.000000 0.000000
# 3 -0.008492 -0.001941 0.010774 0.000000 0.000000 0.000000
# 4 0.000000 0.000000 0.000000 0.011439 0.000000 0.000000
# 5 0.000000 0.000000 0.000000 0.000000 0.026203 0.000000
# 6 0.000000 0.000000 0.000000 0.000000 0.000000 0.042130
#
#
# Mechanical properties :
#
#
# Convention : Reuss Voigt Hill
#
# Bulk Modulus (GPa) = 69.02767 78.29209 73.65988
# Shear Modulus (GPa) = 22.47501 38.25378 30.36439
#
# Velocity S-wave (km/s) = 3.44431 4.49355 4.00345
# Velocity P-wave (km/s) = 7.22865 8.26127 7.76215
#
# Compressibility (1/GPa) = 0.01448694
#
# Stress axis : x y z
#
# Youngs Moduli (GPa) = 27.79862 33.97827 92.81536
#
# Poissons Ratio (x) = 0.69357 0.78822
# Poissons Ratio (y) = 0.56743 0.18013
# Poissons Ratio (z) = 0.23607 0.06594
#
# Static dielectric constant tensor:
#      x y z
#    x 3.383020 0.000000 0.000000 
#    y 0.000000 3.522580 0.000000 
#    z 0.000000 0.000000 3.777020 
# 
# 
# High freq. dielectric constant tensor:
#      x y z
#    x 1.723010 0.000000 0.000000 
#    y 0.000000 1.740820 0.000000 
#    z 0.000000 0.000000 1.755790 
# 
# From -- ./inp_files/33085.got.cif
#   From: 2010.03.12/outbox.cif.g09.slc.cpg/sg47_17_cif.got.tgz:33085.got - 2010.04.14 03:12:58.
