data_PCOD8199928
_publ_section_title
;
Structure prediction by ZEFSAII (Michael W. Deem and Ramdas Pophale) SiO2 
 PCOD8199928
Probable space group: P M M M
;
_chemical_formula_sum "Si O2"
_cell_formula_units_Z 48
_cell_length_a 9.086291
_cell_length_b 9.657527
_cell_length_c 27.502220
_cell_angle_alpha 90.000000
_cell_angle_beta 90.000000
_cell_angle_gamma 90.000000
_cell_volume 2413.350076
_symmetry_space_group_name_H-M "P M M M"
_symmetry_group_IT_number 47
_symmetry_cell_setting 'orthorhombic'
loop_
_space_group_symop_operation_xyz
x,y,z
-x,-y,z
x,-y,-z
-x,y,-z
-x,-y,-z
x,y,-z
-x,y,z
x,-y,z
loop_
_atom_site_type_symbol
_atom_site_label
_atom_site_fract_x
_atom_site_fract_y
_atom_site_fract_z
Si Si1 0.328152 0.341692 0.687852
Si Si2 0.326956 0.839076 0.220964
Si Si3 0.173485 0.341999 0.411024
Si Si4 0.831857 0.650281 0.145218
Si Si5 0.162979 0.000000 0.056911
Si Si6 0.325789 0.724937 0.055622
Si Si7 0.824779 0.157475 0.500000
O O1 0.500000 0.325047 0.678007
O O2 0.288387 0.500000 0.701926
O O3 0.274940 0.239597 0.730414
O O4 0.245331 0.294766 0.639331
O O5 0.500000 0.820286 0.212823
O O6 0.245687 0.770026 0.175749
O O7 0.282431 0.000000 0.224824
O O8 0.217737 0.500000 0.424288
O O9 0.233511 0.239435 0.452713
O O10 0.000000 0.328462 0.405235
O O11 0.823980 0.500000 0.171940
O O12 0.749894 0.622259 0.093629
O O13 0.000000 0.694476 0.135864
O O14 0.259962 0.870835 0.072805
O O15 0.000000 0.000000 0.081523
O O16 0.140699 0.000000 0.000000
O O17 0.500000 0.725720 0.061849
O O18 0.283829 0.685917 0.000000
O O19 0.000000 0.157361 0.500000
O O20 0.763701 0.000000 0.500000
#
# Coordination Sequence:
#
# PCOD8199928 Si02
#       7
#     8   8   8   8   4   8   4
#     4   9  18  34  56  81 110 144 181 224 278 337
#     4  10  22  40  62  86 112 145 185 230 281 340
#     4   9  17  30  50  75 103 139 183 228 272 323
#     4  11  25  42  60  84 115 151 188 231 285 339
#     4   9  17  31  53  81 113 147 181 221 269 318
#     4  10  21  37  59  86 115 149 189 230 275 332
#     4   9  17  29  46  71 104 142 184 229 276 324
#
# _framework density 19.889362999999999
#
# number of rings (size 3 to 8) (size 9 to 14) (size 15 to 20)
#    0.000    2.333    0.000    2.000    1.167    7.000 
#    0.000    3.750    0.000    2.500    0.000    0.000 
#    0.000    0.000    0.000    0.000    0.000    0.000 
#
# Total GULP energy -595056.544408 kJ/mol
# GULP energy per Si atom -12397.011342 kJ/mol
# Density = 1.984409 g / cm^3
# Si number density = 19.889363 Si / 1000 Ang^3
#
#
#
# Elastic Constant Matrix: (Units=GPa)
#
#
# Indices 1 2 3 4 5 6 
#
# 1 65.2566 41.2992 55.6964 0.0000 0.0000 0.0000
# 2 41.2992 131.0922 76.6597 0.0000 0.0000 0.0000
# 3 55.6964 76.6597 149.9472 0.0000 0.0000 0.0000
# 4 0.0000 0.0000 0.0000 32.9036 0.0000 0.0000
# 5 0.0000 0.0000 0.0000 0.0000 34.5123 0.0000
# 6 0.0000 0.0000 0.0000 0.0000 0.0000 29.3184
#
#
#
# Elastic Compliance Matrix: (Units=1/GPa)
#
#
# Indices 1 2 3 4 5 6 
#
# 1 0.023376 -0.003262 -0.007015 0.000000 0.000000 0.000000
# 2 -0.003262 0.011337 -0.004584 0.000000 0.000000 0.000000
# 3 -0.007015 -0.004584 0.011618 0.000000 0.000000 0.000000
# 4 0.000000 0.000000 0.000000 0.030392 0.000000 0.000000
# 5 0.000000 0.000000 0.000000 0.000000 0.028975 0.000000
# 6 0.000000 0.000000 0.000000 0.000000 0.000000 0.034108
#
#
# Mechanical properties :
#
#
# Convention : Reuss Voigt Hill
#
# Bulk Modulus (GPa) = 60.21077 77.06741 68.63909
# Shear Modulus (GPa) = 28.56090 30.85624 29.70857
#
# Velocity S-wave (km/s) = 3.79355 3.94305 3.86902
# Velocity P-wave (km/s) = 7.03752 7.71766 7.38542
#
# Compressibility (1/GPa) = 0.01660832
#
# Stress axis : x y z
#
# Youngs Moduli (GPa) = 42.77908 88.21004 86.07148
#
# Poissons Ratio (x) = 0.28775 0.60379
# Poissons Ratio (y) = 0.13955 0.39456
# Poissons Ratio (z) = 0.30010 0.40436
#
# Static dielectric constant tensor:
#      x y z
#    x 3.454070 0.000000 0.000000 
#    y 0.000000 1.512600 0.000000 
#    z 0.000000 0.000000 3.623440 
# 
# 
# High freq. dielectric constant tensor:
#      x y z
#    x 1.762980 0.000000 0.000000 
#    y 0.000000 1.781820 0.000000 
#    z 0.000000 0.000000 1.773260 
# 
# From -- ./inp_files/34144.got.cif
#   From: 2010.03.12/outbox.cif.g09.slc.cpg/sg47_18_cif.got.tgz:34144.got - 2010.04.14 03:12:58.
