data_PCOD8199968
_publ_section_title
;
Structure prediction by ZEFSAII (Michael W. Deem and Ramdas Pophale) SiO2 
 PCOD8199968
Probable space group: P M M M
;
_chemical_formula_sum "Si O2"
_cell_formula_units_Z 48
_cell_length_a 8.978096
_cell_length_b 29.430292
_cell_length_c 9.913174
_cell_angle_alpha 90.000000
_cell_angle_beta 90.000000
_cell_angle_gamma 90.000000
_cell_volume 2619.338010
_symmetry_space_group_name_H-M "P M M M"
_symmetry_group_IT_number 47
_symmetry_cell_setting 'orthorhombic'
loop_
_space_group_symop_operation_xyz
x,y,z
-x,-y,z
x,-y,-z
-x,y,-z
-x,-y,-z
x,y,-z
-x,y,z
x,-y,z
loop_
_atom_site_type_symbol
_atom_site_label
_atom_site_fract_x
_atom_site_fract_y
_atom_site_fract_z
Si Si1 0.665894 0.636862 0.660498
Si Si2 0.173539 0.810376 0.842160
Si Si3 0.822824 0.053074 0.500000
Si Si4 0.167448 0.450282 0.660398
Si Si5 0.322584 0.097847 0.242970
Si Si6 0.834224 0.947277 0.000000
Si Si7 0.174850 0.727571 0.653218
O O1 0.668637 0.634252 0.500000
O O2 0.500000 0.640969 0.717389
O O3 0.735509 0.590671 0.722327
O O4 0.755114 0.681070 0.708802
O O5 0.274118 0.850974 0.787486
O O6 0.224244 0.767021 0.755287
O O7 0.000000 0.821655 0.817859
O O8 0.205694 0.801535 0.000000
O O9 0.753903 0.079268 0.624472
O O10 0.000000 0.058391 0.500000
O O11 0.777086 0.000000 0.500000
O O12 0.167957 0.447149 0.500000
O O13 0.230475 0.500000 0.704744
O O14 0.000000 0.444617 0.714681
O O15 0.500000 0.095060 0.254503
O O16 0.263193 0.065525 0.127087
O O17 0.000000 0.923540 0.000000
O O18 0.862237 0.000000 0.000000
O O19 0.228768 0.738986 0.500000
O O20 0.000000 0.720524 0.655034
#
# Coordination Sequence:
#
# PCOD8199968 Si02
#       7
#     8   8   4   8   8   4   8
#     4   9  16  25  38  60  91 126 163 209 262 312
#     4  10  21  38  59  81 109 145 184 225 269 324
#     4  11  25  45  67  89 117 155 193 227 268 325
#     4   8  13  21  34  53  81 121 165 206 249 302
#     4  12  25  40  61  91 122 150 182 229 283 327
#     4  11  23  41  65  89 115 153 195 227 264 323
#     4   9  18  32  51  74  98 133 178 220 263 315
#
# _framework density 18.325240999999998
#
# number of rings (size 3 to 8) (size 9 to 14) (size 15 to 20)
#    0.000    2.167    0.833    3.500    1.167    6.333 
#    0.000    1.667    0.000    0.000    0.000    0.000 
#    0.000    0.667    0.000    7.667    0.000    9.833 
#
# Total GULP energy -595044.535497 kJ/mol
# GULP energy per Si atom -12396.761156 kJ/mol
# Density = 1.828353 g / cm^3
# Si number density = 18.325241 Si / 1000 Ang^3
#
#
#
# Elastic Constant Matrix: (Units=GPa)
#
#
# Indices 1 2 3 4 5 6 
#
# 1 90.2341 60.0954 38.4630 0.0000 0.0000 0.0000
# 2 60.0954 151.3105 54.4639 0.0000 0.0000 0.0000
# 3 38.4630 54.4639 96.0020 0.0000 0.0000 0.0000
# 4 0.0000 0.0000 0.0000 20.6084 0.0000 0.0000
# 5 0.0000 0.0000 0.0000 0.0000 -86.9832 0.0000
# 6 0.0000 0.0000 0.0000 0.0000 0.0000 10.9312
#
#
#
# Elastic Compliance Matrix: (Units=1/GPa)
#
#
# Indices 1 2 3 4 5 6 
#
# 1 0.015960 -0.005073 -0.003516 0.000000 0.000000 0.000000
# 2 -0.005073 0.009917 -0.003594 0.000000 0.000000 0.000000
# 3 -0.003516 -0.003594 0.013864 0.000000 0.000000 0.000000
# 4 0.000000 0.000000 0.000000 0.048524 0.000000 0.000000
# 5 0.000000 0.000000 0.000000 0.000000 -0.011496 0.000000
# 6 0.000000 0.000000 0.000000 0.000000 0.000000 0.091482
#
#
# Mechanical properties :
#
#
# Convention : Reuss Voigt Hill
#
# Bulk Modulus (GPa) = 65.04049 71.51014 68.27531
# Shear Modulus (GPa) = 25.28560 1.21289 13.24924
#
# Velocity S-wave (km/s) = 3.71863 0.81444 2.69179
# Velocity P-wave (km/s) = 7.34894 6.32391 6.85561
#
# Compressibility (1/GPa) = 0.01537504
#
# Stress axis : x y z
#
# Youngs Moduli (GPa) = 62.65785 100.83354 72.12901
#
# Poissons Ratio (x) = 0.51153 0.25362
# Poissons Ratio (y) = 0.31786 0.25922
# Poissons Ratio (z) = 0.22032 0.36238
#
# Static dielectric constant tensor:
#      x y z
#    x 3.483040 0.000000 0.000000 
#    y 0.000000 3.647140 0.000000 
#    z 0.000000 0.000000 3.165320 
# 
# 
# High freq. dielectric constant tensor:
#      x y z
#    x 1.712020 0.000000 0.000000 
#    y 0.000000 1.727310 0.000000 
#    z 0.000000 0.000000 1.671350 
# 
# From -- ./inp_files/2740.got.cif
#   From: 2010.03.12/outbox.cif.g09.slc.cpg/sg47_2_cif.got.tgz:2740.got - 2010.04.14 03:12:58.
