data_PCOD8199809
_publ_section_title
;
Structure prediction by ZEFSAII (Michael W. Deem and Ramdas Pophale) SiO2 
 PCOD8199809
Probable space group: P M M M
;
_chemical_formula_sum "Si O2"
_cell_formula_units_Z 64
_cell_length_a 15.547704
_cell_length_b 8.774028
_cell_length_c 24.064937
_cell_angle_alpha 90.000000
_cell_angle_beta 90.000000
_cell_angle_gamma 90.000000
_cell_volume 3282.842211
_symmetry_space_group_name_H-M "P M M M"
_symmetry_group_IT_number 47
_symmetry_cell_setting 'orthorhombic'
loop_
_space_group_symop_operation_xyz
x,y,z
-x,-y,z
x,-y,-z
-x,y,-z
-x,-y,-z
x,y,-z
-x,y,z
x,-y,z
loop_
_atom_site_type_symbol
_atom_site_label
_atom_site_fract_x
_atom_site_fract_y
_atom_site_fract_z
Si Si1 0.150684 0.321154 0.060003
Si Si2 0.592957 0.179449 0.825401
Si Si3 0.598616 0.823890 0.564471
Si Si4 0.248320 0.819475 0.245173
Si Si5 0.746131 0.320231 0.634366
Si Si6 0.095374 0.680945 0.437751
Si Si7 0.096394 0.677532 0.177690
Si Si8 0.669245 0.825753 0.061052
O O1 0.137355 0.500000 0.057714
O O2 0.100956 0.257959 0.114179
O O3 0.250317 0.284523 0.067704
O O4 0.117997 0.252982 0.000000
O O5 0.500000 0.246571 0.806391
O O6 0.671100 0.249540 0.789644
O O7 0.602528 0.218343 0.890796
O O8 0.592749 0.000000 0.816078
O O9 0.614840 0.787871 0.500000
O O10 0.500000 0.786502 0.580253
O O11 0.660192 0.717197 0.600370
O O12 0.618830 0.000000 0.577445
O O13 0.257225 0.760946 0.307045
O O14 0.159408 0.766667 0.218228
O O15 0.249901 0.000000 0.244915
O O16 0.752488 0.500000 0.643116
O O17 0.830349 0.255143 0.602423
O O18 0.111492 0.744196 0.500000
O O19 0.100199 0.500000 0.439004
O O20 0.000000 0.732571 0.417035
O O21 0.121778 0.500000 0.178963
O O22 0.000000 0.703627 0.199919
O O23 0.701096 0.000000 0.068885
O O24 0.626234 0.804517 0.000000
#
# Coordination Sequence:
#
# PCOD8199809 Si02
#       8
#     8   8   8   8   8   8   8   8
#     4   9  17  30  51  78 107 137 169 212 271 336
#     4   9  18  33  53  76 101 133 175 222 272 323
#     4   9  19  37  60  86 118 155 191 228 276 333
#     4  11  23  39  56  76 106 146 189 232 276 326
#     4  11  22  35  56  85 114 146 187 234 280 328
#     4   8  15  30  53  81 111 140 170 208 260 321
#     4  10  21  37  57  79 105 140 182 229 280 332
#     4   9  16  28  50  78 104 130 165 213 268 326
#
# _framework density 19.495301999999999
#
# number of rings (size 3 to 8) (size 9 to 14) (size 15 to 20)
#    0.000    2.500    1.250    1.875    0.000    2.750 
#    0.000    5.625    0.000    4.125    0.000    8.750 
#    0.000    0.000    0.000    0.000    0.000    0.000 
#
# Total GULP energy -793204.425415 kJ/mol
# GULP energy per Si atom -12393.819147 kJ/mol
# Density = 1.945093 g / cm^3
# Si number density = 19.495302 Si / 1000 Ang^3
#
#
#
# Elastic Constant Matrix: (Units=GPa)
#
#
# Indices 1 2 3 4 5 6 
#
# 1 134.7346 24.4578 74.1668 0.0000 0.0000 0.0000
# 2 24.4578 27.6412 22.7258 0.0000 0.0000 0.0000
# 3 74.1668 22.7258 122.6405 0.0000 0.0000 0.0000
# 4 0.0000 0.0000 0.0000 25.6947 0.0000 0.0000
# 5 0.0000 0.0000 0.0000 0.0000 10.5840 0.0000
# 6 0.0000 0.0000 0.0000 0.0000 0.0000 24.0724
#
#
#
# Elastic Compliance Matrix: (Units=1/GPa)
#
#
# Indices 1 2 3 4 5 6 
#
# 1 0.011767 -0.005381 -0.006119 0.000000 0.000000 0.000000
# 2 -0.005381 0.045141 -0.005111 0.000000 0.000000 0.000000
# 3 -0.006119 -0.005111 0.012801 0.000000 0.000000 0.000000
# 4 0.000000 0.000000 0.000000 0.038918 0.000000 0.000000
# 5 0.000000 0.000000 0.000000 0.000000 0.094483 0.000000
# 6 0.000000 0.000000 0.000000 0.000000 0.000000 0.041541
#
#
# Mechanical properties :
#
#
# Convention : Reuss Voigt Hill
#
# Bulk Modulus (GPa) = 27.40618 58.63524 43.02071
# Shear Modulus (GPa) = 17.23924 22.98128 20.11026
#
# Velocity S-wave (km/s) = 2.97690 3.43711 3.21525
# Velocity P-wave (km/s) = 5.08963 6.77447 5.99157
#
# Compressibility (1/GPa) = 0.03648812
#
# Stress axis : x y z
#
# Youngs Moduli (GPa) = 84.98263 22.15282 78.11627
#
# Poissons Ratio (x) = 0.11920 0.47800
# Poissons Ratio (y) = 0.45729 0.39923
# Poissons Ratio (z) = 0.52001 0.11322
#
# Static dielectric constant tensor:
#      x y z
#    x 3.722200 0.000000 0.000000 
#    y 0.000000 3.230070 0.000000 
#    z 0.000000 0.000000 3.854590 
# 
# 
# High freq. dielectric constant tensor:
#      x y z
#    x 1.760500 0.000000 0.000000 
#    y 0.000000 1.723020 0.000000 
#    z 0.000000 0.000000 1.766390 
# 
# From -- ./inp_files/25598.got.cif
#   From: 2010.03.12/outbox.cif.g09.slc.cpg/sg47_13_cif.got.tgz:25598.got - 2010.04.14 03:12:58.
