data_PCOD8199567
_publ_section_title
;
Structure prediction by ZEFSAII (Michael W. Deem and Ramdas Pophale) SiO2 
 PCOD8199567
Probable space group: P M M M
;
_chemical_formula_sum "Si O2"
_cell_formula_units_Z 56
_cell_length_a 9.482382
_cell_length_b 19.220572
_cell_length_c 15.710510
_cell_angle_alpha 90.000000
_cell_angle_beta 90.000000
_cell_angle_gamma 90.000000
_cell_volume 2863.347373
_symmetry_space_group_name_H-M "P M M M"
_symmetry_group_IT_number 47
_symmetry_cell_setting 'orthorhombic'
loop_
_space_group_symop_operation_xyz
x,y,z
-x,-y,z
x,-y,-z
-x,y,-z
-x,-y,-z
x,y,-z
-x,y,z
x,-y,z
loop_
_atom_site_type_symbol
_atom_site_label
_atom_site_fract_x
_atom_site_fract_y
_atom_site_fract_z
Si Si1 0.659102 0.795664 0.852063
Si Si2 0.657089 0.201467 0.340907
Si Si3 0.164491 0.077736 0.402205
Si Si4 0.841208 0.921346 0.899608
Si Si5 0.837840 0.329605 0.094333
Si Si6 0.835706 0.419439 0.255336
Si Si7 0.334853 0.652388 0.596222
O O1 0.500000 0.799884 0.888118
O O2 0.658941 0.770462 0.755019
O O3 0.728905 0.871506 0.855485
O O4 0.747263 0.740679 0.906394
O O5 0.500000 0.178853 0.368765
O O6 0.755845 0.134715 0.347258
O O7 0.710026 0.266393 0.397443
O O8 0.207607 0.087134 0.500000
O O9 0.000000 0.090066 0.389331
O O10 0.205692 0.000000 0.371354
O O11 0.000000 0.902788 0.869411
O O12 0.804373 0.000000 0.872140
O O13 0.829919 0.912779 0.000000
O O14 0.785873 0.381963 0.168080
O O15 0.000000 0.308829 0.110296
O O16 0.820317 0.363897 0.000000
O O17 0.802607 0.500000 0.241767
O O18 0.751872 0.393679 0.337729
O O19 0.000000 0.405654 0.272594
O O20 0.302111 0.627023 0.500000
O O21 0.500000 0.644539 0.617828
#
# Coordination Sequence:
#
# PCOD8199567 Si02
#       7
#     8   8   8   8   8   8   8
#     4  11  22  35  54  81 113 147 187 239 290 336
#     4  10  21  36  54  78 110 147 189 236 283 335
#     4   9  19  35  53  76 107 142 184 235 288 341
#     4   9  19  36  55  75 104 145 191 236 284 341
#     4  10  21  38  61  87 116 153 194 233 279 341
#     4  10  22  40  62  90 122 152 186 233 285 337
#     4  10  21  39  62  86 116 156 198 237 282 339
#
# _framework density 19.55753
#
# number of rings (size 3 to 8) (size 9 to 14) (size 15 to 20)
#    0.000    2.143    1.429    2.143    0.000    7.143 
#    0.000    7.143    0.000    0.000    0.000    2.000 
#    0.000    0.000    0.000    0.000    0.000    0.000 
#
# Total GULP energy -694400.285993 kJ/mol
# GULP energy per Si atom -12400.005107 kJ/mol
# Density = 1.951302 g / cm^3
# Si number density = 19.557530 Si / 1000 Ang^3
#
#
#
# Elastic Constant Matrix: (Units=GPa)
#
#
# Indices 1 2 3 4 5 6 
#
# 1 82.3025 57.7643 42.3251 0.0000 0.0000 0.0000
# 2 57.7643 112.8431 48.1327 0.0000 0.0000 0.0000
# 3 42.3251 48.1327 103.2115 0.0000 0.0000 0.0000
# 4 0.0000 0.0000 0.0000 26.5183 0.0000 0.0000
# 5 0.0000 0.0000 0.0000 0.0000 27.4312 0.0000
# 6 0.0000 0.0000 0.0000 0.0000 0.0000 24.9229
#
#
#
# Elastic Compliance Matrix: (Units=1/GPa)
#
#
# Indices 1 2 3 4 5 6 
#
# 1 0.020429 -0.008594 -0.004370 0.000000 0.000000 0.000000
# 2 -0.008594 0.014677 -0.003321 0.000000 0.000000 0.000000
# 3 -0.004370 -0.003321 0.013029 0.000000 0.000000 0.000000
# 4 0.000000 0.000000 0.000000 0.037710 0.000000 0.000000
# 5 0.000000 0.000000 0.000000 0.000000 0.036455 0.000000
# 6 0.000000 0.000000 0.000000 0.000000 0.000000 0.040124
#
#
# Mechanical properties :
#
#
# Convention : Reuss Voigt Hill
#
# Bulk Modulus (GPa) = 64.23696 66.08905 65.16301
# Shear Modulus (GPa) = 24.97727 25.78348 25.38038
#
# Velocity S-wave (km/s) = 3.57756 3.63483 3.60631
# Velocity P-wave (km/s) = 7.06977 7.17506 7.12261
#
# Compressibility (1/GPa) = 0.01556736
#
# Stress axis : x y z
#
# Youngs Moduli (GPa) = 48.94990 68.13210 76.74908
#
# Poissons Ratio (x) = 0.58550 0.33539
# Poissons Ratio (y) = 0.42066 0.25486
# Poissons Ratio (z) = 0.21391 0.22625
#
# Static dielectric constant tensor:
#      x y z
#    x 3.535610 0.000000 0.000000 
#    y 0.000000 3.481320 0.000000 
#    z 0.000000 0.000000 3.592070 
# 
# 
# High freq. dielectric constant tensor:
#      x y z
#    x 1.754160 0.000000 0.000000 
#    y 0.000000 1.755510 0.000000 
#    z 0.000000 0.000000 1.767400 
# 
# From -- ./inp_files/7188.got.cif
#   From: 2010.03.12/outbox.cif.g09.slc.cpg/sg47_4_cif.got.tgz:7188.got - 2010.04.14 03:12:58.
