data_PCOD8199027
_publ_section_title
;
Structure prediction by ZEFSAII (Michael W. Deem and Ramdas Pophale) SiO2 
 PCOD8199027
Probable space group: P M M M
;
_chemical_formula_sum "Si O2"
_cell_formula_units_Z 60
_cell_length_a 14.966910
_cell_length_b 14.269264
_cell_length_c 15.271976
_cell_angle_alpha 90.000000
_cell_angle_beta 90.000000
_cell_angle_gamma 90.000000
_cell_volume 3261.586892
_symmetry_space_group_name_H-M "P M M M"
_symmetry_group_IT_number 47
_symmetry_cell_setting 'orthorhombic'
loop_
_space_group_symop_operation_xyz
x,y,z
-x,-y,z
x,-y,-z
-x,y,-z
-x,-y,-z
x,y,-z
-x,y,z
x,-y,z
loop_
_atom_site_type_symbol
_atom_site_label
_atom_site_fract_x
_atom_site_fract_y
_atom_site_fract_z
Si Si1 0.899050 0.889769 0.900117
Si Si2 0.605559 0.603201 0.096503
Si Si3 0.102151 0.109639 0.600487
Si Si4 0.785984 0.203000 0.248060
Si Si5 0.400326 0.739761 0.249596
Si Si6 0.178032 0.394700 0.311577
Si Si7 0.000000 0.389499 0.595438
Si Si8 0.359045 0.605042 0.598909
O O1 0.826577 0.841318 0.838817
O O2 0.000000 0.859388 0.873992
O O3 0.889032 0.000000 0.888428
O O4 0.879325 0.860351 0.000000
O O5 0.500000 0.596569 0.094622
O O6 0.644268 0.500000 0.120981
O O7 0.634495 0.677735 0.168398
O O8 0.640799 0.633574 0.000000
O O9 0.129643 0.129564 0.500000
O O10 0.167984 0.165069 0.664245
O O11 0.000000 0.142154 0.617156
O O12 0.110816 0.000000 0.621707
O O13 0.678467 0.182021 0.256947
O O14 0.796848 0.316273 0.239680
O O15 0.500000 0.783431 0.233921
O O16 0.408077 0.675983 0.336027
O O17 0.168537 0.500000 0.270701
O O18 0.252452 0.394651 0.387243
O O19 0.086725 0.357017 0.352824
O O20 0.000000 0.500000 0.584008
O O21 0.000000 0.340951 0.500000
O O22 0.379619 0.637109 0.500000
O O23 0.396257 0.500000 0.615447
#
# Coordination Sequence:
#
# PCOD8199027 Si02
#       8
#     8   8   8   8   8   8   4   8
#     4   9  19  37  62  90 113 129 156 208 268 322
#     4   8  14  27  48  69  88 118 165 221 275 313
#     4   9  19  36  58  85 110 126 152 208 277 334
#     4  11  21  32  55  79 103 143 181 211 257 307
#     4  10  21  33  44  67 103 138 175 217 258 301
#     4   9  19  31  42  66 103 142 182 218 249 291
#     4   9  16  26  40  58  88 133 176 212 250 291
#     4   9  17  30  46  62  87 129 182 235 277 306
#
# _framework density 18.395952000000001
#
# number of rings (size 3 to 8) (size 9 to 14) (size 15 to 20)
#    0.000    2.733    0.000    2.800    1.867    7.467 
#    0.000    0.667    0.000    2.000    0.000    2.800 
#    0.000    0.000    0.000    0.000    0.000    0.000 
#
# Total GULP energy -743524.887971 kJ/mol
# GULP energy per Si atom -12392.081466 kJ/mol
# Density = 1.835408 g / cm^3
# Si number density = 18.395952 Si / 1000 Ang^3
#
#
#
# Elastic Constant Matrix: (Units=GPa)
#
#
# Indices 1 2 3 4 5 6 
#
# 1 129.5583 35.5198 44.5393 0.0000 0.0000 0.0000
# 2 35.5198 47.8207 34.4770 0.0000 0.0000 0.0000
# 3 44.5393 34.4770 102.1621 0.0000 0.0000 0.0000
# 4 0.0000 0.0000 0.0000 23.8297 0.0000 0.0000
# 5 0.0000 0.0000 0.0000 0.0000 22.1119 0.0000
# 6 0.0000 0.0000 0.0000 0.0000 0.0000 16.9397
#
#
#
# Elastic Compliance Matrix: (Units=1/GPa)
#
#
# Indices 1 2 3 4 5 6 
#
# 1 0.010148 -0.005746 -0.002485 0.000000 0.000000 0.000000
# 2 -0.005746 0.030889 -0.007919 0.000000 0.000000 0.000000
# 3 -0.002485 -0.007919 0.013544 0.000000 0.000000 0.000000
# 4 0.000000 0.000000 0.000000 0.041964 0.000000 0.000000
# 5 0.000000 0.000000 0.000000 0.000000 0.045225 0.000000
# 6 0.000000 0.000000 0.000000 0.000000 0.000000 0.059033
#
#
# Mechanical properties :
#
#
# Convention : Reuss Voigt Hill
#
# Bulk Modulus (GPa) = 44.88178 56.51259 50.69718
# Shear Modulus (GPa) = 20.78737 23.57661 22.18199
#
# Velocity S-wave (km/s) = 3.36519 3.58385 3.47624
# Velocity P-wave (km/s) = 6.28887 6.92186 6.61295
#
# Compressibility (1/GPa) = 0.02228076
#
# Stress axis : x y z
#
# Youngs Moduli (GPa) = 98.53944 32.37413 73.83199
#
# Poissons Ratio (x) = 0.18603 0.18348
# Poissons Ratio (y) = 0.56622 0.58468
# Poissons Ratio (z) = 0.24488 0.25637
#
# Static dielectric constant tensor:
#      x y z
#    x 3.483780 0.000000 0.000000 
#    y 0.000000 3.251710 0.000000 
#    z 0.000000 0.000000 3.474250 
# 
# 
# High freq. dielectric constant tensor:
#      x y z
#    x 1.710060 0.000000 0.000000 
#    y 0.000000 1.684020 0.000000 
#    z 0.000000 0.000000 1.708250 
# 
# From -- ./inp_files/23961.got.cif
#   From: 2010.03.12/outbox.cif.g09.slc.cpg/sg47_12_cif.got.tgz:23961.got - 2010.04.14 03:12:58.
