data_PCOD8199924
_publ_section_title
;
Structure prediction by ZEFSAII (Michael W. Deem and Ramdas Pophale) SiO2 
 PCOD8199924
Probable space group: P M M M
;
_chemical_formula_sum "Si O2"
_cell_formula_units_Z 48
_cell_length_a 17.230104
_cell_length_b 15.540717
_cell_length_c 8.485442
_cell_angle_alpha 90.000000
_cell_angle_beta 90.000000
_cell_angle_gamma 90.000000
_cell_volume 2272.131277
_symmetry_space_group_name_H-M "P M M M"
_symmetry_group_IT_number 47
_symmetry_cell_setting 'orthorhombic'
loop_
_space_group_symop_operation_xyz
x,y,z
-x,-y,z
x,-y,-z
-x,y,-z
-x,-y,-z
x,y,-z
-x,y,z
x,-y,z
loop_
_atom_site_type_symbol
_atom_site_label
_atom_site_fract_x
_atom_site_fract_y
_atom_site_fract_z
Si Si1 0.086501 0.399979 0.500000
Si Si2 0.413015 0.596331 0.185987
Si Si3 0.166355 0.170952 0.824615
Si Si4 0.680727 0.752880 0.679955
Si Si5 0.911194 0.339718 0.828539
Si Si6 0.408737 0.904376 0.821557
Si Si7 0.088169 0.000000 0.188917
O O1 0.079864 0.500000 0.500000
O O2 0.129552 0.373821 0.334345
O O3 0.000000 0.357643 0.500000
O O4 0.500000 0.619849 0.249008
O O5 0.389958 0.500000 0.246879
O O6 0.350001 0.667219 0.235038
O O7 0.415289 0.595423 0.000000
O O8 0.234127 0.218895 0.732049
O O9 0.094138 0.236461 0.828098
O O10 0.135101 0.083026 0.745850
O O11 0.197142 0.150164 0.000000
O O12 0.683065 0.727678 0.500000
O O13 0.625118 0.834333 0.704361
O O14 0.000000 0.369540 0.825062
O O15 0.875596 0.372710 0.000000
O O16 0.500000 0.904144 0.802474
O O17 0.376651 0.000000 0.780187
O O18 0.385012 0.880128 0.000000
O O19 0.000000 0.000000 0.254758
O O20 0.085436 0.000000 0.000000
#
# Coordination Sequence:
#
# PCOD8199924 Si02
#       7
#     4   8   8   8   8   8   4
#     4   9  18  32  54  83 113 145 180 230 291 347
#     4   9  19  39  67  93 116 150 201 256 304 356
#     4  10  21  37  59  85 115 153 195 241 297 354
#     4  12  25  36  53  84 125 162 194 239 298 361
#     4   9  18  34  58  84 111 148 195 243 294 356
#     4   9  19  37  60  82 107 148 202 249 289 343
#     4   9  18  36  65  95 116 143 196 257 303 351
#
# _framework density 21.125539
#
# number of rings (size 3 to 8) (size 9 to 14) (size 15 to 20)
#    0.000    2.333    0.000    3.500    2.333    5.667 
#    0.000    4.167    0.000    1.500    0.000    0.000 
#    0.000    0.000    0.000    0.000    0.000    0.000 
#
# Total GULP energy -594629.137107 kJ/mol
# GULP energy per Si atom -12388.107023 kJ/mol
# Density = 2.107746 g / cm^3
# Si number density = 21.125539 Si / 1000 Ang^3
#
#
#
# Elastic Constant Matrix: (Units=GPa)
#
#
# Indices 1 2 3 4 5 6 
#
# 1 77.0280 52.6163 18.0782 0.0000 0.0000 0.0000
# 2 52.6163 127.0840 39.6565 0.0000 0.0000 0.0000
# 3 18.0782 39.6565 118.4847 0.0000 0.0000 0.0000
# 4 0.0000 0.0000 0.0000 9.1362 0.0000 0.0000
# 5 0.0000 0.0000 0.0000 0.0000 -1.4112 0.0000
# 6 0.0000 0.0000 0.0000 0.0000 0.0000 19.8164
#
#
#
# Elastic Compliance Matrix: (Units=1/GPa)
#
#
# Indices 1 2 3 4 5 6 
#
# 1 0.018110 -0.007410 -0.000283 0.000000 0.000000 0.000000
# 2 -0.007410 0.011818 -0.002825 0.000000 0.000000 0.000000
# 3 -0.000283 -0.002825 0.009429 0.000000 0.000000 0.000000
# 4 0.000000 0.000000 0.000000 0.109455 0.000000 0.000000
# 5 0.000000 0.000000 0.000000 0.000000 -0.708628 0.000000
# 6 0.000000 0.000000 0.000000 0.000000 0.000000 0.050463
#
#
# Mechanical properties :
#
#
# Convention : Reuss Voigt Hill
#
# Bulk Modulus (GPa) = 54.58154 60.36653 57.47404
# Shear Modulus (GPa) = -10.36893 19.65800 4.64453
#
# Velocity S-wave (km/s) = -2.21786 3.05377 1.48436
# Velocity P-wave (km/s) = 4.39708 6.40868 5.49570
#
# Compressibility (1/GPa) = 0.01832121
#
# Stress axis : x y z
#
# Youngs Moduli (GPa) = 55.21739 84.61538 106.06011
#
# Poissons Ratio (x) = 0.62698 0.03004
# Poissons Ratio (y) = 0.40915 0.29961
# Poissons Ratio (z) = 0.01564 0.23903
#
# Static dielectric constant tensor:
#      x y z
#    x 3.693020 0.000000 0.000000 
#    y 0.000000 4.309370 0.000000 
#    z 0.000000 0.000000 3.938140 
# 
# 
# High freq. dielectric constant tensor:
#      x y z
#    x 1.804510 0.000000 0.000000 
#    y 0.000000 1.833710 0.000000 
#    z 0.000000 0.000000 1.814340 
# 
# From -- ./inp_files/9236.got.cif
#   From: 2010.03.12/outbox.cif.g09.slc.cpg/sg47_5_cif.got.tgz:9236.got - 2010.04.14 03:12:58.
