data_PCOD8199840
_publ_section_title
;
Structure prediction by ZEFSAII (Michael W. Deem and Ramdas Pophale) SiO2 
 PCOD8199840
Probable space group: P M M M
;
_chemical_formula_sum "Si O2"
_cell_formula_units_Z 56
_cell_length_a 8.966487
_cell_length_b 14.209216
_cell_length_c 20.357092
_cell_angle_alpha 90.000000
_cell_angle_beta 90.000000
_cell_angle_gamma 90.000000
_cell_volume 2593.630942
_symmetry_space_group_name_H-M "P M M M"
_symmetry_group_IT_number 47
_symmetry_cell_setting 'orthorhombic'
loop_
_space_group_symop_operation_xyz
x,y,z
-x,-y,z
x,-y,-z
-x,y,-z
-x,-y,-z
x,y,-z
-x,y,z
x,-y,z
loop_
_atom_site_type_symbol
_atom_site_label
_atom_site_fract_x
_atom_site_fract_y
_atom_site_fract_z
Si Si1 0.675048 0.391126 0.923951
Si Si2 0.823698 0.706078 0.198553
Si Si3 0.672987 0.107134 0.803753
Si Si4 0.173071 0.284795 0.576230
Si Si5 0.664627 0.390379 0.686525
Si Si6 0.162259 0.890786 0.070385
Si Si7 0.666134 0.102430 0.577796
O O1 0.500000 0.376380 0.911341
O O2 0.717986 0.500000 0.909193
O O3 0.763807 0.321218 0.874496
O O4 0.715287 0.367296 0.000000
O O5 0.767647 0.807959 0.228141
O O6 0.766006 0.631028 0.250758
O O7 0.000000 0.704456 0.197615
O O8 0.500000 0.118576 0.787203
O O9 0.701582 0.127680 0.880798
O O10 0.726188 0.000000 0.784720
O O11 0.215936 0.298483 0.500000
O O12 0.262925 0.359485 0.618081
O O13 0.217300 0.180423 0.601639
O O14 0.000000 0.299575 0.588689
O O15 0.500000 0.344530 0.694660
O O16 0.647889 0.500000 0.681520
O O17 0.000000 0.851591 0.096762
O O18 0.142248 0.000000 0.059779
O O19 0.200424 0.843539 0.000000
O O20 0.664360 0.096979 0.500000
O O21 0.500000 0.127610 0.603617
O O22 0.713964 0.000000 0.606324
#
# Coordination Sequence:
#
# PCOD8199840 Si02
#       7
#     8   8   8   8   8   8   8
#     4   9  19  38  64  92 122 157 199 249 302 356
#     4  12  25  40  62  90 122 159 197 244 303 365
#     4  10  21  37  57  80 109 149 196 244 292 347
#     4  10  21  37  60  93 131 166 201 247 300 352
#     4  11  25  45  68  91 118 156 201 248 298 357
#     4   8  14  26  45  70 102 140 182 230 284 339
#     4   8  14  27  50  81 119 164 210 252 293 341
#
# _framework density 21.591355
#
# number of rings (size 3 to 8) (size 9 to 14) (size 15 to 20)
#    0.000    2.286    0.000    4.286    0.000    6.571 
#    0.000    5.714    0.000    4.286    0.000    0.000 
#    0.000    0.000    0.000    0.000    0.000    0.000 
#
# Total GULP energy -693814.324392 kJ/mol
# GULP energy per Si atom -12389.541507 kJ/mol
# Density = 2.154221 g / cm^3
# Si number density = 21.591355 Si / 1000 Ang^3
#
#
#
# Elastic Constant Matrix: (Units=GPa)
#
#
# Indices 1 2 3 4 5 6 
#
# 1 122.0674 51.5787 44.0977 0.0000 0.0000 0.0000
# 2 51.5787 101.9809 32.5729 0.0000 0.0000 0.0000
# 3 44.0977 32.5729 79.9720 0.0000 0.0000 0.0000
# 4 0.0000 0.0000 0.0000 16.2876 0.0000 0.0000
# 5 0.0000 0.0000 0.0000 0.0000 24.3658 0.0000
# 6 0.0000 0.0000 0.0000 0.0000 0.0000 15.1798
#
#
#
# Elastic Compliance Matrix: (Units=1/GPa)
#
#
# Indices 1 2 3 4 5 6 
#
# 1 0.011763 -0.004458 -0.004671 0.000000 0.000000 0.000000
# 2 -0.004458 0.012961 -0.002821 0.000000 0.000000 0.000000
# 3 -0.004671 -0.002821 0.016229 0.000000 0.000000 0.000000
# 4 0.000000 0.000000 0.000000 0.061396 0.000000 0.000000
# 5 0.000000 0.000000 0.000000 0.000000 0.041041 0.000000
# 6 0.000000 0.000000 0.000000 0.000000 0.000000 0.065877
#
#
# Mechanical properties :
#
#
# Convention : Reuss Voigt Hill
#
# Bulk Modulus (GPa) = 58.63615 62.27989 60.45802
# Shear Modulus (GPa) = 20.93348 22.88470 21.90909
#
# Velocity S-wave (km/s) = 3.11711 3.25914 3.18892
# Velocity P-wave (km/s) = 6.33809 6.56278 6.45141
#
# Compressibility (1/GPa) = 0.01705433
#
# Stress axis : x y z
#
# Youngs Moduli (GPa) = 85.01215 77.15240 61.61808
#
# Poissons Ratio (x) = 0.34391 0.28780
# Poissons Ratio (y) = 0.37894 0.17384
# Poissons Ratio (z) = 0.39707 0.21767
#
# Static dielectric constant tensor:
#      x y z
#    x 3.833750 0.000000 0.000000 
#    y 0.000000 4.156250 0.000000 
#    z 0.000000 0.000000 3.835290 
# 
# 
# High freq. dielectric constant tensor:
#      x y z
#    x 1.840600 0.000000 0.000000 
#    y 0.000000 1.854680 0.000000 
#    z 0.000000 0.000000 1.832330 
# 
# From -- ./inp_files/29714.got.cif
#   From: 2010.03.12/outbox.cif.g09.slc.cpg/sg47_15_cif.got.tgz:29714.got - 2010.04.14 03:12:58.
