data_PCOD8199259
_publ_section_title
;
Structure prediction by ZEFSAII (Michael W. Deem and Ramdas Pophale) SiO2 
 PCOD8199259
Probable space group: P M M M
;
_chemical_formula_sum "Si O2"
_cell_formula_units_Z 64
_cell_length_a 9.516344
_cell_length_b 22.931722
_cell_length_c 15.890137
_cell_angle_alpha 90.000000
_cell_angle_beta 90.000000
_cell_angle_gamma 90.000000
_cell_volume 3467.643501
_symmetry_space_group_name_H-M "P M M M"
_symmetry_group_IT_number 47
_symmetry_cell_setting 'orthorhombic'
loop_
_space_group_symop_operation_xyz
x,y,z
-x,-y,z
x,-y,-z
-x,y,-z
-x,-y,-z
x,y,-z
-x,y,z
x,-y,z
loop_
_atom_site_type_symbol
_atom_site_label
_atom_site_fract_x
_atom_site_fract_y
_atom_site_fract_z
Si Si1 0.166593 0.378550 0.251438
Si Si2 0.153299 0.861226 0.818991
Si Si3 0.659785 0.568982 0.595456
Si Si4 0.343547 0.829659 0.595209
Si Si5 0.159680 0.067264 0.651905
Si Si6 0.662359 0.568652 0.096592
Si Si7 0.161644 0.245724 0.288758
Si Si8 0.349410 0.061863 0.903149
O O1 0.233271 0.406395 0.335243
O O2 0.237820 0.400128 0.164781
O O3 0.196225 0.310097 0.258023
O O4 0.000000 0.392818 0.248810
O O5 0.166502 0.909782 0.746662
O O6 0.192827 0.796742 0.789281
O O7 0.257680 0.880815 0.890822
O O8 0.000000 0.861229 0.859089
O O9 0.702072 0.588859 0.500000
O O10 0.500000 0.589676 0.615062
O O11 0.667556 0.500000 0.601210
O O12 0.358225 0.810450 0.500000
O O13 0.500000 0.836381 0.635278
O O14 0.262444 0.891444 0.598618
O O15 0.261300 0.775494 0.636457
O O16 0.000000 0.073094 0.617636
O O17 0.209965 0.000000 0.646313
O O18 0.500000 0.585434 0.114321
O O19 0.683393 0.500000 0.108030
O O20 0.702477 0.586486 0.000000
O O21 0.000000 0.239154 0.318703
O O22 0.500000 0.070269 0.857239
O O23 0.281539 0.000000 0.871614
O O24 0.377497 0.056753 0.000000
#
# Coordination Sequence:
#
# PCOD8199259 Si02
#       8
#     8   8   8   8   8   8   8   8
#     4  11  22  35  55  83 112 143 181 228 276 317
#     4   9  17  32  51  67  88 121 161 202 238 280
#     4   9  19  36  56  79 111 150 185 217 262 322
#     4  10  21  35  51  73  99 127 165 215 262 301
#     4   9  18  32  50  72  97 127 162 199 248 313
#     4   9  19  37  60  85 114 148 183 218 261 318
#     4   9  21  39  53  69  98 135 172 207 250 307
#     4   9  18  31  46  68  98 125 148 183 238 299
#
# _framework density 18.456337999999999
#
# number of rings (size 3 to 8) (size 9 to 14) (size 15 to 20)
#    0.000    2.625    0.000    3.375    0.000    8.500 
#    0.000    6.250    0.000    3.750    0.000    0.000 
#    0.000    0.000    0.000    0.000    0.000    0.000 
#
# Total GULP energy -792967.733406 kJ/mol
# GULP energy per Si atom -12390.120834 kJ/mol
# Density = 1.841433 g / cm^3
# Si number density = 18.456338 Si / 1000 Ang^3
#
#
#
# Elastic Constant Matrix: (Units=GPa)
#
#
# Indices 1 2 3 4 5 6 
#
# 1 109.5102 61.8106 63.3101 0.0000 0.0000 0.0000
# 2 61.8106 106.3512 52.5785 0.0000 0.0000 0.0000
# 3 63.3101 52.5785 90.5028 0.0000 0.0000 0.0000
# 4 0.0000 0.0000 0.0000 13.4682 0.0000 0.0000
# 5 0.0000 0.0000 0.0000 0.0000 29.2936 0.0000
# 6 0.0000 0.0000 0.0000 0.0000 0.0000 -11.9241
#
#
#
# Elastic Compliance Matrix: (Units=1/GPa)
#
#
# Indices 1 2 3 4 5 6 
#
# 1 0.017557 -0.005797 -0.008914 0.000000 0.000000 0.000000
# 2 -0.005797 0.015106 -0.004721 0.000000 0.000000 0.000000
# 3 -0.008914 -0.004721 0.020027 0.000000 0.000000 0.000000
# 4 0.000000 0.000000 0.000000 0.074249 0.000000 0.000000
# 5 0.000000 0.000000 0.000000 0.000000 0.034137 0.000000
# 6 0.000000 0.000000 0.000000 0.000000 0.000000 -0.083863
#
#
# Mechanical properties :
#
#
# Convention : Reuss Voigt Hill
#
# Bulk Modulus (GPa) = 72.32172 73.52920 72.92546
# Shear Modulus (GPa) = 41.43021 14.74519 28.08770
#
# Velocity S-wave (km/s) = 4.74304 2.82959 3.90532
# Velocity P-wave (km/s) = 8.32260 7.11347 7.74167
#
# Compressibility (1/GPa) = 0.01382710
#
# Stress axis : x y z
#
# Youngs Moduli (GPa) = 56.95782 66.19954 49.93152
#
# Poissons Ratio (x) = 0.38376 0.44508
# Poissons Ratio (y) = 0.33019 0.23571
# Poissons Ratio (z) = 0.50771 0.31250
#
# Static dielectric constant tensor:
#      x y z
#    x 3.572260 0.000000 0.000000 
#    y 0.000000 3.464580 0.000000 
#    z 0.000000 0.000000 3.279760 
# 
# 
# High freq. dielectric constant tensor:
#      x y z
#    x 1.721380 0.000000 0.000000 
#    y 0.000000 1.709900 0.000000 
#    z 0.000000 0.000000 1.704080 
# 
# From -- ./inp_files/21946.got.cif
#   From: 2010.03.12/outbox.cif.g09.slc.cpg/sg47_11_cif.got.tgz:21946.got - 2010.04.14 03:12:58.
