data_PCOD8199570
_publ_section_title
;
Structure prediction by ZEFSAII (Michael W. Deem and Ramdas Pophale) SiO2 
 PCOD8199570
Probable space group: P M M M
;
_chemical_formula_sum "Si O2"
_cell_formula_units_Z 56
_cell_length_a 8.806718
_cell_length_b 21.159284
_cell_length_c 15.208672
_cell_angle_alpha 90.000000
_cell_angle_beta 90.000000
_cell_angle_gamma 90.000000
_cell_volume 2834.042452
_symmetry_space_group_name_H-M "P M M M"
_symmetry_group_IT_number 47
_symmetry_cell_setting 'orthorhombic'
loop_
_space_group_symop_operation_xyz
x,y,z
-x,-y,z
x,-y,-z
-x,y,-z
-x,-y,-z
x,y,-z
-x,y,z
x,-y,z
loop_
_atom_site_type_symbol
_atom_site_label
_atom_site_fract_x
_atom_site_fract_y
_atom_site_fract_z
Si Si1 0.323648 0.738645 0.598868
Si Si2 0.819891 0.000000 0.597446
Si Si3 0.330494 0.118520 0.832545
Si Si4 0.329431 0.246245 0.903721
Si Si5 0.819667 0.428763 0.098842
Si Si6 0.176970 0.000000 0.904517
Si Si7 0.822462 0.324533 0.765016
Si Si8 0.181039 0.137623 0.339944
O O1 0.303643 0.710123 0.500000
O O2 0.500000 0.749574 0.621029
O O3 0.257681 0.688756 0.670934
O O4 0.238963 0.806855 0.595984
O O5 0.761763 0.934087 0.639226
O O6 0.754714 0.000000 0.500000
O O7 0.000000 0.000000 0.599060
O O8 0.500000 0.093010 0.814790
O O9 0.329076 0.169932 0.910038
O O10 0.221030 0.060854 0.850676
O O11 0.261140 0.155895 0.750426
O O12 0.500000 0.269255 0.878151
O O13 0.207666 0.267107 0.831541
O O14 0.283292 0.272020 0.000000
O O15 0.764204 0.500000 0.118071
O O16 0.757693 0.385193 0.179460
O O17 0.000000 0.424854 0.099130
O O18 0.762681 0.408302 0.000000
O O19 0.000000 0.000000 0.916566
O O20 0.258157 0.000000 0.000000
O O21 0.000000 0.330885 0.745146
O O22 0.000000 0.140584 0.336111
#
# Coordination Sequence:
#
# PCOD8199570 Si02
#       8
#     8   4   8   8   8   4   8   8
#     4  11  24  41  59  80 112 155 199 243 295 353
#     4   9  19  34  52  76 104 131 164 218 289 353
#     4  11  22  37  56  76 104 144 186 227 283 351
#     4  10  21  36  54  78 112 152 188 226 277 337
#     4   8  15  30  54  88 129 164 191 225 275 336
#     4  11  24  39  54  74 102 139 188 244 293 338
#     4  11  21  34  58  89 117 150 193 239 287 335
#     4  11  21  36  59  84 108 138 182 237 297 354
#
# _framework density 19.759761000000001
#
# number of rings (size 3 to 8) (size 9 to 14) (size 15 to 20)
#    0.000    1.714    1.429    4.071    0.000    4.857 
#    0.000    1.071    0.000    4.714    0.000    8.000 
#    0.000    0.000    0.000    0.000    0.000    0.000 
#
# Total GULP energy -693826.140334 kJ/mol
# GULP energy per Si atom -12389.752506 kJ/mol
# Density = 1.971479 g / cm^3
# Si number density = 19.759761 Si / 1000 Ang^3
#
#
#
# Elastic Constant Matrix: (Units=GPa)
#
#
# Indices 1 2 3 4 5 6 
#
# 1 72.2188 24.9260 33.5310 0.0000 0.0000 0.0000
# 2 24.9260 111.2915 48.2421 0.0000 0.0000 0.0000
# 3 33.5310 48.2421 128.0067 0.0000 0.0000 0.0000
# 4 0.0000 0.0000 0.0000 30.6607 0.0000 0.0000
# 5 0.0000 0.0000 0.0000 0.0000 24.2657 0.0000
# 6 0.0000 0.0000 0.0000 0.0000 0.0000 16.3588
#
#
#
# Elastic Compliance Matrix: (Units=1/GPa)
#
#
# Indices 1 2 3 4 5 6 
#
# 1 0.016178 -0.002135 -0.003433 0.000000 0.000000 0.000000
# 2 -0.002135 0.011022 -0.003594 0.000000 0.000000 0.000000
# 3 -0.003433 -0.003594 0.010066 0.000000 0.000000 0.000000
# 4 0.000000 0.000000 0.000000 0.032615 0.000000 0.000000
# 5 0.000000 0.000000 0.000000 0.000000 0.041210 0.000000
# 6 0.000000 0.000000 0.000000 0.000000 0.000000 0.061129
#
#
# Mechanical properties :
#
#
# Convention : Reuss Voigt Hill
#
# Bulk Modulus (GPa) = 52.79804 58.32391 55.56097
# Shear Modulus (GPa) = 25.39889 27.91155 26.65522
#
# Velocity S-wave (km/s) = 3.58912 3.76246 3.67681
# Velocity P-wave (km/s) = 6.62975 6.96099 6.79739
#
# Compressibility (1/GPa) = 0.01894010
#
# Stress axis : x y z
#
# Youngs Moduli (GPa) = 61.81344 90.72966 99.34414
#
# Poissons Ratio (x) = 0.19373 0.34105
# Poissons Ratio (y) = 0.13198 0.35709
# Poissons Ratio (z) = 0.21221 0.32613
#
# Static dielectric constant tensor:
#      x y z
#    x 3.377530 0.000000 0.000000 
#    y 0.000000 3.607460 0.000000 
#    z 0.000000 0.000000 3.822060 
# 
# 
# High freq. dielectric constant tensor:
#      x y z
#    x 1.755330 0.000000 0.000000 
#    y 0.000000 1.755170 0.000000 
#    z 0.000000 0.000000 1.774500 
# 
# From -- ./inp_files/21664.got.cif
#   From: 2010.03.12/outbox.cif.g09.slc.cpg/sg47_11_cif.got.tgz:21664.got - 2010.04.14 03:12:58.
