data_PCOD8199002
_publ_section_title
;
Structure prediction by ZEFSAII (Michael W. Deem and Ramdas Pophale) SiO2 
 PCOD8199002
Probable space group: P M M M
;
_chemical_formula_sum "Si O2"
_cell_formula_units_Z 44
_cell_length_a 9.255527
_cell_length_b 30.342852
_cell_length_c 7.998852
_cell_angle_alpha 90.000000
_cell_angle_beta 90.000000
_cell_angle_gamma 90.000000
_cell_volume 2246.390284
_symmetry_space_group_name_H-M "P M M M"
_symmetry_group_IT_number 47
_symmetry_cell_setting 'orthorhombic'
loop_
_space_group_symop_operation_xyz
x,y,z
-x,-y,z
x,-y,-z
-x,y,-z
-x,-y,-z
x,y,-z
-x,y,z
x,-y,z
loop_
_atom_site_type_symbol
_atom_site_label
_atom_site_fract_x
_atom_site_fract_y
_atom_site_fract_z
Si Si1 0.670697 0.812260 0.187257
Si Si2 0.160243 0.638818 0.305889
Si Si3 0.167544 0.452785 0.804344
Si Si4 0.338769 0.280315 0.697562
Si Si5 0.166339 0.947923 0.000000
Si Si6 0.329553 0.094899 0.689455
O O1 0.500000 0.807291 0.195565
O O2 0.737138 0.766098 0.252573
O O3 0.717582 0.853736 0.300043
O O4 0.725354 0.821693 0.000000
O O5 0.148114 0.648224 0.500000
O O6 0.237594 0.591076 0.277286
O O7 0.250842 0.678639 0.223645
O O8 0.000000 0.638762 0.223987
O O9 0.234789 0.500000 0.741476
O O10 0.000000 0.453370 0.755144
O O11 0.190645 0.449144 0.000000
O O12 0.344257 0.283719 0.500000
O O13 0.500000 0.283143 0.772700
O O14 0.243457 0.931975 0.170170
O O15 0.000000 0.931702 0.000000
O O16 0.175424 0.000000 0.000000
O O17 0.293187 0.078497 0.500000
O O18 0.500000 0.089454 0.726595
#
# Coordination Sequence:
#
# PCOD8199002 Si02
#       6
#     8   8   8   8   4   8
#     4   9  16  29  52  80 107 135 173 222 269 315
#     4   9  17  28  42  62  88 115 147 193 243 287
#     4   8  14  25  41  60  81 107 142 185 234 288
#     4   9  17  29  45  66  94 129 164 195 239 305
#     4  11  25  43  61  85 123 165 199 235 284 347
#     4  10  20  37  64  93 118 149 194 248 297 336
#
# _framework density 19.586980000000001
#
# number of rings (size 3 to 8) (size 9 to 14) (size 15 to 20)
#    0.000    2.818    0.909    1.364    0.000    4.727 
#    0.000    4.545    0.000    2.727    0.000    3.818 
#    0.000    0.000    0.000    0.000    0.000    0.000 
#
# Total GULP energy -545093.991391 kJ/mol
# GULP energy per Si atom -12388.499804 kJ/mol
# Density = 1.954240 g / cm^3
# Si number density = 19.586980 Si / 1000 Ang^3
#
#
#
# Elastic Constant Matrix: (Units=GPa)
#
#
# Indices 1 2 3 4 5 6 
#
# 1 55.7423 47.8116 32.9004 0.0000 0.0000 0.0000
# 2 47.8116 140.7763 42.9301 0.0000 0.0000 0.0000
# 3 32.9004 42.9301 76.4928 0.0000 0.0000 0.0000
# 4 0.0000 0.0000 0.0000 31.9941 0.0000 0.0000
# 5 0.0000 0.0000 0.0000 0.0000 12.6286 0.0000
# 6 0.0000 0.0000 0.0000 0.0000 0.0000 28.5877
#
#
#
# Elastic Compliance Matrix: (Units=1/GPa)
#
#
# Indices 1 2 3 4 5 6 
#
# 1 0.029231 -0.007352 -0.008446 0.000000 0.000000 0.000000
# 2 -0.007352 0.010419 -0.002686 0.000000 0.000000 0.000000
# 3 -0.008446 -0.002686 0.018213 0.000000 0.000000 0.000000
# 4 0.000000 0.000000 0.000000 0.031256 0.000000 0.000000
# 5 0.000000 0.000000 0.000000 0.000000 0.079185 0.000000
# 6 0.000000 0.000000 0.000000 0.000000 0.000000 0.034980
#
#
# Mechanical properties :
#
#
# Convention : Reuss Voigt Hill
#
# Bulk Modulus (GPa) = 47.85657 57.81062 52.83359
# Shear Modulus (GPa) = 20.22511 24.60005 22.41258
#
# Velocity S-wave (km/s) = 3.21686 3.54777 3.38636
# Velocity P-wave (km/s) = 6.18737 6.80890 6.50556
#
# Compressibility (1/GPa) = 0.02089577
#
# Stress axis : x y z
#
# Youngs Moduli (GPa) = 34.21045 95.97552 54.90520
#
# Poissons Ratio (x) = 0.70560 0.46375
# Poissons Ratio (y) = 0.25151 0.14745
# Poissons Ratio (z) = 0.28896 0.25774
#
# Static dielectric constant tensor:
#      x y z
#    x 3.363670 0.000000 0.000000 
#    y 0.000000 3.991860 0.000000 
#    z 0.000000 0.000000 3.419710 
# 
# 
# High freq. dielectric constant tensor:
#      x y z
#    x 1.700000 0.000000 0.000000 
#    y 0.000000 1.785200 0.000000 
#    z 0.000000 0.000000 1.754620 
# 
# From -- ./inp_files/1967.got.cif
#   From: 2010.03.12/outbox.cif.g09.slc.cpg/sg47_1_cif.got.tgz:1967.got - 2010.04.14 03:12:58.
