data_PCOD8199596
_publ_section_title
;
Structure prediction by ZEFSAII (Michael W. Deem and Ramdas Pophale) SiO2 
 PCOD8199596
Probable space group: P M M M
;
_chemical_formula_sum "Si O2"
_cell_formula_units_Z 40
_cell_length_a 9.032426
_cell_length_b 7.689174
_cell_length_c 29.366974
_cell_angle_alpha 90.000000
_cell_angle_beta 90.000000
_cell_angle_gamma 90.000000
_cell_volume 2039.591999
_symmetry_space_group_name_H-M "P M M M"
_symmetry_group_IT_number 47
_symmetry_cell_setting 'orthorhombic'
loop_
_space_group_symop_operation_xyz
x,y,z
-x,-y,z
x,-y,-z
-x,y,-z
-x,-y,-z
x,y,-z
-x,y,z
x,-y,z
loop_
_atom_site_type_symbol
_atom_site_label
_atom_site_fract_x
_atom_site_fract_y
_atom_site_fract_z
Si Si1 0.676444 0.000000 0.283211
Si Si2 0.826666 0.704752 0.773946
Si Si3 0.661240 0.301041 0.862250
Si Si4 0.323850 0.307179 0.550970
Si Si5 0.676042 0.000000 0.387316
Si Si6 0.834082 0.794874 0.949292
O O1 0.741071 0.177747 0.262425
O O2 0.728361 0.000000 0.335441
O O3 0.500000 0.000000 0.277371
O O4 0.793323 0.500000 0.765042
O O5 0.772000 0.771219 0.823727
O O6 0.000000 0.743366 0.770995
O O7 0.500000 0.207077 0.859734
O O8 0.637056 0.500000 0.850981
O O9 0.725013 0.285620 0.912729
O O10 0.269957 0.258120 0.500000
O O11 0.500000 0.303966 0.552074
O O12 0.266625 0.500000 0.564215
O O13 0.258913 0.170058 0.587201
O O14 0.500000 0.000000 0.390194
O O15 0.000000 0.724578 0.940637
O O16 0.831997 0.000000 0.944392
O O17 0.781630 0.739625 0.000000
#
# Coordination Sequence:
#
# PCOD8199596 Si02
#       6
#     4   8   8   8   4   8
#     4  11  23  36  55  84 115 149 184 226 289 346
#     4  10  22  41  62  81 105 142 189 236 279 332
#     4  10  21  36  55  80 107 134 168 216 274 328
#     4   8  13  22  38  61  93 138 186 223 258 309
#     4   9  17  27  40  65 102 141 179 218 267 328
#     4   9  19  35  53  75 105 141 178 213 253 309
#
# _framework density 19.611764999999998
#
# number of rings (size 3 to 8) (size 9 to 14) (size 15 to 20)
#    0.000    2.600    0.000    3.000    1.400    5.600 
#    0.000    5.000    0.000    0.000    0.000    0.000 
#    0.000    6.400    0.000   17.600    0.000   14.400 
#
# Total GULP energy -495769.746282 kJ/mol
# GULP energy per Si atom -12394.243657 kJ/mol
# Density = 1.956713 g / cm^3
# Si number density = 19.611765 Si / 1000 Ang^3
#
#
#
# Elastic Constant Matrix: (Units=GPa)
#
#
# Indices 1 2 3 4 5 6 
#
# 1 92.7810 38.8670 58.0024 0.0000 0.0000 0.0000
# 2 38.8670 92.9829 70.5949 0.0000 0.0000 0.0000
# 3 58.0024 70.5949 169.5211 0.0000 0.0000 0.0000
# 4 0.0000 0.0000 0.0000 28.0267 0.0000 0.0000
# 5 0.0000 0.0000 0.0000 0.0000 3.5378 0.0000
# 6 0.0000 0.0000 0.0000 0.0000 0.0000 21.8379
#
#
#
# Elastic Compliance Matrix: (Units=1/GPa)
#
#
# Indices 1 2 3 4 5 6 
#
# 1 0.014382 -0.003328 -0.003535 0.000000 0.000000 0.000000
# 2 -0.003328 0.016497 -0.005731 0.000000 0.000000 0.000000
# 3 -0.003535 -0.005731 0.009495 0.000000 0.000000 0.000000
# 4 0.000000 0.000000 0.000000 0.035680 0.000000 0.000000
# 5 0.000000 0.000000 0.000000 0.000000 0.282664 0.000000
# 6 0.000000 0.000000 0.000000 0.000000 0.000000 0.045792
#
#
# Mechanical properties :
#
#
# Convention : Reuss Voigt Hill
#
# Bulk Modulus (GPa) = 65.85048 76.69041 71.27044
# Shear Modulus (GPa) = 11.50057 23.20185 17.35121
#
# Velocity S-wave (km/s) = 2.42422 3.44329 2.97768
# Velocity P-wave (km/s) = 6.44094 7.41603 6.94562
#
# Compressibility (1/GPa) = 0.01518592
#
# Stress axis : x y z
#
# Youngs Moduli (GPa) = 69.53095 60.61671 105.31556
#
# Poissons Ratio (x) = 0.20172 0.37230
# Poissons Ratio (y) = 0.23139 0.60360
# Poissons Ratio (z) = 0.24580 0.34742
#
# Static dielectric constant tensor:
#      x y z
#    x 3.461940 0.000000 0.000000 
#    y 0.000000 3.656400 0.000000 
#    z 0.000000 0.000000 3.820390 
# 
# 
# High freq. dielectric constant tensor:
#      x y z
#    x 1.732240 0.000000 0.000000 
#    y 0.000000 1.766870 0.000000 
#    z 0.000000 0.000000 1.764840 
# 
# From -- ./inp_files/33053.got.cif
#   From: 2010.03.12/outbox.cif.g09.slc.cpg/sg47_17_cif.got.tgz:33053.got - 2010.04.14 03:12:58.
