data_PCOD8199626
_publ_section_title
;
Structure prediction by ZEFSAII (Michael W. Deem and Ramdas Pophale) SiO2 
 PCOD8199626
Probable space group: P M M M
;
_chemical_formula_sum "Si O2"
_cell_formula_units_Z 64
_cell_length_a 24.696987
_cell_length_b 9.296526
_cell_length_c 14.760485
_cell_angle_alpha 90.000000
_cell_angle_beta 90.000000
_cell_angle_gamma 90.000000
_cell_volume 3388.950997
_symmetry_space_group_name_H-M "P M M M"
_symmetry_group_IT_number 47
_symmetry_cell_setting 'orthorhombic'
loop_
_space_group_symop_operation_xyz
x,y,z
-x,-y,z
x,-y,-z
-x,y,-z
-x,-y,-z
x,y,-z
-x,y,z
x,-y,z
loop_
_atom_site_type_symbol
_atom_site_label
_atom_site_fract_x
_atom_site_fract_y
_atom_site_fract_z
Si Si1 0.744160 0.170386 0.223253
Si Si2 0.202239 0.168133 0.401643
Si Si3 0.844151 0.829199 0.104587
Si Si4 0.940038 0.333962 0.794557
Si Si5 0.563796 0.340936 0.899573
Si Si6 0.623825 0.169995 0.243921
Si Si7 0.561881 0.667595 0.395165
Si Si8 0.906758 0.336528 0.598859
O O1 0.759735 0.228929 0.322837
O O2 0.787627 0.227382 0.149080
O O3 0.682892 0.225329 0.209983
O O4 0.744836 0.000000 0.219169
O O5 0.228133 0.204405 0.500000
O O6 0.143879 0.234538 0.391655
O O7 0.193830 0.000000 0.388820
O O8 0.895433 0.762290 0.155969
O O9 0.849103 0.000000 0.114034
O O10 0.844352 0.780587 0.000000
O O11 0.925544 0.500000 0.813663
O O12 0.943988 0.304655 0.685963
O O13 0.000000 0.297093 0.833004
O O14 0.500000 0.332749 0.902706
O O15 0.581658 0.500000 0.864543
O O16 0.583560 0.214762 0.835169
O O17 0.587491 0.314906 0.000000
O O18 0.604947 0.241695 0.337645
O O19 0.622903 0.000000 0.258657
O O20 0.572305 0.703522 0.500000
O O21 0.500000 0.708906 0.368744
O O22 0.571215 0.500000 0.375520
O O23 0.935691 0.309114 0.500000
O O24 0.885961 0.500000 0.602540
#
# Coordination Sequence:
#
# PCOD8199626 Si02
#       8
#     8   8   8   8   8   8   8   8
#     4   9  19  35  52  75 107 141 174 212 266 323
#     4   9  16  29  52  75  96 130 173 211 249 298
#     4  10  21  39  61  79  99 135 183 227 266 315
#     4  10  21  36  55  81 112 142 171 212 269 325
#     4   9  19  37  58  77 102 140 181 219 265 324
#     4  11  22  33  52  84 115 141 175 224 280 331
#     4   9  19  37  58  78 107 152 198 233 269 317
#     4   9  17  30  50  77 107 137 169 205 248 301
#
# _framework density 18.884899999999998
#
# number of rings (size 3 to 8) (size 9 to 14) (size 15 to 20)
#    0.000    2.500    1.250    1.500    0.000    4.500 
#    0.000    8.750    0.000    1.500    0.000    2.625 
#    0.000    0.000    0.000    0.000    0.000    0.000 
#
# Total GULP energy -793076.152341 kJ/mol
# GULP energy per Si atom -12391.814880 kJ/mol
# Density = 1.884192 g / cm^3
# Si number density = 18.884900 Si / 1000 Ang^3
#
#
#
# Elastic Constant Matrix: (Units=GPa)
#
#
# Indices 1 2 3 4 5 6 
#
# 1 95.4588 33.7308 58.7021 0.0000 0.0000 0.0000
# 2 33.7308 41.2279 39.7132 0.0000 0.0000 0.0000
# 3 58.7021 39.7132 127.3347 0.0000 0.0000 0.0000
# 4 0.0000 0.0000 0.0000 25.0506 0.0000 0.0000
# 5 0.0000 0.0000 0.0000 0.0000 10.5720 0.0000
# 6 0.0000 0.0000 0.0000 0.0000 0.0000 39.2135
#
#
#
# Elastic Compliance Matrix: (Units=1/GPa)
#
#
# Indices 1 2 3 4 5 6 
#
# 1 0.016625 -0.008890 -0.004892 0.000000 0.000000 0.000000
# 2 -0.008890 0.039425 -0.008198 0.000000 0.000000 0.000000
# 3 -0.004892 -0.008198 0.012665 0.000000 0.000000 0.000000
# 4 0.000000 0.000000 0.000000 0.039919 0.000000 0.000000
# 5 0.000000 0.000000 0.000000 0.000000 0.094590 0.000000
# 6 0.000000 0.000000 0.000000 0.000000 0.000000 0.025501
#
#
# Mechanical properties :
#
#
# Convention : Reuss Voigt Hill
#
# Bulk Modulus (GPa) = 40.39280 58.70152 49.54716
# Shear Modulus (GPa) = 17.79760 23.75891 20.77826
#
# Velocity S-wave (km/s) = 3.07322 3.55080 3.32061
# Velocity P-wave (km/s) = 5.83338 6.92548 6.40276
#
# Compressibility (1/GPa) = 0.02475689
#
# Stress axis : x y z
#
# Youngs Moduli (GPa) = 60.14978 25.36446 78.95722
#
# Poissons Ratio (x) = 0.22549 0.38623
# Poissons Ratio (y) = 0.53473 0.64726
# Poissons Ratio (z) = 0.29423 0.20793
#
# Static dielectric constant tensor:
#      x y z
#    x 3.579160 0.000000 0.000000 
#    y 0.000000 3.357030 0.000000 
#    z 0.000000 0.000000 3.795070 
# 
# 
# High freq. dielectric constant tensor:
#      x y z
#    x 1.723130 0.000000 0.000000 
#    y 0.000000 1.713750 0.000000 
#    z 0.000000 0.000000 1.747250 
# 
# From -- ./inp_files/25566.got.cif
#   From: 2010.03.12/outbox.cif.g09.slc.cpg/sg47_13_cif.got.tgz:25566.got - 2010.04.14 03:12:58.
