data_PCOD8199048
_publ_section_title
;
Structure prediction by ZEFSAII (Michael W. Deem and Ramdas Pophale) SiO2 
 PCOD8199048
Probable space group: P M M M
;
_chemical_formula_sum "Si O2"
_cell_formula_units_Z 40
_cell_length_a 13.900847
_cell_length_b 9.061925
_cell_length_c 18.918487
_cell_angle_alpha 90.000000
_cell_angle_beta 90.000000
_cell_angle_gamma 90.000000
_cell_volume 2383.132161
_symmetry_space_group_name_H-M "P M M M"
_symmetry_group_IT_number 47
_symmetry_cell_setting 'orthorhombic'
loop_
_space_group_symop_operation_xyz
x,y,z
-x,-y,z
x,-y,-z
-x,y,-z
-x,-y,-z
x,y,-z
-x,y,z
x,-y,z
loop_
_atom_site_type_symbol
_atom_site_label
_atom_site_fract_x
_atom_site_fract_y
_atom_site_fract_z
Si Si1 0.285740 0.827028 0.712453
Si Si2 0.391498 0.175820 0.577945
Si Si3 0.108517 0.825813 0.201284
Si Si4 0.217758 0.670411 0.919009
Si Si5 0.609201 0.173025 0.853598
O O1 0.321197 0.755626 0.638256
O O2 0.179829 0.769815 0.736118
O O3 0.362289 0.787125 0.773256
O O4 0.280295 0.000000 0.700990
O O5 0.355992 0.227289 0.500000
O O6 0.500000 0.232919 0.591365
O O7 0.391480 0.000000 0.581972
O O8 0.136761 0.749596 0.127839
O O9 0.000000 0.782747 0.222331
O O10 0.120643 0.000000 0.189735
O O11 0.222386 0.500000 0.897480
O O12 0.323019 0.740167 0.907625
O O13 0.187243 0.691612 0.000000
O O14 0.500000 0.223131 0.866789
O O15 0.622901 0.000000 0.867481
#
# Coordination Sequence:
#
# PCOD8199048 Si02
#       5
#     8   8   8   8   8
#     4   8  13  23  39  58  83 113 144 178 212 248
#     4   8  12  17  29  54  87 119 146 170 201 245
#     4   9  18  32  49  66  82 106 143 184 224 264
#     4  10  21  34  46  63  88 114 139 173 220 269
#     4   9  17  29  46  66  87 116 152 183 211 248
#
# _framework density 16.784632999999999
#
# number of rings (size 3 to 8) (size 9 to 14) (size 15 to 20)
#    0.000    3.200    0.000    3.000    0.000    5.600 
#    0.000    4.000    0.000    0.600    0.000    4.200 
#    0.000   12.800    0.000   51.200    0.000   48.000 
#
# Total GULP energy -495727.017293 kJ/mol
# GULP energy per Si atom -12393.175432 kJ/mol
# Density = 1.674643 g / cm^3
# Si number density = 16.784633 Si / 1000 Ang^3
#
#
#
# Elastic Constant Matrix: (Units=GPa)
#
#
# Indices 1 2 3 4 5 6 
#
# 1 124.3522 26.9344 57.3777 0.0000 0.0000 0.0000
# 2 26.9344 30.4136 24.4439 0.0000 0.0000 0.0000
# 3 57.3777 24.4439 114.1361 0.0000 0.0000 0.0000
# 4 0.0000 0.0000 0.0000 1.1591 0.0000 0.0000
# 5 0.0000 0.0000 0.0000 0.0000 16.5685 0.0000
# 6 0.0000 0.0000 0.0000 0.0000 0.0000 8.7255
#
#
#
# Elastic Compliance Matrix: (Units=1/GPa)
#
#
# Indices 1 2 3 4 5 6 
#
# 1 0.011496 -0.006687 -0.004347 0.000000 0.000000 0.000000
# 2 -0.006687 0.043606 -0.005977 0.000000 0.000000 0.000000
# 3 -0.004347 -0.005977 0.012227 0.000000 0.000000 0.000000
# 4 0.000000 0.000000 0.000000 0.862772 0.000000 0.000000
# 5 0.000000 0.000000 0.000000 0.000000 0.060355 0.000000
# 6 0.000000 0.000000 0.000000 0.000000 0.000000 0.114607
#
#
# Mechanical properties :
#
#
# Convention : Reuss Voigt Hill
#
# Bulk Modulus (GPa) = 30.02432 54.04601 42.03517
# Shear Modulus (GPa) = 4.34712 15.96700 10.15706
#
# Velocity S-wave (km/s) = 1.61107 3.08764 2.46263
# Velocity P-wave (km/s) = 4.62467 6.70678 5.76058
#
# Compressibility (1/GPa) = 0.03330633
#
# Stress axis : x y z
#
# Youngs Moduli (GPa) = 86.98809 22.93257 81.78715
#
# Poissons Ratio (x) = 0.15335 0.35553
# Poissons Ratio (y) = 0.58169 0.48886
# Poissons Ratio (z) = 0.37814 0.13707
#
# Static dielectric constant tensor:
#      x y z
#    x 3.345920 0.000000 0.000000 
#    y 0.000000 2.768050 0.000000 
#    z 0.000000 0.000000 3.358700 
# 
# 
# High freq. dielectric constant tensor:
#      x y z
#    x 1.642470 0.000000 0.000000 
#    y 0.000000 1.603470 0.000000 
#    z 0.000000 0.000000 1.642640 
# 
# From -- ./inp_files/5932.got.cif
#   From: 2010.03.12/outbox.cif.g09.slc.cpg/sg47_3_cif.got.tgz:5932.got - 2010.04.14 03:12:58.
