data_PCOD8199233
_publ_section_title
;
Structure prediction by ZEFSAII (Michael W. Deem and Ramdas Pophale) SiO2 
 PCOD8199233
Probable space group: P M M M
;
_chemical_formula_sum "Si O2"
_cell_formula_units_Z 44
_cell_length_a 9.504544
_cell_length_b 7.982346
_cell_length_c 29.962919
_cell_angle_alpha 90.000000
_cell_angle_beta 90.000000
_cell_angle_gamma 90.000000
_cell_volume 2273.243481
_symmetry_space_group_name_H-M "P M M M"
_symmetry_group_IT_number 47
_symmetry_cell_setting 'orthorhombic'
loop_
_space_group_symop_operation_xyz
x,y,z
-x,-y,z
x,-y,-z
-x,y,-z
-x,-y,-z
x,y,-z
-x,y,z
x,-y,z
loop_
_atom_site_type_symbol
_atom_site_label
_atom_site_fract_x
_atom_site_fract_y
_atom_site_fract_z
Si Si1 0.660609 0.804363 0.049881
Si Si2 0.166115 0.500000 0.549579
Si Si3 0.844413 0.691195 0.870520
Si Si4 0.157045 0.193414 0.223008
Si Si5 0.342758 0.802476 0.697805
Si Si6 0.164771 0.192822 0.389034
O O1 0.500000 0.747578 0.055106
O O2 0.750313 0.706769 0.085891
O O3 0.676488 0.000000 0.058763
O O4 0.713833 0.759214 0.000000
O O5 0.233193 0.500000 0.500000
O O6 0.213425 0.672755 0.573721
O O7 0.000000 0.500000 0.546150
O O8 0.852617 0.500000 0.856544
O O9 0.781393 0.785490 0.827162
O O10 0.000000 0.762712 0.881601
O O11 0.262329 0.276175 0.259173
O O12 0.000000 0.274847 0.225759
O O13 0.144617 0.000000 0.234988
O O14 0.500000 0.724442 0.694477
O O15 0.253120 0.757234 0.654318
O O16 0.355958 0.000000 0.703218
O O17 0.000000 0.212326 0.377603
O O18 0.196228 0.000000 0.404480
#
# Coordination Sequence:
#
# PCOD8199233 Si02
#       6
#     8   4   8   8   8   8
#     4   9  19  36  56  76  97 125 165 210 254 302
#     4   9  18  32  51  79 109 135 173 221 262 305
#     4  10  21  35  50  73 105 136 166 203 250 304
#     4   9  17  31  51  72  97 132 171 209 250 298
#     4   9  17  30  50  75 101 130 167 210 253 299
#     4   9  17  31  52  76 103 137 174 213 261 312
#
# _framework density 19.355602999999999
#
# number of rings (size 3 to 8) (size 9 to 14) (size 15 to 20)
#    0.000    2.818    0.000    1.636    0.000    5.455 
#    1.636    6.818    0.000    1.091    0.000    2.545 
#    0.000    0.000    0.000    0.000    0.000    0.000 
#
# Total GULP energy -545350.244918 kJ/mol
# GULP energy per Si atom -12394.323748 kJ/mol
# Density = 1.931155 g / cm^3
# Si number density = 19.355603 Si / 1000 Ang^3
#
#
#
# Elastic Constant Matrix: (Units=GPa)
#
#
# Indices 1 2 3 4 5 6 
#
# 1 85.4088 26.2724 71.4454 0.0000 0.0000 0.0000
# 2 26.2724 57.8061 43.7664 0.0000 0.0000 0.0000
# 3 71.4454 43.7664 162.9769 0.0000 0.0000 0.0000
# 4 0.0000 0.0000 0.0000 13.0253 0.0000 0.0000
# 5 0.0000 0.0000 0.0000 0.0000 6.7469 0.0000
# 6 0.0000 0.0000 0.0000 0.0000 0.0000 14.0090
#
#
#
# Elastic Compliance Matrix: (Units=1/GPa)
#
#
# Indices 1 2 3 4 5 6 
#
# 1 0.018869 -0.002903 -0.007492 0.000000 0.000000 0.000000
# 2 -0.002903 0.022161 -0.004678 0.000000 0.000000 0.000000
# 3 -0.007492 -0.004678 0.010676 0.000000 0.000000 0.000000
# 4 0.000000 0.000000 0.000000 0.076774 0.000000 0.000000
# 5 0.000000 0.000000 0.000000 0.000000 0.148216 0.000000
# 6 0.000000 0.000000 0.000000 0.000000 0.000000 0.071383
#
#
# Mechanical properties :
#
#
# Convention : Reuss Voigt Hill
#
# Bulk Modulus (GPa) = 46.38505 65.46224 55.92365
# Shear Modulus (GPa) = 12.97314 17.73673 15.35494
#
# Velocity S-wave (km/s) = 2.59173 3.03043 2.81963
# Velocity P-wave (km/s) = 5.74219 6.79256 6.28934
#
# Compressibility (1/GPa) = 0.02155867
#
# Stress axis : x y z
#
# Youngs Moduli (GPa) = 52.99838 45.12451 93.66398
#
# Poissons Ratio (x) = 0.13101 0.70172
# Poissons Ratio (y) = 0.15387 0.43820
# Poissons Ratio (z) = 0.39706 0.21111
#
# Static dielectric constant tensor:
#      x y z
#    x 3.639890 0.000000 0.000000 
#    y 0.000000 3.316800 0.000000 
#    z 0.000000 0.000000 3.614350 
# 
# 
# High freq. dielectric constant tensor:
#      x y z
#    x 1.735520 0.000000 0.000000 
#    y 0.000000 1.737120 0.000000 
#    z 0.000000 0.000000 1.754810 
# 
# From -- ./inp_files/2122.got.cif
#   From: 2010.03.12/outbox.cif.g09.slc.cpg/sg47_2_cif.got.tgz:2122.got - 2010.04.14 03:12:58.
