data_PCOD8199429
_publ_section_title
;
Structure prediction by ZEFSAII (Michael W. Deem and Ramdas Pophale) SiO2 
 PCOD8199429
Probable space group: P M M M
;
_chemical_formula_sum "Si O2"
_cell_formula_units_Z 64
_cell_length_a 24.317799
_cell_length_b 14.423056
_cell_length_c 9.072685
_cell_angle_alpha 90.000000
_cell_angle_beta 90.000000
_cell_angle_gamma 90.000000
_cell_volume 3182.126108
_symmetry_space_group_name_H-M "P M M M"
_symmetry_group_IT_number 47
_symmetry_cell_setting 'orthorhombic'
loop_
_space_group_symop_operation_xyz
x,y,z
-x,-y,z
x,-y,-z
-x,y,-z
-x,-y,-z
x,y,-z
-x,y,z
x,-y,z
loop_
_atom_site_type_symbol
_atom_site_label
_atom_site_fract_x
_atom_site_fract_y
_atom_site_fract_z
Si Si1 0.777802 0.393092 0.672922
Si Si2 0.438934 0.349256 0.326380
Si Si3 0.935541 0.105053 0.169790
Si Si4 0.657817 0.102087 0.340279
Si Si5 0.757646 0.110374 0.835534
Si Si6 0.439816 0.843576 0.167935
Si Si7 0.151737 0.781560 0.673961
Si Si8 0.330008 0.604492 0.161368
O O1 0.766721 0.387266 0.500000
O O2 0.792920 0.500000 0.717184
O O3 0.827690 0.322796 0.718214
O O4 0.721674 0.353735 0.748171
O O5 0.428634 0.353928 0.500000
O O6 0.500000 0.392289 0.289592
O O7 0.438247 0.245400 0.270446
O O8 0.388245 0.398611 0.246637
O O9 0.907357 0.189109 0.260683
O O10 0.000000 0.120532 0.189039
O O11 0.919912 0.000000 0.223606
O O12 0.917657 0.114807 0.000000
O O13 0.648455 0.152003 0.500000
O O14 0.703432 0.154712 0.242770
O O15 0.603117 0.088372 0.243317
O O16 0.680238 0.000000 0.372875
O O17 0.808774 0.140099 0.738634
O O18 0.754769 0.000000 0.843681
O O19 0.761644 0.151990 0.000000
O O20 0.500000 0.890127 0.171632
O O21 0.423217 0.819674 0.000000
O O22 0.149463 0.791013 0.500000
O O23 0.312666 0.500000 0.135226
O O24 0.336219 0.653368 0.000000
#
# Coordination Sequence:
#
# PCOD8199429 Si02
#       8
#     8   8   8   8   8   8   8   8
#     4   9  20  39  58  78 110 151 193 237 286 342
#     4  10  21  36  54  75 100 132 170 215 270 336
#     4   9  19  37  60  87 123 165 202 234 273 328
#     4  10  21  36  53  73  99 131 169 216 267 321
#     4  10  21  36  53  76 110 149 185 222 271 335
#     4  10  21  36  53  72  95 126 166 213 264 322
#     4  11  22  34  56  88 116 149 192 238 286 332
#     4  10  21  36  55  79 105 134 172 222 279 338
#
# _framework density 20.11234
#
# number of rings (size 3 to 8) (size 9 to 14) (size 15 to 20)
#    0.000    2.125    0.000    3.000    1.750    7.250 
#    0.000    3.125    0.000    0.375    0.000    2.625 
#    0.000    0.000    0.000    0.000    0.000    0.000 
#
# Total GULP energy -792847.192241 kJ/mol
# GULP energy per Si atom -12388.237379 kJ/mol
# Density = 2.006656 g / cm^3
# Si number density = 20.112340 Si / 1000 Ang^3
#
#
#
# Elastic Constant Matrix: (Units=GPa)
#
#
# Indices 1 2 3 4 5 6 
#
# 1 104.9981 40.0285 60.8426 0.0000 0.0000 0.0000
# 2 40.0285 64.7062 37.8180 0.0000 0.0000 0.0000
# 3 60.8426 37.8180 115.8041 0.0000 0.0000 0.0000
# 4 0.0000 0.0000 0.0000 23.2661 0.0000 0.0000
# 5 0.0000 0.0000 0.0000 0.0000 37.2445 0.0000
# 6 0.0000 0.0000 0.0000 0.0000 0.0000 33.0504
#
#
#
# Elastic Compliance Matrix: (Units=1/GPa)
#
#
# Indices 1 2 3 4 5 6 
#
# 1 0.015321 -0.005899 -0.006123 0.000000 0.000000 0.000000
# 2 -0.005899 0.021371 -0.003880 0.000000 0.000000 0.000000
# 3 -0.006123 -0.003880 0.013119 0.000000 0.000000 0.000000
# 4 0.000000 0.000000 0.000000 0.042981 0.000000 0.000000
# 5 0.000000 0.000000 0.000000 0.000000 0.026850 0.000000
# 6 0.000000 0.000000 0.000000 0.000000 0.000000 0.030257
#
#
# Mechanical properties :
#
#
# Convention : Reuss Voigt Hill
#
# Bulk Modulus (GPa) = 55.53221 62.54293 59.03757
# Shear Modulus (GPa) = 26.63741 28.50016 27.56879
#
# Velocity S-wave (km/s) = 3.64322 3.76845 3.70637
# Velocity P-wave (km/s) = 6.73560 7.07809 6.90897
#
# Compressibility (1/GPa) = 0.01800757
#
# Stress axis : x y z
#
# Youngs Moduli (GPa) = 65.26971 46.79140 76.22351
#
# Poissons Ratio (x) = 0.27603 0.46672
# Poissons Ratio (y) = 0.38504 0.29573
# Poissons Ratio (z) = 0.39965 0.18154
#
# Static dielectric constant tensor:
#      x y z
#    x 3.725090 0.000000 0.000000 
#    y 0.000000 3.473660 0.000000 
#    z 0.000000 0.000000 4.004280 
# 
# 
# High freq. dielectric constant tensor:
#      x y z
#    x 1.773390 0.000000 0.000000 
#    y 0.000000 1.765760 0.000000 
#    z 0.000000 0.000000 1.798070 
# 
# From -- ./inp_files/7815.got.cif
#   From: 2010.03.12/outbox.cif.g09.slc.cpg/sg47_4_cif.got.tgz:7815.got - 2010.04.14 03:12:58.
