data_PCOD8199991
_publ_section_title
;
Structure prediction by ZEFSAII (Michael W. Deem and Ramdas Pophale) SiO2 
 PCOD8199991
Probable space group: P M M M
;
_chemical_formula_sum "Si O2"
_cell_formula_units_Z 32
_cell_length_a 14.716619
_cell_length_b 12.842970
_cell_length_c 8.030925
_cell_angle_alpha 90.000000
_cell_angle_beta 90.000000
_cell_angle_gamma 90.000000
_cell_volume 1517.885753
_symmetry_space_group_name_H-M "P M M M"
_symmetry_group_IT_number 47
_symmetry_cell_setting 'orthorhombic'
loop_
_space_group_symop_operation_xyz
x,y,z
-x,-y,z
x,-y,-z
-x,y,-z
-x,-y,-z
x,y,-z
-x,y,z
x,-y,z
loop_
_atom_site_type_symbol
_atom_site_label
_atom_site_fract_x
_atom_site_fract_y
_atom_site_fract_z
Si Si1 0.395933 0.249338 0.686557
Si Si2 0.607483 0.885338 0.000000
Si Si3 0.896245 0.221149 0.307263
Si Si4 0.107684 0.000000 0.188886
Si Si5 0.754571 0.616542 0.190077
O O1 0.386718 0.200432 0.500000
O O2 0.500000 0.282845 0.720136
O O3 0.360677 0.170268 0.829351
O O4 0.331200 0.349748 0.697137
O O5 0.500000 0.893610 0.000000
O O6 0.651739 0.000000 0.000000
O O7 0.888599 0.247594 0.500000
O O8 0.855617 0.105295 0.275861
O O9 0.840060 0.307295 0.208800
O O10 0.000000 0.227399 0.243459
O O11 0.000000 0.000000 0.205229
O O12 0.141435 0.000000 0.000000
O O13 0.783540 0.500000 0.243743
O O14 0.721921 0.619032 0.000000
#
# Coordination Sequence:
#
# PCOD8199991 Si02
#       5
#     8   4   8   4   8
#     4  10  21  39  63  90 122 160 203 250 302 360
#     4   9  18  36  61  89 124 161 199 248 302 358
#     4  10  21  38  60  87 120 156 196 244 299 359
#     4   9  17  33  59  87 116 151 192 241 295 355
#     4  11  24  41  61  86 118 156 202 255 304 357
#
# _framework density 21.081956999999999
#
# number of rings (size 3 to 8) (size 9 to 14) (size 15 to 20)
#    0.000    2.000    1.250    1.875    0.000    6.500 
#    2.250    7.500    0.000    0.000    0.000    0.000 
#    0.000    0.000    0.000    0.000    0.000    0.000 
#
# Total GULP energy -396745.871355 kJ/mol
# GULP energy per Si atom -12398.308480 kJ/mol
# Density = 2.103397 g / cm^3
# Si number density = 21.081957 Si / 1000 Ang^3
#
#
#
# Elastic Constant Matrix: (Units=GPa)
#
#
# Indices 1 2 3 4 5 6 
#
# 1 81.1863 55.2121 24.4133 0.0000 0.0000 0.0000
# 2 55.2121 164.5083 49.7377 0.0000 0.0000 0.0000
# 3 24.4133 49.7377 119.4788 0.0000 0.0000 0.0000
# 4 0.0000 0.0000 0.0000 23.1977 0.0000 0.0000
# 5 0.0000 0.0000 0.0000 0.0000 27.8079 0.0000
# 6 0.0000 0.0000 0.0000 0.0000 0.0000 28.5759
#
#
#
# Elastic Compliance Matrix: (Units=1/GPa)
#
#
# Indices 1 2 3 4 5 6 
#
# 1 0.016107 -0.005046 -0.001191 0.000000 0.000000 0.000000
# 2 -0.005046 0.008535 -0.002522 0.000000 0.000000 0.000000
# 3 -0.001191 -0.002522 0.009663 0.000000 0.000000 0.000000
# 4 0.000000 0.000000 0.000000 0.043108 0.000000 0.000000
# 5 0.000000 0.000000 0.000000 0.000000 0.035961 0.000000
# 6 0.000000 0.000000 0.000000 0.000000 0.000000 0.034994
#
#
# Mechanical properties :
#
#
# Convention : Reuss Voigt Hill
#
# Bulk Modulus (GPa) = 59.56732 69.32216 64.44474
# Shear Modulus (GPa) = 29.15790 31.63698 30.39744
#
# Velocity S-wave (km/s) = 3.72300 3.87805 3.80132
# Velocity P-wave (km/s) = 6.84087 7.28052 7.06411
#
# Compressibility (1/GPa) = 0.01678773
#
# Stress axis : x y z
#
# Youngs Moduli (GPa) = 62.08533 117.16941 103.48976
#
# Poissons Ratio (x) = 0.59121 0.12322
# Poissons Ratio (y) = 0.31327 0.26099
# Poissons Ratio (z) = 0.07392 0.29549
#
# Static dielectric constant tensor:
#      x y z
#    x 3.620300 0.000000 0.000000 
#    y 0.000000 3.912870 0.000000 
#    z 0.000000 0.000000 3.879200 
# 
# 
# High freq. dielectric constant tensor:
#      x y z
#    x 1.816080 0.000000 0.000000 
#    y 0.000000 1.815210 0.000000 
#    z 0.000000 0.000000 1.836330 
# 
# From -- ./inp_files/5245.got.cif
#   From: 2010.03.12/outbox.cif.g09.slc.cpg/sg47_3_cif.got.tgz:5245.got - 2010.04.14 03:12:58.
