data_PCOD8199114
_publ_section_title
;
Structure prediction by ZEFSAII (Michael W. Deem and Ramdas Pophale) SiO2 
 PCOD8199114
Probable space group: P M M M
;
_chemical_formula_sum "Si O2"
_cell_formula_units_Z 64
_cell_length_a 9.069833
_cell_length_b 14.454970
_cell_length_c 25.686709
_cell_angle_alpha 90.000000
_cell_angle_beta 90.000000
_cell_angle_gamma 90.000000
_cell_volume 3367.634507
_symmetry_space_group_name_H-M "P M M M"
_symmetry_group_IT_number 47
_symmetry_cell_setting 'orthorhombic'
loop_
_space_group_symop_operation_xyz
x,y,z
-x,-y,z
x,-y,-z
-x,y,-z
-x,-y,-z
x,y,-z
-x,y,z
x,-y,z
loop_
_atom_site_type_symbol
_atom_site_label
_atom_site_fract_x
_atom_site_fract_y
_atom_site_fract_z
Si Si1 0.825024 0.102422 0.851534
Si Si2 0.172915 0.393585 0.317943
Si Si3 0.325736 0.221453 0.354631
Si Si4 0.170705 0.891015 0.735087
Si Si5 0.171405 0.231534 0.057760
Si Si6 0.673582 0.603918 0.101691
Si Si7 0.831260 0.106665 0.560214
Si Si8 0.337890 0.609181 0.216304
O O1 0.783085 0.139261 0.793764
O O2 0.759038 0.165176 0.897899
O O3 0.000000 0.096988 0.855884
O O4 0.758369 0.000000 0.859092
O O5 0.219175 0.500000 0.329455
O O6 0.257654 0.325082 0.357013
O O7 0.218066 0.363048 0.259451
O O8 0.000000 0.379812 0.324421
O O9 0.500000 0.229087 0.353092
O O10 0.270694 0.166100 0.304279
O O11 0.277801 0.169805 0.406905
O O12 0.000000 0.867368 0.724122
O O13 0.198252 0.000000 0.727147
O O14 0.248205 0.331215 0.059854
O O15 0.000000 0.246131 0.068621
O O16 0.198311 0.189512 0.000000
O O17 0.500000 0.606208 0.092778
O O18 0.733975 0.500000 0.093913
O O19 0.713245 0.643676 0.159409
O O20 0.806996 0.130816 0.500000
O O21 0.000000 0.126321 0.576605
O O22 0.792746 0.000000 0.571146
O O23 0.500000 0.649671 0.231449
O O24 0.353094 0.500000 0.211762
#
# Coordination Sequence:
#
# PCOD8199114 Si02
#       8
#     8   8   8   8   8   8   8   8
#     4   8  16  33  55  76  99 131 170 214 267 322
#     4  10  21  36  54  77 107 146 191 233 273 322
#     4  12  24  34  52  84 120 155 187 226 276 328
#     4   9  18  34  55  78 107 142 181 225 270 324
#     4  10  21  34  50  76 103 127 167 223 272 316
#     4   9  19  35  53  72  98 134 171 207 256 324
#     4   9  19  38  63  88 116 153 196 239 279 321
#     4   8  15  30  50  72  99 129 165 213 267 320
#
# _framework density 19.004436999999999
#
# number of rings (size 3 to 8) (size 9 to 14) (size 15 to 20)
#    0.000    2.625    0.000    3.750    1.750    4.500 
#    0.000    4.375    0.000    1.500    0.000    3.500 
#    0.000    0.000    0.000    0.000    0.000    0.000 
#
# Total GULP energy -793414.192357 kJ/mol
# GULP energy per Si atom -12397.096756 kJ/mol
# Density = 1.896118 g / cm^3
# Si number density = 19.004437 Si / 1000 Ang^3
#
#
#
# Elastic Constant Matrix: (Units=GPa)
#
#
# Indices 1 2 3 4 5 6 
#
# 1 79.7686 44.0951 43.5055 0.0000 0.0000 0.0000
# 2 44.0951 87.2954 56.9359 0.0000 0.0000 0.0000
# 3 43.5055 56.9359 101.1153 0.0000 0.0000 0.0000
# 4 0.0000 0.0000 0.0000 31.1058 0.0000 0.0000
# 5 0.0000 0.0000 0.0000 0.0000 18.8684 0.0000
# 6 0.0000 0.0000 0.0000 0.0000 0.0000 19.1779
#
#
#
# Elastic Compliance Matrix: (Units=1/GPa)
#
#
# Indices 1 2 3 4 5 6 
#
# 1 0.018485 -0.006559 -0.004260 0.000000 0.000000 0.000000
# 2 -0.006559 0.020431 -0.008682 0.000000 0.000000 0.000000
# 3 -0.004260 -0.008682 0.016612 0.000000 0.000000 0.000000
# 4 0.000000 0.000000 0.000000 0.032148 0.000000 0.000000
# 5 0.000000 0.000000 0.000000 0.000000 0.052999 0.000000
# 6 0.000000 0.000000 0.000000 0.000000 0.000000 0.052143
#
#
# Mechanical properties :
#
#
# Convention : Reuss Voigt Hill
#
# Bulk Modulus (GPa) = 60.51378 61.91693 61.21536
# Shear Modulus (GPa) = 21.06767 22.07327 21.57047
#
# Velocity S-wave (km/s) = 3.33313 3.41175 3.37266
# Velocity P-wave (km/s) = 6.83550 6.94053 6.88821
#
# Compressibility (1/GPa) = 0.01652516
#
# Stress axis : x y z
#
# Youngs Moduli (GPa) = 54.09658 48.94464 60.19861
#
# Poissons Ratio (x) = 0.32102 0.25647
# Poissons Ratio (y) = 0.35481 0.52267
# Poissons Ratio (z) = 0.23047 0.42496
#
# Static dielectric constant tensor:
#      x y z
#    x 3.216370 0.000000 0.000000 
#    y 0.000000 3.562740 0.000000 
#    z 0.000000 0.000000 3.496810 
# 
# 
# High freq. dielectric constant tensor:
#      x y z
#    x 1.717460 0.000000 0.000000 
#    y 0.000000 1.736410 0.000000 
#    z 0.000000 0.000000 1.729980 
# 
# From -- ./inp_files/7926.got.cif
#   From: 2010.03.12/outbox.cif.g09.slc.cpg/sg47_4_cif.got.tgz:7926.got - 2010.04.14 03:12:58.
