data_PCOD8199406
_publ_section_title
;
Structure prediction by ZEFSAII (Michael W. Deem and Ramdas Pophale) SiO2 
 PCOD8199406
Probable space group: P M M M
;
_chemical_formula_sum "Si O2"
_cell_formula_units_Z 56
_cell_length_a 12.420143
_cell_length_b 30.941734
_cell_length_c 9.277862
_cell_angle_alpha 90.000000
_cell_angle_beta 90.000000
_cell_angle_gamma 90.000000
_cell_volume 3565.489427
_symmetry_space_group_name_H-M "P M M M"
_symmetry_group_IT_number 47
_symmetry_cell_setting 'orthorhombic'
loop_
_space_group_symop_operation_xyz
x,y,z
-x,-y,z
x,-y,-z
-x,y,-z
-x,-y,-z
x,y,-z
-x,y,z
x,-y,z
loop_
_atom_site_type_symbol
_atom_site_label
_atom_site_fract_x
_atom_site_fract_y
_atom_site_fract_z
Si Si1 0.375757 0.584102 0.169513
Si Si2 0.000000 0.549819 0.329589
Si Si3 0.183874 0.616631 0.670528
Si Si4 0.128757 0.128291 0.337875
Si Si5 0.124012 0.697040 0.157711
Si Si6 0.626134 0.500000 0.340169
Si Si7 0.125466 0.791159 0.834453
Si Si8 0.872003 0.952425 0.161942
O O1 0.500000 0.595909 0.202126
O O2 0.296795 0.618431 0.242354
O O3 0.337617 0.540632 0.248151
O O4 0.356281 0.579356 0.000000
O O5 0.893831 0.576769 0.279959
O O6 0.000000 0.500000 0.267849
O O7 0.000000 0.547627 0.500000
O O8 0.204248 0.615200 0.500000
O O9 0.133380 0.662152 0.715177
O O10 0.171121 0.128424 0.500000
O O11 0.178236 0.171070 0.261753
O O12 0.175907 0.085185 0.262740
O O13 0.000000 0.128147 0.329567
O O14 0.175896 0.743517 0.202221
O O15 0.000000 0.706898 0.133508
O O16 0.170428 0.681484 0.000000
O O17 0.500000 0.500000 0.362038
O O18 0.681491 0.500000 0.500000
O O19 0.000000 0.790924 0.798800
O O20 0.147637 0.802673 0.000000
O O21 0.000000 0.950257 0.163110
O O22 0.834686 0.000000 0.217128
O O23 0.829673 0.944715 0.000000
#
# Coordination Sequence:
#
# PCOD8199406 Si02
#       8
#     8   4   8   8   8   4   8   8
#     4  10  21  36  52  71  95 120 146 178 214 249
#     4   9  20  36  49  67  95 123 148 174 207 248
#     4  11  21  33  52  72  92 119 148 180 215 254
#     4   9  15  20  27  42  61  80 105 144 191 233
#     4   9  17  30  46  62  83 109 137 170 207 251
#     4   9  17  31  51  72  91 112 139 169 203 242
#     4   8  14  24  37  50  65  91 122 152 190 236
#     4   8  13  20  28  36  49  74 107 141 179 229
#
# _framework density 15.70612
#
# number of rings (size 3 to 8) (size 9 to 14) (size 15 to 20)
#    0.000    2.857    0.714    2.786    1.000    4.286 
#    0.000    2.857    0.000    1.714    0.000    0.000 
#    0.000    0.000    0.000    0.000    0.000    0.000 
#
# Total GULP energy -693738.210607 kJ/mol
# GULP energy per Si atom -12388.182332 kJ/mol
# Density = 1.567037 g / cm^3
# Si number density = 15.706120 Si / 1000 Ang^3
#
#
#
# Elastic Constant Matrix: (Units=GPa)
#
#
# Indices 1 2 3 4 5 6 
#
# 1 36.1333 17.3829 22.2105 0.0000 0.0000 0.0000
# 2 17.3829 126.4649 57.0665 0.0000 0.0000 0.0000
# 3 22.2105 57.0665 89.8039 0.0000 0.0000 0.0000
# 4 0.0000 0.0000 0.0000 22.9632 0.0000 0.0000
# 5 0.0000 0.0000 0.0000 0.0000 13.8862 0.0000
# 6 0.0000 0.0000 0.0000 0.0000 0.0000 2.7963
#
#
#
# Elastic Compliance Matrix: (Units=1/GPa)
#
#
# Indices 1 2 3 4 5 6 
#
# 1 0.032764 -0.001187 -0.007349 0.000000 0.000000 0.000000
# 2 -0.001187 0.011129 -0.006779 0.000000 0.000000 0.000000
# 3 -0.007349 -0.006779 0.017260 0.000000 0.000000 0.000000
# 4 0.000000 0.000000 0.000000 0.043548 0.000000 0.000000
# 5 0.000000 0.000000 0.000000 0.000000 0.072014 0.000000
# 6 0.000000 0.000000 0.000000 0.000000 0.000000 0.357615
#
#
# Mechanical properties :
#
#
# Convention : Reuss Voigt Hill
#
# Bulk Modulus (GPa) = 32.76101 49.52469 41.14285
# Shear Modulus (GPa) = 8.69363 18.31195 13.50279
#
# Velocity S-wave (km/s) = 2.35525 3.41825 2.93527
# Velocity P-wave (km/s) = 5.31980 6.86875 6.14329
#
# Compressibility (1/GPa) = 0.03052409
#
# Stress axis : x y z
#
# Youngs Moduli (GPa) = 30.52166 89.85284 57.93639
#
# Poissons Ratio (x) = 0.10669 0.42575
# Poissons Ratio (y) = 0.03624 0.39272
# Poissons Ratio (z) = 0.22429 0.60907
#
# Static dielectric constant tensor:
#      x y z
#    x 2.449620 0.000000 0.000000 
#    y 0.000000 3.342280 0.000000 
#    z 0.000000 0.000000 3.035730 
# 
# 
# High freq. dielectric constant tensor:
#      x y z
#    x 1.523570 0.000000 0.000000 
#    y 0.000000 1.610970 0.000000 
#    z 0.000000 0.000000 1.607360 
# 
# From -- ./inp_files/8194.got.cif
#   From: 2010.03.12/outbox.cif.g09.slc.cpg/sg47_5_cif.got.tgz:8194.got - 2010.04.14 03:12:58.
