data_PCOD8199167
_publ_section_title
;
Structure prediction by ZEFSAII (Michael W. Deem and Ramdas Pophale) SiO2 
 PCOD8199167
Probable space group: P M M M
;
_chemical_formula_sum "Si O2"
_cell_formula_units_Z 44
_cell_length_a 9.501819
_cell_length_b 8.061186
_cell_length_c 30.260199
_cell_angle_alpha 90.000000
_cell_angle_beta 90.000000
_cell_angle_gamma 90.000000
_cell_volume 2317.808093
_symmetry_space_group_name_H-M "P M M M"
_symmetry_group_IT_number 47
_symmetry_cell_setting 'orthorhombic'
loop_
_space_group_symop_operation_xyz
x,y,z
-x,-y,z
x,-y,-z
-x,y,-z
-x,-y,-z
x,y,-z
-x,y,z
x,-y,z
loop_
_atom_site_type_symbol
_atom_site_label
_atom_site_fract_x
_atom_site_fract_y
_atom_site_fract_z
Si Si1 0.155515 0.192532 0.628275
Si Si2 0.343474 0.306254 0.202408
Si Si3 0.667628 0.000000 0.950082
Si Si4 0.331620 0.313213 0.105699
Si Si5 0.659003 0.695001 0.449843
Si Si6 0.342135 0.807083 0.706364
O O1 0.231971 0.213796 0.581625
O O2 0.246304 0.275499 0.668042
O O3 0.000000 0.275114 0.626702
O O4 0.138342 0.000000 0.638209
O O5 0.500000 0.230045 0.200173
O O6 0.348024 0.500000 0.210618
O O7 0.270615 0.270149 0.154809
O O8 0.269621 0.224390 0.245369
O O9 0.724326 0.830834 0.927004
O O10 0.500000 0.000000 0.948945
O O11 0.724849 0.000000 0.000000
O O12 0.500000 0.313938 0.107625
O O13 0.281952 0.500000 0.090987
O O14 0.694137 0.747092 0.500000
O O15 0.500000 0.750100 0.437881
O O16 0.675333 0.500000 0.443778
O O17 0.500000 0.728074 0.704720
O O18 0.353450 0.000000 0.697038
#
# Coordination Sequence:
#
# PCOD8199167 Si02
#       6
#     8   8   4   8   8   8
#     4  10  21  35  49  69 100 132 159 189 230 284
#     4   8  14  24  38  57  78 101 134 180 232 275
#     4   9  16  22  30  46  68 102 145 183 226 279
#     4   8  14  23  33  47  70  99 135 183 231 275
#     4   9  19  36  56  76  96 120 155 199 242 281
#     4   9  17  28  44  65  86 112 149 191 231 272
#
# _framework density 18.983450999999999
#
# number of rings (size 3 to 8) (size 9 to 14) (size 15 to 20)
#    0.000    3.182    0.000    2.182    1.273    3.273 
#    0.000    6.364    0.000    0.000    0.000    0.000 
#    0.000    0.000    0.000    0.000    0.000    1.818 
#
# Total GULP energy -545115.845449 kJ/mol
# GULP energy per Si atom -12388.996487 kJ/mol
# Density = 1.894024 g / cm^3
# Si number density = 18.983451 Si / 1000 Ang^3
#
#
#
# Elastic Constant Matrix: (Units=GPa)
#
#
# Indices 1 2 3 4 5 6 
#
# 1 65.6943 20.5330 54.9888 0.0000 0.0000 0.0000
# 2 20.5330 57.0111 50.2596 0.0000 0.0000 0.0000
# 3 54.9888 50.2596 162.6294 0.0000 0.0000 0.0000
# 4 0.0000 0.0000 0.0000 24.0493 0.0000 0.0000
# 5 0.0000 0.0000 0.0000 0.0000 2.6499 0.0000
# 6 0.0000 0.0000 0.0000 0.0000 0.0000 8.3579
#
#
#
# Elastic Compliance Matrix: (Units=1/GPa)
#
#
# Indices 1 2 3 4 5 6 
#
# 1 0.021368 -0.001823 -0.006662 0.000000 0.000000 0.000000
# 2 -0.001823 0.024264 -0.006882 0.000000 0.000000 0.000000
# 3 -0.006662 -0.006882 0.010528 0.000000 0.000000 0.000000
# 4 0.000000 0.000000 0.000000 0.041581 0.000000 0.000000
# 5 0.000000 0.000000 0.000000 0.000000 0.377371 0.000000
# 6 0.000000 0.000000 0.000000 0.000000 0.000000 0.119648
#
#
# Mechanical properties :
#
#
# Convention : Reuss Voigt Hill
#
# Bulk Modulus (GPa) = 39.32900 59.65526 49.49213
# Shear Modulus (GPa) = 7.88681 17.64832 12.76757
#
# Velocity S-wave (km/s) = 2.04049 3.05235 2.59620
# Velocity P-wave (km/s) = 5.12971 6.62688 5.92577
#
# Compressibility (1/GPa) = 0.02542653
#
# Stress axis : x y z
#
# Youngs Moduli (GPa) = 46.79931 41.21279 94.98213
#
# Poissons Ratio (x) = 0.07514 0.63273
# Poissons Ratio (y) = 0.08532 0.65369
# Poissons Ratio (z) = 0.31176 0.28364
#
# Static dielectric constant tensor:
#      x y z
#    x 3.157120 0.000000 0.000000 
#    y 0.000000 3.340250 0.000000 
#    z 0.000000 0.000000 3.761630 
# 
# 
# High freq. dielectric constant tensor:
#      x y z
#    x 1.666430 0.000000 0.000000 
#    y 0.000000 1.727050 0.000000 
#    z 0.000000 0.000000 1.751170 
# 
# From -- ./inp_files/13588.got.cif
#   From: 2010.03.12/outbox.cif.g09.slc.cpg/sg47_7_cif.got.tgz:13588.got - 2010.04.14 03:12:58.
