data_PCOD8199124
_publ_section_title
;
Structure prediction by ZEFSAII (Michael W. Deem and Ramdas Pophale) SiO2 
 PCOD8199124
Probable space group: P M M M
;
_chemical_formula_sum "Si O2"
_cell_formula_units_Z 52
_cell_length_a 19.998466
_cell_length_b 14.616429
_cell_length_c 9.710060
_cell_angle_alpha 90.000000
_cell_angle_beta 90.000000
_cell_angle_gamma 90.000000
_cell_volume 2838.310336
_symmetry_space_group_name_H-M "P M M M"
_symmetry_group_IT_number 47
_symmetry_cell_setting 'orthorhombic'
loop_
_space_group_symop_operation_xyz
x,y,z
-x,-y,z
x,-y,-z
-x,y,-z
-x,-y,-z
x,y,-z
-x,y,z
x,-y,z
loop_
_atom_site_type_symbol
_atom_site_label
_atom_site_fract_x
_atom_site_fract_y
_atom_site_fract_z
Si Si1 0.424263 0.606575 0.158881
Si Si2 0.332893 0.101989 0.759484
Si Si3 0.830591 0.729042 0.662897
Si Si4 0.573176 0.108205 0.000000
Si Si5 0.076795 0.607204 0.155119
Si Si6 0.815928 0.898164 0.845109
Si Si7 0.678860 0.710925 0.348881
O O1 0.500000 0.628253 0.208348
O O2 0.408777 0.500000 0.179764
O O3 0.370660 0.663655 0.243389
O O4 0.416159 0.634372 0.000000
O O5 0.389403 0.139009 0.862764
O O6 0.264120 0.100114 0.842932
O O7 0.331130 0.178712 0.641206
O O8 0.348451 0.000000 0.699376
O O9 0.843396 0.738947 0.500000
O O10 0.880297 0.656238 0.728320
O O11 0.844924 0.827096 0.734112
O O12 0.755677 0.693024 0.694308
O O13 0.500000 0.154215 0.000000
O O14 0.568806 0.000000 0.000000
O O15 0.085900 0.500000 0.177593
O O16 0.000000 0.635885 0.175486
O O17 0.100107 0.634068 0.000000
O O18 0.843120 0.000000 0.808720
O O19 0.838239 0.870424 0.000000
O O20 0.664512 0.670503 0.500000
#
# Coordination Sequence:
#
# PCOD8199124 Si02
#       7
#     8   8   8   4   8   8   8
#     4   9  20  39  59  76  94 123 169 222 272 320
#     4   9  17  30  47  69 100 134 170 212 256 305
#     4  10  21  34  50  78 114 146 175 212 259 312
#     4   9  16  26  42  66  93 123 164 213 261 305
#     4   9  19  37  60  84 109 139 176 215 257 310
#     4   9  16  29  51  74  99 136 181 224 262 303
#     4  10  22  35  50  77 108 139 174 212 258 312
#
# _framework density 18.320758999999999
#
# number of rings (size 3 to 8) (size 9 to 14) (size 15 to 20)
#    0.000    2.692    0.769    1.385    1.077    4.308 
#    0.000    7.692    0.000    0.462    0.000    6.462 
#    0.000    0.000    0.000    0.000    0.000    0.000 
#
# Total GULP energy -644515.108603 kJ/mol
# GULP energy per Si atom -12394.521319 kJ/mol
# Density = 1.827906 g / cm^3
# Si number density = 18.320759 Si / 1000 Ang^3
#
#
#
# Elastic Constant Matrix: (Units=GPa)
#
#
# Indices 1 2 3 4 5 6 
#
# 1 81.0738 50.5756 54.3000 0.0000 0.0000 0.0000
# 2 50.5756 80.4396 60.5334 0.0000 0.0000 0.0000
# 3 54.3000 60.5334 111.2324 0.0000 0.0000 0.0000
# 4 0.0000 0.0000 0.0000 20.9449 0.0000 0.0000
# 5 0.0000 0.0000 0.0000 0.0000 18.3571 0.0000
# 6 0.0000 0.0000 0.0000 0.0000 0.0000 17.1283
#
#
#
# Elastic Compliance Matrix: (Units=1/GPa)
#
#
# Indices 1 2 3 4 5 6 
#
# 1 0.022095 -0.009781 -0.005463 0.000000 0.000000 0.000000
# 2 -0.009781 0.025384 -0.009039 0.000000 0.000000 0.000000
# 3 -0.005463 -0.009039 0.016576 0.000000 0.000000 0.000000
# 4 0.000000 0.000000 0.000000 0.047744 0.000000 0.000000
# 5 0.000000 0.000000 0.000000 0.000000 0.054475 0.000000
# 6 0.000000 0.000000 0.000000 0.000000 0.000000 0.058383
#
#
# Mechanical properties :
#
#
# Convention : Reuss Voigt Hill
#
# Bulk Modulus (GPa) = 64.56452 67.06264 65.81358
# Shear Modulus (GPa) = 17.96068 18.44187 18.20127
#
# Velocity S-wave (km/s) = 3.13444 3.17615 3.15537
# Velocity P-wave (km/s) = 6.95826 7.08059 7.01969
#
# Compressibility (1/GPa) = 0.01548838
#
# Stress axis : x y z
#
# Youngs Moduli (GPa) = 45.25922 39.39564 60.32650
#
# Poissons Ratio (x) = 0.38531 0.32959
# Poissons Ratio (y) = 0.44266 0.54531
# Poissons Ratio (z) = 0.24727 0.35611
#
# Static dielectric constant tensor:
#      x y z
#    x 3.280390 0.000000 0.000000 
#    y 0.000000 3.404450 0.000000 
#    z 0.000000 0.000000 3.260030 
# 
# 
# High freq. dielectric constant tensor:
#      x y z
#    x 1.689930 0.000000 0.000000 
#    y 0.000000 1.713690 0.000000 
#    z 0.000000 0.000000 1.702570 
# 
# From -- ./inp_files/11011.got.cif
#   From: 2010.03.12/outbox.cif.g09.slc.cpg/sg47_6_cif.got.tgz:11011.got - 2010.04.14 03:12:58.
