data_PCOD8199403
_publ_section_title
;
Structure prediction by ZEFSAII (Michael W. Deem and Ramdas Pophale) SiO2 
 PCOD8199403
Probable space group: P M M M
;
_chemical_formula_sum "Si O2"
_cell_formula_units_Z 44
_cell_length_a 14.082105
_cell_length_b 18.482805
_cell_length_c 9.007992
_cell_angle_alpha 90.000000
_cell_angle_beta 90.000000
_cell_angle_gamma 90.000000
_cell_volume 2344.571339
_symmetry_space_group_name_H-M "P M M M"
_symmetry_group_IT_number 47
_symmetry_cell_setting 'orthorhombic'
loop_
_space_group_symop_operation_xyz
x,y,z
-x,-y,z
x,-y,-z
-x,y,-z
-x,-y,-z
x,y,-z
-x,y,z
x,-y,z
loop_
_atom_site_type_symbol
_atom_site_label
_atom_site_fract_x
_atom_site_fract_y
_atom_site_fract_z
Si Si1 0.888351 0.500000 0.329041
Si Si2 0.612818 0.420859 0.832737
Si Si3 0.777004 0.215268 0.823962
Si Si4 0.887467 0.656617 0.326964
Si Si5 0.893742 0.079896 0.823679
Si Si6 0.608784 0.720926 0.673820
O O1 0.862046 0.500000 0.500000
O O2 0.850857 0.577317 0.264923
O O3 0.000000 0.500000 0.307087
O O4 0.500000 0.424856 0.826724
O O5 0.653743 0.500000 0.784327
O O6 0.648128 0.358323 0.721675
O O7 0.646076 0.402068 0.000000
O O8 0.838742 0.282882 0.771667
O O9 0.823520 0.141317 0.761647
O O10 0.671216 0.218647 0.756225
O O11 0.770717 0.215471 0.000000
O O12 0.859970 0.666736 0.500000
O O13 0.000000 0.663296 0.306920
O O14 0.000000 0.094670 0.762810
O O15 0.859255 0.000000 0.771473
O O16 0.895757 0.083268 0.000000
O O17 0.621792 0.728936 0.500000
O O18 0.500000 0.732033 0.723177
#
# Coordination Sequence:
#
# PCOD8199403 Si02
#       6
#     4   8   8   8   8   8
#     4   7  12  26  47  67  90 129 176 211 241 282
#     4   8  14  27  48  71  94 121 157 209 270 317
#     4  11  21  32  51  79 106 133 168 212 263 314
#     4   9  17  31  51  73 100 135 173 212 252 298
#     4   8  15  30  53  81 111 138 163 197 246 306
#     4  10  21  36  52  70  96 134 179 220 259 309
#
# _framework density 18.766756999999998
#
# number of rings (size 3 to 8) (size 9 to 14) (size 15 to 20)
#    0.000    3.000    0.000    3.818    0.000    2.545 
#    1.636    2.273    0.000    4.364    0.000   10.182 
#    0.000    0.000    0.000    0.000    0.000    0.000 
#
# Total GULP energy -545213.606494 kJ/mol
# GULP energy per Si atom -12391.218329 kJ/mol
# Density = 1.872404 g / cm^3
# Si number density = 18.766757 Si / 1000 Ang^3
#
#
#
# Elastic Constant Matrix: (Units=GPa)
#
#
# Indices 1 2 3 4 5 6 
#
# 1 74.2035 72.2660 28.9646 0.0000 0.0000 0.0000
# 2 72.2660 163.2037 41.8215 0.0000 0.0000 0.0000
# 3 28.9646 41.8215 54.7746 0.0000 0.0000 0.0000
# 4 0.0000 0.0000 0.0000 9.5373 0.0000 0.0000
# 5 0.0000 0.0000 0.0000 0.0000 23.1556 0.0000
# 6 0.0000 0.0000 0.0000 0.0000 0.0000 29.7999
#
#
#
# Elastic Compliance Matrix: (Units=1/GPa)
#
#
# Indices 1 2 3 4 5 6 
#
# 1 0.025171 -0.009616 -0.005968 0.000000 0.000000 0.000000
# 2 -0.009616 0.011292 -0.003536 0.000000 0.000000 0.000000
# 3 -0.005968 -0.003536 0.024113 0.000000 0.000000 0.000000
# 4 0.000000 0.000000 0.000000 0.104852 0.000000 0.000000
# 5 0.000000 0.000000 0.000000 0.000000 0.043186 0.000000
# 6 0.000000 0.000000 0.000000 0.000000 0.000000 0.033557
#
#
# Mechanical properties :
#
#
# Convention : Reuss Voigt Hill
#
# Bulk Modulus (GPa) = 44.77507 64.25398 54.51453
# Shear Modulus (GPa) = 17.36974 22.44054 19.90514
#
# Velocity S-wave (km/s) = 3.04560 3.46173 3.26031
# Velocity P-wave (km/s) = 6.02313 7.09159 6.57908
#
# Compressibility (1/GPa) = 0.02233386
#
# Stress axis : x y z
#
# Youngs Moduli (GPa) = 39.72754 88.56141 41.47210
#
# Poissons Ratio (x) = 0.85165 0.24752
# Poissons Ratio (y) = 0.38204 0.14665
# Poissons Ratio (z) = 0.23710 0.31317
#
# Static dielectric constant tensor:
#      x y z
#    x 3.455530 0.000000 0.000000 
#    y 0.000000 3.821680 0.000000 
#    z 0.000000 0.000000 3.135070 
# 
# 
# High freq. dielectric constant tensor:
#      x y z
#    x 1.722160 0.000000 0.000000 
#    y 0.000000 1.722520 0.000000 
#    z 0.000000 0.000000 1.700150 
# 
# From -- ./inp_files/6122.got.cif
#   From: 2010.03.12/outbox.cif.g09.slc.cpg/sg47_4_cif.got.tgz:6122.got - 2010.04.14 03:12:58.
