data_PCOD8199313
_publ_section_title
;
Structure prediction by ZEFSAII (Michael W. Deem and Ramdas Pophale) SiO2 
 PCOD8199313
Probable space group: P M M M
;
_chemical_formula_sum "Si O2"
_cell_formula_units_Z 64
_cell_length_a 9.262330
_cell_length_b 14.286392
_cell_length_c 25.633461
_cell_angle_alpha 90.000000
_cell_angle_beta 90.000000
_cell_angle_gamma 90.000000
_cell_volume 3391.954833
_symmetry_space_group_name_H-M "P M M M"
_symmetry_group_IT_number 47
_symmetry_cell_setting 'orthorhombic'
loop_
_space_group_symop_operation_xyz
x,y,z
-x,-y,z
x,-y,-z
-x,y,-z
-x,-y,-z
x,y,-z
-x,y,z
x,-y,z
loop_
_atom_site_type_symbol
_atom_site_label
_atom_site_fract_x
_atom_site_fract_y
_atom_site_fract_z
Si Si1 0.164633 0.392229 0.439444
Si Si2 0.830978 0.608111 0.845373
Si Si3 0.833232 0.270982 0.057705
Si Si4 0.658371 0.110331 0.785202
Si Si5 0.669757 0.894298 0.099370
Si Si6 0.329693 0.725945 0.357471
Si Si7 0.331022 0.606935 0.256567
Si Si8 0.831092 0.108641 0.314724
O O1 0.185142 0.368808 0.500000
O O2 0.203145 0.500000 0.428336
O O3 0.274894 0.327977 0.408142
O O4 0.000000 0.371507 0.422325
O O5 0.791173 0.500000 0.852765
O O6 0.775420 0.658486 0.897990
O O7 0.748507 0.648310 0.794542
O O8 0.000000 0.623313 0.836319
O O9 0.749475 0.172800 0.059077
O O10 0.000000 0.249180 0.067549
O O11 0.809022 0.315147 0.000000
O O12 0.500000 0.153117 0.770097
O O13 0.707860 0.143826 0.842403
O O14 0.776156 0.139342 0.742601
O O15 0.640601 0.000000 0.788475
O O16 0.500000 0.889921 0.089560
O O17 0.726276 0.000000 0.090977
O O18 0.500000 0.739950 0.361991
O O19 0.284563 0.667518 0.306347
O O20 0.253188 0.827659 0.356437
O O21 0.500000 0.613340 0.246073
O O22 0.282571 0.500000 0.267208
O O23 0.000000 0.128804 0.317998
O O24 0.795646 0.000000 0.326362
#
# Coordination Sequence:
#
# PCOD8199313 Si02
#       8
#     8   8   8   8   8   8   8   8
#     4   9  19  37  60  86 118 155 193 234 278 323
#     4   9  19  36  56  76  99 131 170 212 262 319
#     4  10  22  37  52  74 101 129 168 218 267 317
#     4   8  15  30  50  71  97 130 169 213 262 316
#     4   9  19  35  54  75 100 132 169 209 257 318
#     4  11  22  34  54  84 116 152 190 229 274 325
#     4   9  19  35  53  77 110 142 171 209 261 320
#     4  10  21  35  51  75 109 148 189 231 275 324
#
# _framework density 18.868176999999999
#
# number of rings (size 3 to 8) (size 9 to 14) (size 15 to 20)
#    0.000    2.625    0.000    2.250    1.750    4.750 
#    0.000    5.625    0.000    0.375    0.000    5.250 
#    0.000    0.000    0.000    0.000    0.000    0.000 
#
# Total GULP energy -793569.840374 kJ/mol
# GULP energy per Si atom -12399.528756 kJ/mol
# Density = 1.882523 g / cm^3
# Si number density = 18.868177 Si / 1000 Ang^3
#
#
#
# Elastic Constant Matrix: (Units=GPa)
#
#
# Indices 1 2 3 4 5 6 
#
# 1 70.6150 40.2085 47.4084 0.0000 0.0000 0.0000
# 2 40.2085 71.8664 47.9856 0.0000 0.0000 0.0000
# 3 47.4084 47.9856 96.4174 0.0000 0.0000 0.0000
# 4 0.0000 0.0000 0.0000 30.7683 0.0000 0.0000
# 5 0.0000 0.0000 0.0000 0.0000 17.3181 0.0000
# 6 0.0000 0.0000 0.0000 0.0000 0.0000 25.6929
#
#
#
# Elastic Compliance Matrix: (Units=1/GPa)
#
#
# Indices 1 2 3 4 5 6 
#
# 1 0.024066 -0.008333 -0.007686 0.000000 0.000000 0.000000
# 2 -0.008333 0.023725 -0.007710 0.000000 0.000000 0.000000
# 3 -0.007686 -0.007710 0.017988 0.000000 0.000000 0.000000
# 4 0.000000 0.000000 0.000000 0.032501 0.000000 0.000000
# 5 0.000000 0.000000 0.000000 0.000000 0.057743 0.000000
# 6 0.000000 0.000000 0.000000 0.000000 0.000000 0.038921
#
#
# Mechanical properties :
#
#
# Convention : Reuss Voigt Hill
#
# Bulk Modulus (GPa) = 54.58285 56.67821 55.63053
# Shear Modulus (GPa) = 20.11984 21.64226 20.88105
#
# Velocity S-wave (km/s) = 3.26902 3.39045 3.33029
# Velocity P-wave (km/s) = 6.57571 6.74026 6.65850
#
# Compressibility (1/GPa) = 0.01832077
#
# Stress axis : x y z
#
# Youngs Moduli (GPa) = 41.55197 42.14958 55.59150
#
# Poissons Ratio (x) = 0.35121 0.42730
# Poissons Ratio (y) = 0.34624 0.42864
# Poissons Ratio (z) = 0.31938 0.32499
#
# Static dielectric constant tensor:
#      x y z
#    x 3.340570 0.000000 0.000000 
#    y 0.000000 3.455350 0.000000 
#    z 0.000000 0.000000 3.407470 
# 
# 
# High freq. dielectric constant tensor:
#      x y z
#    x 1.727590 0.000000 0.000000 
#    y 0.000000 1.731420 0.000000 
#    z 0.000000 0.000000 1.720330 
# 
# From -- ./inp_files/7939.got.cif
#   From: 2010.03.12/outbox.cif.g09.slc.cpg/sg47_4_cif.got.tgz:7939.got - 2010.04.14 03:12:58.
