data_PCOD8199566
_publ_section_title
;
Structure prediction by ZEFSAII (Michael W. Deem and Ramdas Pophale) SiO2 
 PCOD8199566
Probable space group: P M M M
;
_chemical_formula_sum "Si O2"
_cell_formula_units_Z 40
_cell_length_a 9.114631
_cell_length_b 12.531242
_cell_length_c 18.341355
_cell_angle_alpha 90.000000
_cell_angle_beta 90.000000
_cell_angle_gamma 90.000000
_cell_volume 2094.906407
_symmetry_space_group_name_H-M "P M M M"
_symmetry_group_IT_number 47
_symmetry_cell_setting 'orthorhombic'
loop_
_space_group_symop_operation_xyz
x,y,z
-x,-y,z
x,-y,-z
-x,y,-z
-x,-y,-z
x,y,-z
-x,y,z
x,-y,z
loop_
_atom_site_type_symbol
_atom_site_label
_atom_site_fract_x
_atom_site_fract_y
_atom_site_fract_z
Si Si1 0.830292 0.703188 0.916521
Si Si2 0.831264 0.879602 0.685030
Si Si3 0.674165 0.500000 0.667141
Si Si4 0.328035 0.877367 0.830749
Si Si5 0.830349 0.687039 0.415677
Si Si6 0.172356 0.500000 0.178369
O O1 0.737787 0.807149 0.895508
O O2 0.781912 0.603367 0.867681
O O3 0.000000 0.730308 0.904349
O O4 0.797504 0.673583 0.000000
O O5 0.737185 0.839447 0.753541
O O6 0.799323 0.804441 0.616231
O O7 0.000000 0.872688 0.709228
O O8 0.787868 0.000000 0.662175
O O9 0.500000 0.500000 0.670459
O O10 0.727799 0.396063 0.624879
O O11 0.736796 0.500000 0.748028
O O12 0.500000 0.859642 0.827716
O O13 0.285968 0.000000 0.846254
O O14 0.787137 0.689432 0.500000
O O15 0.000000 0.653901 0.404698
O O16 0.000000 0.500000 0.196529
#
# Coordination Sequence:
#
# PCOD8199566 Si02
#       6
#     8   8   4   8   8   4
#     4  10  21  37  58  83 109 138 175 220 269 321
#     4   9  18  34  57  83 109 139 178 223 268 316
#     4  12  25  38  55  80 109 142 183 226 264 310
#     4  10  21  36  54  78 110 147 184 221 262 311
#     4  10  21  37  57  81 110 143 178 219 270 324
#     4  10  21  39  61  82 107 139 175 218 270 324
#
# _framework density 19.093931000000001
#
# number of rings (size 3 to 8) (size 9 to 14) (size 15 to 20)
#    0.000    2.000    0.000    3.300    0.000   11.600 
#    0.000    4.000    0.000    1.800    0.000    4.200 
#    0.000    0.000    0.000    0.000    0.000    0.000 
#
# Total GULP energy -496182.731192 kJ/mol
# GULP energy per Si atom -12404.568280 kJ/mol
# Density = 1.905047 g / cm^3
# Si number density = 19.093931 Si / 1000 Ang^3
#
#
#
# Elastic Constant Matrix: (Units=GPa)
#
#
# Indices 1 2 3 4 5 6 
#
# 1 78.6740 54.0779 61.0148 0.0000 0.0000 0.0000
# 2 54.0779 113.0537 72.6256 0.0000 0.0000 0.0000
# 3 61.0148 72.6256 143.3416 0.0000 0.0000 0.0000
# 4 0.0000 0.0000 0.0000 33.0986 0.0000 0.0000
# 5 0.0000 0.0000 0.0000 0.0000 0.2442 0.0000
# 6 0.0000 0.0000 0.0000 0.0000 0.0000 21.1634
#
#
#
# Elastic Compliance Matrix: (Units=1/GPa)
#
#
# Indices 1 2 3 4 5 6 
#
# 1 0.021898 -0.006652 -0.005951 0.000000 0.000000 0.000000
# 2 -0.006652 0.015134 -0.004836 0.000000 0.000000 0.000000
# 3 -0.005951 -0.004836 0.011960 0.000000 0.000000 0.000000
# 4 0.000000 0.000000 0.000000 0.030213 0.000000 0.000000
# 5 0.000000 0.000000 0.000000 0.000000 4.095790 0.000000
# 6 0.000000 0.000000 0.000000 0.000000 0.000000 0.047251
#
#
# Mechanical properties :
#
#
# Convention : Reuss Voigt Hill
#
# Bulk Modulus (GPa) = 70.85331 78.94509 74.89920
# Shear Modulus (GPa) = 1.17321 20.72463 10.94892
#
# Velocity S-wave (km/s) = 0.78471 3.29812 2.39723
# Velocity P-wave (km/s) = 6.16517 7.47923 6.85377
#
# Compressibility (1/GPa) = 0.01411367
#
# Stress axis : x y z
#
# Youngs Moduli (GPa) = 45.66605 66.07596 83.61312
#
# Poissons Ratio (x) = 0.43953 0.49758
# Poissons Ratio (y) = 0.30376 0.40439
# Poissons Ratio (z) = 0.27176 0.31957
#
# Static dielectric constant tensor:
#      x y z
#    x 3.418840 0.000000 0.000000 
#    y 0.000000 3.682410 0.000000 
#    z 0.000000 0.000000 3.512790 
# 
# 
# High freq. dielectric constant tensor:
#      x y z
#    x 1.732620 0.000000 0.000000 
#    y 0.000000 1.754620 0.000000 
#    z 0.000000 0.000000 1.745900 
# 
# From -- ./inp_files/20719.got.cif
#   From: 2010.03.12/outbox.cif.g09.slc.cpg/sg47_11_cif.got.tgz:20719.got - 2010.04.14 03:12:58.
