data_PCOD8199062
_publ_section_title
;
Structure prediction by ZEFSAII (Michael W. Deem and Ramdas Pophale) SiO2 
 PCOD8199062
Probable space group: P M M M
;
_chemical_formula_sum "Si O2"
_cell_formula_units_Z 36
_cell_length_a 9.117707
_cell_length_b 13.709090
_cell_length_c 16.128176
_cell_angle_alpha 90.000000
_cell_angle_beta 90.000000
_cell_angle_gamma 90.000000
_cell_volume 2015.948873
_symmetry_space_group_name_H-M "P M M M"
_symmetry_group_IT_number 47
_symmetry_cell_setting 'orthorhombic'
loop_
_space_group_symop_operation_xyz
x,y,z
-x,-y,z
x,-y,-z
-x,y,-z
-x,-y,-z
x,y,-z
-x,y,z
x,-y,z
loop_
_atom_site_type_symbol
_atom_site_label
_atom_site_fract_x
_atom_site_fract_y
_atom_site_fract_z
Si Si1 0.324277 0.111216 0.000000
Si Si2 0.672345 0.390390 0.261483
Si Si3 0.830802 0.288244 0.594416
Si Si4 0.328360 0.110429 0.335760
Si Si5 0.328263 0.794310 0.834003
O O1 0.257658 0.166787 0.080548
O O2 0.500000 0.112051 0.000000
O O3 0.267687 0.000000 0.000000
O O4 0.500000 0.376534 0.277456
O O5 0.710615 0.500000 0.232674
O O6 0.751671 0.367509 0.347948
O O7 0.726480 0.315007 0.190170
O O8 0.811380 0.322934 0.500000
O O9 0.761091 0.181034 0.604029
O O10 0.000000 0.282312 0.620038
O O11 0.500000 0.128998 0.350592
O O12 0.287224 0.132269 0.240231
O O13 0.284020 0.000000 0.356769
O O14 0.500000 0.791865 0.848449
#
# Coordination Sequence:
#
# PCOD8199062 Si02
#       5
#     4   8   8   8   8
#     4   9  14  20  37  67 100 129 153 181 222 269
#     4   9  18  33  51  68  89 120 156 194 236 280
#     4  10  21  34  47  67  94 120 150 193 240 283
#     4   9  17  30  48  68  93 127 162 193 227 271
#     4   8  14  25  41  65  96 124 152 187 226 270
#
# _framework density 17.857596000000001
#
# number of rings (size 3 to 8) (size 9 to 14) (size 15 to 20)
#    0.000    3.000    0.000    2.667    0.000    6.222 
#    0.000    5.000    0.000    3.333    0.000   12.444 
#    0.000   28.444    0.000    0.000    0.000    0.000 
#
# Total GULP energy -446241.904180 kJ/mol
# GULP energy per Si atom -12395.608449 kJ/mol
# Density = 1.781695 g / cm^3
# Si number density = 17.857596 Si / 1000 Ang^3
#
#
#
# Elastic Constant Matrix: (Units=GPa)
#
#
# Indices 1 2 3 4 5 6 
#
# 1 39.9730 28.8613 24.9658 0.0000 0.0000 0.0000
# 2 28.8613 135.5375 46.6749 0.0000 0.0000 0.0000
# 3 24.9658 46.6749 99.8613 0.0000 0.0000 0.0000
# 4 0.0000 0.0000 0.0000 12.2978 0.0000 0.0000
# 5 0.0000 0.0000 0.0000 0.0000 2.3276 0.0000
# 6 0.0000 0.0000 0.0000 0.0000 0.0000 10.4676
#
#
#
# Elastic Compliance Matrix: (Units=1/GPa)
#
#
# Indices 1 2 3 4 5 6 
#
# 1 0.032121 -0.004856 -0.005761 0.000000 0.000000 0.000000
# 2 -0.004856 0.009528 -0.003239 0.000000 0.000000 0.000000
# 3 -0.005761 -0.003239 0.012968 0.000000 0.000000 0.000000
# 4 0.000000 0.000000 0.000000 0.081315 0.000000 0.000000
# 5 0.000000 0.000000 0.000000 0.000000 0.429633 0.000000
# 6 0.000000 0.000000 0.000000 0.000000 0.000000 0.095533
#
#
# Mechanical properties :
#
#
# Convention : Reuss Voigt Hill
#
# Bulk Modulus (GPa) = 37.16802 52.93065 45.04934
# Shear Modulus (GPa) = 7.16561 16.67659 11.92110
#
# Velocity S-wave (km/s) = 2.00533 3.05924 2.58653
# Velocity P-wave (km/s) = 5.12060 6.49487 5.84824
#
# Compressibility (1/GPa) = 0.02690485
#
# Stress axis : x y z
#
# Youngs Moduli (GPa) = 31.13236 104.95919 77.11263
#
# Poissons Ratio (x) = 0.50968 0.44422
# Poissons Ratio (y) = 0.15118 0.24978
# Poissons Ratio (z) = 0.17934 0.33997
#
# Static dielectric constant tensor:
#      x y z
#    x 2.950470 0.000000 0.000000 
#    y 0.000000 3.607900 0.000000 
#    z 0.000000 0.000000 3.383030 
# 
# 
# High freq. dielectric constant tensor:
#      x y z
#    x 1.649600 0.000000 0.000000 
#    y 0.000000 1.696690 0.000000 
#    z 0.000000 0.000000 1.683580 
# 
# From -- ./inp_files/5494.got.cif
#   From: 2010.03.12/outbox.cif.g09.slc.cpg/sg47_3_cif.got.tgz:5494.got - 2010.04.14 03:12:58.
