data_PCOD8199490
_publ_section_title
;
Structure prediction by ZEFSAII (Michael W. Deem and Ramdas Pophale) SiO2 
 PCOD8199490
Probable space group: P M M M
;
_chemical_formula_sum "Si O2"
_cell_formula_units_Z 48
_cell_length_a 22.407311
_cell_length_b 14.309869
_cell_length_c 8.212051
_cell_angle_alpha 90.000000
_cell_angle_beta 90.000000
_cell_angle_gamma 90.000000
_cell_volume 2633.158719
_symmetry_space_group_name_H-M "P M M M"
_symmetry_group_IT_number 47
_symmetry_cell_setting 'orthorhombic'
loop_
_space_group_symop_operation_xyz
x,y,z
-x,-y,z
x,-y,-z
-x,y,-z
-x,-y,-z
x,y,-z
-x,y,z
x,-y,z
loop_
_atom_site_type_symbol
_atom_site_label
_atom_site_fract_x
_atom_site_fract_y
_atom_site_fract_z
Si Si1 0.154158 0.104900 0.187890
Si Si2 0.390170 0.788623 0.183532
Si Si3 0.568012 0.603749 0.308045
Si Si4 0.929847 0.274777 0.813027
Si Si5 0.280563 0.893631 0.687372
Si Si6 0.929259 0.605436 0.500000
Si Si7 0.500000 0.101056 0.314361
O O1 0.100246 0.175171 0.224315
O O2 0.212381 0.138332 0.286759
O O3 0.134537 0.000000 0.241424
O O4 0.172226 0.106211 0.000000
O O5 0.388755 0.678591 0.224591
O O6 0.324268 0.827745 0.211975
O O7 0.440262 0.840981 0.285425
O O8 0.409012 0.804068 0.000000
O O9 0.573629 0.613214 0.500000
O O10 0.500000 0.622924 0.253422
O O11 0.587675 0.500000 0.251959
O O12 0.907790 0.345415 0.669774
O O13 0.000000 0.258613 0.798506
O O14 0.914224 0.309407 0.000000
O O15 0.297843 0.884122 0.500000
O O16 0.288381 0.000000 0.748748
O O17 0.903341 0.500000 0.500000
O O18 0.000000 0.603062 0.500000
O O19 0.500000 0.076284 0.500000
O O20 0.500000 0.000000 0.220680
#
# Coordination Sequence:
#
# PCOD8199490 Si02
#       7
#     8   8   8   8   8   4   4
#     4   9  18  33  53  78 109 144 181 220 263 313
#     4  12  23  34  52  78 105 133 166 210 263 311
#     4   9  18  34  56  78 101 131 166 204 248 304
#     4   9  18  32  52  81 115 148 183 225 274 326
#     4  10  21  36  54  75 101 139 182 217 252 305
#     4   9  18  32  51  77 109 145 186 231 277 326
#     4  11  23  37  52  71 100 135 169 208 254 307
#
# _framework density 18.229056
#
# number of rings (size 3 to 8) (size 9 to 14) (size 15 to 20)
#    0.000    2.167    0.833    3.250    1.167    4.667 
#    0.000    4.167    0.000    2.500    0.000    2.333 
#    0.000    0.000    0.000    0.000    0.000    0.000 
#
# Total GULP energy -595029.147269 kJ/mol
# GULP energy per Si atom -12396.440568 kJ/mol
# Density = 1.818757 g / cm^3
# Si number density = 18.229056 Si / 1000 Ang^3
#
#
#
# Elastic Constant Matrix: (Units=GPa)
#
#
# Indices 1 2 3 4 5 6 
#
# 1 59.7420 49.8181 26.5404 0.0000 0.0000 0.0000
# 2 49.8181 130.5136 51.3527 0.0000 0.0000 0.0000
# 3 26.5404 51.3527 84.6247 0.0000 0.0000 0.0000
# 4 0.0000 0.0000 0.0000 2.4045 0.0000 0.0000
# 5 0.0000 0.0000 0.0000 0.0000 23.0981 0.0000
# 6 0.0000 0.0000 0.0000 0.0000 0.0000 17.0476
#
#
#
# Elastic Compliance Matrix: (Units=1/GPa)
#
#
# Indices 1 2 3 4 5 6 
#
# 1 0.025013 -0.008488 -0.002694 0.000000 0.000000 0.000000
# 2 -0.008488 0.012945 -0.005194 0.000000 0.000000 0.000000
# 3 -0.002694 -0.005194 0.015814 0.000000 0.000000 0.000000
# 4 0.000000 0.000000 0.000000 0.415882 0.000000 0.000000
# 5 0.000000 0.000000 0.000000 0.000000 0.043294 0.000000
# 6 0.000000 0.000000 0.000000 0.000000 0.000000 0.058659
#
#
# Mechanical properties :
#
#
# Convention : Reuss Voigt Hill
#
# Bulk Modulus (GPa) = 47.57136 58.92251 53.24694
# Shear Modulus (GPa) = 8.17841 18.32131 13.24986
#
# Velocity S-wave (km/s) = 2.12043 3.17371 2.69895
# Velocity P-wave (km/s) = 5.66992 6.76930 6.24386
#
# Compressibility (1/GPa) = 0.02102105
#
# Stress axis : x y z
#
# Youngs Moduli (GPa) = 39.97868 77.24745 63.23694
#
# Poissons Ratio (x) = 0.65565 0.17037
# Poissons Ratio (y) = 0.33933 0.32843
# Poissons Ratio (z) = 0.10771 0.40120
#
# Static dielectric constant tensor:
#      x y z
#    x 3.091220 0.000000 0.000000 
#    y 0.000000 3.674280 0.000000 
#    z 0.000000 0.000000 3.493570 
# 
# 
# High freq. dielectric constant tensor:
#      x y z
#    x 1.677940 0.000000 0.000000 
#    y 0.000000 1.705170 0.000000 
#    z 0.000000 0.000000 1.713960 
# 
# From -- ./inp_files/9229.got.cif
#   From: 2010.03.12/outbox.cif.g09.slc.cpg/sg47_5_cif.got.tgz:9229.got - 2010.04.14 03:12:58.
