data_PCOD8199982
_publ_section_title
;
Structure prediction by ZEFSAII (Michael W. Deem and Ramdas Pophale) SiO2 
 PCOD8199982
Probable space group: P M M M
;
_chemical_formula_sum "Si O2"
_cell_formula_units_Z 56
_cell_length_a 21.252589
_cell_length_b 9.097794
_cell_length_c 15.348948
_cell_angle_alpha 90.000000
_cell_angle_beta 90.000000
_cell_angle_gamma 90.000000
_cell_volume 2967.744831
_symmetry_space_group_name_H-M "P M M M"
_symmetry_group_IT_number 47
_symmetry_cell_setting 'orthorhombic'
loop_
_space_group_symop_operation_xyz
x,y,z
-x,-y,z
x,-y,-z
-x,y,-z
-x,-y,-z
x,y,-z
-x,y,z
x,-y,z
loop_
_atom_site_type_symbol
_atom_site_label
_atom_site_fract_x
_atom_site_fract_y
_atom_site_fract_z
Si Si1 0.500000 0.673249 0.150029
Si Si2 0.715085 0.827543 0.750613
Si Si3 0.927650 0.169718 0.100711
Si Si4 0.376637 0.167614 0.597595
Si Si5 0.622648 0.832894 0.097305
Si Si6 0.070479 0.674588 0.596373
Si Si7 0.500000 0.673515 0.650864
Si Si8 0.847744 0.325304 0.243895
O O1 0.500000 0.500000 0.141637
O O2 0.561352 0.733127 0.102606
O O3 0.500000 0.726401 0.249575
O O4 0.676765 0.779812 0.664585
O O5 0.675334 0.779946 0.835159
O O6 0.777873 0.734782 0.753193
O O7 0.731096 0.000000 0.750963
O O8 0.882889 0.271660 0.157629
O O9 0.000000 0.208040 0.121656
O O10 0.913750 0.000000 0.122223
O O11 0.912805 0.202513 0.000000
O O12 0.349123 0.182895 0.500000
O O13 0.438370 0.266087 0.604086
O O14 0.395851 0.000000 0.618734
O O15 0.602819 0.000000 0.118805
O O16 0.650912 0.819488 0.000000
O O17 0.092940 0.727076 0.500000
O O18 0.069959 0.500000 0.599777
O O19 0.116608 0.737072 0.670444
O O20 0.000000 0.733855 0.614528
O O21 0.500000 0.500000 0.641834
O O22 0.846051 0.500000 0.242744
#
# Coordination Sequence:
#
# PCOD8199982 Si02
#       8
#     4   8   8   8   8   8   4   8
#     4  11  22  35  56  85 115 140 167 214 279 333
#     4  10  22  39  55  75 108 148 187 227 268 317
#     4   9  19  37  60  84 111 146 186 226 273 331
#     4  10  21  38  60  82 105 141 188 231 274 325
#     4  10  21  38  60  81 101 136 185 226 266 322
#     4   8  15  30  52  78 109 144 180 218 264 321
#     4  11  22  35  56  85 115 142 173 220 281 339
#     4  11  22  34  54  84 115 146 185 229 277 325
#
# _framework density 18.869547000000001
#
# number of rings (size 3 to 8) (size 9 to 14) (size 15 to 20)
#    0.000    2.143    1.429    2.571    0.000    6.286 
#    0.000    2.143    0.000    1.286    0.000    5.000 
#    0.000    0.000    0.000    0.000    0.000    0.000 
#
# Total GULP energy -694499.914196 kJ/mol
# GULP energy per Si atom -12401.784182 kJ/mol
# Density = 1.882660 g / cm^3
# Si number density = 18.869547 Si / 1000 Ang^3
#
#
#
# Elastic Constant Matrix: (Units=GPa)
#
#
# Indices 1 2 3 4 5 6 
#
# 1 141.2133 51.6641 81.7028 0.0000 0.0000 0.0000
# 2 51.6641 57.9234 43.2841 0.0000 0.0000 0.0000
# 3 81.7028 43.2841 148.1993 0.0000 0.0000 0.0000
# 4 0.0000 0.0000 0.0000 23.0511 0.0000 0.0000
# 5 0.0000 0.0000 0.0000 0.0000 -13.0615 0.0000
# 6 0.0000 0.0000 0.0000 0.0000 0.0000 10.8669
#
#
#
# Elastic Compliance Matrix: (Units=1/GPa)
#
#
# Indices 1 2 3 4 5 6 
#
# 1 0.012642 -0.007762 -0.004703 0.000000 0.000000 0.000000
# 2 -0.007762 0.026850 -0.003563 0.000000 0.000000 0.000000
# 3 -0.004703 -0.003563 0.010381 0.000000 0.000000 0.000000
# 4 0.000000 0.000000 0.000000 0.043382 0.000000 0.000000
# 5 0.000000 0.000000 0.000000 0.000000 -0.076561 0.000000
# 6 0.000000 0.000000 0.000000 0.000000 0.000000 0.092023
#
#
# Mechanical properties :
#
#
# Convention : Reuss Voigt Hill
#
# Bulk Modulus (GPa) = 56.12296 77.84866 66.98581
# Shear Modulus (GPa) = 34.08088 15.55030 24.81559
#
# Velocity S-wave (km/s) = 4.25447 2.87382 3.63038
# Velocity P-wave (km/s) = 7.34447 7.23585 7.29036
#
# Compressibility (1/GPa) = 0.01781802
#
# Stress axis : x y z
#
# Youngs Moduli (GPa) = 79.10104 37.24453 96.33149
#
# Poissons Ratio (x) = 0.28909 0.45301
# Poissons Ratio (y) = 0.61397 0.34321
# Poissons Ratio (z) = 0.37198 0.13269
#
# Static dielectric constant tensor:
#      x y z
#    x 3.376610 0.000000 0.000000 
#    y 0.000000 3.240620 0.000000 
#    z 0.000000 0.000000 3.779260 
# 
# 
# High freq. dielectric constant tensor:
#      x y z
#    x 1.725680 0.000000 0.000000 
#    y 0.000000 1.714830 0.000000 
#    z 0.000000 0.000000 1.752400 
# 
# From -- ./inp_files/25232.got.cif
#   From: 2010.03.12/outbox.cif.g09.slc.cpg/sg47_13_cif.got.tgz:25232.got - 2010.04.14 03:12:58.
