data_PCOD8199747
_publ_section_title
;
Structure prediction by ZEFSAII (Michael W. Deem and Ramdas Pophale) SiO2 
 PCOD8199747
Probable space group: P M M M
;
_chemical_formula_sum "Si O2"
_cell_formula_units_Z 48
_cell_length_a 33.927488
_cell_length_b 7.730365
_cell_length_c 9.252881
_cell_angle_alpha 90.000000
_cell_angle_beta 90.000000
_cell_angle_gamma 90.000000
_cell_volume 2426.770364
_symmetry_space_group_name_H-M "P M M M"
_symmetry_group_IT_number 47
_symmetry_cell_setting 'orthorhombic'
loop_
_space_group_symop_operation_xyz
x,y,z
-x,-y,z
x,-y,-z
-x,y,-z
-x,-y,-z
x,y,-z
-x,y,z
x,-y,z
loop_
_atom_site_type_symbol
_atom_site_label
_atom_site_fract_x
_atom_site_fract_y
_atom_site_fract_z
Si Si1 0.748398 0.196200 0.660891
Si Si2 0.820612 0.297747 0.162082
Si Si3 0.046486 0.000000 0.333662
Si Si4 0.543834 0.000000 0.671167
Si Si5 0.601202 0.699967 0.669473
Si Si6 0.323886 0.697395 0.841785
Si Si7 0.910691 0.698564 0.830841
O O1 0.748773 0.278282 0.500000
O O2 0.792161 0.202943 0.726231
O O3 0.717814 0.295056 0.761633
O O4 0.734290 0.000000 0.652699
O O5 0.811941 0.500000 0.167906
O O6 0.865425 0.258262 0.206942
O O7 0.812659 0.228362 0.000000
O O8 0.062142 0.173997 0.259712
O O9 0.059731 0.000000 0.500000
O O10 0.000000 0.000000 0.316791
O O11 0.565809 0.175595 0.721896
O O12 0.500000 0.000000 0.739451
O O13 0.541014 0.000000 0.500000
O O14 0.609153 0.719210 0.500000
O O15 0.590971 0.500000 0.708340
O O16 0.640495 0.773913 0.746817
O O17 0.334340 0.500000 0.866205
O O18 0.321346 0.789061 0.000000
O O19 0.920539 0.500000 0.789055
O O20 0.918508 0.728180 0.000000
#
# Coordination Sequence:
#
# PCOD8199747 Si02
#       7
#     8   8   4   4   8   8   8
#     4  11  24  36  49  77 114 148 184 226 271 323
#     4   9  19  37  59  82 109 143 185 232 280 329
#     4  11  25  41  59  88 125 160 193 237 296 359
#     4   9  18  32  53  82 111 138 173 219 268 325
#     4   9  18  33  54  79 108 142 178 221 273 324
#     4  10  21  37  56  77 103 139 184 231 276 323
#     4   9  20  40  65  91 118 153 199 247 293 345
#
# _framework density 19.779374000000001
#
# number of rings (size 3 to 8) (size 9 to 14) (size 15 to 20)
#    0.000    2.333    0.000    2.750    2.333    7.000 
#    0.000    5.000    0.000    1.000    0.000    2.333 
#    0.000    0.000    0.000    0.000    0.000    0.000 
#
# Total GULP energy -595108.274615 kJ/mol
# GULP energy per Si atom -12398.089054 kJ/mol
# Density = 1.973435 g / cm^3
# Si number density = 19.779374 Si / 1000 Ang^3
#
#
#
# Elastic Constant Matrix: (Units=GPa)
#
#
# Indices 1 2 3 4 5 6 
#
# 1 126.6431 51.0662 67.9221 0.0000 0.0000 0.0000
# 2 51.0662 86.9449 44.1938 0.0000 0.0000 0.0000
# 3 67.9221 44.1938 115.0043 0.0000 0.0000 0.0000
# 4 0.0000 0.0000 0.0000 18.7986 0.0000 0.0000
# 5 0.0000 0.0000 0.0000 0.0000 19.7563 0.0000
# 6 0.0000 0.0000 0.0000 0.0000 0.0000 34.1291
#
#
#
# Elastic Compliance Matrix: (Units=1/GPa)
#
#
# Indices 1 2 3 4 5 6 
#
# 1 0.012883 -0.004597 -0.005842 0.000000 0.000000 0.000000
# 2 -0.004597 0.015934 -0.003408 0.000000 0.000000 0.000000
# 3 -0.005842 -0.003408 0.013455 0.000000 0.000000 0.000000
# 4 0.000000 0.000000 0.000000 0.053195 0.000000 0.000000
# 5 0.000000 0.000000 0.000000 0.000000 0.050617 0.000000
# 6 0.000000 0.000000 0.000000 0.000000 0.000000 0.029301
#
#
# Mechanical properties :
#
#
# Convention : Reuss Voigt Hill
#
# Bulk Modulus (GPa) = 68.59801 72.77293 70.68547
# Shear Modulus (GPa) = 24.04544 25.56415 24.80479
#
# Velocity S-wave (km/s) = 3.49045 3.59899 3.54513
# Velocity P-wave (km/s) = 7.14151 7.35816 7.25064
#
# Compressibility (1/GPa) = 0.01457768
#
# Stress axis : x y z
#
# Youngs Moduli (GPa) = 77.61948 62.75915 74.31947
#
# Poissons Ratio (x) = 0.28852 0.43420
# Poissons Ratio (y) = 0.35684 0.25327
# Poissons Ratio (z) = 0.45348 0.21388
#
# Static dielectric constant tensor:
#      x y z
#    x 3.595890 0.000000 0.000000 
#    y 0.000000 3.538530 0.000000 
#    z 0.000000 0.000000 3.714290 
# 
# 
# High freq. dielectric constant tensor:
#      x y z
#    x 1.767570 0.000000 0.000000 
#    y 0.000000 1.771520 0.000000 
#    z 0.000000 0.000000 1.761800 
# 
# From -- ./inp_files/13838.got.cif
#   From: 2010.03.12/outbox.cif.g09.slc.cpg/sg47_7_cif.got.tgz:13838.got - 2010.04.14 03:12:58.
