data_PCOD8199220
_publ_section_title
;
Structure prediction by ZEFSAII (Michael W. Deem and Ramdas Pophale) SiO2 
 PCOD8199220
Probable space group: P M M M
;
_chemical_formula_sum "Si O2"
_cell_formula_units_Z 40
_cell_length_a 9.397942
_cell_length_b 9.321023
_cell_length_c 25.670917
_cell_angle_alpha 90.000000
_cell_angle_beta 90.000000
_cell_angle_gamma 90.000000
_cell_volume 2248.732117
_symmetry_space_group_name_H-M "P M M M"
_symmetry_group_IT_number 47
_symmetry_cell_setting 'orthorhombic'
loop_
_space_group_symop_operation_xyz
x,y,z
-x,-y,z
x,-y,-z
-x,y,-z
-x,-y,-z
x,y,-z
-x,y,z
x,-y,z
loop_
_atom_site_type_symbol
_atom_site_label
_atom_site_fract_x
_atom_site_fract_y
_atom_site_fract_z
Si Si1 0.665258 0.166819 0.899747
Si Si2 0.342541 0.329740 0.404932
Si Si3 0.669094 0.338057 0.000000
Si Si4 0.164456 0.831873 0.798140
Si Si5 0.335663 0.667908 0.288057
Si Si6 0.840847 0.671507 0.500000
O O1 0.500000 0.199382 0.888421
O O2 0.724142 0.256199 0.948764
O O3 0.754831 0.218332 0.850138
O O4 0.689594 0.000000 0.912230
O O5 0.500000 0.268392 0.416487
O O6 0.347925 0.500000 0.408454
O O7 0.294081 0.285626 0.346873
O O8 0.235644 0.267454 0.448231
O O9 0.728727 0.500000 0.000000
O O10 0.500000 0.336183 0.000000
O O11 0.231511 0.753335 0.749130
O O12 0.000000 0.788776 0.803340
O O13 0.184813 0.000000 0.789427
O O14 0.500000 0.707211 0.276634
O O15 0.310348 0.500000 0.279482
O O16 0.839109 0.500000 0.500000
O O17 0.000000 0.732052 0.500000
#
# Coordination Sequence:
#
# PCOD8199220 Si02
#       6
#     8   8   4   8   8   4
#     4   9  17  31  51  71  92 122 159 196 234 278
#     4   8  14  25  40  59  86 119 153 191 236 283
#     4   9  17  29  48  75 100 120 150 195 240 279
#     4  10  21  35  50  71  99 130 164 200 240 288
#     4   9  18  32  50  72  96 124 161 203 246 291
#     4   9  15  21  33  57  88 121 156 191 228 276
#
# _framework density 17.787801999999999
#
# number of rings (size 3 to 8) (size 9 to 14) (size 15 to 20)
#    0.000    3.000    0.000    2.400    0.000    5.600 
#    0.000    4.500    0.000    3.000    0.000    0.700 
#    0.000    5.600    0.000    0.000    0.000    0.000 
#
# Total GULP energy -495922.855061 kJ/mol
# GULP energy per Si atom -12398.071377 kJ/mol
# Density = 1.774732 g / cm^3
# Si number density = 17.787802 Si / 1000 Ang^3
#
#
#
# Elastic Constant Matrix: (Units=GPa)
#
#
# Indices 1 2 3 4 5 6 
#
# 1 113.4713 36.2670 95.9561 0.0000 0.0000 0.0000
# 2 36.2670 40.2296 51.5752 0.0000 0.0000 0.0000
# 3 95.9561 51.5752 179.9249 0.0000 0.0000 0.0000
# 4 0.0000 0.0000 0.0000 -2.3530 0.0000 0.0000
# 5 0.0000 0.0000 0.0000 0.0000 8.2584 0.0000
# 6 0.0000 0.0000 0.0000 0.0000 0.0000 18.8487
#
#
#
# Elastic Compliance Matrix: (Units=1/GPa)
#
#
# Indices 1 2 3 4 5 6 
#
# 1 0.016869 -0.005808 -0.007332 0.000000 0.000000 0.000000
# 2 -0.005808 0.041299 -0.008741 0.000000 0.000000 0.000000
# 3 -0.007332 -0.008741 0.011973 0.000000 0.000000 0.000000
# 4 0.000000 0.000000 0.000000 -0.424984 0.000000 0.000000
# 5 0.000000 0.000000 0.000000 0.000000 0.121088 0.000000
# 6 0.000000 0.000000 0.000000 0.000000 0.000000 0.053054
#
#
# Mechanical properties :
#
#
# Convention : Reuss Voigt Hill
#
# Bulk Modulus (GPa) = 37.90663 77.91361 57.91012
# Shear Modulus (GPa) = -39.01814 14.93932 -12.03941
#
# Velocity S-wave (km/s) = -4.68860 2.90118 -2.60443
# Velocity P-wave (km/s) = 2.82026 7.42424 4.85620
#
# Compressibility (1/GPa) = 0.02638061
#
# Stress axis : x y z
#
# Youngs Moduli (GPa) = 59.28013 24.21348 83.51848
#
# Poissons Ratio (x) = 0.14064 0.61232
# Poissons Ratio (y) = 0.34432 0.73002
# Poissons Ratio (z) = 0.43461 0.21164
#
# Static dielectric constant tensor:
#      x y z
#    x 3.295490 0.000000 0.000000 
#    y 0.000000 2.948430 0.000000 
#    z 0.000000 0.000000 3.507440 
# 
# 
# High freq. dielectric constant tensor:
#      x y z
#    x 1.676510 0.000000 0.000000 
#    y 0.000000 1.647910 0.000000 
#    z 0.000000 0.000000 1.703860 
# 
# From -- ./inp_files/13068.got.cif
#   From: 2010.03.12/outbox.cif.g09.slc.cpg/sg47_7_cif.got.tgz:13068.got - 2010.04.14 03:12:58.
