data_PCOD8199449
_publ_section_title
;
Structure prediction by ZEFSAII (Michael W. Deem and Ramdas Pophale) SiO2 
 PCOD8199449
Probable space group: P M M M
;
_chemical_formula_sum "Si O2"
_cell_formula_units_Z 48
_cell_length_a 8.987842
_cell_length_b 31.086177
_cell_length_c 9.282328
_cell_angle_alpha 90.000000
_cell_angle_beta 90.000000
_cell_angle_gamma 90.000000
_cell_volume 2593.460604
_symmetry_space_group_name_H-M "P M M M"
_symmetry_group_IT_number 47
_symmetry_cell_setting 'orthorhombic'
loop_
_space_group_symop_operation_xyz
x,y,z
-x,-y,z
x,-y,-z
-x,y,-z
-x,-y,-z
x,y,-z
-x,y,z
x,-y,z
loop_
_atom_site_type_symbol
_atom_site_label
_atom_site_fract_x
_atom_site_fract_y
_atom_site_fract_z
Si Si1 0.325494 0.801199 0.166212
Si Si2 0.677197 0.638203 0.335056
Si Si3 0.670897 0.049832 0.165797
Si Si4 0.169800 0.285571 0.169873
Si Si5 0.827781 0.122399 0.668841
Si Si6 0.333384 0.454508 0.671000
O O1 0.500000 0.795615 0.187694
O O2 0.248044 0.757950 0.223902
O O3 0.269690 0.840657 0.259819
O O4 0.284088 0.809989 0.000000
O O5 0.723676 0.646715 0.500000
O O6 0.500000 0.639681 0.318465
O O7 0.750472 0.673676 0.236689
O O8 0.739154 0.591057 0.280386
O O9 0.500000 0.061191 0.201524
O O10 0.779523 0.076589 0.267552
O O11 0.702760 0.000000 0.196138
O O12 0.704678 0.061226 0.000000
O O13 0.000000 0.284138 0.221345
O O14 0.184724 0.289853 0.000000
O O15 0.796299 0.122121 0.500000
O O16 0.000000 0.130520 0.704087
O O17 0.340730 0.452663 0.500000
O O18 0.500000 0.456243 0.733167
O O19 0.252470 0.500000 0.718993
#
# Coordination Sequence:
#
# PCOD8199449 Si02
#       6
#     8   8   8   8   8   8
#     4  10  21  38  60  81  99 126 169 216 258 303
#     4   9  17  29  48  75 102 128 162 205 253 302
#     4   9  19  37  60  84 109 140 181 224 261 300
#     4  10  21  36  53  73  99 133 170 206 249 302
#     4  11  24  38  53  79 114 146 174 208 254 306
#     4   7  10  19  38  65  95 124 156 198 246 293
#
# _framework density 18.508088999999998
#
# number of rings (size 3 to 8) (size 9 to 14) (size 15 to 20)
#    0.000    2.667    0.000    4.000    0.000    7.333 
#    0.000    2.500    0.000    1.000    0.000    5.833 
#    0.000    0.000    0.000    0.000    0.000    0.000 
#
# Total GULP energy -594879.028022 kJ/mol
# GULP energy per Si atom -12393.313084 kJ/mol
# Density = 1.846596 g / cm^3
# Si number density = 18.508089 Si / 1000 Ang^3
#
#
#
# Elastic Constant Matrix: (Units=GPa)
#
#
# Indices 1 2 3 4 5 6 
#
# 1 46.1998 32.4367 20.5487 0.0000 0.0000 0.0000
# 2 32.4367 132.7663 35.4154 0.0000 0.0000 0.0000
# 3 20.5487 35.4154 38.8955 0.0000 0.0000 0.0000
# 4 0.0000 0.0000 0.0000 31.9404 0.0000 0.0000
# 5 0.0000 0.0000 0.0000 0.0000 26.9307 0.0000
# 6 0.0000 0.0000 0.0000 0.0000 0.0000 -5.2477
#
#
#
# Elastic Compliance Matrix: (Units=1/GPa)
#
#
# Indices 1 2 3 4 5 6 
#
# 1 0.029878 -0.004080 -0.012070 0.000000 0.000000 0.000000
# 2 -0.004080 0.010505 -0.007410 0.000000 0.000000 0.000000
# 3 -0.012070 -0.007410 0.038833 0.000000 0.000000 0.000000
# 4 0.000000 0.000000 0.000000 0.031308 0.000000 0.000000
# 5 0.000000 0.000000 0.000000 0.000000 0.037132 0.000000
# 6 0.000000 0.000000 0.000000 0.000000 0.000000 -0.190559
#
#
# Mechanical properties :
#
#
# Convention : Reuss Voigt Hill
#
# Bulk Modulus (GPa) = 31.15521 43.85149 37.50335
# Shear Modulus (GPa) = 335.18508 19.35539 177.27024
#
# Velocity S-wave (km/s) = 13.47201 3.23736 9.79734
# Velocity P-wave (km/s) = 16.08923 6.14155 12.17748
#
# Compressibility (1/GPa) = 0.03209736
#
# Stress axis : x y z
#
# Youngs Moduli (GPa) = 33.46940 95.18852 25.75104
#
# Poissons Ratio (x) = 0.38837 0.31081
# Poissons Ratio (y) = 0.13656 0.19082
# Poissons Ratio (z) = 0.40397 0.70535
#
# Static dielectric constant tensor:
#      x y z
#    x 3.279560 0.000000 0.000000 
#    y 0.000000 3.806350 0.000000 
#    z 0.000000 0.000000 3.163320 
# 
# 
# High freq. dielectric constant tensor:
#      x y z
#    x 1.698820 0.000000 0.000000 
#    y 0.000000 1.744780 0.000000 
#    z 0.000000 0.000000 1.690860 
# 
# From -- ./inp_files/2450.got.cif
#   From: 2010.03.12/outbox.cif.g09.slc.cpg/sg47_2_cif.got.tgz:2450.got - 2010.04.14 03:12:58.
