data_PCOD8199324
_publ_section_title
;
Structure prediction by ZEFSAII (Michael W. Deem and Ramdas Pophale) SiO2 
 PCOD8199324
Probable space group: P M M M
;
_chemical_formula_sum "Si O2"
_cell_formula_units_Z 48
_cell_length_a 8.080500
_cell_length_b 32.349865
_cell_length_c 9.592345
_cell_angle_alpha 90.000000
_cell_angle_beta 90.000000
_cell_angle_gamma 90.000000
_cell_volume 2507.468567
_symmetry_space_group_name_H-M "P M M M"
_symmetry_group_IT_number 47
_symmetry_cell_setting 'orthorhombic'
loop_
_space_group_symop_operation_xyz
x,y,z
-x,-y,z
x,-y,-z
-x,y,-z
-x,-y,-z
x,y,-z
-x,y,z
x,-y,z
loop_
_atom_site_type_symbol
_atom_site_label
_atom_site_fract_x
_atom_site_fract_y
_atom_site_fract_z
Si Si1 0.691608 0.573710 0.655666
Si Si2 0.810628 0.660386 0.654748
Si Si3 0.310400 0.731939 0.841775
Si Si4 0.807742 0.819590 0.157637
Si Si5 0.500000 0.953852 0.665078
Si Si6 0.809937 0.100919 0.336052
Si Si7 0.697908 0.500000 0.157069
O O1 0.771600 0.570006 0.500000
O O2 0.500000 0.563844 0.643616
O O3 0.717011 0.620106 0.715161
O O4 0.768621 0.540311 0.761986
O O5 0.742475 0.671114 0.500000
O O6 0.792454 0.700259 0.750426
O O7 0.000000 0.647819 0.648173
O O8 0.500000 0.719114 0.830496
O O9 0.287003 0.778866 0.788231
O O10 0.244758 0.729223 0.000000
O O11 0.761794 0.857017 0.258746
O O12 0.000000 0.809285 0.164159
O O13 0.753238 0.831257 0.000000
O O14 0.500000 0.955721 0.500000
O O15 0.671547 0.932074 0.714262
O O16 0.500000 0.000000 0.728774
O O17 0.795662 0.109052 0.500000
O O18 0.000000 0.086736 0.298629
O O19 0.500000 0.500000 0.151609
O O20 0.769439 0.500000 0.000000
#
# Coordination Sequence:
#
# PCOD8199324 Si02
#       7
#     8   8   8   8   4   8   4
#     4   9  17  31  51  72  96 127 162 200 246 300
#     4  10  21  36  53  74 101 134 171 210 254 303
#     4  10  21  35  52  76 103 133 171 211 253 306
#     4   9  18  33  52  74 102 136 170 207 255 307
#     4   9  18  32  51  77 107 137 173 219 269 316
#     4   9  18  32  51  76 104 135 174 217 261 312
#     4   9  17  29  48  75 100 122 156 203 250 295
#
# _framework density 19.142811999999999
#
# number of rings (size 3 to 8) (size 9 to 14) (size 15 to 20)
#    0.000    2.667    0.000    1.250    1.167    4.667 
#    0.000    5.417    0.000    3.500    0.000    2.333 
#    0.000    0.000    0.000    0.000    0.000    0.000 
#
# Total GULP energy -595025.331136 kJ/mol
# GULP energy per Si atom -12396.361065 kJ/mol
# Density = 1.909924 g / cm^3
# Si number density = 19.142812 Si / 1000 Ang^3
#
#
#
# Elastic Constant Matrix: (Units=GPa)
#
#
# Indices 1 2 3 4 5 6 
#
# 1 59.3040 43.3557 26.8768 0.0000 0.0000 0.0000
# 2 43.3557 153.7109 70.2982 0.0000 0.0000 0.0000
# 3 26.8768 70.2982 75.4819 0.0000 0.0000 0.0000
# 4 0.0000 0.0000 0.0000 10.5067 0.0000 0.0000
# 5 0.0000 0.0000 0.0000 0.0000 16.8621 0.0000
# 6 0.0000 0.0000 0.0000 0.0000 0.0000 9.3232
#
#
#
# Elastic Compliance Matrix: (Units=1/GPa)
#
#
# Indices 1 2 3 4 5 6 
#
# 1 0.021773 -0.004522 -0.003542 0.000000 0.000000 0.000000
# 2 -0.004522 0.012272 -0.009819 0.000000 0.000000 0.000000
# 3 -0.003542 -0.009819 0.023654 0.000000 0.000000 0.000000
# 4 0.000000 0.000000 0.000000 0.095178 0.000000 0.000000
# 5 0.000000 0.000000 0.000000 0.000000 0.059304 0.000000
# 6 0.000000 0.000000 0.000000 0.000000 0.000000 0.107259
#
#
# Mechanical properties :
#
#
# Convention : Reuss Voigt Hill
#
# Bulk Modulus (GPa) = 45.59075 63.28424 54.43749
# Shear Modulus (GPa) = 13.79252 17.20282 15.49767
#
# Velocity S-wave (km/s) = 2.68714 3.00101 2.84840
# Velocity P-wave (km/s) = 5.78752 6.71855 6.27034
#
# Compressibility (1/GPa) = 0.02193427
#
# Stress axis : x y z
#
# Youngs Moduli (GPa) = 45.92855 81.48863 42.27636
#
# Poissons Ratio (x) = 0.36845 0.14973
# Poissons Ratio (y) = 0.20767 0.41511
# Poissons Ratio (z) = 0.16266 0.80013
#
# Static dielectric constant tensor:
#      x y z
#    x 3.425920 0.000000 0.000000 
#    y 0.000000 3.507450 0.000000 
#    z 0.000000 0.000000 3.504800 
# 
# 
# High freq. dielectric constant tensor:
#      x y z
#    x 1.737710 0.000000 0.000000 
#    y 0.000000 1.743850 0.000000 
#    z 0.000000 0.000000 1.726520 
# 
# From -- ./inp_files/2639.got.cif
#   From: 2010.03.12/outbox.cif.g09.slc.cpg/sg47_2_cif.got.tgz:2639.got - 2010.04.14 03:12:58.
