data_PCOD8199986
_publ_section_title
;
Structure prediction by ZEFSAII (Michael W. Deem and Ramdas Pophale) SiO2 
 PCOD8199986
Probable space group: P M M M
;
_chemical_formula_sum "Si O2"
_cell_formula_units_Z 40
_cell_length_a 7.713131
_cell_length_b 29.156082
_cell_length_c 9.405418
_cell_angle_alpha 90.000000
_cell_angle_beta 90.000000
_cell_angle_gamma 90.000000
_cell_volume 2115.134416
_symmetry_space_group_name_H-M "P M M M"
_symmetry_group_IT_number 47
_symmetry_cell_setting 'orthorhombic'
loop_
_space_group_symop_operation_xyz
x,y,z
-x,-y,z
x,-y,-z
-x,y,-z
-x,-y,-z
x,y,-z
-x,y,z
x,-y,z
loop_
_atom_site_type_symbol
_atom_site_label
_atom_site_fract_x
_atom_site_fract_y
_atom_site_fract_z
Si Si1 0.500000 0.748466 0.165924
Si Si2 0.500000 0.654893 0.334043
Si Si3 0.702903 0.000000 0.659055
Si Si4 0.297175 0.500000 0.166594
Si Si5 0.799262 0.096847 0.341966
Si Si6 0.199897 0.182593 0.834521
Si Si7 0.195150 0.587642 0.662299
O O1 0.500000 0.701704 0.250185
O O2 0.325119 0.775659 0.208526
O O3 0.500000 0.737095 0.000000
O O4 0.500000 0.666300 0.500000
O O5 0.671070 0.626731 0.289153
O O6 0.766152 0.952775 0.733303
O O7 0.500000 0.000000 0.657190
O O8 0.782997 0.000000 0.500000
O O9 0.500000 0.500000 0.198883
O O10 0.211532 0.455654 0.235688
O O11 0.255813 0.500000 0.000000
O O12 0.712371 0.097970 0.500000
O O13 0.725284 0.137780 0.245866
O O14 0.000000 0.105753 0.356636
O O15 0.000000 0.194777 0.794188
O O16 0.215790 0.171313 0.000000
O O17 0.235622 0.572477 0.500000
O O18 0.000000 0.607338 0.675359
#
# Coordination Sequence:
#
# PCOD8199986 Si02
#       7
#     4   4   4   4   8   8   8
#     4  10  22  38  57  78 103 136 174 216 267 324
#     4  10  22  39  57  82 112 141 178 228 276 318
#     4   9  17  27  42  69 102 132 161 198 248 303
#     4  11  22  35  56  87 121 154 191 232 269 313
#     4   9  17  30  49  72  98 130 167 206 249 301
#     4   9  19  36  55  75 101 133 169 211 260 313
#     4  10  21  38  60  84 113 152 191 225 270 325
#
# _framework density 18.911327
#
# number of rings (size 3 to 8) (size 9 to 14) (size 15 to 20)
#    0.000    2.400    1.000    0.900    1.400    5.600 
#    0.000    0.500    0.000    3.000    0.000    0.000 
#    0.000    0.000    0.000    0.000    0.000    0.000 
#
# Total GULP energy -495881.528759 kJ/mol
# GULP energy per Si atom -12397.038219 kJ/mol
# Density = 1.886828 g / cm^3
# Si number density = 18.911327 Si / 1000 Ang^3
#
#
#
# Elastic Constant Matrix: (Units=GPa)
#
#
# Indices 1 2 3 4 5 6 
#
# 1 108.5722 69.1426 37.7186 0.0000 0.0000 0.0000
# 2 69.1426 179.4482 68.5481 0.0000 0.0000 0.0000
# 3 37.7186 68.5481 60.6071 0.0000 0.0000 0.0000
# 4 0.0000 0.0000 0.0000 -23.5774 0.0000 0.0000
# 5 0.0000 0.0000 0.0000 0.0000 18.5424 0.0000
# 6 0.0000 0.0000 0.0000 0.0000 0.0000 5.1515
#
#
#
# Elastic Compliance Matrix: (Units=1/GPa)
#
#
# Indices 1 2 3 4 5 6 
#
# 1 0.012785 -0.003322 -0.004199 0.000000 0.000000 0.000000
# 2 -0.003322 0.010675 -0.010006 0.000000 0.000000 0.000000
# 3 -0.004199 -0.010006 0.030430 0.000000 0.000000 0.000000
# 4 0.000000 0.000000 0.000000 -0.042413 0.000000 0.000000
# 5 0.000000 0.000000 0.000000 0.000000 0.053930 0.000000
# 6 0.000000 0.000000 0.000000 0.000000 0.000000 0.194120
#
#
# Mechanical properties :
#
#
# Convention : Reuss Voigt Hill
#
# Bulk Modulus (GPa) = 53.09221 77.71625 65.40423
# Shear Modulus (GPa) = 16.61899 11.57116 14.09508
#
# Velocity S-wave (km/s) = 2.96765 2.47627 2.73303
# Velocity P-wave (km/s) = 6.31489 7.02568 6.67975
#
# Compressibility (1/GPa) = 0.01883515
#
# Stress axis : x y z
#
# Youngs Moduli (GPa) = 78.21732 93.67753 32.86183
#
# Poissons Ratio (x) = 0.31119 0.13800
# Poissons Ratio (y) = 0.25984 0.32882
# Poissons Ratio (z) = 0.32847 0.93736
#
# Static dielectric constant tensor:
#      x y z
#    x 3.632460 0.000000 0.000000 
#    y 0.000000 3.477430 0.000000 
#    z 0.000000 0.000000 3.480420 
# 
# 
# High freq. dielectric constant tensor:
#      x y z
#    x 1.746040 0.000000 0.000000 
#    y 0.000000 1.731280 0.000000 
#    z 0.000000 0.000000 1.712460 
# 
# From -- ./inp_files/1901.got.cif
#   From: 2010.03.12/outbox.cif.g09.slc.cpg/sg47_1_cif.got.tgz:1901.got - 2010.04.14 03:12:58.
