data_PCOD8199057
_publ_section_title
;
Structure prediction by ZEFSAII (Michael W. Deem and Ramdas Pophale) SiO2 
 PCOD8199057
Probable space group: P M M M
;
_chemical_formula_sum "Si O2"
_cell_formula_units_Z 44
_cell_length_a 14.212396
_cell_length_b 9.086218
_cell_length_c 19.514955
_cell_angle_alpha 90.000000
_cell_angle_beta 90.000000
_cell_angle_gamma 90.000000
_cell_volume 2520.101346
_symmetry_space_group_name_H-M "P M M M"
_symmetry_group_IT_number 47
_symmetry_cell_setting 'orthorhombic'
loop_
_space_group_symop_operation_xyz
x,y,z
-x,-y,z
x,-y,-z
-x,y,-z
-x,-y,-z
x,y,-z
-x,y,z
x,-y,z
loop_
_atom_site_type_symbol
_atom_site_label
_atom_site_fract_x
_atom_site_fract_y
_atom_site_fract_z
Si Si1 0.729328 0.674293 0.421654
Si Si2 0.500000 0.838117 0.080752
Si Si3 0.896495 0.673266 0.326775
Si Si4 0.247876 0.671182 0.217299
Si Si5 0.315385 0.329669 0.924105
Si Si6 0.609408 0.827356 0.312140
O O1 0.728583 0.726103 0.500000
O O2 0.716198 0.500000 0.414484
O O3 0.828857 0.725164 0.388571
O O4 0.643863 0.752553 0.382610
O O5 0.407460 0.752256 0.103506
O O6 0.500000 0.000000 0.115368
O O7 0.500000 0.853286 0.000000
O O8 0.909176 0.500000 0.330238
O O9 0.849045 0.719410 0.254192
O O10 0.000000 0.747954 0.332775
O O11 0.268496 0.500000 0.232962
O O12 0.237352 0.698888 0.135061
O O13 0.334925 0.762580 0.247323
O O14 0.341521 0.500000 0.929077
O O15 0.281674 0.274133 0.000000
O O16 0.500000 0.791611 0.301660
O O17 0.628672 0.000000 0.317139
#
# Coordination Sequence:
#
# PCOD8199057 Si02
#       6
#     8   4   8   8   8   8
#     4   9  18  32  50  73  97 121 153 189 226 273
#     4   9  17  27  39  59  87 117 150 187 226 269
#     4   8  14  27  48  72  95 118 149 190 232 273
#     4   9  18  31  48  69  91 121 159 195 231 275
#     4   9  17  29  44  63  90 123 157 192 232 276
#     4  10  21  34  47  66  93 126 160 192 229 271
#
# _framework density 17.459614999999999
#
# number of rings (size 3 to 8) (size 9 to 14) (size 15 to 20)
#    0.000    3.000    0.000    1.909    1.273    4.364 
#    0.000    3.636    0.000    9.273    0.000    8.909 
#    0.000    0.000    0.000   11.091    0.000   12.000 
#
# Total GULP energy -545259.337283 kJ/mol
# GULP energy per Si atom -12392.257666 kJ/mol
# Density = 1.741988 g / cm^3
# Si number density = 17.459615 Si / 1000 Ang^3
#
#
#
# Elastic Constant Matrix: (Units=GPa)
#
#
# Indices 1 2 3 4 5 6 
#
# 1 83.3815 23.8510 32.4096 0.0000 0.0000 0.0000
# 2 23.8510 40.7758 22.6176 0.0000 0.0000 0.0000
# 3 32.4096 22.6176 125.4646 0.0000 0.0000 0.0000
# 4 0.0000 0.0000 0.0000 11.7232 0.0000 0.0000
# 5 0.0000 0.0000 0.0000 0.0000 16.7935 0.0000
# 6 0.0000 0.0000 0.0000 0.0000 0.0000 6.1613
#
#
#
# Elastic Compliance Matrix: (Units=1/GPa)
#
#
# Indices 1 2 3 4 5 6 
#
# 1 0.015112 -0.007416 -0.002567 0.000000 0.000000 0.000000
# 2 -0.007416 0.030888 -0.003653 0.000000 0.000000 0.000000
# 3 -0.002567 -0.003653 0.009292 0.000000 0.000000 0.000000
# 4 0.000000 0.000000 0.000000 0.085301 0.000000 0.000000
# 5 0.000000 0.000000 0.000000 0.000000 0.059547 0.000000
# 6 0.000000 0.000000 0.000000 0.000000 0.000000 0.162304
#
#
# Mechanical properties :
#
#
# Convention : Reuss Voigt Hill
#
# Bulk Modulus (GPa) = 35.68668 45.26425 40.47546
# Shear Modulus (GPa) = 12.52963 18.31852 15.42407
#
# Velocity S-wave (km/s) = 2.68178 3.24264 2.97545
# Velocity P-wave (km/s) = 5.48390 6.32464 5.91921
#
# Compressibility (1/GPa) = 0.02802166
#
# Stress axis : x y z
#
# Youngs Moduli (GPa) = 66.17254 32.37496 107.62070
#
# Poissons Ratio (x) = 0.24008 0.27625
# Poissons Ratio (y) = 0.49072 0.39310
# Poissons Ratio (z) = 0.16986 0.11825
#
# Static dielectric constant tensor:
#      x y z
#    x 3.303360 0.000000 0.000000 
#    y 0.000000 3.131730 0.000000 
#    z 0.000000 0.000000 3.457960 
# 
# 
# High freq. dielectric constant tensor:
#      x y z
#    x 1.649460 0.000000 0.000000 
#    y 0.000000 1.653580 0.000000 
#    z 0.000000 0.000000 1.683430 
# 
# From -- ./inp_files/30766.got.cif
#   From: 2010.03.12/outbox.cif.g09.slc.cpg/sg47_16_cif.got.tgz:30766.got - 2010.04.14 03:12:58.
