data_PCOD8199790
_publ_section_title
;
Structure prediction by ZEFSAII (Michael W. Deem and Ramdas Pophale) SiO2 
 PCOD8199790
Probable space group: P M M M
;
_chemical_formula_sum "Si O2"
_cell_formula_units_Z 48
_cell_length_a 7.450969
_cell_length_b 8.917351
_cell_length_c 36.229133
_cell_angle_alpha 90.000000
_cell_angle_beta 90.000000
_cell_angle_gamma 90.000000
_cell_volume 2407.168873
_symmetry_space_group_name_H-M "P M M M"
_symmetry_group_IT_number 47
_symmetry_cell_setting 'orthorhombic'
loop_
_space_group_symop_operation_xyz
x,y,z
-x,-y,z
x,-y,-z
-x,y,-z
-x,-y,-z
x,y,-z
-x,y,z
x,-y,z
loop_
_atom_site_type_symbol
_atom_site_label
_atom_site_fract_x
_atom_site_fract_y
_atom_site_fract_z
Si Si1 0.000000 0.322877 0.197163
Si Si2 0.704583 0.172679 0.333450
Si Si3 0.291134 0.824008 0.852489
Si Si4 0.285886 0.169155 0.000000
Si Si5 0.707170 0.675231 0.591398
Si Si6 0.000000 0.174034 0.725310
Si Si7 0.000000 0.824150 0.542728
Si Si8 0.712943 0.668405 0.927277
O O1 0.820349 0.254727 0.179586
O O2 0.000000 0.282486 0.239978
O O3 0.000000 0.500000 0.191711
O O4 0.500000 0.208592 0.322518
O O5 0.768022 0.270572 0.368168
O O6 0.823903 0.213374 0.298263
O O7 0.731060 0.000000 0.344785
O O8 0.500000 0.787198 0.845825
O O9 0.223312 0.761004 0.891696
O O10 0.253656 0.000000 0.851838
O O11 0.209585 0.252687 0.036132
O O12 0.500000 0.170406 0.000000
O O13 0.212706 0.000000 0.000000
O O14 0.500000 0.716575 0.584498
O O15 0.743881 0.500000 0.588736
O O16 0.820786 0.756758 0.560228
O O17 0.000000 0.000000 0.737721
O O18 0.000000 0.781145 0.500000
O O19 0.000000 0.000000 0.549447
O O20 0.500000 0.665768 0.929317
O O21 0.790078 0.500000 0.924769
#
# Coordination Sequence:
#
# PCOD8199790 Si02
#       8
#     4   8   8   4   8   4   4   8
#     4  12  26  41  59  85 117 152 188 230 282 337
#     4   9  18  34  58  86 115 149 188 230 279 338
#     4  10  21  39  62  84 109 146 191 235 278 330
#     4   9  15  23  39  68 105 142 182 225 270 324
#     4  10  21  37  59  87 118 152 190 236 292 350
#     4  10  21  37  56  81 113 147 185 227 274 331
#     4  11  24  39  56  80 112 155 205 252 295 340
#     4   9  16  27  46  74 107 141 179 226 279 330
#
# _framework density 19.940436999999999
#
# number of rings (size 3 to 8) (size 9 to 14) (size 15 to 20)
#    0.000    2.167    0.000    3.250    0.000    8.000 
#    0.000    3.333    0.000    0.500    0.000    3.500 
#    0.000    0.000    0.000    0.000    0.000    0.000 
#
# Total GULP energy -595368.560801 kJ/mol
# GULP energy per Si atom -12403.511683 kJ/mol
# Density = 1.989505 g / cm^3
# Si number density = 19.940437 Si / 1000 Ang^3
#
#
#
# Elastic Constant Matrix: (Units=GPa)
#
#
# Indices 1 2 3 4 5 6 
#
# 1 88.3338 49.6340 65.5934 0.0000 0.0000 0.0000
# 2 49.6340 138.6129 82.9475 0.0000 0.0000 0.0000
# 3 65.5934 82.9475 159.6804 0.0000 0.0000 0.0000
# 4 0.0000 0.0000 0.0000 25.2482 0.0000 0.0000
# 5 0.0000 0.0000 0.0000 0.0000 39.6937 0.0000
# 6 0.0000 0.0000 0.0000 0.0000 0.0000 22.3670
#
#
#
# Elastic Compliance Matrix: (Units=1/GPa)
#
#
# Indices 1 2 3 4 5 6 
#
# 1 0.016991 -0.002768 -0.005542 0.000000 0.000000 0.000000
# 2 -0.002768 0.010919 -0.004535 0.000000 0.000000 0.000000
# 3 -0.005542 -0.004535 0.010895 0.000000 0.000000 0.000000
# 4 0.000000 0.000000 0.000000 0.039607 0.000000 0.000000
# 5 0.000000 0.000000 0.000000 0.000000 0.025193 0.000000
# 6 0.000000 0.000000 0.000000 0.000000 0.000000 0.044709
#
#
# Mechanical properties :
#
#
# Convention : Reuss Voigt Hill
#
# Bulk Modulus (GPa) = 76.24521 86.99743 81.62132
# Shear Modulus (GPa) = 28.03082 30.02526 29.02804
#
# Velocity S-wave (km/s) = 3.75337 3.88461 3.81955
# Velocity P-wave (km/s) = 7.55667 7.99022 7.77646
#
# Compressibility (1/GPa) = 0.01311558
#
# Stress axis : x y z
#
# Youngs Moduli (GPa) = 58.85453 91.58072 91.78679
#
# Poissons Ratio (x) = 0.25348 0.50866
# Poissons Ratio (y) = 0.16290 0.41627
# Poissons Ratio (z) = 0.32616 0.41534
#
# Static dielectric constant tensor:
#      x y z
#    x 3.694780 0.000000 0.000000 
#    y 0.000000 3.725620 0.000000 
#    z 0.000000 0.000000 3.580340 
# 
# 
# High freq. dielectric constant tensor:
#      x y z
#    x 1.777420 0.000000 0.000000 
#    y 0.000000 1.785760 0.000000 
#    z 0.000000 0.000000 1.774940 
# 
# From -- ./inp_files/34237.got.cif
#   From: 2010.03.12/outbox.cif.g09.slc.cpg/sg47_18_cif.got.tgz:34237.got - 2010.04.14 03:12:58.
