data_PCOD8199129
_publ_section_title
;
Structure prediction by ZEFSAII (Michael W. Deem and Ramdas Pophale) SiO2 
 PCOD8199129
Probable space group: P M M M
;
_chemical_formula_sum "Si O2"
_cell_formula_units_Z 64
_cell_length_a 8.924083
_cell_length_b 14.896071
_cell_length_c 25.033384
_cell_angle_alpha 90.000000
_cell_angle_beta 90.000000
_cell_angle_gamma 90.000000
_cell_volume 3327.782211
_symmetry_space_group_name_H-M "P M M M"
_symmetry_group_IT_number 47
_symmetry_cell_setting 'orthorhombic'
loop_
_space_group_symop_operation_xyz
x,y,z
-x,-y,z
x,-y,-z
-x,y,-z
-x,-y,-z
x,y,-z
-x,y,z
x,-y,z
loop_
_atom_site_type_symbol
_atom_site_label
_atom_site_fract_x
_atom_site_fract_y
_atom_site_fract_z
Si Si1 0.322082 0.753656 0.367100
Si Si2 0.821837 0.603261 0.838643
Si Si3 0.324865 0.731749 0.753460
Si Si4 0.825049 0.104033 0.560027
Si Si5 0.168391 0.095863 0.918450
Si Si6 0.678196 0.598367 0.559313
Si Si7 0.166732 0.099416 0.792432
Si Si8 0.177581 0.711259 0.941346
O O1 0.500000 0.759373 0.368682
O O2 0.266463 0.733242 0.307338
O O3 0.260375 0.844800 0.392712
O O4 0.254331 0.671891 0.401322
O O5 0.767043 0.500000 0.837129
O O6 0.759546 0.655498 0.787254
O O7 0.759277 0.648449 0.893692
O O8 0.000000 0.608716 0.836856
O O9 0.500000 0.711282 0.757510
O O10 0.292195 0.831198 0.774447
O O11 0.772820 0.133476 0.500000
O O12 0.000000 0.122679 0.566259
O O13 0.787970 0.000000 0.568255
O O14 0.165308 0.099461 0.855424
O O15 0.248069 0.187380 0.939037
O O16 0.000000 0.094852 0.941064
O O17 0.245335 0.000000 0.936444
O O18 0.739686 0.617642 0.500000
O O19 0.500000 0.603133 0.559194
O O20 0.730989 0.500000 0.578640
O O21 0.000000 0.127081 0.771937
O O22 0.207873 0.000000 0.770660
O O23 0.000000 0.718362 0.933472
O O24 0.217181 0.670278 0.000000
#
# Coordination Sequence:
#
# PCOD8199129 Si02
#       8
#     8   8   8   8   8   8   8   8
#     4  10  21  34  51  78 107 137 176 222 268 312
#     4  10  21  38  58  77 102 139 183 229 276 332
#     4  11  23  36  52  77 109 143 180 225 273 323
#     4   9  19  36  56  79 110 148 186 222 265 317
#     4   8  13  23  43  72 103 132 162 201 253 311
#     4   8  14  27  49  74  97 122 155 199 252 307
#     4   9  17  32  55  77 100 136 178 216 257 311
#     4   9  16  27  48  79 110 135 166 219 279 326
#
# _framework density 19.232026999999999
#
# number of rings (size 3 to 8) (size 9 to 14) (size 15 to 20)
#    0.000    2.750    1.250    2.250    0.000    4.000 
#    0.000    6.875    0.000    0.750    0.000    2.625 
#    0.000    2.000    0.000    0.000    0.000    0.000 
#
# Total GULP energy -792956.057644 kJ/mol
# GULP energy per Si atom -12389.938401 kJ/mol
# Density = 1.918825 g / cm^3
# Si number density = 19.232027 Si / 1000 Ang^3
#
#
#
# Elastic Constant Matrix: (Units=GPa)
#
#
# Indices 1 2 3 4 5 6 
#
# 1 18.5506 22.7815 23.5139 0.0000 0.0000 0.0000
# 2 22.7815 142.8010 77.2587 0.0000 0.0000 0.0000
# 3 23.5139 77.2587 135.5448 0.0000 0.0000 0.0000
# 4 0.0000 0.0000 0.0000 13.9993 0.0000 0.0000
# 5 0.0000 0.0000 0.0000 0.0000 11.0075 0.0000
# 6 0.0000 0.0000 0.0000 0.0000 0.0000 17.6161
#
#
#
# Elastic Compliance Matrix: (Units=1/GPa)
#
#
# Indices 1 2 3 4 5 6 
#
# 1 0.073633 -0.006992 -0.008788 0.000000 0.000000 0.000000
# 2 -0.006992 0.010789 -0.004937 0.000000 0.000000 0.000000
# 3 -0.008788 -0.004937 0.011716 0.000000 0.000000 0.000000
# 4 0.000000 0.000000 0.000000 0.071432 0.000000 0.000000
# 5 0.000000 0.000000 0.000000 0.000000 0.090847 0.000000
# 6 0.000000 0.000000 0.000000 0.000000 0.000000 0.056766
#
#
# Mechanical properties :
#
#
# Convention : Reuss Voigt Hill
#
# Bulk Modulus (GPa) = 18.28022 60.44494 39.36258
# Shear Modulus (GPa) = 13.33859 20.08074 16.70966
#
# Velocity S-wave (km/s) = 2.63641 3.23481 2.95082
# Velocity P-wave (km/s) = 4.33512 6.74162 5.66757
#
# Compressibility (1/GPa) = 0.05470395
#
# Stress axis : x y z
#
# Youngs Moduli (GPa) = 13.58088 92.68627 85.35366
#
# Poissons Ratio (x) = 0.64809 0.75009
# Poissons Ratio (y) = 0.09496 0.42136
# Poissons Ratio (z) = 0.11935 0.45756
#
# Static dielectric constant tensor:
#      x y z
#    x 2.989370 0.000000 0.000000 
#    y 0.000000 4.038830 0.000000 
#    z 0.000000 0.000000 3.687050 
# 
# 
# High freq. dielectric constant tensor:
#      x y z
#    x 1.688970 0.000000 0.000000 
#    y 0.000000 1.759960 0.000000 
#    z 0.000000 0.000000 1.752490 
# 
# From -- ./inp_files/12721.got.cif
#   From: 2010.03.12/outbox.cif.g09.slc.cpg/sg47_7_cif.got.tgz:12721.got - 2010.04.14 03:12:58.
