data_PCOD8199158
_publ_section_title
;
Structure prediction by ZEFSAII (Michael W. Deem and Ramdas Pophale) SiO2 
 PCOD8199158
Probable space group: P M M M
;
_chemical_formula_sum "Si O2"
_cell_formula_units_Z 40
_cell_length_a 9.254953
_cell_length_b 19.653480
_cell_length_c 12.626829
_cell_angle_alpha 90.000000
_cell_angle_beta 90.000000
_cell_angle_gamma 90.000000
_cell_volume 2296.719606
_symmetry_space_group_name_H-M "P M M M"
_symmetry_group_IT_number 47
_symmetry_cell_setting 'orthorhombic'
loop_
_space_group_symop_operation_xyz
x,y,z
-x,-y,z
x,-y,-z
-x,y,-z
-x,-y,-z
x,y,-z
-x,y,z
x,-y,z
loop_
_atom_site_type_symbol
_atom_site_label
_atom_site_fract_x
_atom_site_fract_y
_atom_site_fract_z
Si Si1 0.332732 0.319676 0.376226
Si Si2 0.830786 0.419750 0.771205
Si Si3 0.167190 0.579352 0.000000
Si Si4 0.167556 0.185399 0.620860
Si Si5 0.663278 0.919091 0.000000
Si Si6 0.167962 0.077947 0.204375
O O1 0.307688 0.331577 0.500000
O O2 0.500000 0.315850 0.346211
O O3 0.260663 0.383035 0.318205
O O4 0.258916 0.249683 0.339322
O O5 0.804652 0.500000 0.759578
O O6 0.000000 0.402867 0.757438
O O7 0.772379 0.392862 0.887292
O O8 0.194916 0.500000 0.000000
O O9 0.000000 0.595941 0.000000
O O10 0.206027 0.166221 0.500000
O O11 0.209470 0.120738 0.691907
O O12 0.000000 0.204558 0.632873
O O13 0.743730 0.892183 0.104826
O O14 0.500000 0.891395 0.000000
O O15 0.669010 0.000000 0.000000
O O16 0.000000 0.084575 0.175797
O O17 0.210066 0.000000 0.228720
#
# Coordination Sequence:
#
# PCOD8199158 Si02
#       6
#     8   8   4   8   4   8
#     4  10  21  35  49  67  96 132 164 197 239 283
#     4   9  17  31  53  77  98 123 158 198 238 284
#     4   7  12  26  48  73  98 121 147 185 234 281
#     4   9  18  33  52  72  95 125 160 197 239 289
#     4   9  17  29  46  69  98 131 163 195 234 281
#     4   9  17  30  50  75 100 125 156 197 243 288
#
# _framework density 17.416143999999999
#
# number of rings (size 3 to 8) (size 9 to 14) (size 15 to 20)
#    0.000    3.000    0.000    2.100    0.000    4.400 
#    0.000    5.500    0.000    4.200    0.000    5.600 
#    0.000    0.000    0.000    0.000    0.000    0.000 
#
# Total GULP energy -495787.702116 kJ/mol
# GULP energy per Si atom -12394.692553 kJ/mol
# Density = 1.737650 g / cm^3
# Si number density = 17.416144 Si / 1000 Ang^3
#
#
#
# Elastic Constant Matrix: (Units=GPa)
#
#
# Indices 1 2 3 4 5 6 
#
# 1 79.6470 49.1214 57.8157 0.0000 0.0000 0.0000
# 2 49.1214 78.9780 61.8079 0.0000 0.0000 0.0000
# 3 57.8157 61.8079 105.7808 0.0000 0.0000 0.0000
# 4 0.0000 0.0000 0.0000 10.3956 0.0000 0.0000
# 5 0.0000 0.0000 0.0000 0.0000 20.0520 0.0000
# 6 0.0000 0.0000 0.0000 0.0000 0.0000 15.4413
#
#
#
# Elastic Compliance Matrix: (Units=1/GPa)
#
#
# Indices 1 2 3 4 5 6 
#
# 1 0.023498 -0.008409 -0.007929 0.000000 0.000000 0.000000
# 2 -0.008409 0.026339 -0.010794 0.000000 0.000000 0.000000
# 3 -0.007929 -0.010794 0.020094 0.000000 0.000000 0.000000
# 4 0.000000 0.000000 0.000000 0.096194 0.000000 0.000000
# 5 0.000000 0.000000 0.000000 0.000000 0.049870 0.000000
# 6 0.000000 0.000000 0.000000 0.000000 0.000000 0.064761
#
#
# Mechanical properties :
#
#
# Convention : Reuss Voigt Hill
#
# Bulk Modulus (GPa) = 63.83171 66.87731 65.35451
# Shear Modulus (GPa) = 14.69534 15.55518 15.12526
#
# Velocity S-wave (km/s) = 2.90794 2.99180 2.95017
# Velocity P-wave (km/s) = 6.92858 7.10052 7.01508
#
# Compressibility (1/GPa) = 0.01566619
#
# Stress axis : x y z
#
# Youngs Moduli (GPa) = 42.55762 37.96619 49.76524
#
# Poissons Ratio (x) = 0.31926 0.39461
# Poissons Ratio (y) = 0.35787 0.53716
# Poissons Ratio (z) = 0.33746 0.40981
#
# Static dielectric constant tensor:
#      x y z
#    x 3.169420 0.000000 0.000000 
#    y 0.000000 3.009830 0.000000 
#    z 0.000000 0.000000 3.493190 
# 
# 
# High freq. dielectric constant tensor:
#      x y z
#    x 1.660220 0.000000 0.000000 
#    y 0.000000 1.648540 0.000000 
#    z 0.000000 0.000000 1.684550 
# 
# From -- ./inp_files/4030.got.cif
#   From: 2010.03.12/outbox.cif.g09.slc.cpg/sg47_3_cif.got.tgz:4030.got - 2010.04.14 03:12:58.
