data_PCOD8199060
_publ_section_title
;
Structure prediction by ZEFSAII (Michael W. Deem and Ramdas Pophale) SiO2 
 PCOD8199060
Probable space group: P M M M
;
_chemical_formula_sum "Si O2"
_cell_formula_units_Z 52
_cell_length_a 26.174762
_cell_length_b 13.748328
_cell_length_c 9.422887
_cell_angle_alpha 90.000000
_cell_angle_beta 90.000000
_cell_angle_gamma 90.000000
_cell_volume 3390.912703
_symmetry_space_group_name_H-M "P M M M"
_symmetry_group_IT_number 47
_symmetry_cell_setting 'orthorhombic'
loop_
_space_group_symop_operation_xyz
x,y,z
-x,-y,z
x,-y,-z
-x,y,-z
-x,-y,-z
x,y,-z
-x,y,z
x,-y,z
loop_
_atom_site_type_symbol
_atom_site_label
_atom_site_fract_x
_atom_site_fract_y
_atom_site_fract_z
Si Si1 0.793180 0.789647 0.838278
Si Si2 0.707202 0.889786 0.667806
Si Si3 0.058626 0.718722 0.336553
Si Si4 0.500000 0.883788 0.159081
Si Si5 0.101602 0.110990 0.163865
Si Si6 0.859518 0.610241 0.836250
Si Si7 0.593340 0.884559 0.342684
O O1 0.746017 0.815226 0.738854
O O2 0.839129 0.864607 0.809483
O O3 0.812011 0.680626 0.800293
O O4 0.774457 0.796423 0.000000
O O5 0.714040 0.884890 0.500000
O O6 0.650002 0.855949 0.710776
O O7 0.717430 0.000000 0.721406
O O8 0.075697 0.727296 0.500000
O O9 0.065985 0.823080 0.262256
O O10 0.091936 0.636119 0.260073
O O11 0.000000 0.686791 0.323811
O O12 0.550567 0.842690 0.236671
O O13 0.500000 0.000000 0.159974
O O14 0.500000 0.842728 0.000000
O O15 0.091530 0.000000 0.206510
O O16 0.087473 0.130876 0.000000
O O17 0.842392 0.500000 0.805652
O O18 0.875812 0.625705 0.000000
O O19 0.583166 0.841792 0.500000
O O20 0.589675 0.000000 0.350637
#
# Coordination Sequence:
#
# PCOD8199060 Si02
#       7
#     8   8   8   4   8   8   8
#     4   9  17  29  45  64  84 105 132 170 212 247
#     4   9  17  27  39  58  84 114 146 174 202 242
#     4  10  21  34  47  67  93 114 134 167 210 252
#     4   9  15  21  31  49  71  97 136 183 220 243
#     4   9  18  32  48  65  86 115 149 177 202 240
#     4   9  19  36  54  68  83 107 139 171 206 254
#     4   8  14  24  35  47  69 105 144 175 203 238
#
# _framework density 15.335103999999999
#
# number of rings (size 3 to 8) (size 9 to 14) (size 15 to 20)
#    0.000    3.000    0.000    3.000    0.000    7.385 
#    0.000    4.615    0.000    0.000    0.000    0.000 
#    0.000    0.000    0.000    0.692    0.000   14.077 
#
# Total GULP energy -644686.591527 kJ/mol
# GULP energy per Si atom -12397.819068 kJ/mol
# Density = 1.530020 g / cm^3
# Si number density = 15.335104 Si / 1000 Ang^3
#
#
#
# Elastic Constant Matrix: (Units=GPa)
#
#
# Indices 1 2 3 4 5 6 
#
# 1 104.0933 36.4160 59.9672 0.0000 0.0000 0.0000
# 2 36.4160 77.8221 35.3024 0.0000 0.0000 0.0000
# 3 59.9672 35.3024 82.6543 0.0000 0.0000 0.0000
# 4 0.0000 0.0000 0.0000 13.1343 0.0000 0.0000
# 5 0.0000 0.0000 0.0000 0.0000 22.0885 0.0000
# 6 0.0000 0.0000 0.0000 0.0000 0.0000 10.7424
#
#
#
# Elastic Compliance Matrix: (Units=1/GPa)
#
#
# Indices 1 2 3 4 5 6 
#
# 1 0.017028 -0.002932 -0.011102 0.000000 0.000000 0.000000
# 2 -0.002932 0.016443 -0.004896 0.000000 0.000000 0.000000
# 3 -0.011102 -0.004896 0.022244 0.000000 0.000000 0.000000
# 4 0.000000 0.000000 0.000000 0.076137 0.000000 0.000000
# 5 0.000000 0.000000 0.000000 0.000000 0.045272 0.000000
# 6 0.000000 0.000000 0.000000 0.000000 0.000000 0.093089
#
#
# Mechanical properties :
#
#
# Convention : Reuss Voigt Hill
#
# Bulk Modulus (GPa) = 56.00383 58.66011 57.33197
# Shear Modulus (GPa) = 15.92230 18.05195 16.98712
#
# Velocity S-wave (km/s) = 3.22575 3.43471 3.33187
# Velocity P-wave (km/s) = 7.10445 7.35288 7.22973
#
# Compressibility (1/GPa) = 0.01785592
#
# Stress axis : x y z
#
# Youngs Moduli (GPa) = 58.72577 60.81764 44.95535
#
# Poissons Ratio (x) = 0.17832 0.49910
# Poissons Ratio (y) = 0.17218 0.22008
# Poissons Ratio (z) = 0.65198 0.29774
#
# Static dielectric constant tensor:
#      x y z
#    x 2.935780 0.000000 0.000000 
#    y 0.000000 2.727670 0.000000 
#    z 0.000000 0.000000 3.021970 
# 
# 
# High freq. dielectric constant tensor:
#      x y z
#    x 1.581840 0.000000 0.000000 
#    y 0.000000 1.546460 0.000000 
#    z 0.000000 0.000000 1.592970 
# 
# From -- ./inp_files/13399.got.cif
#   From: 2010.03.12/outbox.cif.g09.slc.cpg/sg47_7_cif.got.tgz:13399.got - 2010.04.14 03:12:58.
