data_PCOD8199811
_publ_section_title
;
Structure prediction by ZEFSAII (Michael W. Deem and Ramdas Pophale) SiO2 
 PCOD8199811
Probable space group: P M M M
;
_chemical_formula_sum "Si O2"
_cell_formula_units_Z 52
_cell_length_a 8.950455
_cell_length_b 21.526978
_cell_length_c 13.881279
_cell_angle_alpha 90.000000
_cell_angle_beta 90.000000
_cell_angle_gamma 90.000000
_cell_volume 2674.592753
_symmetry_space_group_name_H-M "P M M M"
_symmetry_group_IT_number 47
_symmetry_cell_setting 'orthorhombic'
loop_
_space_group_symop_operation_xyz
x,y,z
-x,-y,z
x,-y,-z
-x,y,-z
-x,-y,-z
x,y,-z
-x,y,z
x,-y,z
loop_
_atom_site_type_symbol
_atom_site_label
_atom_site_fract_x
_atom_site_fract_y
_atom_site_fract_z
Si Si1 0.329335 0.000000 0.613805
Si Si2 0.330852 0.072052 0.890771
Si Si3 0.825257 0.430587 0.209609
Si Si4 0.675377 0.756177 0.707951
Si Si5 0.325288 0.319909 0.108448
Si Si6 0.171552 0.353082 0.391362
Si Si7 0.175674 0.883834 0.712016
O O1 0.250088 0.061696 0.651128
O O2 0.500000 0.000000 0.650654
O O3 0.319927 0.000000 0.500000
O O4 0.500000 0.096643 0.875888
O O5 0.217574 0.109751 0.824431
O O6 0.323258 0.000000 0.862607
O O7 0.279515 0.082586 0.000000
O O8 0.760316 0.500000 0.196758
O O9 0.751523 0.385334 0.131773
O O10 0.789602 0.409023 0.318789
O O11 0.000000 0.429871 0.189356
O O12 0.500000 0.769452 0.702167
O O13 0.724098 0.733192 0.815349
O O14 0.720543 0.704623 0.630223
O O15 0.763201 0.817835 0.677152
O O16 0.500000 0.331510 0.118102
O O17 0.281328 0.298734 0.000000
O O18 0.200661 0.376523 0.500000
O O19 0.000000 0.331588 0.377280
O O20 0.000000 0.887218 0.697341
#
# Coordination Sequence:
#
# PCOD8199811 Si02
#       7
#     4   8   8   8   8   8   8
#     4  11  25  45  66  85 108 143 187 230 274 331
#     4   9  18  34  57  82 110 146 182 215 257 315
#     4   9  18  32  51  79 113 146 181 221 269 327
#     4  10  21  37  57  79 106 143 185 228 273 328
#     4   9  19  36  56  78 106 144 189 231 269 312
#     4   9  18  34  55  78 106 140 179 227 279 327
#     4  12  24  38  59  87 117 146 178 226 283 335
#
# _framework density 19.442211
#
# number of rings (size 3 to 8) (size 9 to 14) (size 15 to 20)
#    0.000    2.231    0.769    2.538    0.000    4.308 
#    0.000    5.385    0.000    0.000    0.000    4.308 
#    0.000    0.000    0.000    0.000    0.000    0.000 
#
# Total GULP energy -644848.287641 kJ/mol
# GULP energy per Si atom -12400.928608 kJ/mol
# Density = 1.939796 g / cm^3
# Si number density = 19.442211 Si / 1000 Ang^3
#
#
#
# Elastic Constant Matrix: (Units=GPa)
#
#
# Indices 1 2 3 4 5 6 
#
# 1 86.5567 42.7262 21.5470 0.0000 0.0000 0.0000
# 2 42.7262 107.7886 13.9675 0.0000 0.0000 0.0000
# 3 21.5470 13.9675 67.4114 0.0000 0.0000 0.0000
# 4 0.0000 0.0000 0.0000 12.9460 0.0000 0.0000
# 5 0.0000 0.0000 0.0000 0.0000 25.2981 0.0000
# 6 0.0000 0.0000 0.0000 0.0000 0.0000 31.3220
#
#
#
# Elastic Compliance Matrix: (Units=1/GPa)
#
#
# Indices 1 2 3 4 5 6 
#
# 1 0.015218 -0.005551 -0.003714 0.000000 0.000000 0.000000
# 2 -0.005551 0.011558 -0.000621 0.000000 0.000000 0.000000
# 3 -0.003714 -0.000621 0.016150 0.000000 0.000000 0.000000
# 4 0.000000 0.000000 0.000000 0.077244 0.000000 0.000000
# 5 0.000000 0.000000 0.000000 0.000000 0.039529 0.000000
# 6 0.000000 0.000000 0.000000 0.000000 0.000000 0.031926
#
#
# Mechanical properties :
#
#
# Convention : Reuss Voigt Hill
#
# Bulk Modulus (GPa) = 43.18723 46.47090 44.82906
# Shear Modulus (GPa) = 22.81916 26.14762 24.48339
#
# Velocity S-wave (km/s) = 3.42963 3.67125 3.55250
# Velocity P-wave (km/s) = 6.15991 6.47493 6.31939
#
# Compressibility (1/GPa) = 0.02315499
#
# Stress axis : x y z
#
# Youngs Moduli (GPa) = 65.71305 86.51916 61.91959
#
# Poissons Ratio (x) = 0.48026 0.22997
# Poissons Ratio (y) = 0.36476 0.03843
# Poissons Ratio (z) = 0.24406 0.05369
#
# Static dielectric constant tensor:
#      x y z
#    x 3.474020 0.000000 0.000000 
#    y 0.000000 3.525320 0.000000 
#    z 0.000000 0.000000 3.631930 
# 
# 
# High freq. dielectric constant tensor:
#      x y z
#    x 1.749770 0.000000 0.000000 
#    y 0.000000 1.751980 0.000000 
#    z 0.000000 0.000000 1.759710 
# 
# From -- ./inp_files/21407.got.cif
#   From: 2010.03.12/outbox.cif.g09.slc.cpg/sg47_11_cif.got.tgz:21407.got - 2010.04.14 03:12:58.
