data_PCOD8199579
_publ_section_title
;
Structure prediction by ZEFSAII (Michael W. Deem and Ramdas Pophale) SiO2 
 PCOD8199579
Probable space group: P M M M
;
_chemical_formula_sum "Si O2"
_cell_formula_units_Z 56
_cell_length_a 8.914860
_cell_length_b 15.032448
_cell_length_c 20.949221
_cell_angle_alpha 90.000000
_cell_angle_beta 90.000000
_cell_angle_gamma 90.000000
_cell_volume 2807.450553
_symmetry_space_group_name_H-M "P M M M"
_symmetry_group_IT_number 47
_symmetry_cell_setting 'orthorhombic'
loop_
_space_group_symop_operation_xyz
x,y,z
-x,-y,z
x,-y,-z
-x,y,-z
-x,-y,-z
x,y,-z
-x,y,z
x,-y,z
loop_
_atom_site_type_symbol
_atom_site_label
_atom_site_fract_x
_atom_site_fract_y
_atom_site_fract_z
Si Si1 0.673754 0.500000 0.069544
Si Si2 0.173004 0.849041 0.072016
Si Si3 0.169095 0.099171 0.424571
Si Si4 0.330218 0.900116 0.803693
Si Si5 0.167361 0.340160 0.873073
Si Si6 0.827212 0.743263 0.738329
Si Si7 0.178207 0.394929 0.500000
Si Si8 0.677282 0.278241 0.610751
O O1 0.500000 0.500000 0.058850
O O2 0.714250 0.413707 0.109220
O O3 0.754046 0.500000 0.000000
O O4 0.271955 0.901151 0.123328
O O5 0.195255 0.744228 0.082035
O O6 0.000000 0.875231 0.083352
O O7 0.223267 0.874095 0.000000
O O8 0.170321 0.104084 0.500000
O O9 0.279856 0.174808 0.398976
O O10 0.000000 0.117567 0.399603
O O11 0.221805 0.000000 0.402593
O O12 0.500000 0.863343 0.803333
O O13 0.230324 0.841797 0.755954
O O14 0.323297 0.000000 0.777242
O O15 0.194019 0.318519 0.799328
O O16 0.000000 0.377130 0.883533
O O17 0.731902 0.697698 0.681868
O O18 0.000000 0.750960 0.717534
O O19 0.221609 0.500000 0.500000
O O20 0.244049 0.346142 0.437885
O O21 0.000000 0.382679 0.500000
O O22 0.500000 0.289438 0.603600
#
# Coordination Sequence:
#
# PCOD8199579 Si02
#       8
#     4   8   8   8   8   8   4   8
#     4  11  23  35  53  85 119 148 179 222 285 353
#     4   9  18  33  54  79 107 145 194 243 291 346
#     4   9  18  34  58  87 121 162 203 241 286 347
#     4  10  21  36  54  80 116 154 194 243 296 348
#     4   9  19  37  58  79 105 143 190 237 283 336
#     4  10  22  41  63  84 111 153 200 241 286 346
#     4  11  25  47  72  95 122 161 205 248 292 347
#     4  12  24  39  64  96 128 160 195 246 307 359
#
# _framework density 19.946923999999999
#
# number of rings (size 3 to 8) (size 9 to 14) (size 15 to 20)
#    0.000    2.000    0.714    4.286    0.000    7.143 
#    1.286    2.143    0.000    0.000    0.000    0.000 
#    0.000    0.000    0.000    0.000    0.000    0.000 
#
# Total GULP energy -694368.571202 kJ/mol
# GULP energy per Si atom -12399.438771 kJ/mol
# Density = 1.990152 g / cm^3
# Si number density = 19.946924 Si / 1000 Ang^3
#
#
#
# Elastic Constant Matrix: (Units=GPa)
#
#
# Indices 1 2 3 4 5 6 
#
# 1 111.0101 47.9744 39.1503 0.0000 0.0000 0.0000
# 2 47.9744 98.8006 36.0813 0.0000 0.0000 0.0000
# 3 39.1503 36.0813 98.5549 0.0000 0.0000 0.0000
# 4 0.0000 0.0000 0.0000 11.7249 0.0000 0.0000
# 5 0.0000 0.0000 0.0000 0.0000 30.7105 0.0000
# 6 0.0000 0.0000 0.0000 0.0000 0.0000 42.8810
#
#
#
# Elastic Compliance Matrix: (Units=1/GPa)
#
#
# Indices 1 2 3 4 5 6 
#
# 1 0.012160 -0.004780 -0.003081 0.000000 0.000000 0.000000
# 2 -0.004780 0.013562 -0.003066 0.000000 0.000000 0.000000
# 3 -0.003081 -0.003066 0.012493 0.000000 0.000000 0.000000
# 4 0.000000 0.000000 0.000000 0.085289 0.000000 0.000000
# 5 0.000000 0.000000 0.000000 0.000000 0.032562 0.000000
# 6 0.000000 0.000000 0.000000 0.000000 0.000000 0.023320
#
#
# Mechanical properties :
#
#
# Convention : Reuss Voigt Hill
#
# Bulk Modulus (GPa) = 61.11794 61.64194 61.37994
# Shear Modulus (GPa) = 24.19032 29.40725 26.79879
#
# Velocity S-wave (km/s) = 3.48621 3.84379 3.66936
# Velocity P-wave (km/s) = 6.84921 7.11827 6.98504
#
# Compressibility (1/GPa) = 0.01636181
#
# Stress axis : x y z
#
# Youngs Moduli (GPa) = 82.23535 73.73517 80.04426
#
# Poissons Ratio (x) = 0.35242 0.24660
# Poissons Ratio (y) = 0.39305 0.24545
# Poissons Ratio (z) = 0.25335 0.22611
#
# Static dielectric constant tensor:
#      x y z
#    x 3.621260 0.000000 0.000000 
#    y 0.000000 3.478920 0.000000 
#    z 0.000000 0.000000 3.718040 
# 
# 
# High freq. dielectric constant tensor:
#      x y z
#    x 1.776600 0.000000 0.000000 
#    y 0.000000 1.768710 0.000000 
#    z 0.000000 0.000000 1.784710 
# 
# From -- ./inp_files/7436.got.cif
#   From: 2010.03.12/outbox.cif.g09.slc.cpg/sg47_4_cif.got.tgz:7436.got - 2010.04.14 03:12:58.
