data_PCOD8199443
_publ_section_title
;
Structure prediction by ZEFSAII (Michael W. Deem and Ramdas Pophale) SiO2 
 PCOD8199443
Probable space group: P M M M
;
_chemical_formula_sum "Si O2"
_cell_formula_units_Z 56
_cell_length_a 18.718648
_cell_length_b 9.129502
_cell_length_c 18.669471
_cell_angle_alpha 90.000000
_cell_angle_beta 90.000000
_cell_angle_gamma 90.000000
_cell_volume 3190.462013
_symmetry_space_group_name_H-M "P M M M"
_symmetry_group_IT_number 47
_symmetry_cell_setting 'orthorhombic'
loop_
_space_group_symop_operation_xyz
x,y,z
-x,-y,z
x,-y,-z
-x,y,-z
-x,-y,-z
x,y,-z
-x,y,z
x,-y,z
loop_
_atom_site_type_symbol
_atom_site_label
_atom_site_fract_x
_atom_site_fract_y
_atom_site_fract_z
Si Si1 0.798851 0.327540 0.791237
Si Si2 0.082531 0.831330 0.706342
Si Si3 0.150110 0.330737 0.582296
Si Si4 0.294247 0.668929 0.343002
Si Si5 0.419061 0.172746 0.418996
Si Si6 0.271064 0.174527 0.082220
Si Si7 0.575059 0.836789 0.084854
O O1 0.808342 0.500000 0.800085
O O2 0.872857 0.261987 0.763166
O O3 0.734454 0.290130 0.736251
O O4 0.785791 0.254901 0.868172
O O5 0.096063 0.769891 0.626697
O O6 0.000000 0.813817 0.726268
O O7 0.106751 0.000000 0.709145
O O8 0.135154 0.297634 0.500000
O O9 0.135780 0.500000 0.602376
O O10 0.232101 0.291760 0.600403
O O11 0.315288 0.500000 0.347592
O O12 0.365150 0.758590 0.361580
O O13 0.401518 0.226237 0.500000
O O14 0.500000 0.219361 0.398880
O O15 0.410953 0.000000 0.414571
O O16 0.349735 0.236690 0.107249
O O17 0.267526 0.000000 0.092402
O O18 0.254511 0.216342 0.000000
O O19 0.500000 0.755901 0.108800
O O20 0.572848 0.000000 0.117179
O O21 0.577145 0.848449 0.000000
#
# Coordination Sequence:
#
# PCOD8199443 Si02
#       7
#     8   8   8   8   8   8   8
#     4  10  21  36  53  73  99 131 164 199 242 296
#     4  10  21  36  54  76 101 129 162 201 243 287
#     4   9  18  32  50  74 104 135 165 198 238 287
#     4   9  18  32  48  67  93 127 168 207 241 284
#     4   9  18  31  46  67  95 126 164 212 261 301
#     4   9  17  30  51  78 104 130 163 205 249 291
#     4   7  10  19  38  65  95 124 154 189 229 274
#
# _framework density 17.552316999999999
#
# number of rings (size 3 to 8) (size 9 to 14) (size 15 to 20)
#    0.000    3.000    0.000    3.857    0.000    6.000 
#    0.000    2.857    0.000    3.429    0.000    5.000 
#    0.000    0.000    0.000    0.000    0.000    0.000 
#
# Total GULP energy -693936.244884 kJ/mol
# GULP energy per Si atom -12391.718659 kJ/mol
# Density = 1.751237 g / cm^3
# Si number density = 17.552317 Si / 1000 Ang^3
#
#
#
# Elastic Constant Matrix: (Units=GPa)
#
#
# Indices 1 2 3 4 5 6 
#
# 1 96.6704 48.8147 53.6286 0.0000 0.0000 0.0000
# 2 48.8147 67.5036 47.0273 0.0000 0.0000 0.0000
# 3 53.6286 47.0273 91.1417 0.0000 0.0000 0.0000
# 4 0.0000 0.0000 0.0000 27.0887 0.0000 0.0000
# 5 0.0000 0.0000 0.0000 0.0000 17.9362 0.0000
# 6 0.0000 0.0000 0.0000 0.0000 0.0000 24.0755
#
#
#
# Elastic Compliance Matrix: (Units=1/GPa)
#
#
# Indices 1 2 3 4 5 6 
#
# 1 0.018256 -0.008927 -0.006136 0.000000 0.000000 0.000000
# 2 -0.008927 0.027493 -0.008933 0.000000 0.000000 0.000000
# 3 -0.006136 -0.008933 0.019192 0.000000 0.000000 0.000000
# 4 0.000000 0.000000 0.000000 0.036916 0.000000 0.000000
# 5 0.000000 0.000000 0.000000 0.000000 0.055753 0.000000
# 6 0.000000 0.000000 0.000000 0.000000 0.000000 0.041536
#
#
# Mechanical properties :
#
#
# Convention : Reuss Voigt Hill
#
# Bulk Modulus (GPa) = 59.00176 61.58410 60.29293
# Shear Modulus (GPa) = 19.77950 20.87644 20.32797
#
# Velocity S-wave (km/s) = 3.36056 3.45249 3.40683
# Velocity P-wave (km/s) = 6.98180 7.14528 7.06402
#
# Compressibility (1/GPa) = 0.01694865
#
# Stress axis : x y z
#
# Youngs Moduli (GPa) = 54.77585 36.37299 52.10626
#
# Poissons Ratio (x) = 0.32471 0.31972
# Poissons Ratio (y) = 0.48900 0.46546
# Poissons Ratio (z) = 0.33610 0.32492
#
# Static dielectric constant tensor:
#      x y z
#    x 3.350800 0.000000 0.000000 
#    y 0.000000 3.067980 0.000000 
#    z 0.000000 0.000000 3.116460 
# 
# 
# High freq. dielectric constant tensor:
#      x y z
#    x 1.677860 0.000000 0.000000 
#    y 0.000000 1.660860 0.000000 
#    z 0.000000 0.000000 1.658010 
# 
# From -- ./inp_files/31301.got.cif
#   From: 2010.03.12/outbox.cif.g09.slc.cpg/sg47_16_cif.got.tgz:31301.got - 2010.04.14 03:12:58.
