data_PCOD8199765
_publ_section_title
;
Structure prediction by ZEFSAII (Michael W. Deem and Ramdas Pophale) SiO2 
 PCOD8199765
Probable space group: P M M M
;
_chemical_formula_sum "Si O2"
_cell_formula_units_Z 40
_cell_length_a 19.104051
_cell_length_b 12.330539
_cell_length_c 9.174745
_cell_angle_alpha 90.000000
_cell_angle_beta 90.000000
_cell_angle_gamma 90.000000
_cell_volume 2161.232713
_symmetry_space_group_name_H-M "P M M M"
_symmetry_group_IT_number 47
_symmetry_cell_setting 'orthorhombic'
loop_
_space_group_symop_operation_xyz
x,y,z
-x,-y,z
x,-y,-z
-x,y,-z
-x,-y,-z
x,y,-z
-x,y,z
x,-y,z
loop_
_atom_site_type_symbol
_atom_site_label
_atom_site_fract_x
_atom_site_fract_y
_atom_site_fract_z
Si Si1 0.421996 0.000000 0.326959
Si Si2 0.920420 0.289563 0.831378
Si Si3 0.579570 0.373360 0.166740
Si Si4 0.332562 0.202805 0.327134
Si Si5 0.198247 0.875487 0.169584
Si Si6 0.916752 0.500000 0.664645
O O1 0.381448 0.894663 0.270088
O O2 0.500000 0.000000 0.260135
O O3 0.425381 0.000000 0.500000
O O4 0.875625 0.182248 0.798039
O O5 0.888785 0.391675 0.743329
O O6 0.000000 0.263434 0.783822
O O7 0.916679 0.322035 0.000000
O O8 0.500000 0.343941 0.211334
O O9 0.592885 0.500000 0.187002
O O10 0.633684 0.314002 0.272278
O O11 0.593320 0.338852 0.000000
O O12 0.326497 0.205231 0.500000
O O13 0.256002 0.187956 0.261415
O O14 0.192239 0.000000 0.221299
O O15 0.218120 0.868383 0.000000
O O16 0.888634 0.500000 0.500000
O O17 0.000000 0.500000 0.672841
#
# Coordination Sequence:
#
# PCOD8199765 Si02
#       6
#     4   8   8   8   8   4
#     4   9  18  32  51  77 106 137 174 218 267 311
#     4   9  18  34  57  83 109 141 182 224 269 323
#     4   9  19  37  59  82 110 143 179 223 274 325
#     4  11  21  35  55  79 111 147 182 224 270 323
#     4  10  21  37  56  78 109 146 182 225 275 325
#     4   9  17  31  53  81 111 139 170 217 270 317
#
# _framework density 18.507956
#
# number of rings (size 3 to 8) (size 9 to 14) (size 15 to 20)
#    0.000    2.400    1.000    2.100    0.000    4.000 
#    1.800    3.000    0.000    2.400    0.000    4.200 
#    0.000    0.000    0.000    0.000    0.000    0.000 
#
# Total GULP energy -496081.217450 kJ/mol
# GULP energy per Si atom -12402.030436 kJ/mol
# Density = 1.846583 g / cm^3
# Si number density = 18.507956 Si / 1000 Ang^3
#
#
#
# Elastic Constant Matrix: (Units=GPa)
#
#
# Indices 1 2 3 4 5 6 
#
# 1 106.5582 58.0338 46.9782 0.0000 0.0000 0.0000
# 2 58.0338 105.3495 49.3903 0.0000 0.0000 0.0000
# 3 46.9782 49.3903 72.3510 0.0000 0.0000 0.0000
# 4 0.0000 0.0000 0.0000 24.3964 0.0000 0.0000
# 5 0.0000 0.0000 0.0000 0.0000 22.0178 0.0000
# 6 0.0000 0.0000 0.0000 0.0000 0.0000 28.2228
#
#
#
# Elastic Compliance Matrix: (Units=1/GPa)
#
#
# Indices 1 2 3 4 5 6 
#
# 1 0.015005 -0.005439 -0.006030 0.000000 0.000000 0.000000
# 2 -0.005439 0.015931 -0.007344 0.000000 0.000000 0.000000
# 3 -0.006030 -0.007344 0.022750 0.000000 0.000000 0.000000
# 4 0.000000 0.000000 0.000000 0.040990 0.000000 0.000000
# 5 0.000000 0.000000 0.000000 0.000000 0.045418 0.000000
# 6 0.000000 0.000000 0.000000 0.000000 0.000000 0.035432
#
#
# Mechanical properties :
#
#
# Convention : Reuss Voigt Hill
#
# Bulk Modulus (GPa) = 62.26343 65.89591 64.07967
# Shear Modulus (GPa) = 22.88264 23.58450 23.23357
#
# Velocity S-wave (km/s) = 3.52002 3.57359 3.54691
# Velocity P-wave (km/s) = 7.08768 7.26008 7.17440
#
# Compressibility (1/GPa) = 0.01606079
#
# Stress axis : x y z
#
# Youngs Moduli (GPa) = 66.64375 62.76944 43.95527
#
# Poissons Ratio (x) = 0.34139 0.26506
# Poissons Ratio (y) = 0.36246 0.32281
# Poissons Ratio (z) = 0.40188 0.46098
#
# Static dielectric constant tensor:
#      x y z
#    x 3.352300 0.000000 0.000000 
#    y 0.000000 3.437320 0.000000 
#    z 0.000000 0.000000 3.279180 
# 
# 
# High freq. dielectric constant tensor:
#      x y z
#    x 1.709900 0.000000 0.000000 
#    y 0.000000 1.723290 0.000000 
#    z 0.000000 0.000000 1.707260 
# 
# From -- ./inp_files/10650.got.cif
#   From: 2010.03.12/outbox.cif.g09.slc.cpg/sg47_6_cif.got.tgz:10650.got - 2010.04.14 03:12:58.
