data_PCOD8199664
_publ_section_title
;
Structure prediction by ZEFSAII (Michael W. Deem and Ramdas Pophale) SiO2 
 PCOD8199664
Probable space group: P M M M
;
_chemical_formula_sum "Si O2"
_cell_formula_units_Z 48
_cell_length_a 18.131797
_cell_length_b 14.210312
_cell_length_c 9.375577
_cell_angle_alpha 90.000000
_cell_angle_beta 90.000000
_cell_angle_gamma 90.000000
_cell_volume 2415.697036
_symmetry_space_group_name_H-M "P M M M"
_symmetry_group_IT_number 47
_symmetry_cell_setting 'orthorhombic'
loop_
_space_group_symop_operation_xyz
x,y,z
-x,-y,z
x,-y,-z
-x,y,-z
-x,-y,-z
x,y,-z
-x,y,z
x,-y,z
loop_
_atom_site_type_symbol
_atom_site_label
_atom_site_fract_x
_atom_site_fract_y
_atom_site_fract_z
Si Si1 0.084017 0.109213 0.333967
Si Si2 0.085771 0.602036 0.345186
Si Si3 0.586954 0.281087 0.664832
Si Si4 0.834057 0.260347 0.166674
Si Si5 0.412459 0.103844 0.840324
Si Si6 0.301724 0.392100 0.833811
O O1 0.094964 0.131082 0.500000
O O2 0.148823 0.162681 0.247368
O O3 0.000000 0.139092 0.289662
O O4 0.095359 0.000000 0.300772
O O5 0.114873 0.640503 0.500000
O O6 0.122156 0.500000 0.315229
O O7 0.101169 0.670203 0.213994
O O8 0.000000 0.589352 0.355751
O O9 0.608895 0.280644 0.500000
O O10 0.500000 0.292581 0.687261
O O11 0.616816 0.183098 0.732547
O O12 0.625240 0.368743 0.743312
O O13 0.759435 0.314905 0.212650
O O14 0.836604 0.240558 0.000000
O O15 0.500000 0.103537 0.840952
O O16 0.384067 0.000000 0.792511
O O17 0.383200 0.126591 0.000000
O O18 0.277398 0.500000 0.800681
O O19 0.320202 0.381119 0.000000
#
# Coordination Sequence:
#
# PCOD8199664 Si02
#       6
#     8   8   8   8   8   8
#     4   9  19  37  60  85 115 153 194 231 268 318
#     4   9  18  32  50  74 105 142 182 218 255 309
#     4  10  21  36  56  84 113 139 176 232 292 345
#     4  11  22  35  54  81 111 141 178 227 277 323
#     4   8  14  27  50  79 109 141 174 206 247 308
#     4  10  23  42  59  76 104 145 189 229 276 340
#
# _framework density 19.870041000000001
#
# number of rings (size 3 to 8) (size 9 to 14) (size 15 to 20)
#    0.000    2.500    0.000    3.500    0.000    7.333 
#    0.000    5.833    0.000    1.000    0.000    0.000 
#    0.000    0.000    0.000    0.000    0.000    0.000 
#
# Total GULP energy -594789.635629 kJ/mol
# GULP energy per Si atom -12391.450742 kJ/mol
# Density = 1.982482 g / cm^3
# Si number density = 19.870041 Si / 1000 Ang^3
#
#
#
# Elastic Constant Matrix: (Units=GPa)
#
#
# Indices 1 2 3 4 5 6 
#
# 1 55.9324 50.3454 47.4603 0.0000 0.0000 0.0000
# 2 50.3454 125.5783 64.0222 0.0000 0.0000 0.0000
# 3 47.4603 64.0222 93.8953 0.0000 0.0000 0.0000
# 4 0.0000 0.0000 0.0000 27.4739 0.0000 0.0000
# 5 0.0000 0.0000 0.0000 0.0000 27.7006 0.0000
# 6 0.0000 0.0000 0.0000 0.0000 0.0000 24.2258
#
#
#
# Elastic Compliance Matrix: (Units=1/GPa)
#
#
# Indices 1 2 3 4 5 6 
#
# 1 0.035721 -0.007842 -0.012709 0.000000 0.000000 0.000000
# 2 -0.007842 0.013928 -0.005533 0.000000 0.000000 0.000000
# 3 -0.012709 -0.005533 0.020846 0.000000 0.000000 0.000000
# 4 0.000000 0.000000 0.000000 0.036398 0.000000 0.000000
# 5 0.000000 0.000000 0.000000 0.000000 0.036100 0.000000
# 6 0.000000 0.000000 0.000000 0.000000 0.000000 0.041278
#
#
# Mechanical properties :
#
#
# Convention : Reuss Voigt Hill
#
# Bulk Modulus (GPa) = 54.55968 66.56241 60.56105
# Shear Modulus (GPa) = 20.61451 23.45192 22.03321
#
# Velocity S-wave (km/s) = 3.22447 3.43923 3.33358
# Velocity P-wave (km/s) = 6.43279 7.02443 6.73511
#
# Compressibility (1/GPa) = 0.01832855
#
# Stress axis : x y z
#
# Youngs Moduli (GPa) = 27.99496 71.79910 47.96984
#
# Poissons Ratio (x) = 0.56303 0.60963
# Poissons Ratio (y) = 0.21953 0.26541
# Poissons Ratio (z) = 0.35578 0.39726
#
# Static dielectric constant tensor:
#      x y z
#    x 3.340630 0.000000 0.000000 
#    y 0.000000 3.851630 0.000000 
#    z 0.000000 0.000000 3.629750 
# 
# 
# High freq. dielectric constant tensor:
#      x y z
#    x 1.744760 0.000000 0.000000 
#    y 0.000000 1.786060 0.000000 
#    z 0.000000 0.000000 1.769560 
# 
# From -- ./inp_files/6365.got.cif
#   From: 2010.03.12/outbox.cif.g09.slc.cpg/sg47_4_cif.got.tgz:6365.got - 2010.04.14 03:12:58.
