data_PCOD8199915
_publ_section_title
;
Structure prediction by ZEFSAII (Michael W. Deem and Ramdas Pophale) SiO2 
 PCOD8199915
Probable space group: P M M M
;
_chemical_formula_sum "Si O2"
_cell_formula_units_Z 48
_cell_length_a 28.813641
_cell_length_b 8.712595
_cell_length_c 9.571598
_cell_angle_alpha 90.000000
_cell_angle_beta 90.000000
_cell_angle_gamma 90.000000
_cell_volume 2402.869128
_symmetry_space_group_name_H-M "P M M M"
_symmetry_group_IT_number 47
_symmetry_cell_setting 'orthorhombic'
loop_
_space_group_symop_operation_xyz
x,y,z
-x,-y,z
x,-y,-z
-x,y,-z
-x,-y,-z
x,y,-z
-x,y,z
x,-y,z
loop_
_atom_site_type_symbol
_atom_site_label
_atom_site_fract_x
_atom_site_fract_y
_atom_site_fract_z
Si Si1 0.053675 0.329719 0.500000
Si Si2 0.102822 0.820628 0.744899
Si Si3 0.199429 0.679075 0.339300
Si Si4 0.630830 0.818850 0.341969
Si Si5 0.553436 0.679499 0.842686
Si Si6 0.281376 0.181118 0.163396
Si Si7 0.052329 0.679757 0.000000
O O1 0.078332 0.500000 0.500000
O O2 0.066592 0.224521 0.371802
O O3 0.000000 0.361351 0.500000
O O4 0.154164 0.773749 0.700452
O O5 0.084608 0.727819 0.874559
O O6 0.101741 0.000000 0.776825
O O7 0.213450 0.716033 0.500000
O O8 0.189391 0.500000 0.319306
O O9 0.239135 0.729936 0.233219
O O10 0.635491 0.751805 0.500000
O O11 0.582907 0.766823 0.273195
O O12 0.672775 0.760823 0.244137
O O13 0.631122 0.000000 0.348948
O O14 0.500000 0.718832 0.812914
O O15 0.562741 0.500000 0.827834
O O16 0.566764 0.733451 0.000000
O O17 0.273749 0.000000 0.181932
O O18 0.285359 0.225363 0.000000
O O19 0.045592 0.500000 0.000000
O O20 0.000000 0.753900 0.000000
#
# Coordination Sequence:
#
# PCOD8199915 Si02
#       7
#     4   8   8   8   8   8   4
#     4  11  23  41  65  93 127 165 205 249 302 363
#     4  12  25  41  65  94 125 162 205 254 304 359
#     4  11  24  42  64  89 121 159 200 245 299 363
#     4  10  21  37  58  86 120 158 199 248 304 363
#     4   9  19  36  57  82 115 157 204 253 303 358
#     4  10  22  40  63  89 118 153 197 247 301 361
#     4  11  25  45  67  91 125 167 205 249 306 363
#
# _framework density 19.976120000000002
#
# number of rings (size 3 to 8) (size 9 to 14) (size 15 to 20)
#    0.000    1.500    0.833    4.500    1.167    8.000 
#    0.000    2.500    0.000    0.000    0.000    0.000 
#    0.000    0.000    0.000    0.000    0.000    0.000 
#
# Total GULP energy -595178.177500 kJ/mol
# GULP energy per Si atom -12399.545365 kJ/mol
# Density = 1.993065 g / cm^3
# Si number density = 19.976120 Si / 1000 Ang^3
#
#
#
# Elastic Constant Matrix: (Units=GPa)
#
#
# Indices 1 2 3 4 5 6 
#
# 1 100.5323 27.8329 58.8825 0.0000 0.0000 0.0000
# 2 27.8329 55.0496 28.6343 0.0000 0.0000 0.0000
# 3 58.8825 28.6343 163.1577 0.0000 0.0000 0.0000
# 4 0.0000 0.0000 0.0000 35.9387 0.0000 0.0000
# 5 0.0000 0.0000 0.0000 0.0000 40.1344 0.0000
# 6 0.0000 0.0000 0.0000 0.0000 0.0000 41.5692
#
#
#
# Elastic Compliance Matrix: (Units=1/GPa)
#
#
# Indices 1 2 3 4 5 6 
#
# 1 0.013669 -0.004781 -0.004094 0.000000 0.000000 0.000000
# 2 -0.004781 0.021663 -0.002076 0.000000 0.000000 0.000000
# 3 -0.004094 -0.002076 0.007971 0.000000 0.000000 0.000000
# 4 0.000000 0.000000 0.000000 0.027825 0.000000 0.000000
# 5 0.000000 0.000000 0.000000 0.000000 0.024916 0.000000
# 6 0.000000 0.000000 0.000000 0.000000 0.000000 0.024056
#
#
# Mechanical properties :
#
#
# Convention : Reuss Voigt Hill
#
# Bulk Modulus (GPa) = 46.73021 61.04876 53.88948
# Shear Modulus (GPa) = 33.52644 37.08777 35.30710
#
# Velocity S-wave (km/s) = 4.10118 4.31351 4.20868
# Velocity P-wave (km/s) = 6.77275 7.44551 7.11708
#
# Compressibility (1/GPa) = 0.02139943
#
# Stress axis : x y z
#
# Youngs Moduli (GPa) = 73.16067 46.16190 125.45742
#
# Poissons Ratio (x) = 0.22072 0.51359
# Poissons Ratio (y) = 0.34981 0.26048
# Poissons Ratio (z) = 0.29950 0.09585
#
# Static dielectric constant tensor:
#      x y z
#    x 3.587180 0.000000 0.000000 
#    y 0.000000 3.588540 0.000000 
#    z 0.000000 0.000000 4.636340 
# 
# 
# High freq. dielectric constant tensor:
#      x y z
#    x 1.789050 0.000000 0.000000 
#    y 0.000000 1.775640 0.000000 
#    z 0.000000 0.000000 1.795480 
# 
# From -- ./inp_files/2801.got.cif
#   From: 2010.03.12/outbox.cif.g09.slc.cpg/sg47_2_cif.got.tgz:2801.got - 2010.04.14 03:12:58.
