data_PCOD8199975
_publ_section_title
;
Structure prediction by ZEFSAII (Michael W. Deem and Ramdas Pophale) SiO2 
 PCOD8199975
Probable space group: P M M M
;
_chemical_formula_sum "Si O2"
_cell_formula_units_Z 40
_cell_length_a 16.758672
_cell_length_b 8.279573
_cell_length_c 13.458020
_cell_angle_alpha 90.000000
_cell_angle_beta 90.000000
_cell_angle_gamma 90.000000
_cell_volume 1867.362831
_symmetry_space_group_name_H-M "P M M M"
_symmetry_group_IT_number 47
_symmetry_cell_setting 'orthorhombic'
loop_
_space_group_symop_operation_xyz
x,y,z
-x,-y,z
x,-y,-z
-x,y,-z
-x,-y,-z
x,y,-z
-x,y,z
x,-y,z
loop_
_atom_site_type_symbol
_atom_site_label
_atom_site_fract_x
_atom_site_fract_y
_atom_site_fract_z
Si Si1 0.500000 0.685408 0.108331
Si Si2 0.251562 0.188294 0.391007
Si Si3 0.822351 0.819877 0.884530
Si Si4 0.344150 0.186011 0.205853
Si Si5 0.091914 0.500000 0.882249
Si Si6 0.086485 0.681523 0.381503
O O1 0.500000 0.500000 0.085385
O O2 0.578200 0.722120 0.171122
O O3 0.500000 0.775486 0.000000
O O4 0.262367 0.270760 0.500000
O O5 0.316518 0.256463 0.313510
O O6 0.162820 0.216016 0.344847
O O7 0.264072 0.000000 0.401552
O O8 0.728167 0.787920 0.870932
O O9 0.871022 0.667639 0.836637
O O10 0.844050 0.000000 0.839607
O O11 0.842515 0.824265 0.000000
O O12 0.367579 0.000000 0.214955
O O13 0.000000 0.500000 0.853857
O O14 0.107386 0.500000 0.000000
O O15 0.088818 0.677051 0.500000
O O16 0.094193 0.500000 0.338401
O O17 0.000000 0.754831 0.347822
#
# Coordination Sequence:
#
# PCOD8199975 Si02
#       6
#     4   8   8   8   4   8
#     4  11  25  41  62  93 118 138 173 227 288 351
#     4   9  18  33  54  80 110 148 194 237 277 326
#     4   9  18  33  55  81 109 146 191 237 288 350
#     4  10  21  38  59  83 113 149 185 226 284 349
#     4   9  18  32  52  79 112 152 193 235 288 346
#     4   8  14  26  45  70 102 142 188 236 284 329
#
# _framework density 21.420583000000001
#
# number of rings (size 3 to 8) (size 9 to 14) (size 15 to 20)
#    0.000    2.800    0.000    1.500    1.400    3.200 
#    0.000    5.500    0.000    6.600    0.000    0.000 
#    0.000    0.000    0.000    0.000    0.000    0.000 
#
# Total GULP energy -495603.345908 kJ/mol
# GULP energy per Si atom -12390.083648 kJ/mol
# Density = 2.137183 g / cm^3
# Si number density = 21.420583 Si / 1000 Ang^3
#
#
#
# Elastic Constant Matrix: (Units=GPa)
#
#
# Indices 1 2 3 4 5 6 
#
# 1 166.2748 62.9159 51.3713 0.0000 0.0000 0.0000
# 2 62.9159 99.2685 26.1695 0.0000 0.0000 0.0000
# 3 51.3713 26.1695 70.9874 0.0000 0.0000 0.0000
# 4 0.0000 0.0000 0.0000 20.4294 0.0000 0.0000
# 5 0.0000 0.0000 0.0000 0.0000 -10.4603 0.0000
# 6 0.0000 0.0000 0.0000 0.0000 0.0000 38.9071
#
#
#
# Elastic Compliance Matrix: (Units=1/GPa)
#
#
# Indices 1 2 3 4 5 6 
#
# 1 0.009301 -0.004564 -0.005048 0.000000 0.000000 0.000000
# 2 -0.004564 0.013398 -0.001636 0.000000 0.000000 0.000000
# 3 -0.005048 -0.001636 0.018343 0.000000 0.000000 0.000000
# 4 0.000000 0.000000 0.000000 0.048949 0.000000 0.000000
# 5 0.000000 0.000000 0.000000 0.000000 -0.095600 0.000000
# 6 0.000000 0.000000 0.000000 0.000000 0.000000 0.025702
#
#
# Mechanical properties :
#
#
# Convention : Reuss Voigt Hill
#
# Bulk Modulus (GPa) = 53.92267 68.60490 61.26379
# Shear Modulus (GPa) = 102.51850 22.84684 62.68267
#
# Velocity S-wave (km/s) = 6.92558 3.26940 5.41538
# Velocity P-wave (km/s) = 9.44349 6.80802 8.23191
#
# Compressibility (1/GPa) = 0.01854508
#
# Stress axis : x y z
#
# Youngs Moduli (GPa) = 107.51875 74.63989 54.51553
#
# Poissons Ratio (x) = 0.34065 0.27520
# Poissons Ratio (y) = 0.49071 0.08920
# Poissons Ratio (z) = 0.54277 0.12213
#
# Static dielectric constant tensor:
#      x y z
#    x 3.816870 0.000000 0.000000 
#    y 0.000000 3.964690 0.000000 
#    z 0.000000 0.000000 4.227280 
# 
# 
# High freq. dielectric constant tensor:
#      x y z
#    x 1.821950 0.000000 0.000000 
#    y 0.000000 1.827090 0.000000 
#    z 0.000000 0.000000 1.853240 
# 
# From -- ./inp_files/23369.got.cif
#   From: 2010.03.12/outbox.cif.g09.slc.cpg/sg47_12_cif.got.tgz:23369.got - 2010.04.14 03:12:58.
