data_PCOD8199820
_publ_section_title
;
Structure prediction by ZEFSAII (Michael W. Deem and Ramdas Pophale) SiO2 
 PCOD8199820
Probable space group: P M M M
;
_chemical_formula_sum "Si O2"
_cell_formula_units_Z 36
_cell_length_a 23.276693
_cell_length_b 9.209078
_cell_length_c 9.253661
_cell_angle_alpha 90.000000
_cell_angle_beta 90.000000
_cell_angle_gamma 90.000000
_cell_volume 1983.585914
_symmetry_space_group_name_H-M "P M M M"
_symmetry_group_IT_number 47
_symmetry_cell_setting 'orthorhombic'
loop_
_space_group_symop_operation_xyz
x,y,z
-x,-y,z
x,-y,-z
-x,y,-z
-x,-y,-z
x,y,-z
-x,y,z
x,-y,z
loop_
_atom_site_type_symbol
_atom_site_label
_atom_site_fract_x
_atom_site_fract_y
_atom_site_fract_z
Si Si1 0.898899 0.169842 0.831584
Si Si2 0.783893 0.666054 0.831980
Si Si3 0.672074 0.330581 0.333099
Si Si4 0.000000 0.330636 0.329154
Si Si5 0.437248 0.835977 0.671783
O O1 0.836726 0.231457 0.789462
O O2 0.944251 0.255324 0.736160
O O3 0.901372 0.000000 0.794097
O O4 0.912520 0.197388 0.000000
O O5 0.798227 0.500000 0.786733
O O6 0.728467 0.726810 0.748373
O O7 0.769829 0.675999 0.000000
O O8 0.679468 0.288620 0.500000
O O9 0.664734 0.500000 0.308956
O O10 0.614906 0.258804 0.264580
O O11 0.000000 0.500000 0.287302
O O12 0.000000 0.307812 0.500000
O O13 0.436026 0.827485 0.500000
O O14 0.500000 0.779079 0.725802
O O15 0.428255 0.000000 0.724976
#
# Coordination Sequence:
#
# PCOD8199820 Si02
#       5
#     8   8   8   4   8
#     4  10  21  37  57  80 104 132 169 209 247 292
#     4   9  18  33  51  70  96 131 165 196 237 290
#     4   9  17  28  44  68  94 119 153 199 243 281
#     4  11  24  39  56  80 108 137 168 203 246 294
#     4   8  14  25  41  62  89 120 153 190 235 288
#
# _framework density 18.148949000000002
#
# number of rings (size 3 to 8) (size 9 to 14) (size 15 to 20)
#    0.000    2.778    0.000    2.000    0.000    5.778 
#    0.000    4.444    0.000    0.667    0.000    4.667 
#    0.000    0.000    0.000    0.000    0.000    0.000 
#
# Total GULP energy -446326.632913 kJ/mol
# GULP energy per Si atom -12397.962025 kJ/mol
# Density = 1.810764 g / cm^3
# Si number density = 18.148949 Si / 1000 Ang^3
#
#
#
# Elastic Constant Matrix: (Units=GPa)
#
#
# Indices 1 2 3 4 5 6 
#
# 1 192.0411 89.9910 65.8005 0.0000 0.0000 0.0000
# 2 89.9910 99.8585 45.0492 0.0000 0.0000 0.0000
# 3 65.8005 45.0492 47.1999 0.0000 0.0000 0.0000
# 4 0.0000 0.0000 0.0000 19.0748 0.0000 0.0000
# 5 0.0000 0.0000 0.0000 0.0000 -31.1248 0.0000
# 6 0.0000 0.0000 0.0000 0.0000 0.0000 1.5517
#
#
#
# Elastic Compliance Matrix: (Units=1/GPa)
#
#
# Indices 1 2 3 4 5 6 
#
# 1 0.011454 -0.005477 -0.010740 0.000000 0.000000 0.000000
# 2 -0.005477 0.020205 -0.011650 0.000000 0.000000 0.000000
# 3 -0.010740 -0.011650 0.047278 0.000000 0.000000 0.000000
# 4 0.000000 0.000000 0.000000 0.052425 0.000000 0.000000
# 5 0.000000 0.000000 0.000000 0.000000 -0.032129 0.000000
# 6 0.000000 0.000000 0.000000 0.000000 0.000000 0.644453
#
#
# Mechanical properties :
#
#
# Convention : Reuss Voigt Hill
#
# Bulk Modulus (GPa) = 43.09628 82.30900 62.70264
# Shear Modulus (GPa) = 6.19461 7.11758 6.65610
#
# Velocity S-wave (km/s) = 1.84949 1.98249 1.91715
# Velocity P-wave (km/s) = 5.32525 7.11974 6.28685
#
# Compressibility (1/GPa) = 0.02320386
#
# Stress axis : x y z
#
# Youngs Moduli (GPa) = 87.30946 49.49255 21.15148
#
# Poissons Ratio (x) = 0.27105 0.22717
# Poissons Ratio (y) = 0.47815 0.24641
# Poissons Ratio (z) = 0.93772 0.57657
#
# Static dielectric constant tensor:
#      x y z
#    x 3.756510 0.000000 0.000000 
#    y 0.000000 3.399560 0.000000 
#    z 0.000000 0.000000 3.092740 
# 
# 
# High freq. dielectric constant tensor:
#      x y z
#    x 1.721450 0.000000 0.000000 
#    y 0.000000 1.701140 0.000000 
#    z 0.000000 0.000000 1.669840 
# 
# From -- ./inp_files/1434.got.cif
#   From: 2010.03.12/outbox.cif.g09.slc.cpg/sg47_1_cif.got.tgz:1434.got - 2010.04.14 03:12:58.
