data_PCOD8199179
_publ_section_title
;
Structure prediction by ZEFSAII (Michael W. Deem and Ramdas Pophale) SiO2 
 PCOD8199179
Probable space group: P M M M
;
_chemical_formula_sum "Si O2"
_cell_formula_units_Z 64
_cell_length_a 14.294653
_cell_length_b 31.108171
_cell_length_c 9.488814
_cell_angle_alpha 90.000000
_cell_angle_beta 90.000000
_cell_angle_gamma 90.000000
_cell_volume 4219.490648
_symmetry_space_group_name_H-M "P M M M"
_symmetry_group_IT_number 47
_symmetry_cell_setting 'orthorhombic'
loop_
_space_group_symop_operation_xyz
x,y,z
-x,-y,z
x,-y,-z
-x,y,-z
-x,-y,-z
x,y,-z
-x,y,z
x,-y,z
loop_
_atom_site_type_symbol
_atom_site_label
_atom_site_fract_x
_atom_site_fract_y
_atom_site_fract_z
Si Si1 0.701921 0.794107 0.831662
Si Si2 0.611170 0.452854 0.157561
Si Si3 0.390515 0.280475 0.663295
Si Si4 0.100907 0.825361 0.833525
Si Si5 0.610970 0.376788 0.344567
Si Si6 0.270731 0.952512 0.338868
Si Si7 0.105956 0.922016 0.163118
Si Si8 0.609427 0.871142 0.663433
O O1 0.665410 0.749803 0.768452
O O2 0.811740 0.795958 0.788495
O O3 0.647621 0.833753 0.763133
O O4 0.687105 0.795145 0.000000
O O5 0.500000 0.448881 0.156373
O O6 0.639684 0.500000 0.218443
O O7 0.655743 0.414059 0.247732
O O8 0.650429 0.448111 0.000000
O O9 0.363619 0.272062 0.500000
O O10 0.500000 0.271861 0.684219
O O11 0.363380 0.329036 0.708937
O O12 0.116698 0.873582 0.776925
O O13 0.000000 0.807397 0.776687
O O14 0.095093 0.828546 0.000000
O O15 0.652572 0.383732 0.500000
O O16 0.500000 0.381221 0.349477
O O17 0.242535 0.944567 0.500000
O O18 0.175988 0.951779 0.249141
O O19 0.344257 0.916242 0.290283
O O20 0.316129 0.000000 0.319104
O O21 0.000000 0.938483 0.184987
O O22 0.134432 0.924383 0.000000
O O23 0.630267 0.859719 0.500000
O O24 0.500000 0.875918 0.690132
#
# Coordination Sequence:
#
# PCOD8199179 Si02
#       8
#     8   8   8   8   8   8   8   8
#     4  11  20  30  49  72  88 105 136 175 208 244
#     4   8  13  20  30  46  69  97 130 173 224 264
#     4   9  18  31  43  57  84 119 147 174 214 257
#     4   8  15  29  48  68  89 110 131 160 200 243
#     4   8  14  24  36  49  68 100 141 178 209 245
#     4  10  21  35  50  69  91 113 139 172 206 239
#     4   9  17  32  53  72  91 116 140 161 195 246
#     4  10  21  36  51  65  85 114 142 169 205 246
#
# _framework density 15.167707999999999
#
# number of rings (size 3 to 8) (size 9 to 14) (size 15 to 20)
#    0.000    2.875    1.250    2.625    0.000    3.750 
#    0.000    5.000    0.000    1.500    0.000    1.750 
#    0.000    0.000    0.000    0.000    0.000    0.625 
#
# Total GULP energy -793127.214433 kJ/mol
# GULP energy per Si atom -12392.612726 kJ/mol
# Density = 1.513319 g / cm^3
# Si number density = 15.167708 Si / 1000 Ang^3
#
#
#
# Elastic Constant Matrix: (Units=GPa)
#
#
# Indices 1 2 3 4 5 6 
#
# 1 67.8385 43.5551 35.1103 0.0000 0.0000 0.0000
# 2 43.5551 123.6833 55.5289 0.0000 0.0000 0.0000
# 3 35.1103 55.5289 62.7639 0.0000 0.0000 0.0000
# 4 0.0000 0.0000 0.0000 25.6452 0.0000 0.0000
# 5 0.0000 0.0000 0.0000 0.0000 16.6146 0.0000
# 6 0.0000 0.0000 0.0000 0.0000 0.0000 6.3793
#
#
#
# Elastic Compliance Matrix: (Units=1/GPa)
#
#
# Indices 1 2 3 4 5 6 
#
# 1 0.021690 -0.003634 -0.008918 0.000000 0.000000 0.000000
# 2 -0.003634 0.014022 -0.010372 0.000000 0.000000 0.000000
# 3 -0.008918 -0.010372 0.030098 0.000000 0.000000 0.000000
# 4 0.000000 0.000000 0.000000 0.038994 0.000000 0.000000
# 5 0.000000 0.000000 0.000000 0.000000 0.060188 0.000000
# 6 0.000000 0.000000 0.000000 0.000000 0.000000 0.156756
#
#
# Mechanical properties :
#
#
# Convention : Reuss Voigt Hill
#
# Bulk Modulus (GPa) = 50.09907 58.07489 54.08698
# Shear Modulus (GPa) = 13.36003 17.73392 15.54698
#
# Velocity S-wave (km/s) = 2.97108 3.42305 3.20504
# Velocity P-wave (km/s) = 6.69862 7.34811 7.03087
#
# Compressibility (1/GPa) = 0.01996045
#
# Stress axis : x y z
#
# Youngs Moduli (GPa) = 46.10465 71.31767 33.22453
#
# Poissons Ratio (x) = 0.25918 0.29630
# Poissons Ratio (y) = 0.16755 0.34462
# Poissons Ratio (z) = 0.41116 0.73974
#
# Static dielectric constant tensor:
#      x y z
#    x 2.845900 0.000000 0.000000 
#    y 0.000000 3.028910 0.000000 
#    z 0.000000 0.000000 2.940250 
# 
# 
# High freq. dielectric constant tensor:
#      x y z
#    x 1.542490 0.000000 0.000000 
#    y 0.000000 1.578020 0.000000 
#    z 0.000000 0.000000 1.575180 
# 
# From -- ./inp_files/8285.got.cif
#   From: 2010.03.12/outbox.cif.g09.slc.cpg/sg47_5_cif.got.tgz:8285.got - 2010.04.14 03:12:58.
