data_PCOD8199971
_publ_section_title
;
Structure prediction by ZEFSAII (Michael W. Deem and Ramdas Pophale) SiO2 
 PCOD8199971
Probable space group: P M M M
;
_chemical_formula_sum "Si O2"
_cell_formula_units_Z 52
_cell_length_a 8.830116
_cell_length_b 15.099572
_cell_length_c 20.060512
_cell_angle_alpha 90.000000
_cell_angle_beta 90.000000
_cell_angle_gamma 90.000000
_cell_volume 2674.687570
_symmetry_space_group_name_H-M "P M M M"
_symmetry_group_IT_number 47
_symmetry_cell_setting 'orthorhombic'
loop_
_space_group_symop_operation_xyz
x,y,z
-x,-y,z
x,-y,-z
-x,y,-z
-x,-y,-z
x,y,-z
-x,y,z
x,-y,z
loop_
_atom_site_type_symbol
_atom_site_label
_atom_site_fract_x
_atom_site_fract_y
_atom_site_fract_z
Si Si1 0.823066 0.155557 0.133834
Si Si2 0.824738 0.399474 0.423177
Si Si3 0.825721 0.401536 0.197219
Si Si4 0.679326 0.670907 0.923639
Si Si5 0.673763 0.900595 0.732746
Si Si6 0.662621 0.000000 0.926519
Si Si7 0.324952 0.712063 0.688434
O O1 0.730439 0.242134 0.115417
O O2 0.783785 0.116018 0.205726
O O3 0.769563 0.083666 0.081777
O O4 0.000000 0.175173 0.128222
O O5 0.797413 0.375147 0.500000
O O6 0.771254 0.500000 0.409096
O O7 0.729945 0.331123 0.379846
O O8 0.000000 0.389848 0.404030
O O9 0.808652 0.500000 0.228554
O O10 0.745776 0.405347 0.124304
O O11 0.758353 0.328819 0.247392
O O12 0.000000 0.375914 0.186628
O O13 0.500000 0.665138 0.925450
O O14 0.741887 0.664804 0.000000
O O15 0.500000 0.895960 0.756738
O O16 0.704151 0.818619 0.681953
O O17 0.707531 0.000000 0.702777
O O18 0.500000 0.000000 0.884810
O O19 0.603378 0.000000 0.000000
O O20 0.500000 0.690319 0.698209
#
# Coordination Sequence:
#
# PCOD8199971 Si02
#       7
#     8   8   8   8   8   4   8
#     4  12  23  35  55  81 107 138 184 241 297 355
#     4   9  19  37  61  90 126 166 201 234 282 343
#     4  11  24  40  59  84 115 151 191 240 297 354
#     4  11  24  41  59  78 105 145 191 240 298 359
#     4  10  21  38  59  81 113 154 193 236 291 350
#     4  11  23  37  53  73 103 143 182 229 296 365
#     4  11  22  36  60  91 121 155 195 241 290 343
#
# _framework density 19.441521999999999
#
# number of rings (size 3 to 8) (size 9 to 14) (size 15 to 20)
#    0.000    1.308    2.308    4.385    0.000    8.308 
#    0.000    2.308    0.000    0.462    0.000    3.231 
#    0.000    0.000    0.000    0.000    0.000    0.000 
#
# Total GULP energy -644436.650009 kJ/mol
# GULP energy per Si atom -12393.012500 kJ/mol
# Density = 1.939727 g / cm^3
# Si number density = 19.441522 Si / 1000 Ang^3
#
#
#
# Elastic Constant Matrix: (Units=GPa)
#
#
# Indices 1 2 3 4 5 6 
#
# 1 90.5405 42.9266 38.9437 0.0000 0.0000 0.0000
# 2 42.9266 133.5185 47.6533 0.0000 0.0000 0.0000
# 3 38.9437 47.6533 82.2706 0.0000 0.0000 0.0000
# 4 0.0000 0.0000 0.0000 31.2358 0.0000 0.0000
# 5 0.0000 0.0000 0.0000 0.0000 40.2528 0.0000
# 6 0.0000 0.0000 0.0000 0.0000 0.0000 31.4699
#
#
#
# Elastic Compliance Matrix: (Units=1/GPa)
#
#
# Indices 1 2 3 4 5 6 
#
# 1 0.014665 -0.002820 -0.005308 0.000000 0.000000 0.000000
# 2 -0.002820 0.009984 -0.004448 0.000000 0.000000 0.000000
# 3 -0.005308 -0.004448 0.017244 0.000000 0.000000 0.000000
# 4 0.000000 0.000000 0.000000 0.032015 0.000000 0.000000
# 5 0.000000 0.000000 0.000000 0.000000 0.024843 0.000000
# 6 0.000000 0.000000 0.000000 0.000000 0.000000 0.031776
#
#
# Mechanical properties :
#
#
# Convention : Reuss Voigt Hill
#
# Bulk Modulus (GPa) = 59.73693 62.81963 61.27828
# Shear Modulus (GPa) = 31.00583 32.37877 31.69230
#
# Velocity S-wave (km/s) = 3.99786 4.08541 4.04187
# Velocity P-wave (km/s) = 7.21829 7.39164 7.30548
#
# Compressibility (1/GPa) = 0.01674006
#
# Stress axis : x y z
#
# Youngs Moduli (GPa) = 68.18875 100.16233 57.99100
#
# Poissons Ratio (x) = 0.28249 0.30783
# Poissons Ratio (y) = 0.19232 0.25793
# Poissons Ratio (z) = 0.36197 0.44551
#
# Static dielectric constant tensor:
#      x y z
#    x 3.573800 0.000000 0.000000 
#    y 0.000000 3.902910 0.000000 
#    z 0.000000 0.000000 3.409340 
# 
# 
# High freq. dielectric constant tensor:
#      x y z
#    x 1.764070 0.000000 0.000000 
#    y 0.000000 1.767980 0.000000 
#    z 0.000000 0.000000 1.730600 
# 
# From -- ./inp_files/29583.got.cif
#   From: 2010.03.12/outbox.cif.g09.slc.cpg/sg47_15_cif.got.tgz:29583.got - 2010.04.14 03:12:58.
