data_PCOD8199901
_publ_section_title
;
Structure prediction by ZEFSAII (Michael W. Deem and Ramdas Pophale) SiO2 
 PCOD8199901
Probable space group: P M M M
;
_chemical_formula_sum "Si O2"
_cell_formula_units_Z 56
_cell_length_a 9.079013
_cell_length_b 14.583840
_cell_length_c 21.138392
_cell_angle_alpha 90.000000
_cell_angle_beta 90.000000
_cell_angle_gamma 90.000000
_cell_volume 2798.868384
_symmetry_space_group_name_H-M "P M M M"
_symmetry_group_IT_number 47
_symmetry_cell_setting 'orthorhombic'
loop_
_space_group_symop_operation_xyz
x,y,z
-x,-y,z
x,-y,-z
-x,y,-z
-x,-y,-z
x,y,-z
-x,y,z
x,-y,z
loop_
_atom_site_type_symbol
_atom_site_label
_atom_site_fract_x
_atom_site_fract_y
_atom_site_fract_z
Si Si1 0.671977 0.717923 0.068688
Si Si2 0.674099 0.894905 0.381607
Si Si3 0.675522 0.397245 0.185333
Si Si4 0.330252 0.608417 0.326093
Si Si5 0.164213 0.108659 0.743433
Si Si6 0.330363 0.897309 0.133547
Si Si7 0.830602 0.728582 0.429541
O O1 0.500000 0.694870 0.067834
O O2 0.743405 0.663734 0.128084
O O3 0.696965 0.827331 0.076131
O O4 0.740044 0.689734 0.000000
O O5 0.500000 0.884990 0.382741
O O6 0.733659 0.859118 0.314113
O O7 0.746904 0.826609 0.431832
O O8 0.721186 0.000000 0.396083
O O9 0.500000 0.395431 0.184220
O O10 0.733778 0.500000 0.174178
O O11 0.724793 0.362355 0.255301
O O12 0.500000 0.636524 0.335865
O O13 0.309997 0.500000 0.334258
O O14 0.235087 0.658648 0.378884
O O15 0.236817 0.142434 0.808234
O O16 0.000000 0.149991 0.736556
O O17 0.158394 0.000000 0.744403
O O18 0.500000 0.897046 0.155211
O O19 0.282061 0.000000 0.112789
O O20 0.814635 0.686080 0.500000
O O21 0.000000 0.746488 0.412270
#
# Coordination Sequence:
#
# PCOD8199901 Si02
#       7
#     8   8   8   8   8   8   8
#     4   9  17  27  42  69 103 140 182 226 274 325
#     4  10  21  37  58  83 112 148 190 233 276 327
#     4   8  15  29  49  74 103 134 172 223 279 327
#     4   9  19  37  61  86 111 144 188 238 290 342
#     4   9  17  30  49  74 103 135 176 227 279 325
#     4   9  17  28  43  67 101 140 182 225 270 321
#     4  11  25  41  57  83 118 153 188 229 281 337
#
# _framework density 20.008087
#
# number of rings (size 3 to 8) (size 9 to 14) (size 15 to 20)
#    0.000    2.714    0.000    2.143    2.000    5.143 
#    0.000    5.714    0.000    0.429    0.000    2.000 
#    0.000    0.000    0.000    4.429    0.000    4.571 
#
# Total GULP energy -694045.572882 kJ/mol
# GULP energy per Si atom -12393.670944 kJ/mol
# Density = 1.996255 g / cm^3
# Si number density = 20.008087 Si / 1000 Ang^3
#
#
#
# Elastic Constant Matrix: (Units=GPa)
#
#
# Indices 1 2 3 4 5 6 
#
# 1 71.6246 26.1271 42.9437 0.0000 0.0000 0.0000
# 2 26.1271 76.4627 62.8363 0.0000 0.0000 0.0000
# 3 42.9437 62.8363 154.4859 0.0000 0.0000 0.0000
# 4 0.0000 0.0000 0.0000 24.9944 0.0000 0.0000
# 5 0.0000 0.0000 0.0000 0.0000 7.8448 0.0000
# 6 0.0000 0.0000 0.0000 0.0000 0.0000 17.0932
#
#
#
# Elastic Compliance Matrix: (Units=1/GPa)
#
#
# Indices 1 2 3 4 5 6 
#
# 1 0.017178 -0.002922 -0.003586 0.000000 0.000000 0.000000
# 2 -0.002922 0.020142 -0.007380 0.000000 0.000000 0.000000
# 3 -0.003586 -0.007380 0.010472 0.000000 0.000000 0.000000
# 4 0.000000 0.000000 0.000000 0.040009 0.000000 0.000000
# 5 0.000000 0.000000 0.000000 0.000000 0.127473 0.000000
# 6 0.000000 0.000000 0.000000 0.000000 0.000000 0.058503
#
#
# Mechanical properties :
#
#
# Convention : Reuss Voigt Hill
#
# Bulk Modulus (GPa) = 49.96586 62.93191 56.44889
# Shear Modulus (GPa) = 16.22186 21.36422 18.79304
#
# Velocity S-wave (km/s) = 2.85048 3.27123 3.06808
# Velocity P-wave (km/s) = 5.98838 6.76679 6.38945
#
# Compressibility (1/GPa) = 0.02001366
#
# Stress axis : x y z
#
# Youngs Moduli (GPa) = 58.21395 49.64794 95.49360
#
# Poissons Ratio (x) = 0.14509 0.34248
# Poissons Ratio (y) = 0.17012 0.70476
# Poissons Ratio (z) = 0.20878 0.36641
#
# Static dielectric constant tensor:
#      x y z
#    x 3.378670 0.000000 0.000000 
#    y 0.000000 3.655270 0.000000 
#    z 0.000000 0.000000 3.804150 
# 
# 
# High freq. dielectric constant tensor:
#      x y z
#    x 1.741830 0.000000 0.000000 
#    y 0.000000 1.777090 0.000000 
#    z 0.000000 0.000000 1.782720 
# 
# From -- ./inp_files/7277.got.cif
#   From: 2010.03.12/outbox.cif.g09.slc.cpg/sg47_4_cif.got.tgz:7277.got - 2010.04.14 03:12:58.
