data_PCOD8199773
_publ_section_title
;
Structure prediction by ZEFSAII (Michael W. Deem and Ramdas Pophale) SiO2 
 PCOD8199773
Probable space group: P M M M
;
_chemical_formula_sum "Si O2"
_cell_formula_units_Z 48
_cell_length_a 9.954256
_cell_length_b 29.353763
_cell_length_c 8.866577
_cell_angle_alpha 90.000000
_cell_angle_beta 90.000000
_cell_angle_gamma 90.000000
_cell_volume 2590.768327
_symmetry_space_group_name_H-M "P M M M"
_symmetry_group_IT_number 47
_symmetry_cell_setting 'orthorhombic'
loop_
_space_group_symop_operation_xyz
x,y,z
-x,-y,z
x,-y,-z
-x,y,-z
-x,-y,-z
x,y,-z
-x,y,z
x,-y,z
loop_
_atom_site_type_symbol
_atom_site_label
_atom_site_fract_x
_atom_site_fract_y
_atom_site_fract_z
Si Si1 0.347146 0.778460 0.323714
Si Si2 0.254690 0.394975 0.821108
Si Si3 0.000000 0.449933 0.821352
Si Si4 0.843228 0.304428 0.322777
Si Si5 0.500000 0.447440 0.678796
Si Si6 0.150515 0.949363 0.179400
Si Si7 0.651729 0.127249 0.178508
O O1 0.341331 0.787867 0.500000
O O2 0.500000 0.764215 0.276410
O O3 0.238448 0.740649 0.276655
O O4 0.300878 0.824239 0.240939
O O5 0.233891 0.343579 0.767696
O O6 0.375520 0.419811 0.740928
O O7 0.127739 0.423041 0.763210
O O8 0.275314 0.395927 0.000000
O O9 0.000000 0.500000 0.748337
O O10 0.000000 0.453205 0.000000
O O11 0.831736 0.314359 0.500000
O O12 0.000000 0.300010 0.274031
O O13 0.500000 0.500000 0.736572
O O14 0.500000 0.446128 0.500000
O O15 0.253433 0.912299 0.246863
O O16 0.000000 0.937361 0.234610
O O17 0.191009 0.000000 0.236391
O O18 0.156040 0.948477 0.000000
O O19 0.500000 0.116546 0.230729
O O20 0.663235 0.129090 0.000000
#
# Coordination Sequence:
#
# PCOD8199773 Si02
#       7
#     8   8   4   8   4   8   8
#     4   9  19  35  53  72  98 138 178 213 261 319
#     4  11  22  38  60  87 116 146 182 225 273 322
#     4   9  18  34  57  83 113 145 175 213 264 319
#     4  10  21  37  56  79 109 142 178 221 268 322
#     4  11  25  43  61  85 117 151 187 225 266 317
#     4   8  14  25  42  66  97 131 165 202 250 308
#     4   9  17  29  46  71  99 125 161 213 262 303
#
# _framework density 18.527322000000002
#
# number of rings (size 3 to 8) (size 9 to 14) (size 15 to 20)
#    0.000    2.500    0.833    1.750    1.167    3.000 
#    0.000    1.667    0.000    2.500    0.000    3.500 
#    0.000    0.000    0.000    0.000    0.000    0.000 
#
# Total GULP energy -595077.431699 kJ/mol
# GULP energy per Si atom -12397.446494 kJ/mol
# Density = 1.848515 g / cm^3
# Si number density = 18.527322 Si / 1000 Ang^3
#
#
#
# Elastic Constant Matrix: (Units=GPa)
#
#
# Indices 1 2 3 4 5 6 
#
# 1 145.6571 100.0055 32.6528 0.0000 0.0000 0.0000
# 2 100.0055 167.6339 35.5458 0.0000 0.0000 0.0000
# 3 32.6528 35.5458 31.7063 0.0000 0.0000 0.0000
# 4 0.0000 0.0000 0.0000 21.5270 0.0000 0.0000
# 5 0.0000 0.0000 0.0000 0.0000 18.2326 0.0000
# 6 0.0000 0.0000 0.0000 0.0000 0.0000 44.8366
#
#
#
# Elastic Compliance Matrix: (Units=1/GPa)
#
#
# Indices 1 2 3 4 5 6 
#
# 1 0.012411 -0.006157 -0.005878 0.000000 0.000000 0.000000
# 2 -0.006157 0.010881 -0.005857 0.000000 0.000000 0.000000
# 3 -0.005878 -0.005857 0.044159 0.000000 0.000000 0.000000
# 4 0.000000 0.000000 0.000000 0.046453 0.000000 0.000000
# 5 0.000000 0.000000 0.000000 0.000000 0.054847 0.000000
# 6 0.000000 0.000000 0.000000 0.000000 0.000000 0.022303
#
#
# Mechanical properties :
#
#
# Convention : Reuss Voigt Hill
#
# Bulk Modulus (GPa) = 31.58003 75.71173 53.64588
# Shear Modulus (GPa) = 21.06197 28.70546 24.88372
#
# Velocity S-wave (km/s) = 3.37531 3.94046 3.66878
# Velocity P-wave (km/s) = 5.68088 7.85217 6.85307
#
# Compressibility (1/GPa) = 0.03166558
#
# Stress axis : x y z
#
# Youngs Moduli (GPa) = 80.57490 91.90573 22.64522
#
# Poissons Ratio (x) = 0.56591 0.13311
# Poissons Ratio (y) = 0.49614 0.13263
# Poissons Ratio (z) = 0.47363 0.53829
#
# Static dielectric constant tensor:
#      x y z
#    x 3.569970 0.000000 0.000000 
#    y 0.000000 3.622450 0.000000 
#    z 0.000000 0.000000 3.107910 
# 
# 
# High freq. dielectric constant tensor:
#      x y z
#    x 1.728840 0.000000 0.000000 
#    y 0.000000 1.729600 0.000000 
#    z 0.000000 0.000000 1.690030 
# 
# From -- ./inp_files/2812.got.cif
#   From: 2010.03.12/outbox.cif.g09.slc.cpg/sg47_2_cif.got.tgz:2812.got - 2010.04.14 03:12:58.
