data_PCOD8199329
_publ_section_title
;
Structure prediction by ZEFSAII (Michael W. Deem and Ramdas Pophale) SiO2 
 PCOD8199329
Probable space group: P M M M
;
_chemical_formula_sum "Si O2"
_cell_formula_units_Z 64
_cell_length_a 8.994597
_cell_length_b 18.538395
_cell_length_c 20.228378
_cell_angle_alpha 90.000000
_cell_angle_beta 90.000000
_cell_angle_gamma 90.000000
_cell_volume 3372.988820
_symmetry_space_group_name_H-M "P M M M"
_symmetry_group_IT_number 47
_symmetry_cell_setting 'orthorhombic'
loop_
_space_group_symop_operation_xyz
x,y,z
-x,-y,z
x,-y,-z
-x,y,-z
-x,-y,-z
x,y,-z
-x,y,z
x,-y,z
loop_
_atom_site_type_symbol
_atom_site_label
_atom_site_fract_x
_atom_site_fract_y
_atom_site_fract_z
Si Si1 0.824186 0.336770 0.691664
Si Si2 0.327150 0.082108 0.192945
Si Si3 0.670731 0.817746 0.074699
Si Si4 0.826253 0.671849 0.076564
Si Si5 0.176215 0.172277 0.693961
Si Si6 0.671828 0.415222 0.813063
Si Si7 0.671489 0.583340 0.575988
Si Si8 0.823213 0.080788 0.427011
O O1 0.769260 0.254434 0.696515
O O2 0.749852 0.380657 0.750197
O O3 0.776126 0.367722 0.620953
O O4 0.000000 0.342998 0.698558
O O5 0.500000 0.086547 0.211239
O O6 0.296287 0.113186 0.119924
O O7 0.236327 0.129594 0.243777
O O8 0.269749 0.000000 0.194478
O O9 0.500000 0.792850 0.080618
O O10 0.770897 0.750834 0.098309
O O11 0.710864 0.840547 0.000000
O O12 0.744233 0.611327 0.118935
O O13 0.000000 0.667373 0.091214
O O14 0.788441 0.657220 0.000000
O O15 0.240988 0.136062 0.627074
O O16 0.000000 0.167426 0.695095
O O17 0.500000 0.393239 0.812434
O O18 0.694758 0.500000 0.808523
O O19 0.702883 0.603769 0.500000
O O20 0.500000 0.597736 0.594117
O O21 0.710563 0.500000 0.588768
O O22 0.765473 0.103508 0.500000
O O23 0.000000 0.082066 0.426452
O O24 0.767340 0.000000 0.409838
#
# Coordination Sequence:
#
# PCOD8199329 Si02
#       8
#     8   8   8   8   8   8   8   8
#     4  11  23  36  54  82 112 142 180 228 278 325
#     4  10  21  35  52  77 107 138 175 221 269 313
#     4   9  18  34  56  79 105 141 181 217 257 311
#     4  10  21  37  58  84 113 142 173 216 269 321
#     4  10  21  35  52  76 105 138 175 215 262 318
#     4  11  24  40  58  79 105 141 183 224 267 321
#     4   9  19  37  59  81 108 145 186 224 266 323
#     4   8  14  27  49  74  98 128 168 210 249 293
#
# _framework density 18.974269
#
# number of rings (size 3 to 8) (size 9 to 14) (size 15 to 20)
#    0.000    2.250    0.000    3.375    0.000    9.000 
#    0.000    4.375    0.000    0.375    0.000    4.375 
#    0.000    0.000    0.000    0.000    0.000    0.000 
#
# Total GULP energy -793728.054883 kJ/mol
# GULP energy per Si atom -12402.000858 kJ/mol
# Density = 1.893108 g / cm^3
# Si number density = 18.974269 Si / 1000 Ang^3
#
#
#
# Elastic Constant Matrix: (Units=GPa)
#
#
# Indices 1 2 3 4 5 6 
#
# 1 59.2472 49.5735 40.6827 0.0000 0.0000 0.0000
# 2 49.5735 121.4267 69.0241 0.0000 0.0000 0.0000
# 3 40.6827 69.0241 114.5348 0.0000 0.0000 0.0000
# 4 0.0000 0.0000 0.0000 40.1102 0.0000 0.0000
# 5 0.0000 0.0000 0.0000 0.0000 29.1754 0.0000
# 6 0.0000 0.0000 0.0000 0.0000 0.0000 21.6136
#
#
#
# Elastic Compliance Matrix: (Units=1/GPa)
#
#
# Indices 1 2 3 4 5 6 
#
# 1 0.027077 -0.008499 -0.004496 0.000000 0.000000 0.000000
# 2 -0.008499 0.015194 -0.006138 0.000000 0.000000 0.000000
# 3 -0.004496 -0.006138 0.014027 0.000000 0.000000 0.000000
# 4 0.000000 0.000000 0.000000 0.024931 0.000000 0.000000
# 5 0.000000 0.000000 0.000000 0.000000 0.034276 0.000000
# 6 0.000000 0.000000 0.000000 0.000000 0.000000 0.046267
#
#
# Mechanical properties :
#
#
# Convention : Reuss Voigt Hill
#
# Bulk Modulus (GPa) = 55.45497 68.19658 61.82578
# Shear Modulus (GPa) = 24.26622 27.24172 25.75397
#
# Velocity S-wave (km/s) = 3.58005 3.79320 3.68817
# Velocity P-wave (km/s) = 6.81020 7.42995 7.12682
#
# Compressibility (1/GPa) = 0.01803265
#
# Stress axis : x y z
#
# Youngs Moduli (GPa) = 36.93225 65.81477 71.29112
#
# Poissons Ratio (x) = 0.55933 0.32052
# Poissons Ratio (y) = 0.31387 0.43759
# Poissons Ratio (z) = 0.16605 0.40397
#
# Static dielectric constant tensor:
#      x y z
#    x 3.347620 0.000000 0.000000 
#    y 0.000000 3.578810 0.000000 
#    z 0.000000 0.000000 3.701050 
# 
# 
# High freq. dielectric constant tensor:
#      x y z
#    x 1.723130 0.000000 0.000000 
#    y 0.000000 1.739520 0.000000 
#    z 0.000000 0.000000 1.752340 
# 
# From -- ./inp_files/29971.got.cif
#   From: 2010.03.12/outbox.cif.g09.slc.cpg/sg47_15_cif.got.tgz:29971.got - 2010.04.14 03:12:58.
