data_PCOD8199559
_publ_section_title
;
Structure prediction by ZEFSAII (Michael W. Deem and Ramdas Pophale) SiO2 
 PCOD8199559
Probable space group: P M M M
;
_chemical_formula_sum "Si O2"
_cell_formula_units_Z 44
_cell_length_a 9.054101
_cell_length_b 7.844151
_cell_length_c 29.498635
_cell_angle_alpha 90.000000
_cell_angle_beta 90.000000
_cell_angle_gamma 90.000000
_cell_volume 2095.044250
_symmetry_space_group_name_H-M "P M M M"
_symmetry_group_IT_number 47
_symmetry_cell_setting 'orthorhombic'
loop_
_space_group_symop_operation_xyz
x,y,z
-x,-y,z
x,-y,-z
-x,y,-z
-x,-y,-z
x,y,-z
-x,y,z
x,-y,z
loop_
_atom_site_type_symbol
_atom_site_label
_atom_site_fract_x
_atom_site_fract_y
_atom_site_fract_z
Si Si1 0.168241 0.695885 0.811475
Si Si2 0.666633 0.700616 0.449277
Si Si3 0.332472 0.202821 0.722754
Si Si4 0.161609 0.803908 0.363494
Si Si5 0.671778 0.807466 0.897467
Si Si6 0.830338 0.500000 0.946449
O O1 0.174686 0.500000 0.827115
O O2 0.235123 0.714549 0.761843
O O3 0.263396 0.804797 0.846781
O O4 0.000000 0.762654 0.810975
O O5 0.718596 0.750782 0.500000
O O6 0.500000 0.765838 0.441328
O O7 0.674211 0.500000 0.442542
O O8 0.772704 0.788474 0.413523
O O9 0.500000 0.268188 0.726902
O O10 0.268474 0.273926 0.675013
O O11 0.325369 0.000000 0.726204
O O12 0.000000 0.714955 0.361905
O O13 0.142065 0.000000 0.351838
O O14 0.500000 0.758419 0.895518
O O15 0.754312 0.672537 0.929129
O O16 0.693248 0.000000 0.916630
O O17 0.000000 0.500000 0.929951
O O18 0.817605 0.500000 0.000000
#
# Coordination Sequence:
#
# PCOD8199559 Si02
#       6
#     8   8   8   8   8   4
#     4  11  23  38  59  89 124 162 205 252 305 366
#     4   9  19  36  56  77 102 135 177 224 276 338
#     4  10  21  37  57  81 110 148 194 240 291 352
#     4  10  21  36  54  78 109 143 181 229 285 345
#     4  11  24  42  67  98 132 173 219 268 324 383
#     4  11  25  45  69  99 135 175 221 273 326 381
#
# _framework density 21.001944999999999
#
# number of rings (size 3 to 8) (size 9 to 14) (size 15 to 20)
#    0.000    1.727    0.909    3.545    0.000    9.818 
#    0.000    4.545    0.000    0.000    0.000    0.000 
#    0.000    0.000    0.000    0.000    0.000    0.000 
#
# Total GULP energy -545667.188553 kJ/mol
# GULP energy per Si atom -12401.527013 kJ/mol
# Density = 2.095414 g / cm^3
# Si number density = 21.001945 Si / 1000 Ang^3
#
#
#
# Elastic Constant Matrix: (Units=GPa)
#
#
# Indices 1 2 3 4 5 6 
#
# 1 179.0337 48.4436 69.7863 0.0000 0.0000 0.0000
# 2 48.4436 69.3960 31.0076 0.0000 0.0000 0.0000
# 3 69.7863 31.0076 115.5919 0.0000 0.0000 0.0000
# 4 0.0000 0.0000 0.0000 29.8304 0.0000 0.0000
# 5 0.0000 0.0000 0.0000 0.0000 40.8089 0.0000
# 6 0.0000 0.0000 0.0000 0.0000 0.0000 26.0905
#
#
#
# Elastic Compliance Matrix: (Units=1/GPa)
#
#
# Indices 1 2 3 4 5 6 
#
# 1 0.008167 -0.003975 -0.003865 0.000000 0.000000 0.000000
# 2 -0.003975 0.018307 -0.002511 0.000000 0.000000 0.000000
# 3 -0.003865 -0.002511 0.011658 0.000000 0.000000 0.000000
# 4 0.000000 0.000000 0.000000 0.033523 0.000000 0.000000
# 5 0.000000 0.000000 0.000000 0.000000 0.024504 0.000000
# 6 0.000000 0.000000 0.000000 0.000000 0.000000 0.038328
#
#
# Mechanical properties :
#
#
# Convention : Reuss Voigt Hill
#
# Bulk Modulus (GPa) = 57.36886 73.61073 65.48980
# Shear Modulus (GPa) = 31.05606 33.66488 32.36047
#
# Velocity S-wave (km/s) = 3.84959 4.00802 3.92960
# Velocity P-wave (km/s) = 6.86545 7.51961 7.19996
#
# Compressibility (1/GPa) = 0.01743106
#
# Stress axis : x y z
#
# Youngs Moduli (GPa) = 122.43679 54.62479 85.77794
#
# Poissons Ratio (x) = 0.21712 0.33151
# Poissons Ratio (y) = 0.48665 0.21540
# Poissons Ratio (z) = 0.47319 0.13717
#
# Static dielectric constant tensor:
#      x y z
#    x 4.065650 0.000000 0.000000 
#    y 0.000000 3.612060 0.000000 
#    z 0.000000 0.000000 3.823670 
# 
# 
# High freq. dielectric constant tensor:
#      x y z
#    x 1.834950 0.000000 0.000000 
#    y 0.000000 1.813310 0.000000 
#    z 0.000000 0.000000 1.826870 
# 
# From -- ./inp_files/33910.got.cif
#   From: 2010.03.12/outbox.cif.g09.slc.cpg/sg47_17_cif.got.tgz:33910.got - 2010.04.14 03:12:58.
