data_PCOD8199704
_publ_section_title
;
Structure prediction by ZEFSAII (Michael W. Deem and Ramdas Pophale) SiO2 
 PCOD8199704
Probable space group: P M M M
;
_chemical_formula_sum "Si O2"
_cell_formula_units_Z 48
_cell_length_a 20.465952
_cell_length_b 8.840657
_cell_length_c 13.220824
_cell_angle_alpha 90.000000
_cell_angle_beta 90.000000
_cell_angle_gamma 90.000000
_cell_volume 2392.076233
_symmetry_space_group_name_H-M "P M M M"
_symmetry_group_IT_number 47
_symmetry_cell_setting 'orthorhombic'
loop_
_space_group_symop_operation_xyz
x,y,z
-x,-y,z
x,-y,-z
-x,y,-z
-x,-y,-z
x,y,-z
-x,y,z
x,-y,z
loop_
_atom_site_type_symbol
_atom_site_label
_atom_site_fract_x
_atom_site_fract_y
_atom_site_fract_z
Si Si1 0.192926 0.176652 0.710282
Si Si2 0.000000 0.826543 0.879360
Si Si3 0.673159 0.820061 0.386768
Si Si4 0.573640 0.181211 0.781392
Si Si5 0.928072 0.669082 0.380737
Si Si6 0.577520 0.834386 0.000000
Si Si7 0.132604 0.678358 0.887077
O O1 0.255139 0.234969 0.647129
O O2 0.127089 0.212299 0.649841
O O3 0.192015 0.262334 0.818248
O O4 0.198150 0.000000 0.731514
O O5 0.934806 0.743281 0.838708
O O6 0.000000 0.000000 0.843245
O O7 0.000000 0.812386 0.000000
O O8 0.658885 0.757534 0.500000
O O9 0.620110 0.754858 0.307350
O O10 0.669842 0.000000 0.387898
O O11 0.500000 0.235465 0.756911
O O12 0.576262 0.000000 0.786116
O O13 0.596916 0.245891 0.892693
O O14 0.930822 0.662453 0.500000
O O15 0.911361 0.500000 0.338730
O O16 0.000000 0.720823 0.340271
O O17 0.500000 0.851979 0.000000
O O18 0.610359 0.000000 0.000000
O O19 0.128886 0.500000 0.887405
O O20 0.143766 0.741346 0.000000
#
# Coordination Sequence:
#
# PCOD8199704 Si02
#       7
#     8   4   8   8   8   4   8
#     4  11  22  34  50  73 104 140 174 216 270 323
#     4   9  17  31  53  79 104 129 162 211 269 326
#     4   9  18  31  44  64  98 139 179 216 262 319
#     4   8  13  23  41  65  93 130 175 218 258 306
#     4   9  19  36  56  76  97 125 169 224 272 317
#     4   7  10  18  34  58  88 120 160 209 256 302
#     4  10  21  37  55  74 100 136 176 218 264 316
#
# _framework density 20.06625
#
# number of rings (size 3 to 8) (size 9 to 14) (size 15 to 20)
#    0.000    2.833    0.000    3.250    1.167    3.667 
#    1.500    2.500    0.000    0.000    0.000    0.000 
#    0.000    2.667    0.000   10.000    0.000   10.000 
#
# Total GULP energy -594849.574879 kJ/mol
# GULP energy per Si atom -12392.699477 kJ/mol
# Density = 2.002058 g / cm^3
# Si number density = 20.066250 Si / 1000 Ang^3
#
#
#
# Elastic Constant Matrix: (Units=GPa)
#
#
# Indices 1 2 3 4 5 6 
#
# 1 114.6192 17.9096 81.1502 0.0000 0.0000 0.0000
# 2 17.9096 42.2862 11.0614 0.0000 0.0000 0.0000
# 3 81.1502 11.0614 156.2401 0.0000 0.0000 0.0000
# 4 0.0000 0.0000 0.0000 18.7900 0.0000 0.0000
# 5 0.0000 0.0000 0.0000 0.0000 37.5066 0.0000
# 6 0.0000 0.0000 0.0000 0.0000 0.0000 1.7572
#
#
#
# Elastic Compliance Matrix: (Units=1/GPa)
#
#
# Indices 1 2 3 4 5 6 
#
# 1 0.014513 -0.004254 -0.007237 0.000000 0.000000 0.000000
# 2 -0.004254 0.025341 0.000415 0.000000 0.000000 0.000000
# 3 -0.007237 0.000415 0.010130 0.000000 0.000000 0.000000
# 4 0.000000 0.000000 0.000000 0.053220 0.000000 0.000000
# 5 0.000000 0.000000 0.000000 0.000000 0.026662 0.000000
# 6 0.000000 0.000000 0.000000 0.000000 0.000000 0.569097
#
#
# Mechanical properties :
#
#
# Convention : Reuss Voigt Hill
#
# Bulk Modulus (GPa) = 35.92789 59.26535 47.59662
# Shear Modulus (GPa) = 6.84566 25.14572 15.99569
#
# Velocity S-wave (km/s) = 1.84904 3.54381 2.82644
# Velocity P-wave (km/s) = 4.74364 6.80762 5.86710
#
# Compressibility (1/GPa) = 0.02783353
#
# Stress axis : x y z
#
# Youngs Moduli (GPa) = 68.90492 39.46128 98.71955
#
# Poissons Ratio (x) = 0.16785 0.71440
# Poissons Ratio (y) = 0.29310 -0.04099
# Poissons Ratio (z) = 0.49864 -0.01638
#
# Static dielectric constant tensor:
#      x y z
#    x 3.599580 0.000000 0.000000 
#    y 0.000000 3.118440 0.000000 
#    z 0.000000 0.000000 4.153050 
# 
# 
# High freq. dielectric constant tensor:
#      x y z
#    x 1.762530 0.000000 0.000000 
#    y 0.000000 1.727830 0.000000 
#    z 0.000000 0.000000 1.810540 
# 
# From -- ./inp_files/24445.got.cif
#   From: 2010.03.12/outbox.cif.g09.slc.cpg/sg47_13_cif.got.tgz:24445.got - 2010.04.14 03:12:58.
