data_PCOD8199688
_publ_section_title
;
Structure prediction by ZEFSAII (Michael W. Deem and Ramdas Pophale) SiO2 
 PCOD8199688
Probable space group: P M M M
;
_chemical_formula_sum "Si O2"
_cell_formula_units_Z 56
_cell_length_a 13.849475
_cell_length_b 22.569582
_cell_length_c 9.253460
_cell_angle_alpha 90.000000
_cell_angle_beta 90.000000
_cell_angle_gamma 90.000000
_cell_volume 2892.417486
_symmetry_space_group_name_H-M "P M M M"
_symmetry_group_IT_number 47
_symmetry_cell_setting 'orthorhombic'
loop_
_space_group_symop_operation_xyz
x,y,z
-x,-y,z
x,-y,-z
-x,y,-z
-x,-y,-z
x,y,-z
-x,y,z
x,-y,z
loop_
_atom_site_type_symbol
_atom_site_label
_atom_site_fract_x
_atom_site_fract_y
_atom_site_fract_z
Si Si1 0.191366 0.111467 0.342147
Si Si2 0.605319 0.268806 0.333106
Si Si3 0.612222 0.064789 0.000000
Si Si4 0.887608 0.220498 0.165885
Si Si5 0.111920 0.431843 0.165539
Si Si6 0.390731 0.862470 0.276601
Si Si7 0.801275 0.672134 0.670579
Si Si8 0.886341 0.000000 0.170576
O O1 0.139718 0.107570 0.500000
O O2 0.166643 0.171409 0.258511
O O3 0.306110 0.114818 0.381632
O O4 0.160957 0.057103 0.242795
O O5 0.613194 0.249644 0.500000
O O6 0.500000 0.297990 0.301125
O O7 0.615605 0.207789 0.244645
O O8 0.689036 0.314768 0.292163
O O9 0.642157 0.103591 0.134371
O O10 0.500000 0.052885 0.000000
O O11 0.664731 0.000000 0.000000
O O12 0.869655 0.283504 0.241421
O O13 0.000000 0.205716 0.169146
O O14 0.850500 0.221627 0.000000
O O15 0.139237 0.500000 0.191830
O O16 0.177016 0.393811 0.274437
O O17 0.000000 0.420777 0.201071
O O18 0.133464 0.413860 0.000000
O O19 0.500000 0.878956 0.330244
O O20 0.822099 0.677383 0.500000
O O21 0.000000 0.000000 0.200928
O O22 0.864952 0.000000 0.000000
#
# Coordination Sequence:
#
# PCOD8199688 Si02
#       8
#     8   8   4   8   8   8   8   4
#     4  12  25  40  62  90 115 146 188 241 298 345
#     4   9  18  35  56  78 111 152 190 231 285 349
#     4   9  20  36  54  80 110 148 193 238 289 343
#     4  11  24  40  58  81 113 153 193 235 289 353
#     4   9  19  37  59  83 117 162 203 236 281 346
#     4  10  21  36  58  84 116 154 191 233 289 353
#     4  11  21  34  57  90 120 149 191 243 296 339
#     4  11  27  49  68  83 106 148 196 238 290 361
#
# _framework density 19.360968
#
# number of rings (size 3 to 8) (size 9 to 14) (size 15 to 20)
#    0.000    1.714    1.429    3.214    3.000    6.571 
#    1.286    0.714    0.000    1.286    0.000    3.000 
#    0.000    0.000    0.000    0.000    0.000    0.000 
#
# Total GULP energy -694090.172107 kJ/mol
# GULP energy per Si atom -12394.467359 kJ/mol
# Density = 1.931690 g / cm^3
# Si number density = 19.360968 Si / 1000 Ang^3
#
#
#
# Elastic Constant Matrix: (Units=GPa)
#
#
# Indices 1 2 3 4 5 6 
#
# 1 111.4369 44.5646 40.1980 0.0000 0.0000 0.0000
# 2 44.5646 110.1875 55.6227 0.0000 0.0000 0.0000
# 3 40.1980 55.6227 122.5526 0.0000 0.0000 0.0000
# 4 0.0000 0.0000 0.0000 24.8497 0.0000 0.0000
# 5 0.0000 0.0000 0.0000 0.0000 19.8067 0.0000
# 6 0.0000 0.0000 0.0000 0.0000 0.0000 32.4714
#
#
#
# Elastic Compliance Matrix: (Units=1/GPa)
#
#
# Indices 1 2 3 4 5 6 
#
# 1 0.011099 -0.003439 -0.002080 0.000000 0.000000 0.000000
# 2 -0.003439 0.012838 -0.004699 0.000000 0.000000 0.000000
# 3 -0.002080 -0.004699 0.010975 0.000000 0.000000 0.000000
# 4 0.000000 0.000000 0.000000 0.040242 0.000000 0.000000
# 5 0.000000 0.000000 0.000000 0.000000 0.050488 0.000000
# 6 0.000000 0.000000 0.000000 0.000000 0.000000 0.030796
#
#
# Mechanical properties :
#
#
# Convention : Reuss Voigt Hill
#
# Bulk Modulus (GPa) = 69.07633 69.43863 69.25748
# Shear Modulus (GPa) = 27.51796 29.01168 28.26482
#
# Velocity S-wave (km/s) = 3.77412 3.87520 3.82499
# Velocity P-wave (km/s) = 7.39916 7.48104 7.44021
#
# Compressibility (1/GPa) = 0.01447674
#
# Stress axis : x y z
#
# Youngs Moduli (GPa) = 90.09624 77.89146 91.11975
#
# Poissons Ratio (x) = 0.26788 0.18950
# Poissons Ratio (y) = 0.30986 0.42816
# Poissons Ratio (z) = 0.18737 0.36600
#
# Static dielectric constant tensor:
#      x y z
#    x 3.699730 0.000000 0.000000 
#    y 0.000000 3.498660 0.000000 
#    z 0.000000 0.000000 3.704870 
# 
# 
# High freq. dielectric constant tensor:
#      x y z
#    x 1.760380 0.000000 0.000000 
#    y 0.000000 1.737140 0.000000 
#    z 0.000000 0.000000 1.757000 
# 
# From -- ./inp_files/7380.got.cif
#   From: 2010.03.12/outbox.cif.g09.slc.cpg/sg47_4_cif.got.tgz:7380.got - 2010.04.14 03:12:58.
