data_PCOD8199236
_publ_section_title
;
Structure prediction by ZEFSAII (Michael W. Deem and Ramdas Pophale) SiO2 
 PCOD8199236
Probable space group: P M M M
;
_chemical_formula_sum "Si O2"
_cell_formula_units_Z 44
_cell_length_a 9.240154
_cell_length_b 29.941173
_cell_length_c 7.741400
_cell_angle_alpha 90.000000
_cell_angle_beta 90.000000
_cell_angle_gamma 90.000000
_cell_volume 2141.743848
_symmetry_space_group_name_H-M "P M M M"
_symmetry_group_IT_number 47
_symmetry_cell_setting 'orthorhombic'
loop_
_space_group_symop_operation_xyz
x,y,z
-x,-y,z
x,-y,-z
-x,y,-z
-x,-y,-z
x,y,-z
-x,y,z
x,-y,z
loop_
_atom_site_type_symbol
_atom_site_label
_atom_site_fract_x
_atom_site_fract_y
_atom_site_fract_z
Si Si1 0.837909 0.691035 0.297147
Si Si2 0.840264 0.213024 0.798905
Si Si3 0.163627 0.049946 0.703186
Si Si4 0.342737 0.867010 0.198004
Si Si5 0.166959 0.552796 0.000000
Si Si6 0.328872 0.603485 0.702646
O O1 0.848701 0.691928 0.500000
O O2 0.771156 0.738096 0.232764
O O3 0.729828 0.651952 0.238650
O O4 0.000000 0.683530 0.218665
O O5 0.746242 0.173400 0.711516
O O6 0.000000 0.211983 0.713102
O O7 0.853552 0.203321 0.000000
O O8 0.173497 0.056467 0.500000
O O9 0.265068 0.085489 0.793903
O O10 0.000000 0.057788 0.767073
O O11 0.214208 0.000000 0.755075
O O12 0.500000 0.870455 0.288485
O O13 0.363891 0.854237 0.000000
O O14 0.247955 0.568249 0.825055
O O15 0.172632 0.500000 0.000000
O O16 0.000000 0.569648 0.000000
O O17 0.293913 0.593513 0.500000
O O18 0.500000 0.601516 0.736348
#
# Coordination Sequence:
#
# PCOD8199236 Si02
#       6
#     8   8   8   8   4   8
#     4   9  18  33  54  81 112 148 191 236 282 335
#     4   9  18  32  50  73 103 142 185 226 269 320
#     4   9  19  36  56  76  97 125 166 215 266 322
#     4  10  21  35  50  73 106 140 174 214 264 322
#     4  11  25  43  65  93 123 161 211 259 304 359
#     4  10  22  40  62  91 127 164 202 249 306 366
#
# _framework density 20.544008000000002
#
# number of rings (size 3 to 8) (size 9 to 14) (size 15 to 20)
#    0.000    2.455    0.000    1.909    1.273    5.818 
#    0.000    6.364    0.000    0.000    0.000    0.000 
#    0.000    0.000    0.000    0.000    0.000    0.000 
#
# Total GULP energy -545400.353204 kJ/mol
# GULP energy per Si atom -12395.462573 kJ/mol
# Density = 2.049725 g / cm^3
# Si number density = 20.544008 Si / 1000 Ang^3
#
#
#
# Elastic Constant Matrix: (Units=GPa)
#
#
# Indices 1 2 3 4 5 6 
#
# 1 133.1860 78.7379 34.6509 0.0000 0.0000 0.0000
# 2 78.7379 144.4180 31.5469 0.0000 0.0000 0.0000
# 3 34.6509 31.5469 45.4421 0.0000 0.0000 0.0000
# 4 0.0000 0.0000 0.0000 229.1867 0.0000 0.0000
# 5 0.0000 0.0000 0.0000 0.0000 19.4071 0.0000
# 6 0.0000 0.0000 0.0000 0.0000 0.0000 12.7260
#
#
#
# Elastic Compliance Matrix: (Units=1/GPa)
#
#
# Indices 1 2 3 4 5 6 
#
# 1 0.012142 -0.005419 -0.005497 0.000000 0.000000 0.000000
# 2 -0.005419 0.010581 -0.003213 0.000000 0.000000 0.000000
# 3 -0.005497 -0.003213 0.028428 0.000000 0.000000 0.000000
# 4 0.000000 0.000000 0.000000 0.004363 0.000000 0.000000
# 5 0.000000 0.000000 0.000000 0.000000 0.051528 0.000000
# 6 0.000000 0.000000 0.000000 0.000000 0.000000 0.078579
#
#
# Mechanical properties :
#
#
# Convention : Reuss Voigt Hill
#
# Bulk Modulus (GPa) = 43.68141 68.10196 55.89168
# Shear Modulus (GPa) = 22.57238 64.13800 43.35519
#
# Velocity S-wave (km/s) = 3.31831 5.59353 4.59885
# Velocity P-wave (km/s) = 5.99917 8.65668 7.44742
#
# Compressibility (1/GPa) = 0.02289303
#
# Stress axis : x y z
#
# Youngs Moduli (GPa) = 82.35751 94.51003 35.17673
#
# Poissons Ratio (x) = 0.51218 0.19335
# Poissons Ratio (y) = 0.44632 0.11303
# Poissons Ratio (z) = 0.45268 0.30367
#
# Static dielectric constant tensor:
#      x y z
#    x 4.064970 0.000000 0.000000 
#    y 0.000000 3.862120 0.000000 
#    z 0.000000 0.000000 3.497680 
# 
# 
# High freq. dielectric constant tensor:
#      x y z
#    x 1.799060 0.000000 0.000000 
#    y 0.000000 1.808660 0.000000 
#    z 0.000000 0.000000 1.789410 
# 
# From -- ./inp_files/2292.got.cif
#   From: 2010.03.12/outbox.cif.g09.slc.cpg/sg47_2_cif.got.tgz:2292.got - 2010.04.14 03:12:58.
