data_PCOD8199071
_publ_section_title
;
Structure prediction by ZEFSAII (Michael W. Deem and Ramdas Pophale) SiO2 
 PCOD8199071
Probable space group: P M M M
;
_chemical_formula_sum "Si O2"
_cell_formula_units_Z 64
_cell_length_a 14.423740
_cell_length_b 28.550470
_cell_length_c 9.218004
_cell_angle_alpha 90.000000
_cell_angle_beta 90.000000
_cell_angle_gamma 90.000000
_cell_volume 3796.016046
_symmetry_space_group_name_H-M "P M M M"
_symmetry_group_IT_number 47
_symmetry_cell_setting 'orthorhombic'
loop_
_space_group_symop_operation_xyz
x,y,z
-x,-y,z
x,-y,-z
-x,y,-z
-x,-y,-z
x,y,-z
-x,y,z
x,-y,z
loop_
_atom_site_type_symbol
_atom_site_label
_atom_site_fract_x
_atom_site_fract_y
_atom_site_fract_z
Si Si1 0.894280 0.641038 0.829357
Si Si2 0.889923 0.551228 0.336777
Si Si3 0.104016 0.910176 0.331919
Si Si4 0.607281 0.137677 0.166599
Si Si5 0.270599 0.948154 0.169029
Si Si6 0.227520 0.271006 0.171939
Si Si7 0.393089 0.767830 0.670909
Si Si8 0.107460 0.802236 0.334240
O O1 0.852503 0.593054 0.763603
O O2 0.828027 0.682904 0.777768
O O3 0.000000 0.650803 0.775832
O O4 0.892614 0.635396 0.000000
O O5 0.854745 0.560144 0.500000
O O6 0.853985 0.500000 0.282570
O O7 0.000000 0.551109 0.331922
O O8 0.113759 0.922115 0.500000
O O9 0.171519 0.943678 0.244362
O O10 0.129255 0.856205 0.302934
O O11 0.000000 0.920466 0.278414
O O12 0.500000 0.125717 0.181328
O O13 0.659464 0.091658 0.226117
O O14 0.634737 0.181392 0.266845
O O15 0.633254 0.149751 0.000000
O O16 0.311076 0.000000 0.203253
O O17 0.254491 0.941439 0.000000
O O18 0.327798 0.270569 0.250913
O O19 0.168522 0.226428 0.221350
O O20 0.241898 0.269458 0.000000
O O21 0.374466 0.767806 0.500000
O O22 0.500000 0.755723 0.706991
O O23 0.133874 0.789261 0.500000
O O24 0.000000 0.790993 0.306185
#
# Coordination Sequence:
#
# PCOD8199071 Si02
#       8
#     8   8   8   8   8   8   8   8
#     4   9  18  30  42  62  95 131 164 196 231 272
#     4   8  14  25  41  61  86 120 164 208 242 271
#     4   9  19  35  51  66  86 115 152 189 222 260
#     4   9  18  34  55  75  94 117 144 175 217 271
#     4  10  21  34  48  70  96 118 143 177 218 264
#     4  11  21  31  46  69  98 128 157 192 233 278
#     4  10  21  36  53  72  93 118 151 191 232 276
#     4   9  18  32  49  69  93 122 156 191 227 270
#
# _framework density 16.859781999999999
#
# number of rings (size 3 to 8) (size 9 to 14) (size 15 to 20)
#    0.000    2.625    0.000    3.000    0.000    6.750 
#    0.000    6.250    0.000    0.000    0.000    2.625 
#    0.000    0.500    0.000    5.500    0.000    4.250 
#
# Total GULP energy -793487.744985 kJ/mol
# GULP energy per Si atom -12398.246015 kJ/mol
# Density = 1.682141 g / cm^3
# Si number density = 16.859782 Si / 1000 Ang^3
#
#
#
# Elastic Constant Matrix: (Units=GPa)
#
#
# Indices 1 2 3 4 5 6 
#
# 1 75.1576 52.9598 34.7406 0.0000 0.0000 0.0000
# 2 52.9598 97.4417 42.7971 0.0000 0.0000 0.0000
# 3 34.7406 42.7971 53.3713 0.0000 0.0000 0.0000
# 4 0.0000 0.0000 0.0000 24.7107 0.0000 0.0000
# 5 0.0000 0.0000 0.0000 0.0000 25.5025 0.0000
# 6 0.0000 0.0000 0.0000 0.0000 0.0000 15.4658
#
#
#
# Elastic Compliance Matrix: (Units=1/GPa)
#
#
# Indices 1 2 3 4 5 6 
#
# 1 0.023495 -0.009343 -0.007801 0.000000 0.000000 0.000000
# 2 -0.009343 0.019557 -0.009601 0.000000 0.000000 0.000000
# 3 -0.007801 -0.009601 0.031513 0.000000 0.000000 0.000000
# 4 0.000000 0.000000 0.000000 0.040468 0.000000 0.000000
# 5 0.000000 0.000000 0.000000 0.000000 0.039212 0.000000
# 6 0.000000 0.000000 0.000000 0.000000 0.000000 0.064659
#
#
# Mechanical properties :
#
#
# Convention : Reuss Voigt Hill
#
# Bulk Modulus (GPa) = 47.44963 54.10730 50.77847
# Shear Modulus (GPa) = 17.89413 19.50067 18.69740
#
# Velocity S-wave (km/s) = 3.26137 3.40463 3.33377
# Velocity P-wave (km/s) = 6.51052 6.90055 6.70837
#
# Compressibility (1/GPa) = 0.02107498
#
# Stress axis : x y z
#
# Youngs Moduli (GPa) = 42.56187 51.13155 31.73247
#
# Poissons Ratio (x) = 0.47774 0.24756
# Poissons Ratio (y) = 0.39767 0.30466
# Poissons Ratio (z) = 0.33204 0.49091
#
# Static dielectric constant tensor:
#      x y z
#    x 3.120790 0.000000 0.000000 
#    y 0.000000 3.304120 0.000000 
#    z 0.000000 0.000000 3.118860 
# 
# 
# High freq. dielectric constant tensor:
#      x y z
#    x 1.631160 0.000000 0.000000 
#    y 0.000000 1.639460 0.000000 
#    z 0.000000 0.000000 1.649280 
# 
# From -- ./inp_files/8301.got.cif
#   From: 2010.03.12/outbox.cif.g09.slc.cpg/sg47_5_cif.got.tgz:8301.got - 2010.04.14 03:12:58.
