data_PCOD8199655
_publ_section_title
;
Structure prediction by ZEFSAII (Michael W. Deem and Ramdas Pophale) SiO2 
 PCOD8199655
Probable space group: P M M M
;
_chemical_formula_sum "Si O2"
_cell_formula_units_Z 44
_cell_length_a 17.058193
_cell_length_b 15.462846
_cell_length_c 8.925796
_cell_angle_alpha 90.000000
_cell_angle_beta 90.000000
_cell_angle_gamma 90.000000
_cell_volume 2354.341246
_symmetry_space_group_name_H-M "P M M M"
_symmetry_group_IT_number 47
_symmetry_cell_setting 'orthorhombic'
loop_
_space_group_symop_operation_xyz
x,y,z
-x,-y,z
x,-y,-z
-x,y,-z
-x,-y,-z
x,y,-z
-x,y,z
x,-y,z
loop_
_atom_site_type_symbol
_atom_site_label
_atom_site_fract_x
_atom_site_fract_y
_atom_site_fract_z
Si Si1 0.913264 0.328279 0.826580
Si Si2 0.655990 0.596948 0.672712
Si Si3 0.754223 0.256556 0.826692
Si Si4 0.500000 0.651312 0.177730
Si Si5 0.500000 0.837942 0.323578
Si Si6 0.092942 0.500000 0.334398
Si Si7 0.348820 0.096860 0.172339
O O1 0.848450 0.253613 0.797496
O O2 0.879179 0.413996 0.748976
O O3 0.000000 0.300458 0.765405
O O4 0.920362 0.350522 0.000000
O O5 0.636977 0.616942 0.500000
O O6 0.691003 0.500000 0.692271
O O7 0.717468 0.667060 0.729837
O O8 0.576070 0.601470 0.765531
O O9 0.719071 0.163958 0.779336
O O10 0.735973 0.276557 0.000000
O O11 0.500000 0.748350 0.237065
O O12 0.500000 0.653350 0.000000
O O13 0.500000 0.821558 0.500000
O O14 0.576277 0.891889 0.277747
O O15 0.130322 0.500000 0.500000
O O16 0.000000 0.500000 0.341174
O O17 0.315524 0.000000 0.194757
O O18 0.373982 0.112343 0.000000
#
# Coordination Sequence:
#
# PCOD8199655 Si02
#       7
#     8   8   8   4   4   4   8
#     4   9  18  33  52  75 105 142 184 226 269 320
#     4  11  24  39  55  79 112 149 186 230 276 316
#     4  10  21  36  56  80 107 145 186 227 273 328
#     4  12  23  38  59  80 108 148 191 227 266 321
#     4  12  23  36  57  84 112 142 179 225 276 327
#     4   9  17  29  47  73 103 136 175 218 269 323
#     4  10  21  38  59  82 109 142 181 226 277 330
#
# _framework density 18.688880000000001
#
# number of rings (size 3 to 8) (size 9 to 14) (size 15 to 20)
#    0.000    1.727    1.818    3.000    1.273    5.818 
#    0.000    0.000    0.000    0.545    0.000    3.818 
#    0.000    0.000    0.000    7.818    0.000    8.364 
#
# Total GULP energy -545551.902534 kJ/mol
# GULP energy per Si atom -12398.906876 kJ/mol
# Density = 1.864634 g / cm^3
# Si number density = 18.688880 Si / 1000 Ang^3
#
#
#
# Elastic Constant Matrix: (Units=GPa)
#
#
# Indices 1 2 3 4 5 6 
#
# 1 120.2715 63.2314 42.2264 0.0000 0.0000 0.0000
# 2 63.2314 129.7155 43.7220 0.0000 0.0000 0.0000
# 3 42.2264 43.7220 94.1816 0.0000 0.0000 0.0000
# 4 0.0000 0.0000 0.0000 15.5810 0.0000 0.0000
# 5 0.0000 0.0000 0.0000 0.0000 12.1281 0.0000
# 6 0.0000 0.0000 0.0000 0.0000 0.0000 37.4510
#
#
#
# Elastic Compliance Matrix: (Units=1/GPa)
#
#
# Indices 1 2 3 4 5 6 
#
# 1 0.011913 -0.004750 -0.003136 0.000000 0.000000 0.000000
# 2 -0.004750 0.011033 -0.002992 0.000000 0.000000 0.000000
# 3 -0.003136 -0.002992 0.013413 0.000000 0.000000 0.000000
# 4 0.000000 0.000000 0.000000 0.064181 0.000000 0.000000
# 5 0.000000 0.000000 0.000000 0.000000 0.082453 0.000000
# 6 0.000000 0.000000 0.000000 0.000000 0.000000 0.026702
#
#
# Mechanical properties :
#
#
# Convention : Reuss Voigt Hill
#
# Bulk Modulus (GPa) = 68.48222 71.39200 69.93711
# Shear Modulus (GPa) = 21.15788 26.03128 23.59458
#
# Velocity S-wave (km/s) = 3.36834 3.73617 3.55701
# Velocity P-wave (km/s) = 7.20072 7.54289 7.37379
#
# Compressibility (1/GPa) = 0.01460233
#
# Stress axis : x y z
#
# Youngs Moduli (GPa) = 83.94321 90.63546 74.55489
#
# Poissons Ratio (x) = 0.43052 0.23381
# Poissons Ratio (y) = 0.39873 0.22309
# Poissons Ratio (z) = 0.26325 0.27121
#
# Static dielectric constant tensor:
#      x y z
#    x 3.592700 0.000000 0.000000 
#    y 0.000000 3.418300 0.000000 
#    z 0.000000 0.000000 3.513170 
# 
# 
# High freq. dielectric constant tensor:
#      x y z
#    x 1.722650 0.000000 0.000000 
#    y 0.000000 1.710340 0.000000 
#    z 0.000000 0.000000 1.726560 
# 
# From -- ./inp_files/9086.got.cif
#   From: 2010.03.12/outbox.cif.g09.slc.cpg/sg47_5_cif.got.tgz:9086.got - 2010.04.14 03:12:58.
