data_PCOD8199862
_publ_section_title
;
Structure prediction by ZEFSAII (Michael W. Deem and Ramdas Pophale) SiO2 
 PCOD8199862
Probable space group: P M M M
;
_chemical_formula_sum "Si O2"
_cell_formula_units_Z 48
_cell_length_a 9.169911
_cell_length_b 14.452012
_cell_length_c 17.393014
_cell_angle_alpha 90.000000
_cell_angle_beta 90.000000
_cell_angle_gamma 90.000000
_cell_volume 2304.985940
_symmetry_space_group_name_H-M "P M M M"
_symmetry_group_IT_number 47
_symmetry_cell_setting 'orthorhombic'
loop_
_space_group_symop_operation_xyz
x,y,z
-x,-y,z
x,-y,-z
-x,y,-z
-x,-y,-z
x,y,-z
-x,y,z
x,-y,z
loop_
_atom_site_type_symbol
_atom_site_label
_atom_site_fract_x
_atom_site_fract_y
_atom_site_fract_z
Si Si1 0.664181 0.389774 0.852503
Si Si2 0.665114 0.110463 0.000000
Si Si3 0.835511 0.610517 0.000000
Si Si4 0.835147 0.110177 0.148766
Si Si5 0.331727 0.108798 0.700302
Si Si6 0.832019 0.604982 0.703424
Si Si7 0.168577 0.235892 0.588316
O O1 0.500000 0.351525 0.856212
O O2 0.666742 0.500000 0.854670
O O3 0.738648 0.354738 0.774161
O O4 0.753114 0.350185 0.925060
O O5 0.748689 0.148847 0.925045
O O6 0.500000 0.148157 0.000000
O O7 0.664982 0.000000 0.000000
O O8 0.834082 0.500000 0.000000
O O9 0.000000 0.648410 0.000000
O O10 0.754793 0.146102 0.225239
O O11 0.000000 0.148645 0.148012
O O12 0.835085 0.000000 0.146913
O O13 0.500000 0.135497 0.710604
O O14 0.267032 0.155863 0.624541
O O15 0.310828 0.000000 0.689941
O O16 0.786659 0.500000 0.682979
O O17 0.799512 0.666094 0.628666
O O18 0.000000 0.609794 0.728676
O O19 0.213441 0.247134 0.500000
O O20 0.000000 0.207262 0.597549
#
# Coordination Sequence:
#
# PCOD8199862 Si02
#       7
#     8   4   4   8   8   8   8
#     4   9  16  26  43  70 104 141 181 223 266 313
#     4   9  15  23  39  68 107 146 184 225 266 313
#     4   9  15  23  39  66 101 140 182 225 266 311
#     4   9  16  27  46  73 105 142 184 227 270 317
#     4  10  21  37  57  81 110 145 184 226 274 327
#     4   9  18  34  56  81 110 144 181 221 267 321
#     4  10  22  39  59  84 111 140 177 222 274 331
#
# _framework density 20.824421000000001
#
# number of rings (size 3 to 8) (size 9 to 14) (size 15 to 20)
#    0.000    2.667    0.000    2.000    0.000    8.667 
#    0.000    3.333    0.000    1.000    0.000    4.667 
#    0.000    0.000    0.000    0.000    0.000    0.000 
#
# Total GULP energy -595336.654493 kJ/mol
# GULP energy per Si atom -12402.846969 kJ/mol
# Density = 2.077702 g / cm^3
# Si number density = 20.824421 Si / 1000 Ang^3
#
#
#
# Elastic Constant Matrix: (Units=GPa)
#
#
# Indices 1 2 3 4 5 6 
#
# 1 173.8682 40.6310 106.8245 0.0000 0.0000 0.0000
# 2 40.6310 37.9505 39.8683 0.0000 0.0000 0.0000
# 3 106.8245 39.8683 201.6345 0.0000 0.0000 0.0000
# 4 0.0000 0.0000 0.0000 -40.3019 0.0000 0.0000
# 5 0.0000 0.0000 0.0000 0.0000 28.6830 0.0000
# 6 0.0000 0.0000 0.0000 0.0000 0.0000 17.8551
#
#
#
# Elastic Compliance Matrix: (Units=1/GPa)
#
#
# Indices 1 2 3 4 5 6 
#
# 1 0.009559 -0.006202 -0.003838 0.000000 0.000000 0.000000
# 2 -0.006202 0.037283 -0.004086 0.000000 0.000000 0.000000
# 3 -0.003838 -0.004086 0.007801 0.000000 0.000000 0.000000
# 4 0.000000 0.000000 0.000000 -0.024813 0.000000 0.000000
# 5 0.000000 0.000000 0.000000 0.000000 0.034864 0.000000
# 6 0.000000 0.000000 0.000000 0.000000 0.000000 0.056007
#
#
# Mechanical properties :
#
#
# Convention : Reuss Voigt Hill
#
# Bulk Modulus (GPa) = 37.89266 87.56676 62.72971
# Shear Modulus (GPa) = 31.69601 16.32253 24.00927
#
# Velocity S-wave (km/s) = 3.90559 2.80271 3.39918
# Velocity P-wave (km/s) = 6.21079 7.25361 6.75236
#
# Compressibility (1/GPa) = 0.02639034
#
# Stress axis : x y z
#
# Youngs Moduli (GPa) = 104.61508 26.82205 128.19472
#
# Poissons Ratio (x) = 0.16636 0.49200
# Poissons Ratio (y) = 0.64884 0.52379
# Poissons Ratio (z) = 0.40150 0.10959
#
# Static dielectric constant tensor:
#      x y z
#    x 3.893650 0.000000 0.000000 
#    y 0.000000 3.395990 0.000000 
#    z 0.000000 0.000000 3.780670 
# 
# 
# High freq. dielectric constant tensor:
#      x y z
#    x 1.820110 0.000000 0.000000 
#    y 0.000000 1.797050 0.000000 
#    z 0.000000 0.000000 1.812490 
# 
# From -- ./inp_files/21060.got.cif
#   From: 2010.03.12/outbox.cif.g09.slc.cpg/sg47_11_cif.got.tgz:21060.got - 2010.04.14 03:12:58.
