data_PCOD8199478
_publ_section_title
;
Structure prediction by ZEFSAII (Michael W. Deem and Ramdas Pophale) SiO2 
 PCOD8199478
Probable space group: P M M M
;
_chemical_formula_sum "Si O2"
_cell_formula_units_Z 44
_cell_length_a 9.054582
_cell_length_b 7.813813
_cell_length_c 29.794595
_cell_angle_alpha 90.000000
_cell_angle_beta 90.000000
_cell_angle_gamma 90.000000
_cell_volume 2107.991746
_symmetry_space_group_name_H-M "P M M M"
_symmetry_group_IT_number 47
_symmetry_cell_setting 'orthorhombic'
loop_
_space_group_symop_operation_xyz
x,y,z
-x,-y,z
x,-y,-z
-x,y,-z
-x,-y,-z
x,y,-z
-x,y,z
x,-y,z
loop_
_atom_site_type_symbol
_atom_site_label
_atom_site_fract_x
_atom_site_fract_y
_atom_site_fract_z
Si Si1 0.667562 0.300002 0.803903
Si Si2 0.661240 0.803339 0.635127
Si Si3 0.669918 0.000000 0.946961
Si Si4 0.174840 0.698422 0.895730
Si Si5 0.832724 0.298943 0.449851
Si Si6 0.161649 0.196968 0.282485
O O1 0.500000 0.234606 0.810947
O O2 0.671065 0.500000 0.795087
O O3 0.764004 0.250590 0.847035
O O4 0.737147 0.210260 0.761092
O O5 0.500000 0.714164 0.634711
O O6 0.730913 0.792944 0.586029
O O7 0.760564 0.714998 0.674108
O O8 0.641596 0.000000 0.647898
O O9 0.749970 0.826416 0.930880
O O10 0.500000 0.000000 0.930442
O O11 0.679464 0.000000 0.000000
O O12 0.214377 0.500000 0.907531
O O13 0.000000 0.726900 0.896246
O O14 0.778771 0.249965 0.500000
O O15 0.822570 0.500000 0.442467
O O16 0.000000 0.235566 0.442989
O O17 0.000000 0.283419 0.274904
O O18 0.136997 0.000000 0.293475
#
# Coordination Sequence:
#
# PCOD8199478 Si02
#       6
#     8   8   4   8   8   8
#     4  10  21  37  58  85 117 153 193 236 287 348
#     4  10  21  36  53  76 107 140 177 222 273 331
#     4  11  25  43  65  95 129 169 215 261 314 375
#     4  10  22  41  65  93 127 166 210 262 314 368
#     4   9  19  36  56  77 101 132 173 219 268 326
#     4  10  21  36  55  79 108 145 187 230 278 333
#
# _framework density 20.872947
#
# number of rings (size 3 to 8) (size 9 to 14) (size 15 to 20)
#    0.000    2.091    0.000    3.000    1.273    7.273 
#    0.000    4.545    0.000    0.000    0.000    0.000 
#    0.000    0.000    0.000    0.000    0.000    0.000 
#
# Total GULP energy -545528.194611 kJ/mol
# GULP energy per Si atom -12398.368059 kJ/mol
# Density = 2.082544 g / cm^3
# Si number density = 20.872947 Si / 1000 Ang^3
#
#
#
# Elastic Constant Matrix: (Units=GPa)
#
#
# Indices 1 2 3 4 5 6 
#
# 1 162.5769 40.4135 72.0686 0.0000 0.0000 0.0000
# 2 40.4135 51.9976 35.7256 0.0000 0.0000 0.0000
# 3 72.0686 35.7256 131.9685 0.0000 0.0000 0.0000
# 4 0.0000 0.0000 0.0000 115.5298 0.0000 0.0000
# 5 0.0000 0.0000 0.0000 0.0000 39.4518 0.0000
# 6 0.0000 0.0000 0.0000 0.0000 0.0000 25.5808
#
#
#
# Elastic Compliance Matrix: (Units=1/GPa)
#
#
# Indices 1 2 3 4 5 6 
#
# 1 0.008858 -0.004375 -0.003653 0.000000 0.000000 0.000000
# 2 -0.004375 0.025786 -0.004592 0.000000 0.000000 0.000000
# 3 -0.003653 -0.004592 0.010816 0.000000 0.000000 0.000000
# 4 0.000000 0.000000 0.000000 0.008656 0.000000 0.000000
# 5 0.000000 0.000000 0.000000 0.000000 0.025347 0.000000
# 6 0.000000 0.000000 0.000000 0.000000 0.000000 0.039092
#
#
# Mechanical properties :
#
#
# Convention : Reuss Voigt Hill
#
# Bulk Modulus (GPa) = 49.45327 71.43980 60.44653
# Shear Modulus (GPa) = 33.21517 49.33485 41.27501
#
# Velocity S-wave (km/s) = 3.99344 4.86694 4.45167
# Velocity P-wave (km/s) = 6.70875 8.11684 7.44616
#
# Compressibility (1/GPa) = 0.02022111
#
# Stress axis : x y z
#
# Youngs Moduli (GPa) = 112.89629 38.78001 92.45965
#
# Poissons Ratio (x) = 0.16964 0.33775
# Poissons Ratio (y) = 0.49387 0.42455
# Poissons Ratio (z) = 0.41241 0.17807
#
# Static dielectric constant tensor:
#      x y z
#    x 4.193180 0.000000 0.000000 
#    y 0.000000 3.570570 0.000000 
#    z 0.000000 0.000000 3.741820 
# 
# 
# High freq. dielectric constant tensor:
#      x y z
#    x 1.832320 0.000000 0.000000 
#    y 0.000000 1.801390 0.000000 
#    z 0.000000 0.000000 1.819950 
# 
# From -- ./inp_files/33883.got.cif
#   From: 2010.03.12/outbox.cif.g09.slc.cpg/sg47_17_cif.got.tgz:33883.got - 2010.04.14 03:12:58.
