data_PCOD8199815
_publ_section_title
;
Structure prediction by ZEFSAII (Michael W. Deem and Ramdas Pophale) SiO2 
 PCOD8199815
Probable space group: P M M M
;
_chemical_formula_sum "Si O2"
_cell_formula_units_Z 44
_cell_length_a 9.376477
_cell_length_b 8.895420
_cell_length_c 28.878684
_cell_angle_alpha 90.000000
_cell_angle_beta 90.000000
_cell_angle_gamma 90.000000
_cell_volume 2408.704641
_symmetry_space_group_name_H-M "P M M M"
_symmetry_group_IT_number 47
_symmetry_cell_setting 'orthorhombic'
loop_
_space_group_symop_operation_xyz
x,y,z
-x,-y,z
x,-y,-z
-x,y,-z
-x,-y,-z
x,y,-z
-x,y,z
x,-y,z
loop_
_atom_site_type_symbol
_atom_site_label
_atom_site_fract_x
_atom_site_fract_y
_atom_site_fract_z
Si Si1 0.338981 0.319820 0.351788
Si Si2 0.160764 0.679053 0.265678
Si Si3 0.164481 0.677057 0.000000
Si Si4 0.335192 0.673839 0.822553
Si Si5 0.669450 0.668429 0.549015
Si Si6 0.664200 0.823821 0.081948
O O1 0.500000 0.264088 0.341843
O O2 0.336275 0.500000 0.353182
O O3 0.237793 0.255892 0.311438
O O4 0.281396 0.256801 0.402046
O O5 0.164405 0.500000 0.267024
O O6 0.242725 0.736089 0.220126
O O7 0.000000 0.740925 0.264412
O O8 0.237048 0.741174 0.954416
O O9 0.183471 0.500000 0.000000
O O10 0.000000 0.725599 0.000000
O O11 0.500000 0.696411 0.809391
O O12 0.301541 0.500000 0.833203
O O13 0.291404 0.770118 0.867095
O O14 0.716374 0.749957 0.500000
O O15 0.500000 0.661929 0.551394
O O16 0.731018 0.500000 0.546960
O O17 0.500000 0.781510 0.071759
O O18 0.689936 0.000000 0.077762
#
# Coordination Sequence:
#
# PCOD8199815 Si02
#       6
#     8   8   4   8   8   8
#     4   8  12  18  29  44  63  90 126 169 216 264
#     4   9  16  24  35  53  77 104 136 178 224 266
#     4  11  24  39  56  80 108 137 168 199 230 268
#     4   9  17  30  48  68  90 118 152 188 226 270
#     4   7   9  13  22  37  56  80 116 163 210 255
#     4  10  21  37  57  80 104 130 161 197 238 283
#
# _framework density 18.267078999999999
#
# number of rings (size 3 to 8) (size 9 to 14) (size 15 to 20)
#    0.000    3.182    0.000    3.273    0.000    5.818 
#    0.000    1.818    0.000    0.545    0.000    3.818 
#    0.000    0.000    0.000    0.000    0.000    0.909 
#
# Total GULP energy -545136.056030 kJ/mol
# GULP energy per Si atom -12389.455819 kJ/mol
# Density = 1.822550 g / cm^3
# Si number density = 18.267079 Si / 1000 Ang^3
#
#
#
# Elastic Constant Matrix: (Units=GPa)
#
#
# Indices 1 2 3 4 5 6 
#
# 1 103.2847 25.2136 96.8743 0.0000 0.0000 0.0000
# 2 25.2136 24.6639 31.8721 0.0000 0.0000 0.0000
# 3 96.8743 31.8721 197.5391 0.0000 0.0000 0.0000
# 4 0.0000 0.0000 0.0000 -4.9506 0.0000 0.0000
# 5 0.0000 0.0000 0.0000 0.0000 4.5862 0.0000
# 6 0.0000 0.0000 0.0000 0.0000 0.0000 10.6043
#
#
#
# Elastic Compliance Matrix: (Units=1/GPa)
#
#
# Indices 1 2 3 4 5 6 
#
# 1 0.019580 -0.009612 -0.008051 0.000000 0.000000 0.000000
# 2 -0.009612 0.055944 -0.004313 0.000000 0.000000 0.000000
# 3 -0.008051 -0.004313 0.009707 0.000000 0.000000 0.000000
# 4 0.000000 0.000000 0.000000 -0.201994 0.000000 0.000000
# 5 0.000000 0.000000 0.000000 0.000000 0.218045 0.000000
# 6 0.000000 0.000000 0.000000 0.000000 0.000000 0.094301
#
#
# Mechanical properties :
#
#
# Convention : Reuss Voigt Hill
#
# Bulk Modulus (GPa) = 24.22538 70.37862 47.30200
# Shear Modulus (GPa) = 19.73984 13.48316 16.61150
#
# Velocity S-wave (km/s) = 3.29085 2.71977 3.01884
# Velocity P-wave (km/s) = 5.26594 6.96233 6.17269
#
# Compressibility (1/GPa) = 0.04127903
#
# Stress axis : x y z
#
# Youngs Moduli (GPa) = 51.07243 17.87490 103.02366
#
# Poissons Ratio (x) = 0.17181 0.82947
# Poissons Ratio (y) = 0.49091 0.44430
# Poissons Ratio (z) = 0.41120 0.07709
#
# Static dielectric constant tensor:
#      x y z
#    x 3.255810 0.000000 0.000000 
#    y 0.000000 2.775560 0.000000 
#    z 0.000000 0.000000 3.921540 
# 
# 
# High freq. dielectric constant tensor:
#      x y z
#    x 1.682330 0.000000 0.000000 
#    y 0.000000 1.640500 0.000000 
#    z 0.000000 0.000000 1.738570 
# 
# From -- ./inp_files/13629.got.cif
#   From: 2010.03.12/outbox.cif.g09.slc.cpg/sg47_7_cif.got.tgz:13629.got - 2010.04.14 03:12:58.
