data_PCOD8199628
_publ_section_title
;
Structure prediction by ZEFSAII (Michael W. Deem and Ramdas Pophale) SiO2 
 PCOD8199628
Probable space group: P M M M
;
_chemical_formula_sum "Si O2"
_cell_formula_units_Z 48
_cell_length_a 9.182236
_cell_length_b 8.983992
_cell_length_c 30.362378
_cell_angle_alpha 90.000000
_cell_angle_beta 90.000000
_cell_angle_gamma 90.000000
_cell_volume 2504.687740
_symmetry_space_group_name_H-M "P M M M"
_symmetry_group_IT_number 47
_symmetry_cell_setting 'orthorhombic'
loop_
_space_group_symop_operation_xyz
x,y,z
-x,-y,z
x,-y,-z
-x,y,-z
-x,-y,-z
x,y,-z
-x,y,z
x,-y,z
loop_
_atom_site_type_symbol
_atom_site_label
_atom_site_fract_x
_atom_site_fract_y
_atom_site_fract_z
Si Si1 0.332422 0.175359 0.214599
Si Si2 0.329646 0.826995 0.373881
Si Si3 0.171244 0.168077 0.950171
Si Si4 0.832420 0.671185 0.449022
Si Si5 0.668129 0.328666 0.874335
Si Si6 0.830409 0.674093 0.705926
O O1 0.500000 0.222450 0.222931
O O2 0.277533 0.234047 0.167437
O O3 0.232048 0.245340 0.251549
O O4 0.313347 0.000000 0.215852
O O5 0.500000 0.793072 0.371104
O O6 0.271486 0.779192 0.421595
O O7 0.248690 0.731200 0.337419
O O8 0.296728 0.000000 0.365952
O O9 0.246243 0.283346 0.917795
O O10 0.000000 0.181907 0.944126
O O11 0.222222 0.000000 0.939364
O O12 0.216015 0.209758 0.000000
O O13 0.801884 0.704100 0.500000
O O14 0.796462 0.500000 0.437742
O O15 0.000000 0.705226 0.437289
O O16 0.500000 0.296715 0.883667
O O17 0.698998 0.500000 0.863737
O O18 0.801461 0.500000 0.710787
O O19 0.000000 0.711587 0.701741
#
# Coordination Sequence:
#
# PCOD8199628 Si02
#       6
#     8   8   8   8   8   8
#     4  10  21  38  60  84 110 142 181 223 269 323
#     4  11  24  39  56  82 115 149 186 228 274 325
#     4   9  19  36  56  78 106 142 184 228 274 324
#     4   9  19  37  60  85 113 146 186 231 277 326
#     4  10  21  36  55  81 112 145 181 222 270 324
#     4  11  24  40  59  84 112 143 182 226 272 325
#
# _framework density 19.164065000000001
#
# number of rings (size 3 to 8) (size 9 to 14) (size 15 to 20)
#    0.000    2.000    0.000    4.000    0.000   11.333 
#    0.000    5.000    0.000    0.000    0.000    0.000 
#    0.000    0.000    0.000    0.000    0.000    0.000 
#
# Total GULP energy -595414.399235 kJ/mol
# GULP energy per Si atom -12404.466651 kJ/mol
# Density = 1.912045 g / cm^3
# Si number density = 19.164065 Si / 1000 Ang^3
#
#
#
# Elastic Constant Matrix: (Units=GPa)
#
#
# Indices 1 2 3 4 5 6 
#
# 1 69.5698 47.2025 52.5655 0.0000 0.0000 0.0000
# 2 47.2025 76.6387 47.3845 0.0000 0.0000 0.0000
# 3 52.5655 47.3845 117.7854 0.0000 0.0000 0.0000
# 4 0.0000 0.0000 0.0000 36.5294 0.0000 0.0000
# 5 0.0000 0.0000 0.0000 0.0000 40.5252 0.0000
# 6 0.0000 0.0000 0.0000 0.0000 0.0000 34.4033
#
#
#
# Elastic Compliance Matrix: (Units=1/GPa)
#
#
# Indices 1 2 3 4 5 6 
#
# 1 0.029138 -0.013186 -0.007699 0.000000 0.000000 0.000000
# 2 -0.013186 0.023336 -0.003503 0.000000 0.000000 0.000000
# 3 -0.007699 -0.003503 0.013335 0.000000 0.000000 0.000000
# 4 0.000000 0.000000 0.000000 0.027375 0.000000 0.000000
# 5 0.000000 0.000000 0.000000 0.000000 0.024676 0.000000
# 6 0.000000 0.000000 0.000000 0.000000 0.000000 0.029067
#
#
# Mechanical properties :
#
#
# Convention : Reuss Voigt Hill
#
# Bulk Modulus (GPa) = 58.71197 62.03322 60.37260
# Shear Modulus (GPa) = 24.82856 30.08101 27.45478
#
# Velocity S-wave (km/s) = 3.60332 3.96619 3.78910
# Velocity P-wave (km/s) = 6.92928 7.30849 7.12141
#
# Compressibility (1/GPa) = 0.01703230
#
# Stress axis : x y z
#
# Youngs Moduli (GPa) = 34.31945 42.85295 74.98942
#
# Poissons Ratio (x) = 0.56507 0.57735
# Poissons Ratio (y) = 0.45254 0.26269
# Poissons Ratio (z) = 0.26423 0.15012
#
# Static dielectric constant tensor:
#      x y z
#    x 3.486620 0.000000 0.000000 
#    y 0.000000 3.549610 0.000000 
#    z 0.000000 0.000000 3.642890 
# 
# 
# High freq. dielectric constant tensor:
#      x y z
#    x 1.742610 0.000000 0.000000 
#    y 0.000000 1.752450 0.000000 
#    z 0.000000 0.000000 1.759000 
# 
# From -- ./inp_files/2463.got.cif
#   From: 2010.03.12/outbox.cif.g09.slc.cpg/sg47_2_cif.got.tgz:2463.got - 2010.04.14 03:12:58.
