data_PCOD8199932
_publ_section_title
;
Structure prediction by ZEFSAII (Michael W. Deem and Ramdas Pophale) SiO2 
 PCOD8199932
Probable space group: P M M M
;
_chemical_formula_sum "Si O2"
_cell_formula_units_Z 64
_cell_length_a 9.374396
_cell_length_b 23.712006
_cell_length_c 14.528830
_cell_angle_alpha 90.000000
_cell_angle_beta 90.000000
_cell_angle_gamma 90.000000
_cell_volume 3229.551644
_symmetry_space_group_name_H-M "P M M M"
_symmetry_group_IT_number 47
_symmetry_cell_setting 'orthorhombic'
loop_
_space_group_symop_operation_xyz
x,y,z
-x,-y,z
x,-y,-z
-x,y,-z
-x,-y,-z
x,y,-z
-x,y,z
x,-y,z
loop_
_atom_site_type_symbol
_atom_site_label
_atom_site_fract_x
_atom_site_fract_y
_atom_site_fract_z
Si Si1 0.166027 0.367696 0.250555
Si Si2 0.343804 0.817869 0.896684
Si Si3 0.662535 0.563967 0.606548
Si Si4 0.332413 0.840687 0.607820
Si Si5 0.156752 0.063472 0.701181
Si Si6 0.662496 0.564252 0.106623
Si Si7 0.166914 0.236030 0.261655
Si Si8 0.250457 0.061810 0.899126
O O1 0.231382 0.394985 0.341401
O O2 0.236122 0.393200 0.159672
O O3 0.197386 0.301767 0.252868
O O4 0.000000 0.381441 0.248153
O O5 0.500000 0.793905 0.869091
O O6 0.222725 0.794746 0.829654
O O7 0.358811 0.885870 0.891913
O O8 0.303595 0.798349 0.000000
O O9 0.700869 0.568262 0.500000
O O10 0.500000 0.582804 0.624588
O O11 0.684150 0.500000 0.641683
O O12 0.299763 0.843970 0.500000
O O13 0.500000 0.834927 0.628046
O O14 0.276404 0.896728 0.657860
O O15 0.250795 0.786649 0.649128
O O16 0.145005 0.067748 0.812284
O O17 0.000000 0.080376 0.663456
O O18 0.195838 0.000000 0.670764
O O19 0.500000 0.572585 0.140143
O O20 0.710252 0.500000 0.125475
O O21 0.676262 0.579056 0.000000
O O22 0.000000 0.222418 0.272519
O O23 0.327808 0.000000 0.892483
O O24 0.171823 0.065523 0.000000
#
# Coordination Sequence:
#
# PCOD8199932 Si02
#       8
#     8   8   8   8   8   8   8   8
#     4  11  24  38  56  86 121 155 195 242 291 346
#     4  10  21  37  59  87 118 153 194 239 288 345
#     4   9  19  37  61  89 120 153 189 230 281 344
#     4  11  25  44  65  87 111 145 194 250 305 358
#     4  10  21  37  60  91 124 157 192 233 288 355
#     4   9  19  37  61  89 121 159 202 243 285 337
#     4  11  25  43  60  82 115 156 199 242 293 350
#     4   9  18  32  54  89 128 158 187 228 281 343
#
# _framework density 19.816994000000001
#
# number of rings (size 3 to 8) (size 9 to 14) (size 15 to 20)
#    0.000    2.000    1.250    2.250    0.000    7.750 
#    0.000   12.500    0.000    0.000    0.000    0.000 
#    0.000    0.000    0.000    0.000    0.000    0.000 
#
# Total GULP energy -793270.837290 kJ/mol
# GULP energy per Si atom -12394.856833 kJ/mol
# Density = 1.977189 g / cm^3
# Si number density = 19.816994 Si / 1000 Ang^3
#
#
#
# Elastic Constant Matrix: (Units=GPa)
#
#
# Indices 1 2 3 4 5 6 
#
# 1 118.8028 73.0314 62.0479 0.0000 0.0000 0.0000
# 2 73.0314 123.6241 57.1586 0.0000 0.0000 0.0000
# 3 62.0479 57.1586 122.5967 0.0000 0.0000 0.0000
# 4 0.0000 0.0000 0.0000 27.1651 0.0000 0.0000
# 5 0.0000 0.0000 0.0000 0.0000 -2.1064 0.0000
# 6 0.0000 0.0000 0.0000 0.0000 0.0000 23.4916
#
#
#
# Elastic Compliance Matrix: (Units=1/GPa)
#
#
# Indices 1 2 3 4 5 6 
#
# 1 0.014850 -0.006753 -0.004367 0.000000 0.000000 0.000000
# 2 -0.006753 0.013383 -0.002822 0.000000 0.000000 0.000000
# 3 -0.004367 -0.002822 0.011683 0.000000 0.000000 0.000000
# 4 0.000000 0.000000 0.000000 0.036812 0.000000 0.000000
# 5 0.000000 0.000000 0.000000 0.000000 -0.474745 0.000000
# 6 0.000000 0.000000 0.000000 0.000000 0.000000 0.042568
#
#
# Mechanical properties :
#
#
# Convention : Reuss Voigt Hill
#
# Bulk Modulus (GPa) = 83.11629 83.27770 83.19700
# Shear Modulus (GPa) = -15.45333 21.22911 2.88789
#
# Velocity S-wave (km/s) = -2.79552 3.27656 1.20849
# Velocity P-wave (km/s) = 5.62255 7.51193 6.63484
#
# Compressibility (1/GPa) = 0.01203134
#
# Stress axis : x y z
#
# Youngs Moduli (GPa) = 67.34231 74.72028 85.59744
#
# Poissons Ratio (x) = 0.50461 0.37380
# Poissons Ratio (y) = 0.45478 0.24154
# Poissons Ratio (z) = 0.29408 0.21084
#
# Static dielectric constant tensor:
#      x y z
#    x 3.451730 0.000000 0.000000 
#    y 0.000000 3.656590 0.000000 
#    z 0.000000 0.000000 3.664300 
# 
# 
# High freq. dielectric constant tensor:
#      x y z
#    x 1.761950 0.000000 0.000000 
#    y 0.000000 1.772680 0.000000 
#    z 0.000000 0.000000 1.780980 
# 
# From -- ./inp_files/21947.got.cif
#   From: 2010.03.12/outbox.cif.g09.slc.cpg/sg47_11_cif.got.tgz:21947.got - 2010.04.14 03:12:58.
