data_PCOD8199965
_publ_section_title
;
Structure prediction by ZEFSAII (Michael W. Deem and Ramdas Pophale) SiO2 
 PCOD8199965
Probable space group: P M M M
;
_chemical_formula_sum "Si O2"
_cell_formula_units_Z 44
_cell_length_a 14.918530
_cell_length_b 8.534592
_cell_length_c 17.404048
_cell_angle_alpha 90.000000
_cell_angle_beta 90.000000
_cell_angle_gamma 90.000000
_cell_volume 2215.945468
_symmetry_space_group_name_H-M "P M M M"
_symmetry_group_IT_number 47
_symmetry_cell_setting 'orthorhombic'
loop_
_space_group_symop_operation_xyz
x,y,z
-x,-y,z
x,-y,-z
-x,y,-z
-x,-y,-z
x,y,-z
-x,y,z
x,-y,z
loop_
_atom_site_type_symbol
_atom_site_label
_atom_site_fract_x
_atom_site_fract_y
_atom_site_fract_z
Si Si1 0.897235 0.687316 0.000000
Si Si2 0.790304 0.314455 0.853576
Si Si3 0.153165 0.319657 0.311590
Si Si4 0.401269 0.683190 0.198598
Si Si5 0.335187 0.181282 0.348552
Si Si6 0.398557 0.670935 0.500000
Si Si7 0.000000 0.817854 0.413905
O O1 0.843687 0.755448 0.926286
O O2 0.896813 0.500000 0.000000
O O3 0.000000 0.748645 0.000000
O O4 0.793834 0.500000 0.857385
O O5 0.842328 0.257286 0.776731
O O6 0.684447 0.262012 0.853386
O O7 0.124299 0.500000 0.313567
O O8 0.250474 0.295946 0.346565
O O9 0.085876 0.224944 0.364247
O O10 0.500000 0.714104 0.159642
O O11 0.390000 0.500000 0.217487
O O12 0.400827 0.778147 0.278105
O O13 0.381713 0.218469 0.427877
O O14 0.306525 0.000000 0.344428
O O15 0.347155 0.500000 0.500000
O O16 0.500000 0.623645 0.500000
O O17 0.000000 0.739215 0.500000
O O18 0.000000 0.000000 0.427158
#
# Coordination Sequence:
#
# PCOD8199965 Si02
#       7
#     4   8   8   8   8   4   4
#     4   9  16  26  47  79 117 146 174 228 289 333
#     4   8  16  30  49  79 112 143 182 227 276 332
#     4  10  21  38  59  80 108 146 189 228 272 336
#     4   9  17  32  52  73 104 145 185 226 273 330
#     4  11  22  35  53  77 107 138 177 229 281 329
#     4  11  23  37  53  74 103 140 181 225 275 331
#     4  11  25  41  57  80 111 142 184 239 290 330
#
# _framework density 19.856083000000002
#
# number of rings (size 3 to 8) (size 9 to 14) (size 15 to 20)
#    0.000    2.273    0.000    4.364    2.545    4.000 
#    0.000    0.455    0.000    2.727    0.000   16.545 
#    0.000    5.818    0.000    0.000    0.000    0.000 
#
# Total GULP energy -545213.516109 kJ/mol
# GULP energy per Si atom -12391.216275 kJ/mol
# Density = 1.981089 g / cm^3
# Si number density = 19.856083 Si / 1000 Ang^3
#
#
#
# Elastic Constant Matrix: (Units=GPa)
#
#
# Indices 1 2 3 4 5 6 
#
# 1 139.2837 10.3629 84.5175 0.0000 0.0000 0.0000
# 2 10.3629 45.0261 21.7287 0.0000 0.0000 0.0000
# 3 84.5175 21.7287 143.2651 0.0000 0.0000 0.0000
# 4 0.0000 0.0000 0.0000 9.3718 0.0000 0.0000
# 5 0.0000 0.0000 0.0000 0.0000 -10.5577 0.0000
# 6 0.0000 0.0000 0.0000 0.0000 0.0000 1.4619
#
#
#
# Elastic Compliance Matrix: (Units=1/GPa)
#
#
# Indices 1 2 3 4 5 6 
#
# 1 0.011201 0.000659 -0.006708 0.000000 0.000000 0.000000
# 2 0.000659 0.024002 -0.004029 0.000000 0.000000 0.000000
# 3 -0.006708 -0.004029 0.011548 0.000000 0.000000 0.000000
# 4 0.000000 0.000000 0.000000 0.106703 0.000000 0.000000
# 5 0.000000 0.000000 0.000000 0.000000 -0.094718 0.000000
# 6 0.000000 0.000000 0.000000 0.000000 0.000000 0.684052
#
#
# Mechanical properties :
#
#
# Convention : Reuss Voigt Hill
#
# Bulk Modulus (GPa) = 37.60026 62.31032 49.95529
# Shear Modulus (GPa) = 6.47828 14.11960 10.29894
#
# Velocity S-wave (km/s) = 1.80823 2.66953 2.27992
# Velocity P-wave (km/s) = 4.83085 6.39929 5.66957
#
# Compressibility (1/GPa) = 0.02659556
#
# Stress axis : x y z
#
# Youngs Moduli (GPa) = 89.27917 41.66317 86.59268
#
# Poissons Ratio (x) = -0.02746 0.58084
# Poissons Ratio (y) = -0.05885 0.34890
# Poissons Ratio (z) = 0.59886 0.16787
#
# Static dielectric constant tensor:
#      x y z
#    x 3.967000 0.000000 0.000000 
#    y 0.000000 3.270980 0.000000 
#    z 0.000000 0.000000 3.765010 
# 
# 
# High freq. dielectric constant tensor:
#      x y z
#    x 1.782020 0.000000 0.000000 
#    y 0.000000 1.745530 0.000000 
#    z 0.000000 0.000000 1.762680 
# 
# From -- ./inp_files/27902.got.cif
#   From: 2010.03.12/outbox.cif.g09.slc.cpg/sg47_14_cif.got.tgz:27902.got - 2010.04.14 03:12:58.
