data_PCOD8199161
_publ_section_title
;
Structure prediction by ZEFSAII (Michael W. Deem and Ramdas Pophale) SiO2 
 PCOD8199161
Probable space group: P M M M
;
_chemical_formula_sum "Si O2"
_cell_formula_units_Z 52
_cell_length_a 9.360916
_cell_length_b 10.232200
_cell_length_c 30.117899
_cell_angle_alpha 90.000000
_cell_angle_beta 90.000000
_cell_angle_gamma 90.000000
_cell_volume 2884.775633
_symmetry_space_group_name_H-M "P M M M"
_symmetry_group_IT_number 47
_symmetry_cell_setting 'orthorhombic'
loop_
_space_group_symop_operation_xyz
x,y,z
-x,-y,z
x,-y,-z
-x,y,-z
-x,-y,-z
x,y,-z
-x,y,z
x,-y,z
loop_
_atom_site_type_symbol
_atom_site_label
_atom_site_fract_x
_atom_site_fract_y
_atom_site_fract_z
Si Si1 0.165947 0.148940 0.789742
Si Si2 0.655860 0.354300 0.630866
Si Si3 0.170584 0.718700 0.550683
Si Si4 0.332704 0.148870 0.121160
Si Si5 0.846622 0.000000 0.448089
Si Si6 0.669620 0.353902 0.950486
Si Si7 0.166093 0.347476 0.713012
O O1 0.254312 0.183076 0.833393
O O2 0.214674 0.254286 0.753163
O O3 0.000000 0.165936 0.801106
O O4 0.197731 0.000000 0.773625
O O5 0.500000 0.284478 0.625175
O O6 0.627211 0.500000 0.646855
O O7 0.742954 0.369070 0.584737
O O8 0.750074 0.290793 0.669998
O O9 0.208670 0.679861 0.500000
O O10 0.000000 0.707510 0.557473
O O11 0.231433 0.864344 0.563317
O O12 0.500000 0.171837 0.128931
O O13 0.270155 0.245749 0.083518
O O14 0.301452 0.000000 0.106213
O O15 0.877626 0.000000 0.500000
O O16 0.000000 0.000000 0.423517
O O17 0.500000 0.346323 0.951239
O O18 0.718241 0.500000 0.935852
O O19 0.728221 0.323318 0.000000
O O20 0.198883 0.500000 0.724194
O O21 0.000000 0.328903 0.702272
#
# Coordination Sequence:
#
# PCOD8199161 Si02
#       7
#     8   8   8   8   4   8   8
#     4   9  18  33  51  71  96 123 152 191 240 289
#     4  10  21  35  49  68  97 128 155 188 233 281
#     4   9  17  31  52  74  95 123 159 195 229 270
#     4   9  17  28  44  68  95 122 154 194 238 281
#     4   7  12  26  47  69  91 115 147 187 225 259
#     4   8  14  25  41  63  93 127 162 200 238 275
#     4   9  18  34  54  71  89 119 159 197 232 278
#
# _framework density 18.025665
#
# number of rings (size 3 to 8) (size 9 to 14) (size 15 to 20)
#    0.000    3.154    0.000    1.846    0.000    3.077 
#    1.385    3.462    0.000    1.846    0.000    3.231 
#    0.000    0.000    0.000    0.000    0.000    0.000 
#
# Total GULP energy -644187.080234 kJ/mol
# GULP energy per Si atom -12388.213081 kJ/mol
# Density = 1.798464 g / cm^3
# Si number density = 18.025665 Si / 1000 Ang^3
#
#
#
# Elastic Constant Matrix: (Units=GPa)
#
#
# Indices 1 2 3 4 5 6 
#
# 1 57.6981 33.8505 58.6169 0.0000 0.0000 0.0000
# 2 33.8505 85.2965 70.8150 0.0000 0.0000 0.0000
# 3 58.6169 70.8150 144.8367 0.0000 0.0000 0.0000
# 4 0.0000 0.0000 0.0000 26.3077 0.0000 0.0000
# 5 0.0000 0.0000 0.0000 0.0000 23.2865 0.0000
# 6 0.0000 0.0000 0.0000 0.0000 0.0000 15.3827
#
#
#
# Elastic Compliance Matrix: (Units=1/GPa)
#
#
# Indices 1 2 3 4 5 6 
#
# 1 0.029901 -0.003063 -0.010604 0.000000 0.000000 0.000000
# 2 -0.003063 0.020048 -0.008562 0.000000 0.000000 0.000000
# 3 -0.010604 -0.008562 0.015382 0.000000 0.000000 0.000000
# 4 0.000000 0.000000 0.000000 0.038012 0.000000 0.000000
# 5 0.000000 0.000000 0.000000 0.000000 0.042943 0.000000
# 6 0.000000 0.000000 0.000000 0.000000 0.000000 0.065008
#
#
# Mechanical properties :
#
#
# Convention : Reuss Voigt Hill
#
# Bulk Modulus (GPa) = 47.90869 68.26624 58.08747
# Shear Modulus (GPa) = 19.03232 21.29864 20.16548
#
# Velocity S-wave (km/s) = 3.25290 3.44113 3.34834
# Velocity P-wave (km/s) = 6.38312 7.33092 6.87338
#
# Compressibility (1/GPa) = 0.02087304
#
# Stress axis : x y z
#
# Youngs Moduli (GPa) = 33.44352 49.87989 65.01027
#
# Poissons Ratio (x) = 0.15279 0.68935
# Poissons Ratio (y) = 0.10244 0.55665
# Poissons Ratio (z) = 0.35462 0.42710
#
# Static dielectric constant tensor:
#      x y z
#    x 3.176660 0.000000 0.000000 
#    y 0.000000 3.701630 0.000000 
#    z 0.000000 0.000000 3.282100 
# 
# 
# High freq. dielectric constant tensor:
#      x y z
#    x 1.669020 0.000000 0.000000 
#    y 0.000000 1.697140 0.000000 
#    z 0.000000 0.000000 1.689540 
# 
# From -- ./inp_files/33228.got.cif
#   From: 2010.03.12/outbox.cif.g09.slc.cpg/sg47_17_cif.got.tgz:33228.got - 2010.04.14 03:12:58.
