data_PCOD8199964
_publ_section_title
;
Structure prediction by ZEFSAII (Michael W. Deem and Ramdas Pophale) SiO2 
 PCOD8199964
Probable space group: P M M M
;
_chemical_formula_sum "Si O2"
_cell_formula_units_Z 64
_cell_length_a 8.791298
_cell_length_b 25.133413
_cell_length_c 14.869900
_cell_angle_alpha 90.000000
_cell_angle_beta 90.000000
_cell_angle_gamma 90.000000
_cell_volume 3285.583564
_symmetry_space_group_name_H-M "P M M M"
_symmetry_group_IT_number 47
_symmetry_cell_setting 'orthorhombic'
loop_
_space_group_symop_operation_xyz
x,y,z
-x,-y,z
x,-y,-z
-x,y,-z
-x,-y,-z
x,y,-z
-x,y,z
x,-y,z
loop_
_atom_site_type_symbol
_atom_site_label
_atom_site_fract_x
_atom_site_fract_y
_atom_site_fract_z
Si Si1 0.319692 0.366511 0.251861
Si Si2 0.319304 0.838378 0.895830
Si Si3 0.822263 0.559983 0.604379
Si Si4 0.829476 0.807094 0.598326
Si Si5 0.322462 0.084335 0.597280
Si Si6 0.680421 0.558836 0.097987
Si Si7 0.176943 0.253368 0.224605
Si Si8 0.319573 0.057925 0.790381
O O1 0.500000 0.362381 0.253936
O O2 0.264750 0.392447 0.344974
O O3 0.251860 0.404040 0.174343
O O4 0.255066 0.310016 0.222890
O O5 0.500000 0.835397 0.887506
O O6 0.249919 0.787219 0.846728
O O7 0.255245 0.893034 0.849721
O O8 0.268273 0.838558 0.000000
O O9 0.784334 0.567629 0.500000
O O10 0.770406 0.500000 0.634176
O O11 0.000000 0.566738 0.622728
O O12 0.815565 0.779603 0.500000
O O13 0.706193 0.853205 0.606824
O O14 0.792908 0.764399 0.673572
O O15 0.000000 0.830700 0.611507
O O16 0.253540 0.064094 0.500000
O O17 0.500000 0.073042 0.594673
O O18 0.253668 0.057785 0.687556
O O19 0.500000 0.556709 0.105787
O O20 0.748243 0.500000 0.111585
O O21 0.728264 0.581065 0.000000
O O22 0.000000 0.258112 0.201331
O O23 0.500000 0.064314 0.786631
O O24 0.275190 0.000000 0.832496
#
# Coordination Sequence:
#
# PCOD8199964 Si02
#       8
#     8   8   8   8   8   8   8   8
#     4  11  22  34  54  85 116 144 183 235 286 336
#     4  10  21  38  59  80 105 140 184 234 285 335
#     4   9  19  37  59  82 114 159 203 239 282 337
#     4   9  18  33  53  74  97 131 174 216 259 310
#     4   9  16  27  48  77 107 138 170 208 257 314
#     4   8  15  30  52  77 105 136 169 209 263 324
#     4  11  23  38  56  78 107 145 185 226 277 337
#     4   9  17  30  51  81 114 142 173 219 275 336
#
# _framework density 19.479036000000001
#
# number of rings (size 3 to 8) (size 9 to 14) (size 15 to 20)
#    0.000    2.500    1.250    1.875    0.000    3.250 
#    0.000    5.625    0.000    2.625    0.000    7.000 
#    0.000    0.000    0.000    0.000    0.000    0.000 
#
# Total GULP energy -792954.201604 kJ/mol
# GULP energy per Si atom -12389.909400 kJ/mol
# Density = 1.943470 g / cm^3
# Si number density = 19.479036 Si / 1000 Ang^3
#
#
#
# Elastic Constant Matrix: (Units=GPa)
#
#
# Indices 1 2 3 4 5 6 
#
# 1 33.7957 31.6108 33.9945 0.0000 0.0000 0.0000
# 2 31.6108 145.3113 78.6946 0.0000 0.0000 0.0000
# 3 33.9945 78.6946 141.5034 0.0000 0.0000 0.0000
# 4 0.0000 0.0000 0.0000 12.2829 0.0000 0.0000
# 5 0.0000 0.0000 0.0000 0.0000 20.4567 0.0000
# 6 0.0000 0.0000 0.0000 0.0000 0.0000 15.2409
#
#
#
# Elastic Compliance Matrix: (Units=1/GPa)
#
#
# Indices 1 2 3 4 5 6 
#
# 1 0.041599 -0.005205 -0.007099 0.000000 0.000000 0.000000
# 2 -0.005205 0.010499 -0.004588 0.000000 0.000000 0.000000
# 3 -0.007099 -0.004588 0.011324 0.000000 0.000000 0.000000
# 4 0.000000 0.000000 0.000000 0.081414 0.000000 0.000000
# 5 0.000000 0.000000 0.000000 0.000000 0.048884 0.000000
# 6 0.000000 0.000000 0.000000 0.000000 0.000000 0.065613
#
#
# Mechanical properties :
#
#
# Convention : Reuss Voigt Hill
#
# Bulk Modulus (GPa) = 33.74124 67.69002 50.71563
# Shear Modulus (GPa) = 16.50187 21.35013 18.92600
#
# Velocity S-wave (km/s) = 2.91376 3.31427 3.12045
# Velocity P-wave (km/s) = 5.35532 7.03359 6.25103
#
# Compressibility (1/GPa) = 0.02963732
#
# Stress axis : x y z
#
# Youngs Moduli (GPa) = 24.03925 95.24816 88.30668
#
# Poissons Ratio (x) = 0.49574 0.62689
# Poissons Ratio (y) = 0.12512 0.40518
# Poissons Ratio (z) = 0.17066 0.43704
#
# Static dielectric constant tensor:
#      x y z
#    x 3.242860 0.000000 0.000000 
#    y 0.000000 3.573490 0.000000 
#    z 0.000000 0.000000 3.934710 
# 
# 
# High freq. dielectric constant tensor:
#      x y z
#    x 1.723170 0.000000 0.000000 
#    y 0.000000 1.755090 0.000000 
#    z 0.000000 0.000000 1.771670 
# 
# From -- ./inp_files/7888.got.cif
#   From: 2010.03.12/outbox.cif.g09.slc.cpg/sg47_4_cif.got.tgz:7888.got - 2010.04.14 03:12:58.
