data_PCOD8199003
_publ_section_title
;
Structure prediction by ZEFSAII (Michael W. Deem and Ramdas Pophale) SiO2 
 PCOD8199003
Probable space group: P M M M
;
_chemical_formula_sum "Si O2"
_cell_formula_units_Z 36
_cell_length_a 24.878343
_cell_length_b 7.817761
_cell_length_c 9.407219
_cell_angle_alpha 90.000000
_cell_angle_beta 90.000000
_cell_angle_gamma 90.000000
_cell_volume 1829.637677
_symmetry_space_group_name_H-M "P M M M"
_symmetry_group_IT_number 47
_symmetry_cell_setting 'orthorhombic'
loop_
_space_group_symop_operation_xyz
x,y,z
-x,-y,z
x,-y,-z
-x,y,-z
-x,-y,-z
x,y,-z
-x,y,z
x,-y,z
loop_
_atom_site_type_symbol
_atom_site_label
_atom_site_fract_x
_atom_site_fract_y
_atom_site_fract_z
Si Si1 0.883613 0.307218 0.666740
Si Si2 0.769654 0.807761 0.667366
Si Si3 0.655962 0.298839 0.341903
Si Si4 0.936458 0.000000 0.163769
Si Si5 0.440945 0.703368 0.840911
O O1 0.889098 0.258608 0.500000
O O2 0.905186 0.500000 0.694674
O O3 0.820987 0.303414 0.714924
O O4 0.916685 0.171742 0.758510
O O5 0.762847 0.791292 0.500000
O O6 0.713164 0.744047 0.733944
O O7 0.781565 0.000000 0.716913
O O8 0.653441 0.219181 0.500000
O O9 0.649205 0.500000 0.349370
O O10 0.606616 0.216517 0.254283
O O11 0.000000 0.000000 0.171537
O O12 0.916551 0.000000 0.000000
O O13 0.500000 0.758077 0.782251
O O14 0.436629 0.500000 0.841953
O O15 0.433692 0.774358 0.000000
#
# Coordination Sequence:
#
# PCOD8199003 Si02
#       5
#     8   8   8   4   8
#     4  10  20  37  64  93 118 150 196 245 289 336
#     4   9  16  29  51  77 106 138 171 215 275 334
#     4   9  16  25  41  68  96 121 157 206 259 319
#     4  11  25  43  61  85 123 165 198 233 282 339
#     4   8  14  25  40  58  84 120 160 204 257 314
#
# _framework density 19.676027999999999
#
# number of rings (size 3 to 8) (size 9 to 14) (size 15 to 20)
#    0.000    2.778    1.111    1.667    0.000    4.889 
#    0.000    5.556    0.000    3.333    0.000    4.667 
#    0.000    0.000    0.000    0.000    0.000    0.000 
#
# Total GULP energy -446106.346537 kJ/mol
# GULP energy per Si atom -12391.842959 kJ/mol
# Density = 1.963124 g / cm^3
# Si number density = 19.676028 Si / 1000 Ang^3
#
#
#
# Elastic Constant Matrix: (Units=GPa)
#
#
# Indices 1 2 3 4 5 6 
#
# 1 128.2418 39.0548 59.2226 0.0000 0.0000 0.0000
# 2 39.0548 75.8582 35.7709 0.0000 0.0000 0.0000
# 3 59.2226 35.7709 76.8529 0.0000 0.0000 0.0000
# 4 0.0000 0.0000 0.0000 10.7032 0.0000 0.0000
# 5 0.0000 0.0000 0.0000 0.0000 13.0125 0.0000
# 6 0.0000 0.0000 0.0000 0.0000 0.0000 19.9307
#
#
#
# Elastic Compliance Matrix: (Units=1/GPa)
#
#
# Indices 1 2 3 4 5 6 
#
# 1 0.012442 -0.002414 -0.008464 0.000000 0.000000 0.000000
# 2 -0.002414 0.017358 -0.006219 0.000000 0.000000 0.000000
# 3 -0.008464 -0.006219 0.022428 0.000000 0.000000 0.000000
# 4 0.000000 0.000000 0.000000 0.093430 0.000000 0.000000
# 5 0.000000 0.000000 0.000000 0.000000 0.076849 0.000000
# 6 0.000000 0.000000 0.000000 0.000000 0.000000 0.050174
#
#
# Mechanical properties :
#
#
# Convention : Reuss Voigt Hill
#
# Bulk Modulus (GPa) = 55.44940 61.00549 58.22744
# Shear Modulus (GPa) = 15.98026 18.52292 17.25159
#
# Velocity S-wave (km/s) = 2.85295 3.07155 2.96426
# Velocity P-wave (km/s) = 6.25258 6.60693 6.43220
#
# Compressibility (1/GPa) = 0.01803446
#
# Stress axis : x y z
#
# Youngs Moduli (GPa) = 80.37541 57.61058 44.58625
#
# Poissons Ratio (x) = 0.13909 0.37736
# Poissons Ratio (y) = 0.19406 0.27727
# Poissons Ratio (z) = 0.68027 0.35826
#
# Static dielectric constant tensor:
#      x y z
#    x 3.885110 0.000000 0.000000 
#    y 0.000000 3.352940 0.000000 
#    z 0.000000 0.000000 3.527260 
# 
# 
# High freq. dielectric constant tensor:
#      x y z
#    x 1.780630 0.000000 0.000000 
#    y 0.000000 1.751610 0.000000 
#    z 0.000000 0.000000 1.723810 
# 
# From -- ./inp_files/12077.got.cif
#   From: 2010.03.12/outbox.cif.g09.slc.cpg/sg47_7_cif.got.tgz:12077.got - 2010.04.14 03:12:58.
