data_PCOD8199837
_publ_section_title
;
Structure prediction by ZEFSAII (Michael W. Deem and Ramdas Pophale) SiO2 
 PCOD8199837
Probable space group: P M M M
;
_chemical_formula_sum "Si O2"
_cell_formula_units_Z 52
_cell_length_a 8.927523
_cell_length_b 19.379694
_cell_length_c 15.737973
_cell_angle_alpha 90.000000
_cell_angle_beta 90.000000
_cell_angle_gamma 90.000000
_cell_volume 2722.868633
_symmetry_space_group_name_H-M "P M M M"
_symmetry_group_IT_number 47
_symmetry_cell_setting 'orthorhombic'
loop_
_space_group_symop_operation_xyz
x,y,z
-x,-y,z
x,-y,-z
-x,y,-z
-x,-y,-z
x,y,-z
-x,y,z
x,-y,z
loop_
_atom_site_type_symbol
_atom_site_label
_atom_site_fract_x
_atom_site_fract_y
_atom_site_fract_z
Si Si1 0.170949 0.423841 0.830867
Si Si2 0.677767 0.282846 0.407407
Si Si3 0.172999 0.280656 0.095641
Si Si4 0.322925 0.574753 0.345019
Si Si5 0.331830 0.918157 0.500000
Si Si6 0.677609 0.199180 0.754628
Si Si7 0.176093 0.920284 0.327850
O O1 0.200876 0.500000 0.871827
O O2 0.204842 0.362838 0.897485
O O3 0.278229 0.411428 0.751669
O O4 0.000000 0.419242 0.798795
O O5 0.728303 0.252940 0.500000
O O6 0.500000 0.282613 0.400305
O O7 0.737637 0.361983 0.401807
O O8 0.741661 0.239745 0.328118
O O9 0.274258 0.236961 0.159552
O O10 0.000000 0.264500 0.115754
O O11 0.214635 0.258281 0.000000
O O12 0.500000 0.573088 0.349034
O O13 0.259362 0.500000 0.376407
O O14 0.500000 0.886786 0.500000
O O15 0.247253 0.892470 0.415912
O O16 0.336529 0.000000 0.500000
O O17 0.500000 0.191840 0.754049
O O18 0.752272 0.123274 0.749494
O O19 0.000000 0.908791 0.332595
O O20 0.216630 0.000000 0.311756
#
# Coordination Sequence:
#
# PCOD8199837 Si02
#       7
#     8   8   8   8   4   8   8
#     4   9  17  30  50  75 103 136 176 224 275 327
#     4   9  18  31  47  73 107 141 181 225 268 315
#     4  10  21  37  57  80 108 143 182 227 281 340
#     4   9  16  28  48  71  98 136 182 228 271 315
#     4   9  17  31  53  83 117 151 188 227 266 313
#     4  11  22  36  57  82 111 146 182 227 279 331
#     4  10  21  37  57  82 114 151 188 227 273 327
#
# _framework density 19.097507
#
# number of rings (size 3 to 8) (size 9 to 14) (size 15 to 20)
#    0.000    2.385    1.538    1.154    1.077    2.769 
#    0.000    3.077    0.000    2.769    0.000    8.615 
#    0.000    0.000    0.000    0.000    0.000    0.000 
#
# Total GULP energy -644504.620721 kJ/mol
# GULP energy per Si atom -12394.319629 kJ/mol
# Density = 1.905404 g / cm^3
# Si number density = 19.097507 Si / 1000 Ang^3
#
#
#
# Elastic Constant Matrix: (Units=GPa)
#
#
# Indices 1 2 3 4 5 6 
#
# 1 52.6516 40.5136 28.8823 0.0000 0.0000 0.0000
# 2 40.5136 95.9954 53.1762 0.0000 0.0000 0.0000
# 3 28.8823 53.1762 99.8976 0.0000 0.0000 0.0000
# 4 0.0000 0.0000 0.0000 23.6876 0.0000 0.0000
# 5 0.0000 0.0000 0.0000 0.0000 26.7271 0.0000
# 6 0.0000 0.0000 0.0000 0.0000 0.0000 23.1547
#
#
#
# Elastic Compliance Matrix: (Units=1/GPa)
#
#
# Indices 1 2 3 4 5 6 
#
# 1 0.028600 -0.010622 -0.002615 0.000000 0.000000 0.000000
# 2 -0.010622 0.018718 -0.006893 0.000000 0.000000 0.000000
# 3 -0.002615 -0.006893 0.014435 0.000000 0.000000 0.000000
# 4 0.000000 0.000000 0.000000 0.042216 0.000000 0.000000
# 5 0.000000 0.000000 0.000000 0.000000 0.037415 0.000000
# 6 0.000000 0.000000 0.000000 0.000000 0.000000 0.043188
#
#
# Mechanical properties :
#
#
# Convention : Reuss Voigt Hill
#
# Bulk Modulus (GPa) = 46.52287 54.85433 50.68860
# Shear Modulus (GPa) = 21.55197 23.11205 22.33201
#
# Velocity S-wave (km/s) = 3.36299 3.48259 3.42331
# Velocity P-wave (km/s) = 6.28436 6.70499 6.49808
#
# Compressibility (1/GPa) = 0.02149480
#
# Stress axis : x y z
#
# Youngs Moduli (GPa) = 34.96462 53.42358 69.27440
#
# Poissons Ratio (x) = 0.56747 0.18113
# Poissons Ratio (y) = 0.37139 0.47750
# Poissons Ratio (z) = 0.09142 0.36824
#
# Static dielectric constant tensor:
#      x y z
#    x 3.309610 0.000000 0.000000 
#    y 0.000000 3.777830 0.000000 
#    z 0.000000 0.000000 3.293650 
# 
# 
# High freq. dielectric constant tensor:
#      x y z
#    x 1.723240 0.000000 0.000000 
#    y 0.000000 1.753370 0.000000 
#    z 0.000000 0.000000 1.715500 
# 
# From -- ./inp_files/21379.got.cif
#   From: 2010.03.12/outbox.cif.g09.slc.cpg/sg47_11_cif.got.tgz:21379.got - 2010.04.14 03:12:58.
