data_PCOD8199363
_publ_section_title
;
Structure prediction by ZEFSAII (Michael W. Deem and Ramdas Pophale) SiO2 
 PCOD8199363
Probable space group: P M M M
;
_chemical_formula_sum "Si O2"
_cell_formula_units_Z 64
_cell_length_a 14.340044
_cell_length_b 25.846739
_cell_length_c 9.271237
_cell_angle_alpha 90.000000
_cell_angle_beta 90.000000
_cell_angle_gamma 90.000000
_cell_volume 3436.322568
_symmetry_space_group_name_H-M "P M M M"
_symmetry_group_IT_number 47
_symmetry_cell_setting 'orthorhombic'
loop_
_space_group_symop_operation_xyz
x,y,z
-x,-y,z
x,-y,-z
-x,y,-z
-x,-y,-z
x,y,-z
-x,y,z
x,-y,z
loop_
_atom_site_type_symbol
_atom_site_label
_atom_site_fract_x
_atom_site_fract_y
_atom_site_fract_z
Si Si1 0.110391 0.205375 0.660796
Si Si2 0.292229 0.646548 0.165972
Si Si3 0.389571 0.737651 0.334858
Si Si4 0.606416 0.440661 0.332444
Si Si5 0.108381 0.105490 0.831626
Si Si6 0.396782 0.146842 0.329546
Si Si7 0.895184 0.695436 0.835626
Si Si8 0.261846 0.057628 0.333388
O O1 0.154181 0.202146 0.500000
O O2 0.145803 0.157658 0.755724
O O3 0.141535 0.258538 0.734467
O O4 0.000000 0.203698 0.652808
O O5 0.339729 0.697038 0.232241
O O6 0.323779 0.594185 0.241894
O O7 0.179508 0.649351 0.183023
O O8 0.322011 0.643875 0.000000
O O9 0.362790 0.725089 0.500000
O O10 0.500000 0.733343 0.314118
O O11 0.356213 0.795933 0.292138
O O12 0.626712 0.431563 0.500000
O O13 0.500000 0.425109 0.296999
O O14 0.624457 0.500000 0.289899
O O15 0.166707 0.059275 0.759477
O O16 0.000000 0.095004 0.801405
O O17 0.129261 0.109635 0.000000
O O18 0.405191 0.141641 0.500000
O O19 0.500000 0.140532 0.261391
O O20 0.332789 0.100449 0.269116
O O21 0.000000 0.676631 0.792725
O O22 0.895679 0.715916 0.000000
O O23 0.237925 0.069285 0.500000
O O24 0.304766 0.000000 0.316528
#
# Coordination Sequence:
#
# PCOD8199363 Si02
#       8
#     8   8   8   8   8   8   8   8
#     4   9  17  30  50  75  99 126 167 216 261 305
#     4  11  22  32  50  82 112 141 180 224 266 306
#     4   9  18  33  52  74 104 141 175 208 255 319
#     4   9  19  37  59  81 108 145 185 221 263 319
#     4  10  21  36  53  72  99 136 172 207 254 317
#     4   8  16  33  55  77 101 132 169 208 257 317
#     4   9  19  35  50  69 106 150 185 216 256 309
#     4  10  21  35  53  79 104 127 166 221 269 308
#
# _framework density 18.624562000000001
#
# number of rings (size 3 to 8) (size 9 to 14) (size 15 to 20)
#    0.000    2.625    0.000    2.625    1.750    6.250 
#    0.000    3.125    0.000    1.500    0.000    3.500 
#    0.000    0.000    0.000    0.000    0.000    0.000 
#
# Total GULP energy -793448.644024 kJ/mol
# GULP energy per Si atom -12397.635063 kJ/mol
# Density = 1.858217 g / cm^3
# Si number density = 18.624562 Si / 1000 Ang^3
#
#
#
# Elastic Constant Matrix: (Units=GPa)
#
#
# Indices 1 2 3 4 5 6 
#
# 1 65.9340 56.9121 40.1746 0.0000 0.0000 0.0000
# 2 56.9121 114.9262 52.2350 0.0000 0.0000 0.0000
# 3 40.1746 52.2350 83.5767 0.0000 0.0000 0.0000
# 4 0.0000 0.0000 0.0000 20.7817 0.0000 0.0000
# 5 0.0000 0.0000 0.0000 0.0000 21.9473 0.0000
# 6 0.0000 0.0000 0.0000 0.0000 0.0000 29.8960
#
#
#
# Elastic Compliance Matrix: (Units=1/GPa)
#
#
# Indices 1 2 3 4 5 6 
#
# 1 0.029129 -0.011259 -0.006965 0.000000 0.000000 0.000000
# 2 -0.011259 0.016506 -0.004904 0.000000 0.000000 0.000000
# 3 -0.006965 -0.004904 0.018378 0.000000 0.000000 0.000000
# 4 0.000000 0.000000 0.000000 0.048119 0.000000 0.000000
# 5 0.000000 0.000000 0.000000 0.000000 0.045564 0.000000
# 6 0.000000 0.000000 0.000000 0.000000 0.000000 0.033449
#
#
# Mechanical properties :
#
#
# Convention : Reuss Voigt Hill
#
# Bulk Modulus (GPa) = 56.31728 62.56448 59.44088
# Shear Modulus (GPa) = 20.54904 22.19936 21.37420
#
# Velocity S-wave (km/s) = 3.32524 3.45619 3.39135
# Velocity P-wave (km/s) = 6.71169 7.04219 6.87893
#
# Compressibility (1/GPa) = 0.01775654
#
# Stress axis : x y z
#
# Youngs Moduli (GPa) = 34.32968 60.58523 54.41284
#
# Poissons Ratio (x) = 0.68214 0.37900
# Poissons Ratio (y) = 0.38653 0.26683
# Poissons Ratio (z) = 0.23911 0.29709
#
# Static dielectric constant tensor:
#      x y z
#    x 3.537420 0.000000 0.000000 
#    y 0.000000 3.329300 0.000000 
#    z 0.000000 0.000000 3.347510 
# 
# 
# High freq. dielectric constant tensor:
#      x y z
#    x 1.722260 0.000000 0.000000 
#    y 0.000000 1.708750 0.000000 
#    z 0.000000 0.000000 1.710060 
# 
# From -- ./inp_files/7778.got.cif
#   From: 2010.03.12/outbox.cif.g09.slc.cpg/sg47_4_cif.got.tgz:7778.got - 2010.04.14 03:12:58.
