data_PCOD8199348
_publ_section_title
;
Structure prediction by ZEFSAII (Michael W. Deem and Ramdas Pophale) SiO2 
 PCOD8199348
Probable space group: P M M M
;
_chemical_formula_sum "Si O2"
_cell_formula_units_Z 48
_cell_length_a 19.551351
_cell_length_b 15.349802
_cell_length_c 7.886621
_cell_angle_alpha 90.000000
_cell_angle_beta 90.000000
_cell_angle_gamma 90.000000
_cell_volume 2366.848834
_symmetry_space_group_name_H-M "P M M M"
_symmetry_group_IT_number 47
_symmetry_cell_setting 'orthorhombic'
loop_
_space_group_symop_operation_xyz
x,y,z
-x,-y,z
x,-y,-z
-x,y,-z
-x,-y,-z
x,y,-z
-x,y,z
x,-y,z
loop_
_atom_site_type_symbol
_atom_site_label
_atom_site_fract_x
_atom_site_fract_y
_atom_site_fract_z
Si Si1 0.809037 0.398088 0.189930
Si Si2 0.779178 0.903874 0.000000
Si Si3 0.076152 0.842402 0.000000
Si Si4 0.310723 0.897207 0.695442
Si Si5 0.657441 0.402960 0.200906
Si Si6 0.424893 0.236339 0.302420
Si Si7 0.075539 0.282661 0.686680
O O1 0.822051 0.500000 0.185657
O O2 0.733720 0.378171 0.266368
O O3 0.867176 0.356631 0.306011
O O4 0.815447 0.358940 0.000000
O O5 0.861464 0.909788 0.000000
O O6 0.749553 0.863843 0.823387
O O7 0.749402 0.000000 0.000000
O O8 0.087213 0.788287 0.169932
O O9 0.000000 0.885917 0.000000
O O10 0.290442 0.874100 0.500000
O O11 0.376632 0.842584 0.759057
O O12 0.326886 0.000000 0.709675
O O13 0.636720 0.500000 0.267505
O O14 0.604145 0.331921 0.263313
O O15 0.660075 0.405185 0.000000
O O16 0.433730 0.227344 0.500000
O O17 0.500000 0.227588 0.215921
O O18 0.080234 0.238664 0.500000
O O19 0.000000 0.324787 0.712234
#
# Coordination Sequence:
#
# PCOD8199348 Si02
#       7
#     8   4   4   8   8   8   8
#     4   9  18  33  53  76 104 142 186 234 289 339
#     4  10  22  39  63  91 115 147 191 230 274 337
#     4  10  22  39  57  81 117 152 182 229 285 328
#     4   9  20  39  61  89 123 153 187 236 290 344
#     4   9  20  37  55  78 110 147 190 241 291 339
#     4  10  22  37  55  82 112 150 195 234 287 350
#     4  10  21  35  52  78 110 146 188 229 278 340
#
# _framework density 20.28013
#
# number of rings (size 3 to 8) (size 9 to 14) (size 15 to 20)
#    0.000    2.500    0.833    1.000    3.500    3.500 
#    0.000    6.667    0.000    1.500    0.000    4.667 
#    0.000    0.000    0.000    0.000    0.000    0.000 
#
# Total GULP energy -594739.953299 kJ/mol
# GULP energy per Si atom -12390.415694 kJ/mol
# Density = 2.023397 g / cm^3
# Si number density = 20.280130 Si / 1000 Ang^3
#
#
#
# Elastic Constant Matrix: (Units=GPa)
#
#
# Indices 1 2 3 4 5 6 
#
# 1 151.8668 48.4029 40.2006 0.0000 0.0000 0.0000
# 2 48.4029 57.6322 19.8544 0.0000 0.0000 0.0000
# 3 40.2006 19.8544 87.8830 0.0000 0.0000 0.0000
# 4 0.0000 0.0000 0.0000 13.9086 0.0000 0.0000
# 5 0.0000 0.0000 0.0000 0.0000 31.3313 0.0000
# 6 0.0000 0.0000 0.0000 0.0000 0.0000 27.0880
#
#
#
# Elastic Compliance Matrix: (Units=1/GPa)
#
#
# Indices 1 2 3 4 5 6 
#
# 1 0.009580 -0.007088 -0.002781 0.000000 0.000000 0.000000
# 2 -0.007088 0.024060 -0.002193 0.000000 0.000000 0.000000
# 3 -0.002781 -0.002193 0.013146 0.000000 0.000000 0.000000
# 4 0.000000 0.000000 0.000000 0.071898 0.000000 0.000000
# 5 0.000000 0.000000 0.000000 0.000000 0.031917 0.000000
# 6 0.000000 0.000000 0.000000 0.000000 0.000000 0.036917
#
#
# Mechanical properties :
#
#
# Convention : Reuss Voigt Hill
#
# Bulk Modulus (GPa) = 44.12681 57.14420 50.63551
# Shear Modulus (GPa) = 22.81069 27.06052 24.93560
#
# Velocity S-wave (km/s) = 3.35741 3.65682 3.51031
# Velocity P-wave (km/s) = 6.06923 6.78737 6.43832
#
# Compressibility (1/GPa) = 0.02266196
#
# Stress axis : x y z
#
# Youngs Moduli (GPa) = 104.38591 41.56323 76.06661
#
# Poissons Ratio (x) = 0.29459 0.21153
# Poissons Ratio (y) = 0.73986 0.16684
# Poissons Ratio (z) = 0.29029 0.09116
#
# Static dielectric constant tensor:
#      x y z
#    x 3.246350 0.000000 0.000000 
#    y 0.000000 3.061280 0.000000 
#    z 0.000000 0.000000 3.854520 
# 
# 
# High freq. dielectric constant tensor:
#      x y z
#    x 1.797310 0.000000 0.000000 
#    y 0.000000 1.770860 0.000000 
#    z 0.000000 0.000000 1.793530 
# 
# From -- ./inp_files/9138.got.cif
#   From: 2010.03.12/outbox.cif.g09.slc.cpg/sg47_5_cif.got.tgz:9138.got - 2010.04.14 03:12:58.
