data_PCOD8199453
_publ_section_title
;
Structure prediction by ZEFSAII (Michael W. Deem and Ramdas Pophale) SiO2 
 PCOD8199453
Probable space group: P M M M
;
_chemical_formula_sum "Si O2"
_cell_formula_units_Z 40
_cell_length_a 9.209197
_cell_length_b 18.507760
_cell_length_c 12.734560
_cell_angle_alpha 90.000000
_cell_angle_beta 90.000000
_cell_angle_gamma 90.000000
_cell_volume 2170.498882
_symmetry_space_group_name_H-M "P M M M"
_symmetry_group_IT_number 47
_symmetry_cell_setting 'orthorhombic'
loop_
_space_group_symop_operation_xyz
x,y,z
-x,-y,z
x,-y,-z
-x,y,-z
-x,-y,-z
x,y,-z
-x,y,z
x,-y,z
loop_
_atom_site_type_symbol
_atom_site_label
_atom_site_fract_x
_atom_site_fract_y
_atom_site_fract_z
Si Si1 0.670294 0.316974 0.118700
Si Si2 0.672738 0.580889 0.301095
Si Si3 0.327365 0.331090 0.500000
Si Si4 0.167689 0.827129 0.117952
Si Si5 0.327059 0.833948 0.500000
Si Si6 0.831407 0.916699 0.682617
O O1 0.500000 0.304395 0.130935
O O2 0.724186 0.381689 0.193149
O O3 0.744163 0.242887 0.154543
O O4 0.713715 0.337849 0.000000
O O5 0.500000 0.577409 0.306796
O O6 0.737730 0.500000 0.305326
O O7 0.734118 0.627511 0.398065
O O8 0.500000 0.332408 0.500000
O O9 0.272421 0.248772 0.500000
O O10 0.201518 0.891867 0.198242
O O11 0.000000 0.805398 0.121020
O O12 0.213229 0.851664 0.000000
O O13 0.500000 0.839669 0.500000
O O14 0.266707 0.871684 0.396369
O O15 0.000000 0.904997 0.653723
O O16 0.787447 0.000000 0.673404
#
# Coordination Sequence:
#
# PCOD8199453 Si02
#       6
#     8   8   4   8   4   8
#     4   9  17  29  46  69  97 127 158 195 238 282
#     4   9  16  26  42  65  93 123 155 193 237 283
#     4   9  17  28  43  65  92 121 154 194 238 281
#     4   9  18  33  53  75  98 128 166 203 241 290
#     4  11  22  35  53  75 100 131 166 202 242 293
#     4  10  21  36  53  74 101 130 161 202 249 292
#
# _framework density 18.428943
#
# number of rings (size 3 to 8) (size 9 to 14) (size 15 to 20)
#    0.000    2.600    0.000    2.100    0.000    6.000 
#    0.000    4.000    0.000    0.600    0.000    7.000 
#    0.000    8.000    0.000    0.000    0.000    0.000 
#
# Total GULP energy -495993.344165 kJ/mol
# GULP energy per Si atom -12399.833604 kJ/mol
# Density = 1.838700 g / cm^3
# Si number density = 18.428943 Si / 1000 Ang^3
#
#
#
# Elastic Constant Matrix: (Units=GPa)
#
#
# Indices 1 2 3 4 5 6 
#
# 1 30.6361 35.3972 30.5008 0.0000 0.0000 0.0000
# 2 35.3972 158.9873 82.3503 0.0000 0.0000 0.0000
# 3 30.5008 82.3503 126.6782 0.0000 0.0000 0.0000
# 4 0.0000 0.0000 0.0000 32.9309 0.0000 0.0000
# 5 0.0000 0.0000 0.0000 0.0000 19.5567 0.0000
# 6 0.0000 0.0000 0.0000 0.0000 0.0000 12.9868
#
#
#
# Elastic Compliance Matrix: (Units=1/GPa)
#
#
# Indices 1 2 3 4 5 6 
#
# 1 0.047634 -0.007033 -0.006897 0.000000 0.000000 0.000000
# 2 -0.007033 0.010521 -0.005146 0.000000 0.000000 0.000000
# 3 -0.006897 -0.005146 0.012900 0.000000 0.000000 0.000000
# 4 0.000000 0.000000 0.000000 0.030367 0.000000 0.000000
# 5 0.000000 0.000000 0.000000 0.000000 0.051133 0.000000
# 6 0.000000 0.000000 0.000000 0.000000 0.000000 0.077001
#
#
# Mechanical properties :
#
#
# Convention : Reuss Voigt Hill
#
# Bulk Modulus (GPa) = 30.39270 68.08868 49.24069
# Shear Modulus (GPa) = 17.94200 24.29843 21.12022
#
# Velocity S-wave (km/s) = 3.12360 3.63505 3.38899
# Velocity P-wave (km/s) = 5.43478 7.39222 6.48775
#
# Compressibility (1/GPa) = 0.03290264
#
# Stress axis : x y z
#
# Youngs Moduli (GPa) = 20.99362 95.04620 77.51865
#
# Poissons Ratio (x) = 0.66844 0.53465
# Poissons Ratio (y) = 0.14764 0.39893
# Poissons Ratio (z) = 0.14479 0.48913
#
# Static dielectric constant tensor:
#      x y z
#    x 3.057580 0.000000 0.000000 
#    y 0.000000 3.539040 0.000000 
#    z 0.000000 0.000000 3.650640 
# 
# 
# High freq. dielectric constant tensor:
#      x y z
#    x 1.674650 0.000000 0.000000 
#    y 0.000000 1.717740 0.000000 
#    z 0.000000 0.000000 1.732030 
# 
# From -- ./inp_files/15105.got.cif
#   From: 2010.03.12/outbox.cif.g09.slc.cpg/sg47_8_cif.got.tgz:15105.got - 2010.04.14 03:12:58.
