data_PCOD8199064
_publ_section_title
;
Structure prediction by ZEFSAII (Michael W. Deem and Ramdas Pophale) SiO2 
 PCOD8199064
Probable space group: P M M M
;
_chemical_formula_sum "Si O2"
_cell_formula_units_Z 44
_cell_length_a 30.167517
_cell_length_b 8.121782
_cell_length_c 9.474053
_cell_angle_alpha 90.000000
_cell_angle_beta 90.000000
_cell_angle_gamma 90.000000
_cell_volume 2321.275589
_symmetry_space_group_name_H-M "P M M M"
_symmetry_group_IT_number 47
_symmetry_cell_setting 'orthorhombic'
loop_
_space_group_symop_operation_xyz
x,y,z
-x,-y,z
x,-y,-z
-x,y,-z
-x,-y,-z
x,y,-z
-x,y,z
x,-y,z
loop_
_atom_site_type_symbol
_atom_site_label
_atom_site_fract_x
_atom_site_fract_y
_atom_site_fract_z
Si Si1 0.896693 0.683155 0.332428
Si Si2 0.639678 0.191074 0.657197
Si Si3 0.050399 0.000000 0.668281
Si Si4 0.796109 0.309051 0.659256
Si Si5 0.547689 0.311702 0.333024
Si Si6 0.281936 0.191297 0.844045
O O1 0.899907 0.678664 0.500000
O O2 0.911358 0.500000 0.275913
O O3 0.926799 0.832410 0.271915
O O4 0.846224 0.719678 0.287513
O O5 0.642298 0.271667 0.500000
O O6 0.590814 0.216970 0.726321
O O7 0.677504 0.272979 0.755636
O O8 0.649431 0.000000 0.643529
O O9 0.053400 0.000000 0.500000
O O10 0.000000 0.000000 0.721513
O O11 0.790175 0.240227 0.500000
O O12 0.783831 0.500000 0.662809
O O13 0.764354 0.212740 0.764371
O O14 0.547014 0.291676 0.500000
O O15 0.500000 0.243085 0.274724
O O16 0.552477 0.500000 0.287500
O O17 0.291560 0.000000 0.861471
O O18 0.279652 0.273140 0.000000
#
# Coordination Sequence:
#
# PCOD8199064 Si02
#       6
#     8   8   4   8   8   8
#     4   8  15  27  41  62  93 125 161 205 245 287
#     4   9  17  29  45  66  91 119 153 190 230 279
#     4   9  16  24  38  64  95 131 169 197 238 297
#     4   9  18  32  50  71  93 122 163 204 242 287
#     4   8  14  25  42  65  90 113 141 183 232 276
#     4  10  21  34  47  67  96 127 158 195 241 291
#
# _framework density 18.955096999999999
#
# number of rings (size 3 to 8) (size 9 to 14) (size 15 to 20)
#    0.000    3.182    0.000    2.182    1.273    2.909 
#    0.000    5.455    0.000    0.545    0.000    3.818 
#    0.000    1.455    0.000    4.000    0.000    4.000 
#
# Total GULP energy -545138.937262 kJ/mol
# GULP energy per Si atom -12389.521301 kJ/mol
# Density = 1.891195 g / cm^3
# Si number density = 18.955097 Si / 1000 Ang^3
#
#
#
# Elastic Constant Matrix: (Units=GPa)
#
#
# Indices 1 2 3 4 5 6 
#
# 1 157.1521 53.4627 48.3740 0.0000 0.0000 0.0000
# 2 53.4627 63.7802 19.3469 0.0000 0.0000 0.0000
# 3 48.3740 19.3469 61.6442 0.0000 0.0000 0.0000
# 4 0.0000 0.0000 0.0000 8.5794 0.0000 0.0000
# 5 0.0000 0.0000 0.0000 0.0000 2.5209 0.0000
# 6 0.0000 0.0000 0.0000 0.0000 0.0000 22.0968
#
#
#
# Elastic Compliance Matrix: (Units=1/GPa)
#
#
# Indices 1 2 3 4 5 6 
#
# 1 0.010661 -0.007072 -0.006147 0.000000 0.000000 0.000000
# 2 -0.007072 0.022020 -0.001361 0.000000 0.000000 0.000000
# 3 -0.006147 -0.001361 0.021473 0.000000 0.000000 0.000000
# 4 0.000000 0.000000 0.000000 0.116559 0.000000 0.000000
# 5 0.000000 0.000000 0.000000 0.000000 0.396686 0.000000
# 6 0.000000 0.000000 0.000000 0.000000 0.000000 0.045256
#
#
# Mechanical properties :
#
#
# Convention : Reuss Voigt Hill
#
# Bulk Modulus (GPa) = 40.00960 58.32707 49.16833
# Shear Modulus (GPa) = 7.69059 17.39893 12.54476
#
# Velocity S-wave (km/s) = 2.01645 3.03298 2.57537
# Velocity P-wave (km/s) = 5.15508 6.56531 5.90246
#
# Compressibility (1/GPa) = 0.02499400
#
# Stress axis : x y z
#
# Youngs Moduli (GPa) = 93.79826 45.41372 46.57066
#
# Poissons Ratio (x) = 0.32117 0.28625
# Poissons Ratio (y) = 0.66335 0.06339
# Poissons Ratio (z) = 0.57654 0.06182
#
# Static dielectric constant tensor:
#      x y z
#    x 3.530330 0.000000 0.000000 
#    y 0.000000 3.448670 0.000000 
#    z 0.000000 0.000000 3.151560 
# 
# 
# High freq. dielectric constant tensor:
#      x y z
#    x 1.748860 0.000000 0.000000 
#    y 0.000000 1.724270 0.000000 
#    z 0.000000 0.000000 1.669840 
# 
# From -- ./inp_files/13682.got.cif
#   From: 2010.03.12/outbox.cif.g09.slc.cpg/sg47_7_cif.got.tgz:13682.got - 2010.04.14 03:12:58.
