data_PCOD8199724
_publ_section_title
;
Structure prediction by ZEFSAII (Michael W. Deem and Ramdas Pophale) SiO2 
 PCOD8199724
Probable space group: P M M M
;
_chemical_formula_sum "Si O2"
_cell_formula_units_Z 48
_cell_length_a 8.739299
_cell_length_b 14.502985
_cell_length_c 18.358130
_cell_angle_alpha 90.000000
_cell_angle_beta 90.000000
_cell_angle_gamma 90.000000
_cell_volume 2326.818119
_symmetry_space_group_name_H-M "P M M M"
_symmetry_group_IT_number 47
_symmetry_cell_setting 'orthorhombic'
loop_
_space_group_symop_operation_xyz
x,y,z
-x,-y,z
x,-y,-z
-x,y,-z
-x,-y,-z
x,y,-z
-x,y,z
x,-y,z
loop_
_atom_site_type_symbol
_atom_site_label
_atom_site_fract_x
_atom_site_fract_y
_atom_site_fract_z
Si Si1 0.681490 0.275283 0.786057
Si Si2 0.180757 0.894643 0.149222
Si Si3 0.670597 0.109053 0.000000
Si Si4 0.681507 0.396490 0.919400
Si Si5 0.818140 0.292080 0.362433
Si Si6 0.323890 0.608928 0.500000
Si Si7 0.181549 0.900248 0.581715
O O1 0.500000 0.274096 0.783397
O O2 0.745420 0.170688 0.789621
O O3 0.746555 0.331008 0.855879
O O4 0.745905 0.325355 0.713794
O O5 0.000000 0.886338 0.152004
O O6 0.232778 0.000000 0.163828
O O7 0.239849 0.857926 0.071281
O O8 0.500000 0.153074 0.000000
O O9 0.659778 0.000000 0.000000
O O10 0.500000 0.398461 0.914419
O O11 0.745209 0.500000 0.907634
O O12 0.731556 0.360165 0.000000
O O13 0.758139 0.353989 0.428026
O O14 0.759726 0.186272 0.371856
O O15 0.000000 0.300339 0.359805
O O16 0.307408 0.500000 0.500000
O O17 0.500000 0.640308 0.500000
O O18 0.246654 0.890098 0.500000
O O19 0.000000 0.897048 0.578835
O O20 0.234591 0.000000 0.614535
#
# Coordination Sequence:
#
# PCOD8199724 Si02
#       7
#     8   8   4   8   8   4   8
#     4  11  23  36  57  90 124 158 197 247 304 359
#     4  10  21  37  55  79 116 163 210 252 299 357
#     4   9  17  31  53  79 108 147 198 255 307 356
#     4   8  16  34  59  84 110 144 191 245 299 358
#     4  11  22  39  62  90 124 159 198 243 294 360
#     4  11  25  45  68  91 118 156 201 251 308 362
#     4   8  14  28  54  85 112 144 188 233 278 333
#
# _framework density 20.62903
#
# number of rings (size 3 to 8) (size 9 to 14) (size 15 to 20)
#    0.000    2.333    0.833    3.000    1.167    4.000 
#    0.000    3.333    0.000    3.500    0.000    4.667 
#    0.000    0.000    0.000    0.000    0.000    0.000 
#
# Total GULP energy -595023.373953 kJ/mol
# GULP energy per Si atom -12396.320291 kJ/mol
# Density = 2.058208 g / cm^3
# Si number density = 20.629030 Si / 1000 Ang^3
#
#
#
# Elastic Constant Matrix: (Units=GPa)
#
#
# Indices 1 2 3 4 5 6 
#
# 1 75.9098 34.1191 43.3293 0.0000 0.0000 0.0000
# 2 34.1191 88.1818 58.7779 0.0000 0.0000 0.0000
# 3 43.3293 58.7779 153.1257 0.0000 0.0000 0.0000
# 4 0.0000 0.0000 0.0000 20.7385 0.0000 0.0000
# 5 0.0000 0.0000 0.0000 0.0000 32.9090 0.0000
# 6 0.0000 0.0000 0.0000 0.0000 0.0000 22.0373
#
#
#
# Elastic Compliance Matrix: (Units=1/GPa)
#
#
# Indices 1 2 3 4 5 6 
#
# 1 0.016952 -0.004518 -0.003063 0.000000 0.000000 0.000000
# 2 -0.004518 0.016443 -0.005033 0.000000 0.000000 0.000000
# 3 -0.003063 -0.005033 0.009329 0.000000 0.000000 0.000000
# 4 0.000000 0.000000 0.000000 0.048220 0.000000 0.000000
# 5 0.000000 0.000000 0.000000 0.000000 0.030387 0.000000
# 6 0.000000 0.000000 0.000000 0.000000 0.000000 0.045378
#
#
# Mechanical properties :
#
#
# Convention : Reuss Voigt Hill
#
# Bulk Modulus (GPa) = 57.15228 65.51887 61.33558
# Shear Modulus (GPa) = 25.28202 27.20302 26.24252
#
# Velocity S-wave (km/s) = 3.50459 3.63530 3.57054
# Velocity P-wave (km/s) = 6.64388 7.03207 6.84073
#
# Compressibility (1/GPa) = 0.01749711
#
# Stress axis : x y z
#
# Youngs Moduli (GPa) = 58.98901 60.81533 107.18830
#
# Poissons Ratio (x) = 0.27474 0.32830
# Poissons Ratio (y) = 0.26649 0.53953
# Poissons Ratio (z) = 0.18067 0.30611
#
# Static dielectric constant tensor:
#      x y z
#    x 3.404540 0.000000 0.000000 
#    y 0.000000 3.981430 0.000000 
#    z 0.000000 0.000000 3.870990 
# 
# 
# High freq. dielectric constant tensor:
#      x y z
#    x 1.775730 0.000000 0.000000 
#    y 0.000000 1.807790 0.000000 
#    z 0.000000 0.000000 1.810530 
# 
# From -- ./inp_files/26546.got.cif
#   From: 2010.03.12/outbox.cif.g09.slc.cpg/sg47_14_cif.got.tgz:26546.got - 2010.04.14 03:12:58.
