data_PCOD8199684
_publ_section_title
;
Structure prediction by ZEFSAII (Michael W. Deem and Ramdas Pophale) SiO2 
 PCOD8199684
Probable space group: P M M M
;
_chemical_formula_sum "Si O2"
_cell_formula_units_Z 40
_cell_length_a 9.213539
_cell_length_b 15.459206
_cell_length_c 14.341419
_cell_angle_alpha 90.000000
_cell_angle_beta 90.000000
_cell_angle_gamma 90.000000
_cell_volume 2042.705636
_symmetry_space_group_name_H-M "P M M M"
_symmetry_group_IT_number 47
_symmetry_cell_setting 'orthorhombic'
loop_
_space_group_symop_operation_xyz
x,y,z
-x,-y,z
x,-y,-z
-x,y,-z
-x,-y,-z
x,y,-z
-x,y,z
x,-y,z
loop_
_atom_site_type_symbol
_atom_site_label
_atom_site_fract_x
_atom_site_fract_y
_atom_site_fract_z
Si Si1 0.169491 0.598442 0.104423
Si Si2 0.672802 0.500000 0.395950
Si Si3 0.667399 0.147623 0.282366
Si Si4 0.666546 0.340741 0.725278
Si Si5 0.830684 0.000000 0.390422
Si Si6 0.164258 0.101893 0.894535
O O1 0.222704 0.500000 0.117574
O O2 0.250920 0.659565 0.176589
O O3 0.000000 0.605143 0.123838
O O4 0.205684 0.630572 0.000000
O O5 0.500000 0.500000 0.400678
O O6 0.738388 0.500000 0.500000
O O7 0.730547 0.586237 0.343979
O O8 0.500000 0.117857 0.283415
O O9 0.683815 0.245745 0.320407
O O10 0.724980 0.146283 0.176463
O O11 0.759771 0.085885 0.348573
O O12 0.500000 0.361694 0.746745
O O13 0.803461 0.000000 0.500000
O O14 0.000000 0.000000 0.364622
O O15 0.000000 0.135137 0.876667
O O16 0.170189 0.000000 0.877620
O O17 0.211859 0.124945 0.000000
#
# Coordination Sequence:
#
# PCOD8199684 Si02
#       6
#     8   4   8   8   4   8
#     4   9  18  33  54  81 114 154 196 235 279 330
#     4   9  18  36  60  81 106 144 187 229 276 335
#     4  11  23  37  58  90 121 149 186 237 293 344
#     4  10  21  36  57  86 116 148 188 233 284 338
#     4  11  25  45  66  85 110 149 193 236 286 347
#     4   9  18  34  57  83 113 153 196 233 274 331
#
# _framework density 19.581872000000001
#
# number of rings (size 3 to 8) (size 9 to 14) (size 15 to 20)
#    0.000    2.200    2.000    2.100    0.000    4.800 
#    0.000    8.000    0.000    1.200    0.000    0.000 
#    0.000    0.000    0.000    0.000    0.000    0.000 
#
# Total GULP energy -496007.050611 kJ/mol
# GULP energy per Si atom -12400.176265 kJ/mol
# Density = 1.953730 g / cm^3
# Si number density = 19.581872 Si / 1000 Ang^3
#
#
#
# Elastic Constant Matrix: (Units=GPa)
#
#
# Indices 1 2 3 4 5 6 
#
# 1 87.3747 48.3316 59.2860 0.0000 0.0000 0.0000
# 2 48.3316 113.5464 59.3293 0.0000 0.0000 0.0000
# 3 59.2860 59.3293 126.0787 0.0000 0.0000 0.0000
# 4 0.0000 0.0000 0.0000 12.6849 0.0000 0.0000
# 5 0.0000 0.0000 0.0000 0.0000 24.5011 0.0000
# 6 0.0000 0.0000 0.0000 0.0000 0.0000 21.3729
#
#
#
# Elastic Compliance Matrix: (Units=1/GPa)
#
#
# Indices 1 2 3 4 5 6 
#
# 1 0.018308 -0.004369 -0.006553 0.000000 0.000000 0.000000
# 2 -0.004369 0.012721 -0.003932 0.000000 0.000000 0.000000
# 3 -0.006553 -0.003932 0.012863 0.000000 0.000000 0.000000
# 4 0.000000 0.000000 0.000000 0.078834 0.000000 0.000000
# 5 0.000000 0.000000 0.000000 0.000000 0.040814 0.000000
# 6 0.000000 0.000000 0.000000 0.000000 0.000000 0.046788
#
#
# Mechanical properties :
#
#
# Convention : Reuss Voigt Hill
#
# Bulk Modulus (GPa) = 70.49829 73.43262 71.96545
# Shear Modulus (GPa) = 20.42778 22.38197 21.40487
#
# Velocity S-wave (km/s) = 3.23336 3.38449 3.30979
# Velocity P-wave (km/s) = 7.07244 7.27013 7.17197
#
# Compressibility (1/GPa) = 0.01418474
#
# Stress axis : x y z
#
# Youngs Moduli (GPa) = 54.62068 78.61009 77.74090
#
# Poissons Ratio (x) = 0.34344 0.50945
# Poissons Ratio (y) = 0.23863 0.30566
# Poissons Ratio (z) = 0.35794 0.30908
#
# Static dielectric constant tensor:
#      x y z
#    x 3.430020 0.000000 0.000000 
#    y 0.000000 3.571760 0.000000 
#    z 0.000000 0.000000 3.603640 
# 
# 
# High freq. dielectric constant tensor:
#      x y z
#    x 1.747210 0.000000 0.000000 
#    y 0.000000 1.767640 0.000000 
#    z 0.000000 0.000000 1.757820 
# 
# From -- ./inp_files/20662.got.cif
#   From: 2010.03.12/outbox.cif.g09.slc.cpg/sg47_11_cif.got.tgz:20662.got - 2010.04.14 03:12:58.
