data_PCOD8199564
_publ_section_title
;
Structure prediction by ZEFSAII (Michael W. Deem and Ramdas Pophale) SiO2 
 PCOD8199564
Probable space group: P M M M
;
_chemical_formula_sum "Si O2"
_cell_formula_units_Z 32
_cell_length_a 17.310120
_cell_length_b 10.353860
_cell_length_c 9.186488
_cell_angle_alpha 90.000000
_cell_angle_beta 90.000000
_cell_angle_gamma 90.000000
_cell_volume 1646.462634
_symmetry_space_group_name_H-M "P M M M"
_symmetry_group_IT_number 47
_symmetry_cell_setting 'orthorhombic'
loop_
_space_group_symop_operation_xyz
x,y,z
-x,-y,z
x,-y,-z
-x,y,-z
-x,-y,-z
x,y,-z
-x,y,z
x,-y,z
loop_
_atom_site_type_symbol
_atom_site_label
_atom_site_fract_x
_atom_site_fract_y
_atom_site_fract_z
Si Si1 0.500000 0.652704 0.337425
Si Si2 0.908990 0.500000 0.838474
Si Si3 0.222611 0.857278 0.833644
Si Si4 0.911319 0.246239 0.671059
Si Si5 0.347764 0.351182 0.170580
O O1 0.500000 0.500000 0.344310
O O2 0.500000 0.711972 0.500000
O O3 0.576081 0.698435 0.252729
O O4 0.882258 0.376254 0.748987
O O5 0.000000 0.500000 0.854661
O O6 0.870385 0.500000 0.000000
O O7 0.145378 0.862090 0.734549
O O8 0.280339 0.745688 0.778219
O O9 0.260879 0.000000 0.819781
O O10 0.198370 0.829442 0.000000
O O11 0.900755 0.262705 0.500000
O O12 0.000000 0.211387 0.709180
O O13 0.326021 0.500000 0.210470
O O14 0.364119 0.337854 0.000000
#
# Coordination Sequence:
#
# PCOD8199564 Si02
#       5
#     4   4   8   8   8
#     4   9  17  31  54  85 114 138 172 219 268 324
#     4   9  17  31  53  79 105 134 173 224 277 327
#     4  10  22  38  55  79 111 146 188 236 282 330
#     4  10  21  36  54  78 109 145 186 232 284 338
#     4   9  18  34  57  82 108 141 180 223 272 328
#
# _framework density 19.435607000000001
#
# number of rings (size 3 to 8) (size 9 to 14) (size 15 to 20)
#    0.000    2.500    0.000    1.500    1.750    6.500 
#    0.000    3.125    0.000    3.750    0.000    0.000 
#    0.000    0.000    0.000    0.000    0.000    0.000 
#
# Total GULP energy -396724.955424 kJ/mol
# GULP energy per Si atom -12397.654857 kJ/mol
# Density = 1.939137 g / cm^3
# Si number density = 19.435607 Si / 1000 Ang^3
#
#
#
# Elastic Constant Matrix: (Units=GPa)
#
#
# Indices 1 2 3 4 5 6 
#
# 1 124.4206 58.5470 60.5728 0.0000 0.0000 0.0000
# 2 58.5470 96.0379 36.1142 0.0000 0.0000 0.0000
# 3 60.5728 36.1142 90.7997 0.0000 0.0000 0.0000
# 4 0.0000 0.0000 0.0000 17.6508 0.0000 0.0000
# 5 0.0000 0.0000 0.0000 0.0000 28.3886 0.0000
# 6 0.0000 0.0000 0.0000 0.0000 0.0000 16.1984
#
#
#
# Elastic Compliance Matrix: (Units=1/GPa)
#
#
# Indices 1 2 3 4 5 6 
#
# 1 0.014393 -0.006072 -0.007187 0.000000 0.000000 0.000000
# 2 -0.006072 0.014805 -0.001838 0.000000 0.000000 0.000000
# 3 -0.007187 -0.001838 0.016539 0.000000 0.000000 0.000000
# 4 0.000000 0.000000 0.000000 0.056655 0.000000 0.000000
# 5 0.000000 0.000000 0.000000 0.000000 0.035225 0.000000
# 6 0.000000 0.000000 0.000000 0.000000 0.000000 0.061734
#
#
# Mechanical properties :
#
#
# Convention : Reuss Voigt Hill
#
# Bulk Modulus (GPa) = 64.33435 69.08068 66.70751
# Shear Modulus (GPa) = 21.30141 22.84918 22.07529
#
# Velocity S-wave (km/s) = 3.31418 3.43247 3.37384
# Velocity P-wave (km/s) = 6.91507 7.16447 7.04088
#
# Compressibility (1/GPa) = 0.01554380
#
# Stress axis : x y z
#
# Youngs Moduli (GPa) = 69.47700 67.54331 60.46466
#
# Poissons Ratio (x) = 0.41012 0.43455
# Poissons Ratio (y) = 0.42186 0.11113
# Poissons Ratio (z) = 0.49931 0.12414
#
# Static dielectric constant tensor:
#      x y z
#    x 3.474180 0.000000 0.000000 
#    y 0.000000 3.459900 0.000000 
#    z 0.000000 0.000000 3.596360 
# 
# 
# High freq. dielectric constant tensor:
#      x y z
#    x 1.747440 0.000000 0.000000 
#    y 0.000000 1.740450 0.000000 
#    z 0.000000 0.000000 1.756730 
# 
# From -- ./inp_files/5247.got.cif
#   From: 2010.03.12/outbox.cif.g09.slc.cpg/sg47_3_cif.got.tgz:5247.got - 2010.04.14 03:12:58.
