data_PCOD8199163
_publ_section_title
;
Structure prediction by ZEFSAII (Michael W. Deem and Ramdas Pophale) SiO2 
 PCOD8199163
Probable space group: P M M M
;
_chemical_formula_sum "Si O2"
_cell_formula_units_Z 64
_cell_length_a 40.561414
_cell_length_b 9.794005
_cell_length_c 9.132076
_cell_angle_alpha 90.000000
_cell_angle_beta 90.000000
_cell_angle_gamma 90.000000
_cell_volume 3627.796563
_symmetry_space_group_name_H-M "P M M M"
_symmetry_group_IT_number 47
_symmetry_cell_setting 'orthorhombic'
loop_
_space_group_symop_operation_xyz
x,y,z
-x,-y,z
x,-y,-z
-x,y,-z
-x,-y,-z
x,y,-z
-x,y,z
x,-y,z
loop_
_atom_site_type_symbol
_atom_site_label
_atom_site_fract_x
_atom_site_fract_y
_atom_site_fract_z
Si Si1 0.161074 0.342886 0.828189
Si Si2 0.411232 0.657277 0.171310
Si Si3 0.461684 0.156507 0.667754
Si Si4 0.345046 0.343243 0.671994
Si Si5 0.094456 0.657239 0.328820
Si Si6 0.786530 0.159511 0.669314
Si Si7 0.036478 0.846767 0.674002
Si Si8 0.712448 0.150811 0.326151
O O1 0.168754 0.500000 0.787757
O O2 0.127218 0.294792 0.753720
O O3 0.190261 0.249494 0.770043
O O4 0.157462 0.321726 0.000000
O O5 0.418318 0.500000 0.211573
O O6 0.441779 0.745840 0.225270
O O7 0.378052 0.708846 0.249678
O O8 0.406642 0.678542 0.000000
O O9 0.453363 0.193058 0.500000
O O10 0.500000 0.180844 0.699765
O O11 0.452148 0.000000 0.700270
O O12 0.349834 0.320290 0.500000
O O13 0.337787 0.500000 0.710568
O O14 0.314257 0.257509 0.735336
O O15 0.099978 0.685234 0.500000
O O16 0.086367 0.500000 0.296954
O O17 0.063894 0.743594 0.263939
O O18 0.791817 0.199670 0.500000
O O19 0.749281 0.193464 0.721131
O O20 0.794250 0.000000 0.692752
O O21 0.036432 0.840090 0.500000
O O22 0.000000 0.804768 0.731691
O O23 0.045040 0.000000 0.726611
O O24 0.711230 0.147433 0.500000
O O25 0.703973 0.000000 0.264693
#
# Coordination Sequence:
#
# PCOD8199163 Si02
#       8
#     8   8   8   8   8   8   8   8
#     4  10  21  35  49  68  97 131 165 201 242 288
#     4  10  21  35  50  72 104 138 169 202 242 289
#     4   9  19  36  56  77 100 127 163 207 252 297
#     4   9  17  30  49  72  97 127 164 202 239 282
#     4   9  17  29  46  68  92 119 154 195 236 279
#     4   9  18  33  53  76 100 126 159 200 245 293
#     4   8  14  25  42  66  94 119 145 184 234 283
#     4   8  15  29  49  73  98 122 153 197 245 289
#
# _framework density 17.641563000000001
#
# number of rings (size 3 to 8) (size 9 to 14) (size 15 to 20)
#    0.000    3.000    0.000    2.250    0.000    4.250 
#    0.000    7.500    0.000    2.625    0.000    2.625 
#    0.000    0.000    0.000    0.000    0.000    0.000 
#
# Total GULP energy -793521.878258 kJ/mol
# GULP energy per Si atom -12398.779348 kJ/mol
# Density = 1.760141 g / cm^3
# Si number density = 17.641563 Si / 1000 Ang^3
#
#
#
# Elastic Constant Matrix: (Units=GPa)
#
#
# Indices 1 2 3 4 5 6 
#
# 1 138.8096 79.6698 43.2710 0.0000 0.0000 0.0000
# 2 79.6698 83.9757 33.8692 0.0000 0.0000 0.0000
# 3 43.2710 33.8692 44.2225 0.0000 0.0000 0.0000
# 4 0.0000 0.0000 0.0000 21.2036 0.0000 0.0000
# 5 0.0000 0.0000 0.0000 0.0000 0.5863 0.0000
# 6 0.0000 0.0000 0.0000 0.0000 0.0000 38.3469
#
#
#
# Elastic Compliance Matrix: (Units=1/GPa)
#
#
# Indices 1 2 3 4 5 6 
#
# 1 0.016902 -0.013551 -0.006160 0.000000 0.000000 0.000000
# 2 -0.013551 0.028095 -0.008258 0.000000 0.000000 0.000000
# 3 -0.006160 -0.008258 0.034965 0.000000 0.000000 0.000000
# 4 0.000000 0.000000 0.000000 0.047162 0.000000 0.000000
# 5 0.000000 0.000000 0.000000 0.000000 1.705530 0.000000
# 6 0.000000 0.000000 0.000000 0.000000 0.000000 0.026078
#
#
# Mechanical properties :
#
#
# Convention : Reuss Voigt Hill
#
# Bulk Modulus (GPa) = 41.62479 64.51421 53.06950
# Shear Modulus (GPa) = 2.60054 19.37387 10.98721
#
# Velocity S-wave (km/s) = 1.21544 3.31750 2.49831
# Velocity P-wave (km/s) = 5.06119 7.16402 6.20237
#
# Compressibility (1/GPa) = 0.02402414
#
# Stress axis : x y z
#
# Youngs Moduli (GPa) = 59.16539 35.59378 28.60004
#
# Poissons Ratio (x) = 0.48232 0.17617
# Poissons Ratio (y) = 0.80173 0.23618
# Poissons Ratio (z) = 0.36445 0.29394
#
# Static dielectric constant tensor:
#      x y z
#    x 3.476050 0.000000 0.000000 
#    y 0.000000 3.371670 0.000000 
#    z 0.000000 0.000000 2.961800 
# 
# 
# High freq. dielectric constant tensor:
#      x y z
#    x 1.691120 0.000000 0.000000 
#    y 0.000000 1.681660 0.000000 
#    z 0.000000 0.000000 1.651520 
# 
# From -- ./inp_files/14175.got.cif
#   From: 2010.03.12/outbox.cif.g09.slc.cpg/sg47_8_cif.got.tgz:14175.got - 2010.04.14 03:12:58.
