data_PCOD8199730
_publ_section_title
;
Structure prediction by ZEFSAII (Michael W. Deem and Ramdas Pophale) SiO2 
 PCOD8199730
Probable space group: P M M M
;
_chemical_formula_sum "Si O2"
_cell_formula_units_Z 56
_cell_length_a 14.282782
_cell_length_b 20.931085
_cell_length_c 9.271797
_cell_angle_alpha 90.000000
_cell_angle_beta 90.000000
_cell_angle_gamma 90.000000
_cell_volume 2771.841951
_symmetry_space_group_name_H-M "P M M M"
_symmetry_group_IT_number 47
_symmetry_cell_setting 'orthorhombic'
loop_
_space_group_symop_operation_xyz
x,y,z
-x,-y,z
x,-y,-z
-x,y,-z
-x,-y,-z
x,y,-z
-x,y,z
x,-y,z
loop_
_atom_site_type_symbol
_atom_site_label
_atom_site_fract_x
_atom_site_fract_y
_atom_site_fract_z
Si Si1 0.607319 0.804263 0.330445
Si Si2 0.889533 0.070382 0.840776
Si Si3 0.610419 0.070743 0.164589
Si Si4 0.894622 0.306853 0.169863
Si Si5 0.714651 0.674742 0.330376
Si Si6 0.610541 0.428832 0.160760
Si Si7 0.107272 0.819045 0.656681
O O1 0.609896 0.814752 0.500000
O O2 0.500000 0.789791 0.280430
O O3 0.647893 0.869255 0.258398
O O4 0.674295 0.744673 0.285873
O O5 0.843564 0.118795 0.726151
O O6 0.000000 0.081075 0.851432
O O7 0.865046 0.000000 0.785040
O O8 0.846332 0.081448 0.000000
O O9 0.500000 0.068659 0.180991
O O10 0.649416 0.000000 0.213391
O O11 0.640148 0.083173 0.000000
O O12 0.813115 0.344533 0.253194
O O13 0.882546 0.235401 0.225943
O O14 0.000000 0.332517 0.206445
O O15 0.877047 0.308987 0.000000
O O16 0.729317 0.669856 0.500000
O O17 0.642965 0.620839 0.280888
O O18 0.500000 0.429689 0.164337
O O19 0.648627 0.500000 0.197077
O O20 0.645073 0.408693 0.000000
O O21 0.154544 0.802180 0.500000
O O22 0.000000 0.834400 0.626341
#
# Coordination Sequence:
#
# PCOD8199730 Si02
#       7
#     8   8   8   8   8   8   8
#     4   9  18  31  47  73 110 147 181 218 265 325
#     4   8  13  21  34  54  81 113 150 194 248 315
#     4   8  14  25  42  66  97 135 180 226 270 319
#     4  10  21  37  56  76 100 135 181 231 281 333
#     4  11  22  35  55  84 117 150 186 232 283 333
#     4   9  19  37  61  90 125 163 198 227 258 308
#     4   9  16  26  42  64  89 117 153 203 264 325
#
# _framework density 20.203171999999999
#
# number of rings (size 3 to 8) (size 9 to 14) (size 15 to 20)
#    0.000    2.857    0.000    3.000    0.000    5.429 
#    0.000    5.000    0.000    1.286    0.000    7.000 
#    0.000    0.000    0.000    0.000    0.000    0.000 
#
# Total GULP energy -693762.697460 kJ/mol
# GULP energy per Si atom -12388.619597 kJ/mol
# Density = 2.015719 g / cm^3
# Si number density = 20.203172 Si / 1000 Ang^3
#
#
#
# Elastic Constant Matrix: (Units=GPa)
#
#
# Indices 1 2 3 4 5 6 
#
# 1 72.0523 20.8157 29.9262 0.0000 0.0000 0.0000
# 2 20.8157 99.2443 48.0147 0.0000 0.0000 0.0000
# 3 29.9262 48.0147 92.1778 0.0000 0.0000 0.0000
# 4 0.0000 0.0000 0.0000 27.6720 0.0000 0.0000
# 5 0.0000 0.0000 0.0000 0.0000 13.4299 0.0000
# 6 0.0000 0.0000 0.0000 0.0000 0.0000 -11.4522
#
#
#
# Elastic Compliance Matrix: (Units=1/GPa)
#
#
# Indices 1 2 3 4 5 6 
#
# 1 0.016137 -0.001136 -0.004647 0.000000 0.000000 0.000000
# 2 -0.001136 0.013551 -0.006690 0.000000 0.000000 0.000000
# 3 -0.004647 -0.006690 0.015842 0.000000 0.000000 0.000000
# 4 0.000000 0.000000 0.000000 0.036138 0.000000 0.000000
# 5 0.000000 0.000000 0.000000 0.000000 0.074461 0.000000
# 6 0.000000 0.000000 0.000000 0.000000 0.000000 -0.087319
#
#
# Mechanical properties :
#
#
# Convention : Reuss Voigt Hill
#
# Bulk Modulus (GPa) = 48.58195 51.22085 49.90140
# Shear Modulus (GPa) = 49.69351 16.91112 33.30232
#
# Velocity S-wave (km/s) = 4.96491 2.89633 4.06442
# Velocity P-wave (km/s) = 7.54758 6.04920 6.83955
#
# Compressibility (1/GPa) = 0.02058378
#
# Stress axis : x y z
#
# Youngs Moduli (GPa) = 61.96844 73.79547 63.12361
#
# Poissons Ratio (x) = 0.08386 0.29335
# Poissons Ratio (y) = 0.07042 0.42228
# Poissons Ratio (z) = 0.28798 0.49367
#
# Static dielectric constant tensor:
#      x y z
#    x 3.768680 0.000000 0.000000 
#    y 0.000000 3.748650 0.000000 
#    z 0.000000 0.000000 3.630870 
# 
# 
# High freq. dielectric constant tensor:
#      x y z
#    x 1.782490 0.000000 0.000000 
#    y 0.000000 1.765660 0.000000 
#    z 0.000000 0.000000 1.786750 
# 
# From -- ./inp_files/7321.got.cif
#   From: 2010.03.12/outbox.cif.g09.slc.cpg/sg47_4_cif.got.tgz:7321.got - 2010.04.14 03:12:58.
