data_PCOD8199069
_publ_section_title
;
Structure prediction by ZEFSAII (Michael W. Deem and Ramdas Pophale) SiO2 
 PCOD8199069
Probable space group: P M M M
;
_chemical_formula_sum "Si O2"
_cell_formula_units_Z 44
_cell_length_a 14.473137
_cell_length_b 19.526839
_cell_length_c 7.758094
_cell_angle_alpha 90.000000
_cell_angle_beta 90.000000
_cell_angle_gamma 90.000000
_cell_volume 2192.550757
_symmetry_space_group_name_H-M "P M M M"
_symmetry_group_IT_number 47
_symmetry_cell_setting 'orthorhombic'
loop_
_space_group_symop_operation_xyz
x,y,z
-x,-y,z
x,-y,-z
-x,y,-z
-x,-y,-z
x,y,-z
-x,y,z
x,-y,z
loop_
_atom_site_type_symbol
_atom_site_label
_atom_site_fract_x
_atom_site_fract_y
_atom_site_fract_z
Si Si1 0.217398 0.924170 0.703532
Si Si2 0.204344 0.660986 0.797113
Si Si3 0.898627 0.796631 0.201182
Si Si4 0.400513 0.139035 0.695890
Si Si5 0.601773 0.710956 0.198648
Si Si6 0.893694 0.580858 0.500000
O O1 0.227030 0.924852 0.500000
O O2 0.137962 0.871600 0.753387
O O3 0.315525 0.900398 0.787173
O O4 0.192427 0.000000 0.773678
O O5 0.168683 0.735933 0.736625
O O6 0.315081 0.658017 0.760638
O O7 0.155333 0.605817 0.675678
O O8 0.182694 0.645878 0.000000
O O9 0.000000 0.787823 0.287130
O O10 0.908895 0.790569 0.000000
O O11 0.406067 0.114307 0.500000
O O12 0.500000 0.122721 0.786378
O O13 0.382338 0.220211 0.694642
O O14 0.500000 0.678537 0.241015
O O15 0.607633 0.732806 0.000000
O O16 0.886813 0.500000 0.500000
O O17 0.000000 0.605614 0.500000
#
# Coordination Sequence:
#
# PCOD8199069 Si02
#       6
#     8   8   8   8   8   4
#     4  10  21  34  48  70 103 143 186 238 298 352
#     4  10  21  39  64  92 124 160 197 242 295 349
#     4  10  21  36  54  77 103 138 188 239 288 343
#     4   9  17  29  47  72 103 141 184 232 288 349
#     4   9  17  30  53  86 118 148 188 240 294 347
#     4  11  26  44  65  97 128 158 198 239 287 349
#
# _framework density 20.067951000000001
#
# number of rings (size 3 to 8) (size 9 to 14) (size 15 to 20)
#    0.000    2.273    1.818    0.545    2.545    2.909 
#    0.000    4.545    0.000    1.091    0.000    6.364 
#    0.000    0.000    0.000    0.000    0.000    0.000 
#
# Total GULP energy -545232.807465 kJ/mol
# GULP energy per Si atom -12391.654715 kJ/mol
# Density = 2.002228 g / cm^3
# Si number density = 20.067951 Si / 1000 Ang^3
#
#
#
# Elastic Constant Matrix: (Units=GPa)
#
#
# Indices 1 2 3 4 5 6 
#
# 1 167.6253 54.5812 37.5768 0.0000 0.0000 0.0000
# 2 54.5812 81.3002 23.1114 0.0000 0.0000 0.0000
# 3 37.5768 23.1114 39.1831 0.0000 0.0000 0.0000
# 4 0.0000 0.0000 0.0000 13.2354 0.0000 0.0000
# 5 0.0000 0.0000 0.0000 0.0000 22.1425 0.0000
# 6 0.0000 0.0000 0.0000 0.0000 0.0000 28.6218
#
#
#
# Elastic Compliance Matrix: (Units=1/GPa)
#
#
# Indices 1 2 3 4 5 6 
#
# 1 0.008616 -0.004128 -0.005828 0.000000 0.000000 0.000000
# 2 -0.004128 0.016755 -0.005924 0.000000 0.000000 0.000000
# 3 -0.005828 -0.005924 0.034605 0.000000 0.000000 0.000000
# 4 0.000000 0.000000 0.000000 0.075555 0.000000 0.000000
# 5 0.000000 0.000000 0.000000 0.000000 0.045162 0.000000
# 6 0.000000 0.000000 0.000000 0.000000 0.000000 0.034938
#
#
# Mechanical properties :
#
#
# Convention : Reuss Voigt Hill
#
# Bulk Modulus (GPa) = 35.44120 57.62748 46.53434
# Shear Modulus (GPa) = 19.47054 24.32256 21.89655
#
# Velocity S-wave (km/s) = 3.11823 3.48517 3.30679
# Velocity P-wave (km/s) = 5.53746 6.70625 6.14968
#
# Compressibility (1/GPa) = 0.02821575
#
# Stress axis : x y z
#
# Youngs Moduli (GPa) = 116.05929 59.68235 28.89758
#
# Poissons Ratio (x) = 0.24635 0.16843
# Poissons Ratio (y) = 0.47906 0.17120
# Poissons Ratio (z) = 0.67644 0.35358
#
# Static dielectric constant tensor:
#      x y z
#    x 4.489200 0.000000 0.000000 
#    y 0.000000 1.824860 0.000000 
#    z 0.000000 0.000000 3.517440 
# 
# 
# High freq. dielectric constant tensor:
#      x y z
#    x 1.805470 0.000000 0.000000 
#    y 0.000000 1.737410 0.000000 
#    z 0.000000 0.000000 1.770120 
# 
# From -- ./inp_files/6062.got.cif
#   From: 2010.03.12/outbox.cif.g09.slc.cpg/sg47_4_cif.got.tgz:6062.got - 2010.04.14 03:12:58.
