data_PCOD8199199
_publ_section_title
;
Structure prediction by ZEFSAII (Michael W. Deem and Ramdas Pophale) SiO2 
 PCOD8199199
Probable space group: P M M M
;
_chemical_formula_sum "Si O2"
_cell_formula_units_Z 64
_cell_length_a 23.341245
_cell_length_b 14.746412
_cell_length_c 9.244525
_cell_angle_alpha 90.000000
_cell_angle_beta 90.000000
_cell_angle_gamma 90.000000
_cell_volume 3181.961949
_symmetry_space_group_name_H-M "P M M M"
_symmetry_group_IT_number 47
_symmetry_cell_setting 'orthorhombic'
loop_
_space_group_symop_operation_xyz
x,y,z
-x,-y,z
x,-y,-z
-x,y,-z
-x,-y,-z
x,y,-z
-x,y,z
x,-y,z
loop_
_atom_site_type_symbol
_atom_site_label
_atom_site_fract_x
_atom_site_fract_y
_atom_site_fract_z
Si Si1 0.672017 0.283307 0.834085
Si Si2 0.238559 0.395843 0.664041
Si Si3 0.435272 0.730054 0.331169
Si Si4 0.733094 0.102617 0.165026
Si Si5 0.566657 0.098172 0.157867
Si Si6 0.065445 0.230534 0.165561
Si Si7 0.847051 0.894383 0.667591
Si Si8 0.105512 0.603421 0.665748
O O1 0.727321 0.332710 0.772798
O O2 0.614630 0.322634 0.755341
O O3 0.680715 0.173821 0.810506
O O4 0.666306 0.309745 0.000000
O O5 0.258020 0.375807 0.500000
O O6 0.250639 0.500000 0.703263
O O7 0.172160 0.372691 0.683424
O O8 0.426746 0.715033 0.500000
O O9 0.500000 0.700163 0.284577
O O10 0.422884 0.834220 0.290343
O O11 0.785541 0.131474 0.266866
O O12 0.712174 0.000000 0.200984
O O13 0.754895 0.108999 0.000000
O O14 0.500000 0.084307 0.138871
O O15 0.594973 0.000000 0.192201
O O16 0.590463 0.134467 0.000000
O O17 0.103029 0.160313 0.255137
O O18 0.069693 0.331434 0.230665
O O19 0.000000 0.197977 0.176010
O O20 0.086502 0.232403 0.000000
O O21 0.845990 0.866926 0.500000
O O22 0.860094 0.000000 0.690678
O O23 0.086554 0.618300 0.500000
O O24 0.093359 0.500000 0.712409
#
# Coordination Sequence:
#
# PCOD8199199 Si02
#       8
#     8   8   8   8   8   8   8   8
#     4  11  22  34  54  83 111 142 179 221 269 319
#     4   9  19  37  60  85 112 140 172 216 272 330
#     4  10  21  35  50  70  99 138 181 220 262 316
#     4   9  19  36  56  80 112 147 182 221 270 330
#     4   8  14  26  44  64  88 122 164 209 255 301
#     4  11  24  38  53  78 113 153 194 233 275 325
#     4  10  21  37  58  82 107 140 185 237 289 334
#     4   9  19  37  61  87 114 146 182 221 270 326
#
# _framework density 20.113378000000001
#
# number of rings (size 3 to 8) (size 9 to 14) (size 15 to 20)
#    0.000    2.375    0.000    3.375    0.000    7.750 
#    0.000    6.250    0.000    0.375    0.000    2.625 
#    0.000    0.000    0.000    0.000    0.000    0.000 
#
# Total GULP energy -793340.309238 kJ/mol
# GULP energy per Si atom -12395.942332 kJ/mol
# Density = 2.006760 g / cm^3
# Si number density = 20.113378 Si / 1000 Ang^3
#
#
#
# Elastic Constant Matrix: (Units=GPa)
#
#
# Indices 1 2 3 4 5 6 
#
# 1 89.7099 22.6574 53.8839 0.0000 0.0000 0.0000
# 2 22.6574 42.7687 29.6335 0.0000 0.0000 0.0000
# 3 53.8839 29.6335 114.2740 0.0000 0.0000 0.0000
# 4 0.0000 0.0000 0.0000 26.1609 0.0000 0.0000
# 5 0.0000 0.0000 0.0000 0.0000 32.8349 0.0000
# 6 0.0000 0.0000 0.0000 0.0000 0.0000 12.4887
#
#
#
# Elastic Compliance Matrix: (Units=1/GPa)
#
#
# Indices 1 2 3 4 5 6 
#
# 1 0.016090 -0.003983 -0.006554 0.000000 0.000000 0.000000
# 2 -0.003983 0.029489 -0.005769 0.000000 0.000000 0.000000
# 3 -0.006554 -0.005769 0.013337 0.000000 0.000000 0.000000
# 4 0.000000 0.000000 0.000000 0.038225 0.000000 0.000000
# 5 0.000000 0.000000 0.000000 0.000000 0.030455 0.000000
# 6 0.000000 0.000000 0.000000 0.000000 0.000000 0.080072
#
#
# Mechanical properties :
#
#
# Convention : Reuss Voigt Hill
#
# Bulk Modulus (GPa) = 38.01663 51.01136 44.51400
# Shear Modulus (GPa) = 20.07650 23.66877 21.87263
#
# Velocity S-wave (km/s) = 3.16280 3.43413 3.30125
# Velocity P-wave (km/s) = 5.68155 6.41415 6.05893
#
# Compressibility (1/GPa) = 0.02630427
#
# Stress axis : x y z
#
# Youngs Moduli (GPa) = 62.15226 33.91135 74.97743
#
# Poissons Ratio (x) = 0.13505 0.49140
# Poissons Ratio (y) = 0.24753 0.43255
# Poissons Ratio (z) = 0.40734 0.19564
#
# Static dielectric constant tensor:
#      x y z
#    x 3.664220 0.000000 0.000000 
#    y 0.000000 3.558120 0.000000 
#    z 0.000000 0.000000 3.637780 
# 
# 
# High freq. dielectric constant tensor:
#      x y z
#    x 1.791900 0.000000 0.000000 
#    y 0.000000 1.766770 0.000000 
#    z 0.000000 0.000000 1.783910 
# 
# From -- ./inp_files/12680.got.cif
#   From: 2010.03.12/outbox.cif.g09.slc.cpg/sg47_7_cif.got.tgz:12680.got - 2010.04.14 03:12:58.
