data_PCOD8199225
_publ_section_title
;
Structure prediction by ZEFSAII (Michael W. Deem and Ramdas Pophale) SiO2 
 PCOD8199225
Probable space group: P M M M
;
_chemical_formula_sum "Si O2"
_cell_formula_units_Z 48
_cell_length_a 30.145115
_cell_length_b 9.799793
_cell_length_c 9.323471
_cell_angle_alpha 90.000000
_cell_angle_beta 90.000000
_cell_angle_gamma 90.000000
_cell_volume 2754.301455
_symmetry_space_group_name_H-M "P M M M"
_symmetry_group_IT_number 47
_symmetry_cell_setting 'orthorhombic'
loop_
_space_group_symop_operation_xyz
x,y,z
-x,-y,z
x,-y,-z
-x,y,-z
-x,-y,-z
x,y,-z
-x,y,z
x,-y,z
loop_
_atom_site_type_symbol
_atom_site_label
_atom_site_fract_x
_atom_site_fract_y
_atom_site_fract_z
Si Si1 0.216477 0.151306 0.170553
Si Si2 0.050323 0.654473 0.668287
Si Si3 0.448181 0.156238 0.163722
Si Si4 0.294587 0.657553 0.832934
Si Si5 0.882239 0.840452 0.164624
Si Si6 0.617490 0.341744 0.332494
O O1 0.252899 0.257540 0.227931
O O2 0.167294 0.194127 0.222608
O O3 0.228449 0.000000 0.228146
O O4 0.216029 0.149254 0.000000
O O5 0.055409 0.675319 0.500000
O O6 0.062935 0.500000 0.711376
O O7 0.082545 0.758324 0.744929
O O8 0.000000 0.686049 0.716101
O O9 0.500000 0.177119 0.191552
O O10 0.422958 0.254477 0.272180
O O11 0.434605 0.000000 0.194383
O O12 0.436222 0.194795 0.000000
O O13 0.283551 0.500000 0.805358
O O14 0.337656 0.704746 0.746035
O O15 0.303408 0.687641 0.000000
O O16 0.891918 0.000000 0.183000
O O17 0.886935 0.795955 0.000000
O O18 0.622932 0.312485 0.500000
O O19 0.607361 0.500000 0.301292
#
# Coordination Sequence:
#
# PCOD8199225 Si02
#       6
#     8   8   8   8   8   8
#     4   8  15  29  48  70  96 124 155 195 242 288
#     4   9  19  35  51  68  94 128 165 203 242 287
#     4   9  19  36  56  77 100 127 163 206 248 291
#     4   9  17  30  49  71  94 124 164 204 239 280
#     4   9  18  32  50  74 102 128 157 197 244 293
#     4  10  21  35  50  72 104 137 166 199 242 291
#
# _framework density 17.427285000000001
#
# number of rings (size 3 to 8) (size 9 to 14) (size 15 to 20)
#    0.000    3.000    0.000    2.500    0.000    4.667 
#    0.000    9.167    0.000    3.000    0.000    0.000 
#    0.000    0.000    0.000    0.000    0.000    0.000 
#
# Total GULP energy -595140.624355 kJ/mol
# GULP energy per Si atom -12398.763007 kJ/mol
# Density = 1.738762 g / cm^3
# Si number density = 17.427285 Si / 1000 Ang^3
#
#
#
# Elastic Constant Matrix: (Units=GPa)
#
#
# Indices 1 2 3 4 5 6 
#
# 1 117.5520 70.0791 51.5122 0.0000 0.0000 0.0000
# 2 70.0791 76.3589 41.1930 0.0000 0.0000 0.0000
# 3 51.5122 41.1930 57.3476 0.0000 0.0000 0.0000
# 4 0.0000 0.0000 0.0000 28.0169 0.0000 0.0000
# 5 0.0000 0.0000 0.0000 0.0000 -11.3800 0.0000
# 6 0.0000 0.0000 0.0000 0.0000 0.0000 54.7640
#
#
#
# Elastic Compliance Matrix: (Units=1/GPa)
#
#
# Indices 1 2 3 4 5 6 
#
# 1 0.020882 -0.014769 -0.008149 0.000000 0.000000 0.000000
# 2 -0.014769 0.031827 -0.009595 0.000000 0.000000 0.000000
# 3 -0.008149 -0.009595 0.031649 0.000000 0.000000 0.000000
# 4 0.000000 0.000000 0.000000 0.035693 0.000000 0.000000
# 5 0.000000 0.000000 0.000000 0.000000 -0.087874 0.000000
# 6 0.000000 0.000000 0.000000 0.000000 0.000000 0.018260
#
#
# Mechanical properties :
#
#
# Convention : Reuss Voigt Hill
#
# Bulk Modulus (GPa) = 51.72612 64.09191 57.90901
# Shear Modulus (GPa) = 41.01471 20.17845 30.59658
#
# Velocity S-wave (km/s) = 4.85653 3.40643 4.19462
# Velocity P-wave (km/s) = 7.82262 7.23383 7.53398
#
# Compressibility (1/GPa) = 0.01933259
#
# Stress axis : x y z
#
# Youngs Moduli (GPa) = 47.88738 31.42027 31.59623
#
# Poissons Ratio (x) = 0.46404 0.25747
# Poissons Ratio (y) = 0.70725 0.30317
# Poissons Ratio (z) = 0.39023 0.30148
#
# Static dielectric constant tensor:
#      x y z
#    x 3.344470 0.000000 0.000000 
#    y 0.000000 3.284800 0.000000 
#    z 0.000000 0.000000 3.024030 
# 
# 
# High freq. dielectric constant tensor:
#      x y z
#    x 1.680300 0.000000 0.000000 
#    y 0.000000 1.674150 0.000000 
#    z 0.000000 0.000000 1.652150 
# 
# From -- ./inp_files/2473.got.cif
#   From: 2010.03.12/outbox.cif.g09.slc.cpg/sg47_2_cif.got.tgz:2473.got - 2010.04.14 03:12:58.
