data_PCOD8199501
_publ_section_title
;
Structure prediction by ZEFSAII (Michael W. Deem and Ramdas Pophale) SiO2 
 PCOD8199501
Probable space group: P M M M
;
_chemical_formula_sum "Si O2"
_cell_formula_units_Z 48
_cell_length_a 30.808746
_cell_length_b 9.258805
_cell_length_c 9.239641
_cell_angle_alpha 90.000000
_cell_angle_beta 90.000000
_cell_angle_gamma 90.000000
_cell_volume 2635.627659
_symmetry_space_group_name_H-M "P M M M"
_symmetry_group_IT_number 47
_symmetry_cell_setting 'orthorhombic'
loop_
_space_group_symop_operation_xyz
x,y,z
-x,-y,z
x,-y,-z
-x,y,-z
-x,-y,-z
x,y,-z
-x,y,z
x,-y,z
loop_
_atom_site_type_symbol
_atom_site_label
_atom_site_fract_x
_atom_site_fract_y
_atom_site_fract_z
Si Si1 0.000000 0.662957 0.827877
Si Si2 0.245203 0.669752 0.167183
Si Si3 0.668903 0.834048 0.168320
Si Si4 0.916332 0.167600 0.167271
Si Si5 0.500000 0.663149 0.327672
Si Si6 0.170490 0.833400 0.330043
Si Si7 0.583425 0.166841 0.669259
O O1 0.042937 0.743210 0.770692
O O2 0.000000 0.500000 0.768591
O O3 0.000000 0.668145 0.000000
O O4 0.247804 0.500000 0.192490
O O5 0.290472 0.738632 0.218348
O O6 0.207647 0.734012 0.265310
O O7 0.235824 0.708682 0.000000
O O8 0.626829 0.777547 0.253131
O O9 0.679195 0.000000 0.207654
O O10 0.659195 0.814188 0.000000
O O11 0.874773 0.214479 0.259426
O O12 0.927470 0.000000 0.187559
O O13 0.906804 0.204541 0.000000
O O14 0.500000 0.500000 0.269357
O O15 0.500000 0.669303 0.500000
O O16 0.542840 0.743127 0.268793
O O17 0.167421 0.806819 0.500000
O O18 0.180754 0.000000 0.292827
O O19 0.589815 0.192896 0.500000
O O20 0.574406 0.000000 0.705176
#
# Coordination Sequence:
#
# PCOD8199501 Si02
#       7
#     4   8   8   8   4   8   8
#     4   9  17  29  48  75 102 128 164 209 250 291
#     4  10  21  36  54  76 102 134 170 207 251 304
#     4   9  18  33  52  73  98 128 162 202 248 296
#     4   9  17  31  52  75  99 130 168 208 250 296
#     4   9  17  29  46  69  96 126 160 197 238 286
#     4  10  21  36  54  77 104 134 170 212 256 301
#     4   9  17  30  49  71  94 123 161 202 241 284
#
# _framework density 18.211981000000002
#
# number of rings (size 3 to 8) (size 9 to 14) (size 15 to 20)
#    0.000    2.667    0.000    1.500    0.000    6.000 
#    0.000    4.167    0.000    5.000    0.000    0.000 
#    0.000    0.000    0.000    0.000    0.000    0.000 
#
# Total GULP energy -595322.345611 kJ/mol
# GULP energy per Si atom -12402.548867 kJ/mol
# Density = 1.817053 g / cm^3
# Si number density = 18.211981 Si / 1000 Ang^3
#
#
#
# Elastic Constant Matrix: (Units=GPa)
#
#
# Indices 1 2 3 4 5 6 
#
# 1 189.8637 91.3180 64.1367 0.0000 0.0000 0.0000
# 2 91.3180 96.5567 40.6079 0.0000 0.0000 0.0000
# 3 64.1367 40.6079 53.3899 0.0000 0.0000 0.0000
# 4 0.0000 0.0000 0.0000 18.7867 0.0000 0.0000
# 5 0.0000 0.0000 0.0000 0.0000 -56.5463 0.0000
# 6 0.0000 0.0000 0.0000 0.0000 0.0000 9.1523
#
#
#
# Elastic Compliance Matrix: (Units=1/GPa)
#
#
# Indices 1 2 3 4 5 6 
#
# 1 0.011728 -0.007596 -0.008311 0.000000 0.000000 0.000000
# 2 -0.007596 0.020148 -0.006199 0.000000 0.000000 0.000000
# 3 -0.008311 -0.006199 0.033429 0.000000 0.000000 0.000000
# 4 0.000000 0.000000 0.000000 0.053229 0.000000 0.000000
# 5 0.000000 0.000000 0.000000 0.000000 -0.017685 0.000000
# 6 0.000000 0.000000 0.000000 0.000000 0.000000 0.109262
#
#
# Mechanical properties :
#
#
# Convention : Reuss Voigt Hill
#
# Bulk Modulus (GPa) = 47.41077 81.32617 64.36847
# Shear Modulus (GPa) = 19.13111 3.86173 11.49642
#
# Velocity S-wave (km/s) = 3.24461 1.45775 2.51521
# Velocity P-wave (km/s) = 6.33450 6.89823 6.62237
#
# Compressibility (1/GPa) = 0.02109225
#
# Stress axis : x y z
#
# Youngs Moduli (GPa) = 85.26565 49.63296 29.91444
#
# Poissons Ratio (x) = 0.37704 0.24862
# Poissons Ratio (y) = 0.64772 0.18543
# Poissons Ratio (z) = 0.70864 0.30766
#
# Static dielectric constant tensor:
#      x y z
#    x 3.537750 0.000000 0.000000 
#    y 0.000000 3.368430 0.000000 
#    z 0.000000 0.000000 3.132220 
# 
# 
# High freq. dielectric constant tensor:
#      x y z
#    x 1.719030 0.000000 0.000000 
#    y 0.000000 1.702760 0.000000 
#    z 0.000000 0.000000 1.680490 
# 
# From -- ./inp_files/2752.got.cif
#   From: 2010.03.12/outbox.cif.g09.slc.cpg/sg47_2_cif.got.tgz:2752.got - 2010.04.14 03:12:58.
