data_PCOD8199636
_publ_section_title
;
Structure prediction by ZEFSAII (Michael W. Deem and Ramdas Pophale) SiO2 
 PCOD8199636
Probable space group: P M M M
;
_chemical_formula_sum "Si O2"
_cell_formula_units_Z 40
_cell_length_a 9.545992
_cell_length_b 14.972035
_cell_length_c 13.241175
_cell_angle_alpha 90.000000
_cell_angle_beta 90.000000
_cell_angle_gamma 90.000000
_cell_volume 1892.467479
_symmetry_space_group_name_H-M "P M M M"
_symmetry_group_IT_number 47
_symmetry_cell_setting 'orthorhombic'
loop_
_space_group_symop_operation_xyz
x,y,z
-x,-y,z
x,-y,-z
-x,y,-z
-x,-y,-z
x,y,-z
-x,y,z
x,-y,z
loop_
_atom_site_type_symbol
_atom_site_label
_atom_site_fract_x
_atom_site_fract_y
_atom_site_fract_z
Si Si1 0.500000 0.600141 0.117436
Si Si2 0.661744 0.902057 0.180089
Si Si3 0.154962 0.664310 0.318891
Si Si4 0.234011 0.282194 0.113828
Si Si5 0.657960 0.178807 0.388825
Si Si6 0.665587 0.500000 0.381405
O O1 0.500000 0.500000 0.169178
O O2 0.631347 0.660512 0.147212
O O3 0.500000 0.582881 0.000000
O O4 0.500000 0.895930 0.150222
O O5 0.739364 0.824205 0.118700
O O6 0.682343 0.893422 0.301094
O O7 0.721123 0.000000 0.149266
O O8 0.126137 0.689785 0.200813
O O9 0.226645 0.744510 0.379182
O O10 0.260801 0.583111 0.329094
O O11 0.000000 0.643928 0.364075
O O12 0.181778 0.305322 0.000000
O O13 0.675723 0.134463 0.500000
O O14 0.500000 0.219215 0.378337
O O15 0.500000 0.500000 0.359080
O O16 0.696207 0.500000 0.500000
#
# Coordination Sequence:
#
# PCOD8199636 Si02
#       6
#     4   8   8   8   8   4
#     4   9  18  32  53  81 107 144 194 240 285 336
#     4   9  17  30  51  83 120 151 186 242 306 362
#     4  11  24  38  57  85 117 155 195 241 292 344
#     4  10  21  36  55  81 116 155 198 242 292 351
#     4   9  18  34  56  81 111 148 191 238 292 354
#     4  11  25  43  64  89 118 154 194 238 290 347
#
# _framework density 21.136427999999999
#
# number of rings (size 3 to 8) (size 9 to 14) (size 15 to 20)
#    0.000    2.200    1.000    1.500    4.200    4.800 
#    0.000    3.000    0.000   10.800    0.000   11.200 
#    0.000    0.000    0.000    0.000    0.000    0.000 
#
# Total GULP energy -495584.134482 kJ/mol
# GULP energy per Si atom -12389.603362 kJ/mol
# Density = 2.108832 g / cm^3
# Si number density = 21.136428 Si / 1000 Ang^3
#
#
#
# Elastic Constant Matrix: (Units=GPa)
#
#
# Indices 1 2 3 4 5 6 
#
# 1 93.1981 35.3639 4.7994 0.0000 0.0000 0.0000
# 2 35.3639 124.5065 4.2715 0.0000 0.0000 0.0000
# 3 4.7994 4.2715 103.0717 0.0000 0.0000 0.0000
# 4 0.0000 0.0000 0.0000 16.6697 0.0000 0.0000
# 5 0.0000 0.0000 0.0000 0.0000 12.4087 0.0000
# 6 0.0000 0.0000 0.0000 0.0000 0.0000 4.4325
#
#
#
# Elastic Compliance Matrix: (Units=1/GPa)
#
#
# Indices 1 2 3 4 5 6 
#
# 1 0.012044 -0.003406 -0.000420 0.000000 0.000000 0.000000
# 2 -0.003406 0.009007 -0.000215 0.000000 0.000000 0.000000
# 3 -0.000420 -0.000215 0.009730 0.000000 0.000000 0.000000
# 4 0.000000 0.000000 0.000000 0.059989 0.000000 0.000000
# 5 0.000000 0.000000 0.000000 0.000000 0.080589 0.000000
# 6 0.000000 0.000000 0.000000 0.000000 0.000000 0.225606
#
#
# Mechanical properties :
#
#
# Convention : Reuss Voigt Hill
#
# Bulk Modulus (GPa) = 44.05376 45.51619 44.78497
# Shear Modulus (GPa) = 12.11790 25.12495 18.62143
#
# Velocity S-wave (km/s) = 2.39700 3.45150 2.97140
# Velocity P-wave (km/s) = 5.34309 6.12087 5.74516
#
# Compressibility (1/GPa) = 0.02269954
#
# Stress axis : x y z
#
# Youngs Moduli (GPa) = 83.02866 111.02933 102.77052
#
# Poissons Ratio (x) = 0.37822 0.04313
# Poissons Ratio (y) = 0.28284 0.02206
# Poissons Ratio (z) = 0.03484 0.02383
#
# Static dielectric constant tensor:
#      x y z
#    x 3.555180 0.000000 0.000000 
#    y 0.000000 4.701680 0.000000 
#    z 0.000000 0.000000 3.897370 
# 
# 
# High freq. dielectric constant tensor:
#      x y z
#    x 1.797460 0.000000 0.000000 
#    y 0.000000 1.817980 0.000000 
#    z 0.000000 0.000000 1.842060 
# 
# From -- ./inp_files/20668.got.cif
#   From: 2010.03.12/outbox.cif.g09.slc.cpg/sg47_11_cif.got.tgz:20668.got - 2010.04.14 03:12:58.
