data_PCOD8199585
_publ_section_title
;
Structure prediction by ZEFSAII (Michael W. Deem and Ramdas Pophale) SiO2 
 PCOD8199585
Probable space group: P M M M
;
_chemical_formula_sum "Si O2"
_cell_formula_units_Z 52
_cell_length_a 9.429780
_cell_length_b 20.207426
_cell_length_c 14.427734
_cell_angle_alpha 90.000000
_cell_angle_beta 90.000000
_cell_angle_gamma 90.000000
_cell_volume 2749.227532
_symmetry_space_group_name_H-M "P M M M"
_symmetry_group_IT_number 47
_symmetry_cell_setting 'orthorhombic'
loop_
_space_group_symop_operation_xyz
x,y,z
-x,-y,z
x,-y,-z
-x,y,-z
-x,-y,-z
x,y,-z
-x,y,z
x,-y,z
loop_
_atom_site_type_symbol
_atom_site_label
_atom_site_fract_x
_atom_site_fract_y
_atom_site_fract_z
Si Si1 0.158572 0.421504 0.097816
Si Si2 0.168702 0.576109 0.702042
Si Si3 0.663476 0.185812 0.709948
Si Si4 0.662387 0.125089 0.895836
Si Si5 0.336737 0.314660 0.393539
Si Si6 0.163659 0.075172 0.393075
Si Si7 0.158148 0.000000 0.109565
O O1 0.150170 0.500000 0.101352
O O2 0.227971 0.399788 0.195878
O O3 0.000000 0.392603 0.094440
O O4 0.236169 0.399442 0.000000
O O5 0.209229 0.500000 0.682570
O O6 0.244669 0.620141 0.625133
O O7 0.000000 0.585537 0.696781
O O8 0.500000 0.178956 0.681026
O O9 0.682707 0.184807 0.822161
O O10 0.722620 0.254812 0.669885
O O11 0.743155 0.123806 0.667359
O O12 0.500000 0.100310 0.895886
O O13 0.758993 0.065266 0.858717
O O14 0.705630 0.148661 0.000000
O O15 0.317095 0.293846 0.500000
O O16 0.500000 0.330597 0.370425
O O17 0.207649 0.082243 0.500000
O O18 0.000000 0.094115 0.379813
O O19 0.191019 0.000000 0.359075
O O20 0.000000 0.000000 0.153597
O O21 0.148852 0.000000 0.000000
#
# Coordination Sequence:
#
# PCOD8199585 Si02
#       7
#     8   8   8   8   8   8   4
#     4   7  10  20  42  72 104 134 161 193 238 291
#     4   9  18  33  55  83 109 133 170 218 260 307
#     4  10  21  36  55  76 100 135 179 218 253 303
#     4   9  18  33  52  74 103 138 175 215 258 306
#     4  10  22  39  55  73 102 138 174 216 269 323
#     4   9  19  35  53  76 106 135 165 209 265 314
#     4   9  17  29  47  73 104 137 172 211 255 300
#
# _framework density 18.914404999999999
#
# number of rings (size 3 to 8) (size 9 to 14) (size 15 to 20)
#    0.000    3.000    0.000    2.538    1.077    4.308 
#    0.000    3.077    0.000    1.385    0.000    2.154 
#    0.000    0.000    0.000    0.000    0.000    0.000 
#
# Total GULP energy -644289.846156 kJ/mol
# GULP energy per Si atom -12390.189349 kJ/mol
# Density = 1.887135 g / cm^3
# Si number density = 18.914405 Si / 1000 Ang^3
#
#
#
# Elastic Constant Matrix: (Units=GPa)
#
#
# Indices 1 2 3 4 5 6 
#
# 1 50.9152 38.9687 34.2064 0.0000 0.0000 0.0000
# 2 38.9687 94.2549 58.5042 0.0000 0.0000 0.0000
# 3 34.2064 58.5042 97.6651 0.0000 0.0000 0.0000
# 4 0.0000 0.0000 0.0000 30.3037 0.0000 0.0000
# 5 0.0000 0.0000 0.0000 0.0000 21.1496 0.0000
# 6 0.0000 0.0000 0.0000 0.0000 0.0000 21.0671
#
#
#
# Elastic Compliance Matrix: (Units=1/GPa)
#
#
# Indices 1 2 3 4 5 6 
#
# 1 0.030150 -0.009409 -0.004923 0.000000 0.000000 0.000000
# 2 -0.009409 0.019826 -0.008581 0.000000 0.000000 0.000000
# 3 -0.004923 -0.008581 0.017104 0.000000 0.000000 0.000000
# 4 0.000000 0.000000 0.000000 0.032999 0.000000 0.000000
# 5 0.000000 0.000000 0.000000 0.000000 0.047282 0.000000
# 6 0.000000 0.000000 0.000000 0.000000 0.000000 0.047467
#
#
# Mechanical properties :
#
#
# Convention : Reuss Voigt Hill
#
# Bulk Modulus (GPa) = 47.05324 56.24374 51.64849
# Shear Modulus (GPa) = 20.18262 21.91448 21.04855
#
# Velocity S-wave (km/s) = 3.27012 3.40753 3.33953
# Velocity P-wave (km/s) = 6.26012 6.72920 6.49890
#
# Compressibility (1/GPa) = 0.02125252
#
# Stress axis : x y z
#
# Youngs Moduli (GPa) = 33.16801 50.43969 58.46754
#
# Poissons Ratio (x) = 0.47459 0.28785
# Poissons Ratio (y) = 0.31208 0.50169
# Poissons Ratio (z) = 0.16330 0.43281
#
# Static dielectric constant tensor:
#      x y z
#    x 3.263410 0.000000 0.000000 
#    y 0.000000 3.169780 0.000000 
#    z 0.000000 0.000000 3.837820 
# 
# 
# High freq. dielectric constant tensor:
#      x y z
#    x 1.707500 0.000000 0.000000 
#    y 0.000000 1.703490 0.000000 
#    z 0.000000 0.000000 1.755110 
# 
# From -- ./inp_files/21396.got.cif
#   From: 2010.03.12/outbox.cif.g09.slc.cpg/sg47_11_cif.got.tgz:21396.got - 2010.04.14 03:12:58.
