data_PCOD8199669
_publ_section_title
;
Structure prediction by ZEFSAII (Michael W. Deem and Ramdas Pophale) SiO2 
 PCOD8199669
Probable space group: P M M M
;
_chemical_formula_sum "Si O2"
_cell_formula_units_Z 64
_cell_length_a 25.053239
_cell_length_b 8.765953
_cell_length_c 14.850416
_cell_angle_alpha 90.000000
_cell_angle_beta 90.000000
_cell_angle_gamma 90.000000
_cell_volume 3261.381766
_symmetry_space_group_name_H-M "P M M M"
_symmetry_group_IT_number 47
_symmetry_cell_setting 'orthorhombic'
loop_
_space_group_symop_operation_xyz
x,y,z
-x,-y,z
x,-y,-z
-x,y,-z
-x,-y,-z
x,y,-z
-x,y,z
x,-y,z
loop_
_atom_site_type_symbol
_atom_site_label
_atom_site_fract_x
_atom_site_fract_y
_atom_site_fract_z
Si Si1 0.941726 0.323020 0.782776
Si Si2 0.918505 0.820167 0.598969
Si Si3 0.560406 0.821929 0.395174
Si Si4 0.441145 0.680684 0.097646
Si Si5 0.201902 0.819149 0.596205
Si Si6 0.634399 0.319033 0.251068
Si Si7 0.251834 0.181801 0.776828
Si Si8 0.840259 0.681244 0.104205
O O1 0.930353 0.500000 0.772072
O O2 0.947948 0.255228 0.682700
O O3 0.892968 0.254593 0.842747
O O4 0.000000 0.294150 0.829544
O O5 0.942821 0.776470 0.500000
O O6 0.858193 0.760265 0.602291
O O7 0.922112 0.000000 0.612086
O O8 0.568142 0.786224 0.500000
O O9 0.500000 0.770612 0.366037
O O10 0.608033 0.731888 0.345202
O O11 0.567710 0.000000 0.375633
O O12 0.500000 0.750778 0.108967
O O13 0.444076 0.500000 0.105814
O O14 0.405087 0.746837 0.175819
O O15 0.417591 0.727265 0.000000
O O16 0.226974 0.765238 0.500000
O O17 0.233427 0.751447 0.680201
O O18 0.202638 0.000000 0.600796
O O19 0.642286 0.500000 0.251350
O O20 0.688391 0.240251 0.218579
O O21 0.213753 0.248125 0.854602
O O22 0.249672 0.000000 0.782919
O O23 0.836628 0.500000 0.111550
O O24 0.844841 0.732256 0.000000
#
# Coordination Sequence:
#
# PCOD8199669 Si02
#       8
#     8   8   8   8   8   8   8   8
#     4  10  21  36  56  84 116 146 179 225 280 337
#     4   9  17  32  55  81 109 144 184 220 259 315
#     4   9  19  37  59  82 113 157 204 245 289 341
#     4   8  15  30  52  76 102 135 175 217 264 320
#     4   8  15  30  53  77 100 132 175 219 262 310
#     4  11  22  34  53  84 118 148 184 232 286 342
#     4  11  22  37  58  82 110 146 187 231 279 334
#     4  10  22  41  62  81 106 143 187 235 287 342
#
# _framework density 19.623584999999999
#
# number of rings (size 3 to 8) (size 9 to 14) (size 15 to 20)
#    0.000    2.500    1.250    2.625    0.000    3.250 
#    0.000    5.625    0.000    2.250    0.000    6.125 
#    0.000    0.000    0.000    0.000    0.000    0.000 
#
# Total GULP energy -792943.490757 kJ/mol
# GULP energy per Si atom -12389.742043 kJ/mol
# Density = 1.957892 g / cm^3
# Si number density = 19.623585 Si / 1000 Ang^3
#
#
#
# Elastic Constant Matrix: (Units=GPa)
#
#
# Indices 1 2 3 4 5 6 
#
# 1 127.2887 27.8324 68.4355 0.0000 0.0000 0.0000
# 2 27.8324 35.1160 30.1153 0.0000 0.0000 0.0000
# 3 68.4355 30.1153 138.5536 0.0000 0.0000 0.0000
# 4 0.0000 0.0000 0.0000 24.6182 0.0000 0.0000
# 5 0.0000 0.0000 0.0000 0.0000 11.2087 0.0000
# 6 0.0000 0.0000 0.0000 0.0000 0.0000 22.8212
#
#
#
# Elastic Compliance Matrix: (Units=1/GPa)
#
#
# Indices 1 2 3 4 5 6 
#
# 1 0.011414 -0.005177 -0.004513 0.000000 0.000000 0.000000
# 2 -0.005177 0.037349 -0.005561 0.000000 0.000000 0.000000
# 3 -0.004513 -0.005561 0.010655 0.000000 0.000000 0.000000
# 4 0.000000 0.000000 0.000000 0.040620 0.000000 0.000000
# 5 0.000000 0.000000 0.000000 0.000000 0.089217 0.000000
# 6 0.000000 0.000000 0.000000 0.000000 0.000000 0.043819
#
#
# Mechanical properties :
#
#
# Convention : Reuss Voigt Hill
#
# Bulk Modulus (GPa) = 34.58102 61.52495 48.05298
# Shear Modulus (GPa) = 18.30065 23.36798 20.83431
#
# Velocity S-wave (km/s) = 3.05714 3.45456 3.26191
# Velocity P-wave (km/s) = 5.48834 6.87987 6.22312
#
# Compressibility (1/GPa) = 0.02891760
#
# Stress axis : x y z
#
# Youngs Moduli (GPa) = 87.60979 26.77433 93.85209
#
# Poissons Ratio (x) = 0.13860 0.42352
# Poissons Ratio (y) = 0.45353 0.52192
# Poissons Ratio (z) = 0.39535 0.14889
#
# Static dielectric constant tensor:
#      x y z
#    x 3.726170 0.000000 0.000000 
#    y 0.000000 3.195380 0.000000 
#    z 0.000000 0.000000 3.958210 
# 
# 
# High freq. dielectric constant tensor:
#      x y z
#    x 1.768430 0.000000 0.000000 
#    y 0.000000 1.731230 0.000000 
#    z 0.000000 0.000000 1.773210 
# 
# From -- ./inp_files/12758.got.cif
#   From: 2010.03.12/outbox.cif.g09.slc.cpg/sg47_7_cif.got.tgz:12758.got - 2010.04.14 03:12:58.
