data_PCOD8199577
_publ_section_title
;
Structure prediction by ZEFSAII (Michael W. Deem and Ramdas Pophale) SiO2 
 PCOD8199577
Probable space group: P M M M
;
_chemical_formula_sum "Si O2"
_cell_formula_units_Z 56
_cell_length_a 9.115339
_cell_length_b 21.002167
_cell_length_c 15.021395
_cell_angle_alpha 90.000000
_cell_angle_beta 90.000000
_cell_angle_gamma 90.000000
_cell_volume 2875.723978
_symmetry_space_group_name_H-M "P M M M"
_symmetry_group_IT_number 47
_symmetry_cell_setting 'orthorhombic'
loop_
_space_group_symop_operation_xyz
x,y,z
-x,-y,z
x,-y,-z
-x,y,-z
-x,-y,-z
x,y,-z
-x,y,z
x,-y,z
loop_
_atom_site_type_symbol
_atom_site_label
_atom_site_fract_x
_atom_site_fract_y
_atom_site_fract_z
Si Si1 0.668701 0.072016 0.348544
Si Si2 0.825952 0.500000 0.102116
Si Si3 0.171611 0.929703 0.000000
Si Si4 0.665967 0.575204 0.599559
Si Si5 0.166681 0.806366 0.600167
Si Si6 0.663337 0.125695 0.158637
Si Si7 0.174145 0.384011 0.226477
Si Si8 0.669169 0.740958 0.245557
O O1 0.500000 0.085479 0.374965
O O2 0.770148 0.121836 0.399923
O O3 0.689454 0.081026 0.243367
O O4 0.714026 0.000000 0.374429
O O5 0.771040 0.562111 0.156679
O O6 0.000000 0.500000 0.098894
O O7 0.764184 0.500000 0.000000
O O8 0.217638 0.891416 0.086442
O O9 0.000000 0.935504 0.000000
O O10 0.243717 0.000000 0.000000
O O11 0.711674 0.598142 0.500000
O O12 0.500000 0.597922 0.620842
O O13 0.674546 0.500000 0.603903
O O14 0.776692 0.602747 0.672361
O O15 0.172594 0.780248 0.500000
O O16 0.260618 0.757660 0.658985
O O17 0.000000 0.808318 0.636035
O O18 0.500000 0.114765 0.120579
O O19 0.686915 0.199341 0.181152
O O20 0.247486 0.317453 0.197947
O O21 0.000000 0.378221 0.224493
O O22 0.500000 0.723320 0.261492
#
# Coordination Sequence:
#
# PCOD8199577 Si02
#       8
#     8   4   4   8   8   8   8   8
#     4   9  18  33  54  79 107 144 189 233 280 334
#     4   9  20  40  62  87 120 152 185 227 278 339
#     4  11  23  35  53  85 117 142 175 222 277 337
#     4   9  18  33  54  81 115 153 189 228 278 335
#     4  10  21  36  54  79 112 148 189 236 281 330
#     4   9  19  37  57  76 104 143 185 228 275 329
#     4  11  21  36  61  89 117 151 190 235 285 337
#     4  10  22  40  60  81 109 147 189 233 280 334
#
# _framework density 19.473357
#
# number of rings (size 3 to 8) (size 9 to 14) (size 15 to 20)
#    0.000    2.286    0.714    3.214    0.000    6.571 
#    1.286    2.143    0.000    3.000    0.000    0.000 
#    0.000    0.000    0.000    0.000    0.000    0.000 
#
# Total GULP energy -694370.384229 kJ/mol
# GULP energy per Si atom -12399.471147 kJ/mol
# Density = 1.942903 g / cm^3
# Si number density = 19.473357 Si / 1000 Ang^3
#
#
#
# Elastic Constant Matrix: (Units=GPa)
#
#
# Indices 1 2 3 4 5 6 
#
# 1 97.9959 42.8672 40.7817 0.0000 0.0000 0.0000
# 2 42.8672 104.5179 37.0468 0.0000 0.0000 0.0000
# 3 40.7817 37.0468 93.6208 0.0000 0.0000 0.0000
# 4 0.0000 0.0000 0.0000 12.9475 0.0000 0.0000
# 5 0.0000 0.0000 0.0000 0.0000 28.7387 0.0000
# 6 0.0000 0.0000 0.0000 0.0000 0.0000 34.6879
#
#
#
# Elastic Compliance Matrix: (Units=1/GPa)
#
#
# Indices 1 2 3 4 5 6 
#
# 1 0.013835 -0.004115 -0.004398 0.000000 0.000000 0.000000
# 2 -0.004115 0.012353 -0.003095 0.000000 0.000000 0.000000
# 3 -0.004398 -0.003095 0.013822 0.000000 0.000000 0.000000
# 4 0.000000 0.000000 0.000000 0.077235 0.000000 0.000000
# 5 0.000000 0.000000 0.000000 0.000000 0.034796 0.000000
# 6 0.000000 0.000000 0.000000 0.000000 0.000000 0.028828
#
#
# Mechanical properties :
#
#
# Convention : Reuss Voigt Hill
#
# Bulk Modulus (GPa) = 59.55195 59.72513 59.63854
# Shear Modulus (GPa) = 23.84530 26.97075 25.40803
#
# Velocity S-wave (km/s) = 3.50310 3.72561 3.61606
# Velocity P-wave (km/s) = 6.85637 7.01738 6.93734
#
# Compressibility (1/GPa) = 0.01679206
#
# Stress axis : x y z
#
# Youngs Moduli (GPa) = 72.28017 80.95304 72.34772
#
# Poissons Ratio (x) = 0.33316 0.31819
# Poissons Ratio (y) = 0.29746 0.22395
# Poissons Ratio (z) = 0.31790 0.25059
#
# Static dielectric constant tensor:
#      x y z
#    x 3.507920 0.000000 0.000000 
#    y 0.000000 3.667970 0.000000 
#    z 0.000000 0.000000 4.229170 
# 
# 
# High freq. dielectric constant tensor:
#      x y z
#    x 1.752730 0.000000 0.000000 
#    y 0.000000 1.764020 0.000000 
#    z 0.000000 0.000000 1.747180 
# 
# From -- ./inp_files/21654.got.cif
#   From: 2010.03.12/outbox.cif.g09.slc.cpg/sg47_11_cif.got.tgz:21654.got - 2010.04.14 03:12:58.
