data_PCOD8199159
_publ_section_title
;
Structure prediction by ZEFSAII (Michael W. Deem and Ramdas Pophale) SiO2 
 PCOD8199159
Probable space group: P M M M
;
_chemical_formula_sum "Si O2"
_cell_formula_units_Z 44
_cell_length_a 9.421577
_cell_length_b 9.182402
_cell_length_c 28.562361
_cell_angle_alpha 90.000000
_cell_angle_beta 90.000000
_cell_angle_gamma 90.000000
_cell_volume 2471.007182
_symmetry_space_group_name_H-M "P M M M"
_symmetry_group_IT_number 47
_symmetry_cell_setting 'orthorhombic'
loop_
_space_group_symop_operation_xyz
x,y,z
-x,-y,z
x,-y,-z
-x,y,-z
-x,-y,-z
x,y,-z
-x,y,z
x,-y,z
loop_
_atom_site_type_symbol
_atom_site_label
_atom_site_fract_x
_atom_site_fract_y
_atom_site_fract_z
Si Si1 0.654384 0.328184 0.000000
Si Si2 0.159308 0.326770 0.448154
Si Si3 0.669402 0.333412 0.898771
Si Si4 0.164026 0.330535 0.273556
Si Si5 0.659824 0.673611 0.362422
Si Si6 0.836906 0.170662 0.820196
O O1 0.729872 0.286769 0.049331
O O2 0.632206 0.500000 0.000000
O O3 0.500000 0.252610 0.000000
O O4 0.209035 0.275681 0.500000
O O5 0.159750 0.500000 0.445770
O O6 0.265013 0.262475 0.409009
O O7 0.000000 0.269948 0.438082
O O8 0.500000 0.315444 0.897292
O O9 0.711807 0.500000 0.887286
O O10 0.740546 0.226777 0.862103
O O11 0.192385 0.500000 0.264253
O O12 0.255930 0.271222 0.316884
O O13 0.214258 0.244780 0.227730
O O14 0.000000 0.300374 0.285409
O O15 0.500000 0.734331 0.360518
O O16 0.661321 0.500000 0.363841
O O17 0.000000 0.211609 0.830668
O O18 0.814887 0.000000 0.814823
#
# Coordination Sequence:
#
# PCOD8199159 Si02
#       6
#     4   8   8   8   8   8
#     4   7  12  26  48  73  98 122 152 191 230 269
#     4   8  13  21  33  50  76 112 148 177 211 262
#     4   9  17  31  53  77  98 123 157 195 233 275
#     4   9  17  30  47  63  82 114 153 189 227 273
#     4   9  16  24  36  57  83 109 141 184 228 267
#     4  10  21  35  49  68  96 127 158 194 237 283
#
# _framework density 17.806505000000001
#
# number of rings (size 3 to 8) (size 9 to 14) (size 15 to 20)
#    0.000    3.182    0.000    2.727    0.000    4.727 
#    0.000    4.545    0.000    4.364    0.000    0.000 
#    0.000    0.727    0.000    8.364    0.000   10.727 
#
# Total GULP energy -545295.864962 kJ/mol
# GULP energy per Si atom -12393.087840 kJ/mol
# Density = 1.776598 g / cm^3
# Si number density = 17.806505 Si / 1000 Ang^3
#
#
#
# Elastic Constant Matrix: (Units=GPa)
#
#
# Indices 1 2 3 4 5 6 
#
# 1 83.1108 22.7346 80.3361 0.0000 0.0000 0.0000
# 2 22.7346 33.3191 39.9272 0.0000 0.0000 0.0000
# 3 80.3361 39.9272 186.4494 0.0000 0.0000 0.0000
# 4 0.0000 0.0000 0.0000 -0.5864 0.0000 0.0000
# 5 0.0000 0.0000 0.0000 0.0000 28.3411 0.0000
# 6 0.0000 0.0000 0.0000 0.0000 0.0000 14.9426
#
#
#
# Elastic Compliance Matrix: (Units=1/GPa)
#
#
# Indices 1 2 3 4 5 6 
#
# 1 0.021159 -0.004725 -0.008105 0.000000 0.000000 0.000000
# 2 -0.004725 0.041428 -0.006836 0.000000 0.000000 0.000000
# 3 -0.008105 -0.006836 0.010319 0.000000 0.000000 0.000000
# 4 0.000000 0.000000 0.000000 -1.705263 0.000000 0.000000
# 5 0.000000 0.000000 0.000000 0.000000 0.035284 0.000000
# 6 0.000000 0.000000 0.000000 0.000000 0.000000 0.066923
#
#
# Mechanical properties :
#
#
# Convention : Reuss Voigt Hill
#
# Bulk Modulus (GPa) = 29.78387 65.43058 47.60722
# Shear Modulus (GPa) = -3.37923 19.19821 7.90949
#
# Velocity S-wave (km/s) = -1.37908 3.28709 2.10987
# Velocity P-wave (km/s) = 3.77185 7.15763 5.72095
#
# Compressibility (1/GPa) = 0.03357522
#
# Stress axis : x y z
#
# Youngs Moduli (GPa) = 47.26102 24.13810 96.90404
#
# Poissons Ratio (x) = 0.11405 0.78541
# Poissons Ratio (y) = 0.22331 0.66242
# Poissons Ratio (z) = 0.38305 0.16500
#
# Static dielectric constant tensor:
#      x y z
#    x 3.250340 0.000000 0.000000 
#    y 0.000000 2.767110 0.000000 
#    z 0.000000 0.000000 3.680760 
# 
# 
# High freq. dielectric constant tensor:
#      x y z
#    x 1.673980 0.000000 0.000000 
#    y 0.000000 1.631510 0.000000 
#    z 0.000000 0.000000 1.710210 
# 
# From -- ./inp_files/2050.got.cif
#   From: 2010.03.12/outbox.cif.g09.slc.cpg/sg47_2_cif.got.tgz:2050.got - 2010.04.14 03:12:58.
