data_PCOD8199599
_publ_section_title
;
Structure prediction by ZEFSAII (Michael W. Deem and Ramdas Pophale) SiO2 
 PCOD8199599
Probable space group: P M M M
;
_chemical_formula_sum "Si O2"
_cell_formula_units_Z 64
_cell_length_a 14.534163
_cell_length_b 9.186510
_cell_length_c 25.646876
_cell_angle_alpha 90.000000
_cell_angle_beta 90.000000
_cell_angle_gamma 90.000000
_cell_volume 3424.325584
_symmetry_space_group_name_H-M "P M M M"
_symmetry_group_IT_number 47
_symmetry_cell_setting 'orthorhombic'
loop_
_space_group_symop_operation_xyz
x,y,z
-x,-y,z
x,-y,-z
-x,y,-z
-x,-y,-z
x,y,-z
-x,y,z
x,-y,z
loop_
_atom_site_type_symbol
_atom_site_label
_atom_site_fract_x
_atom_site_fract_y
_atom_site_fract_z
Si Si1 0.892435 0.168120 0.859082
Si Si2 0.790900 0.671679 0.351375
Si Si3 0.600386 0.672246 0.686602
Si Si4 0.894093 0.167460 0.440345
Si Si5 0.392053 0.339593 0.199052
Si Si6 0.769175 0.667705 0.058201
Si Si7 0.393465 0.829334 0.900675
Si Si8 0.892592 0.831852 0.740627
O O1 0.838663 0.265585 0.900106
O O2 0.864622 0.210648 0.799765
O O3 0.000000 0.196500 0.867240
O O4 0.868337 0.000000 0.869429
O O5 0.804730 0.500000 0.350368
O O6 0.682276 0.715486 0.352635
O O7 0.832300 0.732337 0.404364
O O8 0.837400 0.733784 0.299701
O O9 0.500000 0.735940 0.668878
O O10 0.591101 0.500000 0.691353
O O11 0.629333 0.728942 0.744152
O O12 0.865840 0.196257 0.500000
O O13 0.000000 0.209064 0.431357
O O14 0.877722 0.000000 0.425327
O O15 0.500000 0.358473 0.193095
O O16 0.346003 0.500000 0.191484
O O17 0.357171 0.226683 0.155629
O O18 0.752962 0.500000 0.072437
O O19 0.670354 0.748730 0.057499
O O20 0.810874 0.684598 0.000000
O O21 0.500000 0.790558 0.911563
O O22 0.376529 0.000000 0.903554
O O23 0.000000 0.802775 0.731676
O O24 0.869695 0.000000 0.729647
#
# Coordination Sequence:
#
# PCOD8199599 Si02
#       8
#     8   8   8   8   8   8   8   8
#     4   9  20  40  63  84 107 139 178 220 269 324
#     4  11  21  30  50  85 115 142 181 227 270 311
#     4   8  16  31  48  70 106 148 183 215 257 312
#     4   9  19  37  58  77 103 145 190 226 269 329
#     4   8  14  28  50  72  97 134 176 213 254 310
#     4  11  25  41  57  79 106 138 178 223 271 329
#     4  10  21  36  55  80 108 137 173 221 273 323
#     4   9  19  36  55  77 110 147 176 206 256 324
#
# _framework density 18.689812
#
# number of rings (size 3 to 8) (size 9 to 14) (size 15 to 20)
#    0.000    2.625    0.000    3.375    1.750    5.250 
#    0.000    5.000    0.000    2.625    0.000    2.625 
#    0.000    0.000    0.000    0.000    0.000    0.000 
#
# Total GULP energy -793317.371533 kJ/mol
# GULP energy per Si atom -12395.583930 kJ/mol
# Density = 1.864727 g / cm^3
# Si number density = 18.689812 Si / 1000 Ang^3
#
#
#
# Elastic Constant Matrix: (Units=GPa)
#
#
# Indices 1 2 3 4 5 6 
#
# 1 87.7947 50.0330 64.0468 0.0000 0.0000 0.0000
# 2 50.0330 91.5671 55.7075 0.0000 0.0000 0.0000
# 3 64.0468 55.7075 107.5021 0.0000 0.0000 0.0000
# 4 0.0000 0.0000 0.0000 32.4931 0.0000 0.0000
# 5 0.0000 0.0000 0.0000 0.0000 29.6497 0.0000
# 6 0.0000 0.0000 0.0000 0.0000 0.0000 24.0599
#
#
#
# Elastic Compliance Matrix: (Units=1/GPa)
#
#
# Indices 1 2 3 4 5 6 
#
# 1 0.022167 -0.005955 -0.010121 0.000000 0.000000 0.000000
# 2 -0.005955 0.017549 -0.005546 0.000000 0.000000 0.000000
# 3 -0.010121 -0.005546 0.018206 0.000000 0.000000 0.000000
# 4 0.000000 0.000000 0.000000 0.030776 0.000000 0.000000
# 5 0.000000 0.000000 0.000000 0.000000 0.033727 0.000000
# 6 0.000000 0.000000 0.000000 0.000000 0.000000 0.041563
#
#
# Mechanical properties :
#
#
# Convention : Reuss Voigt Hill
#
# Bulk Modulus (GPa) = 68.12784 69.60430 68.86607
# Shear Modulus (GPa) = 23.57121 25.04563 24.30842
#
# Velocity S-wave (km/s) = 3.55516 3.66467 3.61033
# Velocity P-wave (km/s) = 7.30638 7.43163 7.36927
#
# Compressibility (1/GPa) = 0.01467829
#
# Stress axis : x y z
#
# Youngs Moduli (GPa) = 45.11227 56.98366 54.92819
#
# Poissons Ratio (x) = 0.33934 0.55590
# Poissons Ratio (y) = 0.26865 0.30463
# Poissons Ratio (z) = 0.45656 0.31603
#
# Static dielectric constant tensor:
#      x y z
#    x 3.513320 0.000000 0.000000 
#    y 0.000000 3.338010 0.000000 
#    z 0.000000 0.000000 3.396860 
# 
# 
# High freq. dielectric constant tensor:
#      x y z
#    x 1.724380 0.000000 0.000000 
#    y 0.000000 1.714890 0.000000 
#    z 0.000000 0.000000 1.714930 
# 
# From -- ./inp_files/21889.got.cif
#   From: 2010.03.12/outbox.cif.g09.slc.cpg/sg47_11_cif.got.tgz:21889.got - 2010.04.14 03:12:58.
