data_PCOD8199855
_publ_section_title
;
Structure prediction by ZEFSAII (Michael W. Deem and Ramdas Pophale) SiO2 
 PCOD8199855
Probable space group: P M M M
;
_chemical_formula_sum "Si O2"
_cell_formula_units_Z 48
_cell_length_a 8.875523
_cell_length_b 30.741890
_cell_length_c 9.190484
_cell_angle_alpha 90.000000
_cell_angle_beta 90.000000
_cell_angle_gamma 90.000000
_cell_volume 2507.626792
_symmetry_space_group_name_H-M "P M M M"
_symmetry_group_IT_number 47
_symmetry_cell_setting 'orthorhombic'
loop_
_space_group_symop_operation_xyz
x,y,z
-x,-y,z
x,-y,-z
-x,y,-z
-x,-y,-z
x,y,-z
-x,y,z
x,-y,z
loop_
_atom_site_type_symbol
_atom_site_label
_atom_site_fract_x
_atom_site_fract_y
_atom_site_fract_z
Si Si1 0.678381 0.000000 0.833110
Si Si2 0.177427 0.500000 0.166653
Si Si3 0.675958 0.579193 0.668777
Si Si4 0.173359 0.667474 0.669626
Si Si5 0.675561 0.158143 0.830893
Si Si6 0.172003 0.752845 0.169267
Si Si7 0.823112 0.919937 0.669063
O O1 0.738487 0.042532 0.754654
O O2 0.500000 0.000000 0.823949
O O3 0.733367 0.000000 0.000000
O O4 0.239940 0.542872 0.241011
O O5 0.000000 0.500000 0.183675
O O6 0.229157 0.500000 0.000000
O O7 0.717509 0.572802 0.500000
O O8 0.500000 0.574713 0.696808
O O9 0.730414 0.626334 0.723566
O O10 0.195551 0.675430 0.500000
O O11 0.234591 0.710467 0.748872
O O12 0.000000 0.658678 0.710716
O O13 0.500000 0.151671 0.798078
O O14 0.723685 0.206701 0.786806
O O15 0.771982 0.126075 0.732032
O O16 0.712398 0.149023 0.000000
O O17 0.000000 0.763160 0.215607
O O18 0.183293 0.742774 0.000000
O O19 0.779334 0.922637 0.500000
O O20 0.000000 0.925758 0.692248
#
# Coordination Sequence:
#
# PCOD8199855 Si02
#       7
#     4   4   8   8   8   8   8
#     4  11  24  41  62  88 116 147 184 225 272 328
#     4  11  24  39  56  80 108 139 178 223 270 322
#     4  10  21  37  57  81 109 142 180 221 268 324
#     4   9  18  33  53  77 106 141 181 223 266 316
#     4  10  21  37  57  82 112 147 188 230 274 328
#     4   9  18  33  53  77 107 144 184 226 271 319
#     4  11  24  40  59  85 115 147 186 230 275 325
#
# _framework density 19.141604999999998
#
# number of rings (size 3 to 8) (size 9 to 14) (size 15 to 20)
#    0.000    2.000    0.000    3.000    0.000   10.667 
#    0.000    3.333    0.000    0.000    0.000    0.000 
#    0.000    0.000    0.000    0.000    0.000    0.000 
#
# Total GULP energy -595417.960542 kJ/mol
# GULP energy per Si atom -12404.540845 kJ/mol
# Density = 1.909804 g / cm^3
# Si number density = 19.141605 Si / 1000 Ang^3
#
#
#
# Elastic Constant Matrix: (Units=GPa)
#
#
# Indices 1 2 3 4 5 6 
#
# 1 56.8165 38.4124 46.9325 0.0000 0.0000 0.0000
# 2 38.4124 141.0230 73.2255 0.0000 0.0000 0.0000
# 3 46.9325 73.2255 94.7534 0.0000 0.0000 0.0000
# 4 0.0000 0.0000 0.0000 41.0613 0.0000 0.0000
# 5 0.0000 0.0000 0.0000 0.0000 26.0649 0.0000
# 6 0.0000 0.0000 0.0000 0.0000 0.0000 61.9116
#
#
#
# Elastic Compliance Matrix: (Units=1/GPa)
#
#
# Indices 1 2 3 4 5 6 
#
# 1 0.029837 -0.000757 -0.014193 0.000000 0.000000 0.000000
# 2 -0.000757 0.011863 -0.008792 0.000000 0.000000 0.000000
# 3 -0.014193 -0.008792 0.024379 0.000000 0.000000 0.000000
# 4 0.000000 0.000000 0.000000 0.024354 0.000000 0.000000
# 5 0.000000 0.000000 0.000000 0.000000 0.038366 0.000000
# 6 0.000000 0.000000 0.000000 0.000000 0.000000 0.016152
#
#
# Mechanical properties :
#
#
# Convention : Reuss Voigt Hill
#
# Bulk Modulus (GPa) = 53.78637 67.74820 60.76729
# Shear Modulus (GPa) = 25.17212 34.74240 29.95726
#
# Velocity S-wave (km/s) = 3.63029 4.26493 3.96034
# Velocity P-wave (km/s) = 6.76256 7.72805 7.26137
#
# Compressibility (1/GPa) = 0.01859207
#
# Stress axis : x y z
#
# Youngs Moduli (GPa) = 33.51597 84.29754 41.01970
#
# Poissons Ratio (x) = 0.06384 0.58220
# Poissons Ratio (y) = 0.02538 0.36066
# Poissons Ratio (z) = 0.47570 0.74118
#
# Static dielectric constant tensor:
#      x y z
#    x 3.545510 0.000000 0.000000 
#    y 0.000000 3.711550 0.000000 
#    z 0.000000 0.000000 3.559500 
# 
# 
# High freq. dielectric constant tensor:
#      x y z
#    x 1.748390 0.000000 0.000000 
#    y 0.000000 1.760200 0.000000 
#    z 0.000000 0.000000 1.742300 
# 
# From -- ./inp_files/2719.got.cif
#   From: 2010.03.12/outbox.cif.g09.slc.cpg/sg47_2_cif.got.tgz:2719.got - 2010.04.14 03:12:58.
