data_PCOD8199334
_publ_section_title
;
Structure prediction by ZEFSAII (Michael W. Deem and Ramdas Pophale) SiO2 
 PCOD8199334
Probable space group: P M M M
;
_chemical_formula_sum "Si O2"
_cell_formula_units_Z 40
_cell_length_a 26.972292
_cell_length_b 9.653565
_cell_length_c 8.212906
_cell_angle_alpha 90.000000
_cell_angle_beta 90.000000
_cell_angle_gamma 90.000000
_cell_volume 2138.466395
_symmetry_space_group_name_H-M "P M M M"
_symmetry_group_IT_number 47
_symmetry_cell_setting 'orthorhombic'
loop_
_space_group_symop_operation_xyz
x,y,z
-x,-y,z
x,-y,-z
-x,y,-z
-x,-y,-z
x,y,-z
-x,y,z
x,-y,z
loop_
_atom_site_type_symbol
_atom_site_label
_atom_site_fract_x
_atom_site_fract_y
_atom_site_fract_z
Si Si1 0.585515 0.156208 0.187470
Si Si2 0.885917 0.664775 0.818335
Si Si3 0.500000 0.652556 0.312085
Si Si4 0.689440 0.845056 0.313663
Si Si5 0.226200 0.656899 0.812389
Si Si6 0.943605 0.335012 0.500000
O O1 0.549097 0.262581 0.271983
O O2 0.642031 0.207665 0.211687
O O3 0.579400 0.000000 0.259837
O O4 0.571624 0.154884 0.000000
O O5 0.888141 0.500000 0.820518
O O6 0.829575 0.713369 0.787606
O O7 0.918584 0.723099 0.667239
O O8 0.903684 0.717095 0.000000
O O9 0.500000 0.500000 0.225284
O O10 0.500000 0.624657 0.500000
O O11 0.673068 0.841989 0.500000
O O12 0.736814 0.748975 0.291197
O O13 0.704157 0.000000 0.257548
O O14 0.229990 0.500000 0.747963
O O15 0.241624 0.665256 0.000000
O O16 0.940076 0.500000 0.500000
O O17 0.000000 0.283084 0.500000
#
# Coordination Sequence:
#
# PCOD8199334 Si02
#       6
#     8   8   4   8   8   4
#     4  10  21  38  59  79 100 132 171 207 250 303
#     4   8  15  27  41  61  92 127 166 211 256 307
#     4  11  24  39  56  80 108 135 166 207 252 298
#     4  10  21  35  52  77 106 134 167 209 255 303
#     4   9  18  32  50  72  98 133 173 209 253 309
#     4   9  16  24  38  62  91 129 173 210 253 306
#
# _framework density 18.704995
#
# number of rings (size 3 to 8) (size 9 to 14) (size 15 to 20)
#    0.000    2.600    0.000    3.000    1.400    6.000 
#    0.000    2.000    0.000    0.000    0.000    0.000 
#    0.000    1.600    0.000    4.400    0.000    4.400 
#
# Total GULP energy -495812.762013 kJ/mol
# GULP energy per Si atom -12395.319050 kJ/mol
# Density = 1.866242 g / cm^3
# Si number density = 18.704995 Si / 1000 Ang^3
#
#
#
# Elastic Constant Matrix: (Units=GPa)
#
#
# Indices 1 2 3 4 5 6 
#
# 1 123.3610 50.0417 53.6331 0.0000 0.0000 0.0000
# 2 50.0417 61.8716 29.8135 0.0000 0.0000 0.0000
# 3 53.6331 29.8135 95.4343 0.0000 0.0000 0.0000
# 4 0.0000 0.0000 0.0000 18.3277 0.0000 0.0000
# 5 0.0000 0.0000 0.0000 0.0000 50.5657 0.0000
# 6 0.0000 0.0000 0.0000 0.0000 0.0000 -52.9728
#
#
#
# Elastic Compliance Matrix: (Units=1/GPa)
#
#
# Indices 1 2 3 4 5 6 
#
# 1 0.013862 -0.008780 -0.005048 0.000000 0.000000 0.000000
# 2 -0.008780 0.024587 -0.002747 0.000000 0.000000 0.000000
# 3 -0.005048 -0.002747 0.014173 0.000000 0.000000 0.000000
# 4 0.000000 0.000000 0.000000 0.054562 0.000000 0.000000
# 5 0.000000 0.000000 0.000000 0.000000 0.019776 0.000000
# 6 0.000000 0.000000 0.000000 0.000000 0.000000 -0.018878
#
#
# Mechanical properties :
#
#
# Convention : Reuss Voigt Hill
#
# Bulk Modulus (GPa) = 51.34992 60.84927 56.09960
# Shear Modulus (GPa) = 33.84706 12.99604 23.42155
#
# Velocity S-wave (km/s) = 4.25846 2.63875 3.54242
# Velocity P-wave (km/s) = 7.18967 6.47191 6.84021
#
# Compressibility (1/GPa) = 0.01947423
#
# Stress axis : x y z
#
# Youngs Moduli (GPa) = 72.13798 40.67185 70.55500
#
# Poissons Ratio (x) = 0.35708 0.35615
# Poissons Ratio (y) = 0.63334 0.19381
# Poissons Ratio (z) = 0.36414 0.11172
#
# Static dielectric constant tensor:
#      x y z
#    x 3.422860 0.000000 0.000000 
#    y 0.000000 3.190320 0.000000 
#    z 0.000000 0.000000 3.622180 
# 
# 
# High freq. dielectric constant tensor:
#      x y z
#    x 1.726370 0.000000 0.000000 
#    y 0.000000 1.682240 0.000000 
#    z 0.000000 0.000000 1.736190 
# 
# From -- ./inp_files/12996.got.cif
#   From: 2010.03.12/outbox.cif.g09.slc.cpg/sg47_7_cif.got.tgz:12996.got - 2010.04.14 03:12:58.
