data_PCOD8199365
_publ_section_title
;
Structure prediction by ZEFSAII (Michael W. Deem and Ramdas Pophale) SiO2 
 PCOD8199365
Probable space group: P M M M
;
_chemical_formula_sum "Si O2"
_cell_formula_units_Z 48
_cell_length_a 9.924098
_cell_length_b 29.114291
_cell_length_c 9.069232
_cell_angle_alpha 90.000000
_cell_angle_beta 90.000000
_cell_angle_gamma 90.000000
_cell_volume 2620.401109
_symmetry_space_group_name_H-M "P M M M"
_symmetry_group_IT_number 47
_symmetry_cell_setting 'orthorhombic'
loop_
_space_group_symop_operation_xyz
x,y,z
-x,-y,z
x,-y,-z
-x,y,-z
-x,-y,-z
x,y,-z
-x,y,z
x,-y,z
loop_
_atom_site_type_symbol
_atom_site_label
_atom_site_fract_x
_atom_site_fract_y
_atom_site_fract_z
Si Si1 0.745018 0.594984 0.171585
Si Si2 0.160244 0.050487 0.665678
Si Si3 0.154563 0.770641 0.325929
Si Si4 0.500000 0.446703 0.663273
Si Si5 0.160023 0.137685 0.164341
Si Si6 0.000000 0.446666 0.324689
Si Si7 0.343661 0.301282 0.830153
O O1 0.627120 0.565593 0.239943
O O2 0.875486 0.580881 0.260700
O O3 0.713916 0.648234 0.194604
O O4 0.761992 0.582795 0.000000
O O5 0.214529 0.057558 0.500000
O O6 0.221332 0.090811 0.767167
O O7 0.000000 0.053599 0.664997
O O8 0.204932 0.000000 0.724896
O O9 0.165342 0.773964 0.500000
O O10 0.205620 0.818845 0.260251
O O11 0.253687 0.731536 0.269390
O O12 0.000000 0.760059 0.277170
O O13 0.500000 0.500000 0.635089
O O14 0.500000 0.422756 0.500000
O O15 0.000000 0.134368 0.161819
O O16 0.218340 0.143337 0.000000
O O17 0.000000 0.500000 0.274465
O O18 0.000000 0.443167 0.500000
O O19 0.500000 0.299363 0.780536
O O20 0.329545 0.286395 0.000000
#
# Coordination Sequence:
#
# PCOD8199365 Si02
#       7
#     8   8   8   4   8   4   8
#     4  11  23  41  63  88 115 149 189 228 272 326
#     4   8  13  21  34  54  85 127 170 213 263 317
#     4  10  21  35  53  79 107 139 180 223 269 324
#     4  11  23  39  61  89 119 151 185 225 274 323
#     4   9  16  26  41  63  93 131 173 218 267 317
#     4  11  25  43  61  87 123 155 185 227 276 323
#     4  10  22  41  60  81 110 141 176 222 274 323
#
# _framework density 18.317805
#
# number of rings (size 3 to 8) (size 9 to 14) (size 15 to 20)
#    0.000    2.167    0.833    3.000    1.167    8.333 
#    0.000    1.667    0.000    0.000    0.000    0.000 
#    0.000    0.667    0.000    7.000    0.000    9.667 
#
# Total GULP energy -595091.562903 kJ/mol
# GULP energy per Si atom -12397.740894 kJ/mol
# Density = 1.827611 g / cm^3
# Si number density = 18.317805 Si / 1000 Ang^3
#
#
#
# Elastic Constant Matrix: (Units=GPa)
#
#
# Indices 1 2 3 4 5 6 
#
# 1 93.6930 45.7612 45.0882 0.0000 0.0000 0.0000
# 2 45.7612 117.1810 68.4047 0.0000 0.0000 0.0000
# 3 45.0882 68.4047 111.2696 0.0000 0.0000 0.0000
# 4 0.0000 0.0000 0.0000 38.8340 0.0000 0.0000
# 5 0.0000 0.0000 0.0000 0.0000 76.9213 0.0000
# 6 0.0000 0.0000 0.0000 0.0000 0.0000 13.6060
#
#
#
# Elastic Compliance Matrix: (Units=1/GPa)
#
#
# Indices 1 2 3 4 5 6 
#
# 1 0.014067 -0.003378 -0.003623 0.000000 0.000000 0.000000
# 2 -0.003378 0.014122 -0.007313 0.000000 0.000000 0.000000
# 3 -0.003623 -0.007313 0.014951 0.000000 0.000000 0.000000
# 4 0.000000 0.000000 0.000000 0.025751 0.000000 0.000000
# 5 0.000000 0.000000 0.000000 0.000000 0.013000 0.000000
# 6 0.000000 0.000000 0.000000 0.000000 0.000000 0.073497
#
#
# Mechanical properties :
#
#
# Convention : Reuss Voigt Hill
#
# Bulk Modulus (GPa) = 68.91223 71.18353 70.04788
# Shear Modulus (GPa) = 26.47557 36.73155 31.60356
#
# Velocity S-wave (km/s) = 3.80590 4.48285 4.15817
# Velocity P-wave (km/s) = 7.55084 8.10797 7.83436
#
# Compressibility (1/GPa) = 0.01451121
#
# Stress axis : x y z
#
# Youngs Moduli (GPa) = 71.08947 70.81197 66.88508
#
# Poissons Ratio (x) = 0.23922 0.24234
# Poissons Ratio (y) = 0.24016 0.48911
# Poissons Ratio (z) = 0.25758 0.51783
#
# Static dielectric constant tensor:
#      x y z
#    x 3.019580 0.000000 0.000000 
#    y 0.000000 3.632180 0.000000 
#    z 0.000000 0.000000 3.605330 
# 
# 
# High freq. dielectric constant tensor:
#      x y z
#    x 1.670900 0.000000 0.000000 
#    y 0.000000 1.723630 0.000000 
#    z 0.000000 0.000000 1.722020 
# 
# From -- ./inp_files/2730.got.cif
#   From: 2010.03.12/outbox.cif.g09.slc.cpg/sg47_2_cif.got.tgz:2730.got - 2010.04.14 03:12:58.
