data_PCOD8199899
_publ_section_title
;
Structure prediction by ZEFSAII (Michael W. Deem and Ramdas Pophale) SiO2 
 PCOD8199899
Probable space group: P M M M
;
_chemical_formula_sum "Si O2"
_cell_formula_units_Z 52
_cell_length_a 29.439516
_cell_length_b 10.635748
_cell_length_c 8.917618
_cell_angle_alpha 90.000000
_cell_angle_beta 90.000000
_cell_angle_gamma 90.000000
_cell_volume 2792.206728
_symmetry_space_group_name_H-M "P M M M"
_symmetry_group_IT_number 47
_symmetry_cell_setting 'orthorhombic'
loop_
_space_group_symop_operation_xyz
x,y,z
-x,-y,z
x,-y,-z
-x,y,-z
-x,-y,-z
x,y,-z
-x,y,z
x,-y,z
loop_
_atom_site_type_symbol
_atom_site_label
_atom_site_fract_x
_atom_site_fract_y
_atom_site_fract_z
Si Si1 0.450171 0.649506 0.831528
Si Si2 0.363043 0.648285 0.334160
Si Si3 0.729265 0.354905 0.822829
Si Si4 0.053428 0.000000 0.668484
Si Si5 0.112456 0.802137 0.824325
Si Si6 0.049723 0.354231 0.334646
Si Si7 0.207804 0.143306 0.676561
O O1 0.500000 0.690009 0.768944
O O2 0.446636 0.500000 0.833452
O O3 0.409838 0.707297 0.730385
O O4 0.444104 0.700944 0.000000
O O5 0.354296 0.704641 0.500000
O O6 0.368615 0.500000 0.344393
O O7 0.321435 0.682854 0.226233
O O8 0.740707 0.500000 0.773145
O O9 0.762133 0.252739 0.749644
O O10 0.733307 0.343232 0.000000
O O11 0.070403 0.118434 0.762115
O O12 0.073603 0.000000 0.500000
O O13 0.000000 0.000000 0.665151
O O14 0.092624 0.666324 0.778938
O O15 0.157711 0.841909 0.740326
O O16 0.120896 0.817756 0.000000
O O17 0.058834 0.292114 0.500000
O O18 0.046933 0.500000 0.357565
O O19 0.000000 0.306455 0.275407
O O20 0.207513 0.166234 0.500000
O O21 0.224902 0.000000 0.712847
#
# Coordination Sequence:
#
# PCOD8199899 Si02
#       7
#     8   8   8   4   8   8   8
#     4   8  13  21  34  55  88 132 178 222 272 329
#     4   9  16  26  42  66  98 136 179 226 274 327
#     4  10  21  37  58  83 111 144 184 231 282 334
#     4  11  23  39  59  81 107 139 173 207 246 301
#     4  12  24  37  57  83 110 138 170 212 262 312
#     4   9  19  37  59  81 108 144 181 214 253 306
#     4  11  24  42  63  83 109 145 184 227 278 333
#
# _framework density 18.623263000000001
#
# number of rings (size 3 to 8) (size 9 to 14) (size 15 to 20)
#    0.000    2.077    0.769    4.385    0.000    7.692 
#    0.000    2.308    0.000    0.000    0.000    0.000 
#    0.000    0.615    0.000    6.462    0.000    8.923 
#
# Total GULP energy -644255.711190 kJ/mol
# GULP energy per Si atom -12389.532907 kJ/mol
# Density = 1.858088 g / cm^3
# Si number density = 18.623263 Si / 1000 Ang^3
#
#
#
# Elastic Constant Matrix: (Units=GPa)
#
#
# Indices 1 2 3 4 5 6 
#
# 1 116.2103 49.4523 56.9226 0.0000 0.0000 0.0000
# 2 49.4523 67.6202 42.5433 0.0000 0.0000 0.0000
# 3 56.9226 42.5433 106.3308 0.0000 0.0000 0.0000
# 4 0.0000 0.0000 0.0000 29.0528 0.0000 0.0000
# 5 0.0000 0.0000 0.0000 0.0000 36.7408 0.0000
# 6 0.0000 0.0000 0.0000 0.0000 0.0000 7.1017
#
#
#
# Elastic Compliance Matrix: (Units=1/GPa)
#
#
# Indices 1 2 3 4 5 6 
#
# 1 0.013952 -0.007356 -0.004526 0.000000 0.000000 0.000000
# 2 -0.007356 0.023642 -0.005521 0.000000 0.000000 0.000000
# 3 -0.004526 -0.005521 0.014037 0.000000 0.000000 0.000000
# 4 0.000000 0.000000 0.000000 0.034420 0.000000 0.000000
# 5 0.000000 0.000000 0.000000 0.000000 0.027218 0.000000
# 6 0.000000 0.000000 0.000000 0.000000 0.000000 0.140811
#
#
# Mechanical properties :
#
#
# Convention : Reuss Voigt Hill
#
# Bulk Modulus (GPa) = 59.43828 65.33306 62.38567
# Shear Modulus (GPa) = 16.97824 23.99528 20.48676
#
# Velocity S-wave (km/s) = 3.02266 3.59340 3.32032
# Velocity P-wave (km/s) = 6.64586 7.23701 6.94772
#
# Compressibility (1/GPa) = 0.01682418
#
# Stress axis : x y z
#
# Youngs Moduli (GPa) = 71.67240 42.29784 71.24260
#
# Poissons Ratio (x) = 0.31115 0.32244
# Poissons Ratio (y) = 0.52724 0.39334
# Poissons Ratio (z) = 0.32439 0.23353
#
# Static dielectric constant tensor:
#      x y z
#    x 3.600820 0.000000 0.000000 
#    y 0.000000 2.259720 0.000000 
#    z 0.000000 0.000000 3.592620 
# 
# 
# High freq. dielectric constant tensor:
#      x y z
#    x 1.728190 0.000000 0.000000 
#    y 0.000000 1.685080 0.000000 
#    z 0.000000 0.000000 1.728220 
# 
# From -- ./inp_files/13259.got.cif
#   From: 2010.03.12/outbox.cif.g09.slc.cpg/sg47_7_cif.got.tgz:13259.got - 2010.04.14 03:12:58.
