data_PCOD8199902
_publ_section_title
;
Structure prediction by ZEFSAII (Michael W. Deem and Ramdas Pophale) SiO2 
 PCOD8199902
Probable space group: P M M M
;
_chemical_formula_sum "Si O2"
_cell_formula_units_Z 40
_cell_length_a 11.814012
_cell_length_b 8.793479
_cell_length_c 20.174550
_cell_angle_alpha 90.000000
_cell_angle_beta 90.000000
_cell_angle_gamma 90.000000
_cell_volume 2095.858676
_symmetry_space_group_name_H-M "P M M M"
_symmetry_group_IT_number 47
_symmetry_cell_setting 'orthorhombic'
loop_
_space_group_symop_operation_xyz
x,y,z
-x,-y,z
x,-y,-z
-x,y,-z
-x,-y,-z
x,y,-z
-x,y,z
x,-y,z
loop_
_atom_site_type_symbol
_atom_site_label
_atom_site_fract_x
_atom_site_fract_y
_atom_site_fract_z
Si Si1 0.000000 0.320651 0.775232
Si Si2 0.629702 0.323305 0.304702
Si Si3 0.000000 0.176749 0.367911
Si Si4 0.785592 0.326229 0.574792
Si Si5 0.369372 0.674633 0.923706
Si Si6 0.230036 0.177549 0.188171
O O1 0.000000 0.271459 0.699218
O O2 0.109984 0.260606 0.812900
O O3 0.000000 0.500000 0.778169
O O4 0.500000 0.270389 0.305689
O O5 0.640716 0.500000 0.285696
O O6 0.681160 0.289393 0.376933
O O7 0.695989 0.227155 0.250659
O O8 0.889977 0.216013 0.410588
O O9 0.000000 0.000000 0.349877
O O10 0.743077 0.297532 0.500000
O O11 0.826487 0.500000 0.584503
O O12 0.500000 0.713860 0.910305
O O13 0.345570 0.500000 0.904341
O O14 0.293468 0.784747 0.879827
O O15 0.338350 0.703993 0.000000
O O16 0.207835 0.000000 0.193117
#
# Coordination Sequence:
#
# PCOD8199902 Si02
#       6
#     4   8   4   8   8   8
#     4  12  24  41  64  85 112 152 196 244 292 347
#     4  10  21  37  58  83 114 156 201 242 287 345
#     4  12  23  37  58  86 115 147 188 241 301 358
#     4  10  21  37  58  83 113 153 199 244 291 347
#     4   9  19  38  64  92 123 162 205 242 278 330
#     4  12  24  38  59  90 123 154 191 241 297 350
#
# _framework density 19.085256999999999
#
# number of rings (size 3 to 8) (size 9 to 14) (size 15 to 20)
#    0.000    1.400    2.000    5.100    0.000    5.600 
#    0.000    3.500    0.000    3.000    0.000    2.800 
#    0.000    0.000    0.000    0.000    0.000    0.000 
#
# Total GULP energy -496214.623910 kJ/mol
# GULP energy per Si atom -12405.365598 kJ/mol
# Density = 1.904182 g / cm^3
# Si number density = 19.085257 Si / 1000 Ang^3
#
#
#
# Elastic Constant Matrix: (Units=GPa)
#
#
# Indices 1 2 3 4 5 6 
#
# 1 131.8781 62.3979 57.6941 0.0000 0.0000 0.0000
# 2 62.3979 122.1618 48.5870 0.0000 0.0000 0.0000
# 3 57.6941 48.5870 116.8717 0.0000 0.0000 0.0000
# 4 0.0000 0.0000 0.0000 5.6010 0.0000 0.0000
# 5 0.0000 0.0000 0.0000 0.0000 34.2121 0.0000
# 6 0.0000 0.0000 0.0000 0.0000 0.0000 1.9032
#
#
#
# Elastic Compliance Matrix: (Units=1/GPa)
#
#
# Indices 1 2 3 4 5 6 
#
# 1 0.011245 -0.004236 -0.003790 0.000000 0.000000 0.000000
# 2 -0.004236 0.011404 -0.002649 0.000000 0.000000 0.000000
# 3 -0.003790 -0.002649 0.011529 0.000000 0.000000 0.000000
# 4 0.000000 0.000000 0.000000 0.178538 0.000000 0.000000
# 5 0.000000 0.000000 0.000000 0.000000 0.029229 0.000000
# 6 0.000000 0.000000 0.000000 0.000000 0.000000 0.525435
#
#
# Mechanical properties :
#
#
# Convention : Reuss Voigt Hill
#
# Bulk Modulus (GPa) = 77.96833 78.69661 78.33247
# Shear Modulus (GPa) = 6.30511 21.82544 14.06528
#
# Velocity S-wave (km/s) = 1.81957 3.38535 2.71767
# Velocity P-wave (km/s) = 6.73467 7.52360 7.14004
#
# Compressibility (1/GPa) = 0.01282572
#
# Stress axis : x y z
#
# Youngs Moduli (GPa) = 88.92582 87.69214 86.73921
#
# Poissons Ratio (x) = 0.37151 0.32875
# Poissons Ratio (y) = 0.37673 0.22981
# Poissons Ratio (z) = 0.33703 0.23233
#
# Static dielectric constant tensor:
#      x y z
#    x 3.616570 0.000000 0.000000 
#    y 0.000000 3.431030 0.000000 
#    z 0.000000 0.000000 3.519770 
# 
# 
# High freq. dielectric constant tensor:
#      x y z
#    x 1.744840 0.000000 0.000000 
#    y 0.000000 1.737400 0.000000 
#    z 0.000000 0.000000 1.747450 
# 
# From -- ./inp_files/30331.got.cif
#   From: 2010.03.12/outbox.cif.g09.slc.cpg/sg47_16_cif.got.tgz:30331.got - 2010.04.14 03:12:58.
