data_PCOD8199412
_publ_section_title
;
Structure prediction by ZEFSAII (Michael W. Deem and Ramdas Pophale) SiO2 
 PCOD8199412
Probable space group: P M M M
;
_chemical_formula_sum "Si O2"
_cell_formula_units_Z 52
_cell_length_a 15.076989
_cell_length_b 9.203887
_cell_length_c 20.140706
_cell_angle_alpha 90.000000
_cell_angle_beta 90.000000
_cell_angle_gamma 90.000000
_cell_volume 2794.863397
_symmetry_space_group_name_H-M "P M M M"
_symmetry_group_IT_number 47
_symmetry_cell_setting 'orthorhombic'
loop_
_space_group_symop_operation_xyz
x,y,z
-x,-y,z
x,-y,-z
-x,y,-z
-x,-y,-z
x,y,-z
-x,y,z
x,-y,z
loop_
_atom_site_type_symbol
_atom_site_label
_atom_site_fract_x
_atom_site_fract_y
_atom_site_fract_z
Si Si1 0.398321 0.332328 0.576714
Si Si2 0.000000 0.654045 0.926536
Si Si3 0.098682 0.828749 0.726857
Si Si4 0.401144 0.666137 0.789415
Si Si5 0.845604 0.171370 0.872366
Si Si6 0.680299 0.335251 0.924588
Si Si7 0.714119 0.827517 0.315954
O O1 0.379299 0.299158 0.500000
O O2 0.500000 0.294862 0.594279
O O3 0.379037 0.500000 0.593148
O O4 0.333582 0.232126 0.618987
O O5 0.084545 0.753746 0.918824
O O6 0.000000 0.500000 0.884644
O O7 0.000000 0.598501 0.000000
O O8 0.130976 0.774293 0.798516
O O9 0.180620 0.784278 0.678426
O O10 0.000000 0.762651 0.708625
O O11 0.087956 0.000000 0.727364
O O12 0.500000 0.713463 0.767518
O O13 0.383125 0.500000 0.767904
O O14 0.397349 0.680317 0.869804
O O15 0.329550 0.764762 0.751297
O O16 0.751351 0.221312 0.898749
O O17 0.851781 0.000000 0.878171
O O18 0.718338 0.500000 0.923450
O O19 0.647917 0.297385 0.000000
O O20 0.703553 0.000000 0.312310
#
# Coordination Sequence:
#
# PCOD8199412 Si02
#       7
#     8   4   8   8   8   8   8
#     4   9  19  37  60  86 119 157 188 213 252 312
#     4  11  23  35  47  69 101 131 166 221 284 339
#     4   9  18  34  54  76 104 138 177 221 267 318
#     4  10  21  36  54  76 104 142 186 227 272 334
#     4  11  20  34  54  73  96 132 177 222 275 338
#     4  10  21  36  52  71  99 135 177 230 285 330
#     4  11  21  34  57  86 114 143 178 226 276 318
#
# _framework density 18.605561999999999
#
# number of rings (size 3 to 8) (size 9 to 14) (size 15 to 20)
#    0.000    1.923    2.308    2.538    0.000    5.846 
#    0.000    2.308    0.000    0.462    0.000    5.385 
#    0.000    0.000    0.000    0.000    0.000    0.000 
#
# Total GULP energy -644250.096996 kJ/mol
# GULP energy per Si atom -12389.424942 kJ/mol
# Density = 1.856321 g / cm^3
# Si number density = 18.605562 Si / 1000 Ang^3
#
#
#
# Elastic Constant Matrix: (Units=GPa)
#
#
# Indices 1 2 3 4 5 6 
#
# 1 129.4718 49.1649 55.0583 0.0000 0.0000 0.0000
# 2 49.1649 79.4015 35.5728 0.0000 0.0000 0.0000
# 3 55.0583 35.5728 96.9199 0.0000 0.0000 0.0000
# 4 0.0000 0.0000 0.0000 25.4749 0.0000 0.0000
# 5 0.0000 0.0000 0.0000 0.0000 23.3113 0.0000
# 6 0.0000 0.0000 0.0000 0.0000 0.0000 40.4892
#
#
#
# Elastic Compliance Matrix: (Units=1/GPa)
#
#
# Indices 1 2 3 4 5 6 
#
# 1 0.011688 -0.005101 -0.004767 0.000000 0.000000 0.000000
# 2 -0.005101 0.017299 -0.003451 0.000000 0.000000 0.000000
# 3 -0.004767 -0.003451 0.014293 0.000000 0.000000 0.000000
# 4 0.000000 0.000000 0.000000 0.039254 0.000000 0.000000
# 5 0.000000 0.000000 0.000000 0.000000 0.042898 0.000000
# 6 0.000000 0.000000 0.000000 0.000000 0.000000 0.024698
#
#
# Mechanical properties :
#
#
# Convention : Reuss Voigt Hill
#
# Bulk Modulus (GPa) = 60.09677 65.04281 62.56979
# Shear Modulus (GPa) = 27.42470 28.92156 28.17313
#
# Velocity S-wave (km/s) = 3.84344 3.94694 3.89553
# Velocity P-wave (km/s) = 7.21572 7.47033 7.34413
#
# Compressibility (1/GPa) = 0.01663983
#
# Stress axis : x y z
#
# Youngs Moduli (GPa) = 85.55590 57.80603 69.96484
#
# Poissons Ratio (x) = 0.29489 0.33356
# Poissons Ratio (y) = 0.43646 0.24148
# Poissons Ratio (z) = 0.40789 0.19951
#
# Static dielectric constant tensor:
#      x y z
#    x 3.665970 0.000000 0.000000 
#    y 0.000000 3.281800 0.000000 
#    z 0.000000 0.000000 3.351440 
# 
# 
# High freq. dielectric constant tensor:
#      x y z
#    x 1.723650 0.000000 0.000000 
#    y 0.000000 1.713190 0.000000 
#    z 0.000000 0.000000 1.706340 
# 
# From -- ./inp_files/7079.got.cif
#   From: 2010.03.12/outbox.cif.g09.slc.cpg/sg47_4_cif.got.tgz:7079.got - 2010.04.14 03:12:58.
