data_PCOD8199051
_publ_section_title
;
Structure prediction by ZEFSAII (Michael W. Deem and Ramdas Pophale) SiO2 
 PCOD8199051
Probable space group: P M M M
;
_chemical_formula_sum "Si O2"
_cell_formula_units_Z 64
_cell_length_a 14.530653
_cell_length_b 9.592394
_cell_length_c 28.697343
_cell_angle_alpha 90.000000
_cell_angle_beta 90.000000
_cell_angle_gamma 90.000000
_cell_volume 3999.943244
_symmetry_space_group_name_H-M "P M M M"
_symmetry_group_IT_number 47
_symmetry_cell_setting 'orthorhombic'
loop_
_space_group_symop_operation_xyz
x,y,z
-x,-y,z
x,-y,-z
-x,y,-z
-x,-y,-z
x,y,-z
-x,y,z
x,-y,z
loop_
_atom_site_type_symbol
_atom_site_label
_atom_site_fract_x
_atom_site_fract_y
_atom_site_fract_z
Si Si1 0.898551 0.834191 0.190728
Si Si2 0.109153 0.344062 0.448650
Si Si3 0.394050 0.661627 0.864937
Si Si4 0.218941 0.163557 0.725232
Si Si5 0.603933 0.162294 0.225050
Si Si6 0.892856 0.163696 0.637266
Si Si7 0.263705 0.340229 0.948254
Si Si8 0.106357 0.837683 0.913362
O O1 0.829768 0.771391 0.229101
O O2 0.870620 0.785378 0.139070
O O3 0.000000 0.778661 0.203287
O O4 0.898482 0.000000 0.191184
O O5 0.145706 0.298499 0.500000
O O6 0.144392 0.500000 0.436959
O O7 0.144266 0.237485 0.409488
O O8 0.000000 0.342462 0.449366
O O9 0.500000 0.689453 0.877235
O O10 0.376328 0.500000 0.853206
O O11 0.364651 0.751321 0.820071
O O12 0.336769 0.712297 0.909873
O O13 0.327966 0.196735 0.731306
O O14 0.172359 0.224453 0.678497
O O15 0.199773 0.000000 0.723930
O O16 0.500000 0.200819 0.240550
O O17 0.612557 0.000000 0.211547
O O18 0.000000 0.198802 0.648252
O O19 0.879708 0.000000 0.629823
O O20 0.237384 0.500000 0.938562
O O21 0.170558 0.250558 0.947271
O O22 0.307006 0.323084 0.000000
O O23 0.000000 0.808976 0.925597
O O24 0.129085 0.000000 0.919699
#
# Coordination Sequence:
#
# PCOD8199051 Si02
#       8
#     8   8   8   8   8   8   8   8
#     4   8  13  22  38  59  80 103 132 162 192 231
#     4   8  14  25  39  53  74 109 147 177 207 243
#     4   9  18  33  51  68  86 108 135 170 211 254
#     4   9  15  23  37  58  85 111 132 161 202 242
#     4   9  17  29  46  66  85 108 139 170 201 243
#     4   9  16  24  36  57  83 110 141 174 205 238
#     4  10  21  34  47  65  87 110 136 167 208 256
#     4   9  18  32  49  67  85 109 143 177 205 237
#
# _framework density 16.000226000000001
#
# number of rings (size 3 to 8) (size 9 to 14) (size 15 to 20)
#    0.000    3.125    0.000    2.250    0.000    4.250 
#    0.000    4.375    0.000    0.750    0.000    4.375 
#    0.000    0.500    0.000    6.250    0.000    1.250 
#
# Total GULP energy -793159.737179 kJ/mol
# GULP energy per Si atom -12393.120893 kJ/mol
# Density = 1.596381 g / cm^3
# Si number density = 16.000226 Si / 1000 Ang^3
#
#
#
# Elastic Constant Matrix: (Units=GPa)
#
#
# Indices 1 2 3 4 5 6 
#
# 1 73.2392 28.3250 53.2792 0.0000 0.0000 0.0000
# 2 28.3250 38.3031 36.0163 0.0000 0.0000 0.0000
# 3 53.2792 36.0163 107.0973 0.0000 0.0000 0.0000
# 4 0.0000 0.0000 0.0000 20.5591 0.0000 0.0000
# 5 0.0000 0.0000 0.0000 0.0000 18.0846 0.0000
# 6 0.0000 0.0000 0.0000 0.0000 0.0000 15.3803
#
#
#
# Elastic Compliance Matrix: (Units=1/GPa)
#
#
# Indices 1 2 3 4 5 6 
#
# 1 0.023475 -0.009328 -0.008541 0.000000 0.000000 0.000000
# 2 -0.009328 0.041888 -0.009446 0.000000 0.000000 0.000000
# 3 -0.008541 -0.009446 0.016763 0.000000 0.000000 0.000000
# 4 0.000000 0.000000 0.000000 0.048640 0.000000 0.000000
# 5 0.000000 0.000000 0.000000 0.000000 0.055296 0.000000
# 6 0.000000 0.000000 0.000000 0.000000 0.000000 0.065018
#
#
# Mechanical properties :
#
#
# Convention : Reuss Voigt Hill
#
# Bulk Modulus (GPa) = 36.37064 50.43116 43.40090
# Shear Modulus (GPa) = 15.87922 17.53941 16.70931
#
# Velocity S-wave (km/s) = 3.15371 3.31448 3.23510
# Velocity P-wave (km/s) = 6.00349 6.79964 6.41393
#
# Compressibility (1/GPa) = 0.02749471
#
# Stress axis : x y z
#
# Youngs Moduli (GPa) = 42.59805 23.87326 59.65447
#
# Poissons Ratio (x) = 0.22270 0.50954
# Poissons Ratio (y) = 0.39737 0.56350
# Poissons Ratio (z) = 0.36385 0.22551
#
# Static dielectric constant tensor:
#      x y z
#    x 2.972370 0.000000 0.000000 
#    y 0.000000 2.827400 0.000000 
#    z 0.000000 0.000000 3.208390 
# 
# 
# High freq. dielectric constant tensor:
#      x y z
#    x 1.596190 0.000000 0.000000 
#    y 0.000000 1.588900 0.000000 
#    z 0.000000 0.000000 1.606800 
# 
# From -- ./inp_files/22169.got.cif
#   From: 2010.03.12/outbox.cif.g09.slc.cpg/sg47_12_cif.got.tgz:22169.got - 2010.04.14 03:12:58.
