data_PCOD8199950
_publ_section_title
;
Structure prediction by ZEFSAII (Michael W. Deem and Ramdas Pophale) SiO2 
 PCOD8199950
Probable space group: P M M M
;
_chemical_formula_sum "Si O2"
_cell_formula_units_Z 64
_cell_length_a 9.076019
_cell_length_b 15.317091
_cell_length_c 24.583306
_cell_angle_alpha 90.000000
_cell_angle_beta 90.000000
_cell_angle_gamma 90.000000
_cell_volume 3417.527170
_symmetry_space_group_name_H-M "P M M M"
_symmetry_group_IT_number 47
_symmetry_cell_setting 'orthorhombic'
loop_
_space_group_symop_operation_xyz
x,y,z
-x,-y,z
x,-y,-z
-x,y,-z
-x,-y,-z
x,y,-z
-x,y,z
x,-y,z
loop_
_atom_site_type_symbol
_atom_site_label
_atom_site_fract_x
_atom_site_fract_y
_atom_site_fract_z
Si Si1 0.331883 0.402955 0.889560
Si Si2 0.824570 0.095908 0.142646
Si Si3 0.674203 0.228682 0.642230
Si Si4 0.163709 0.626857 0.216865
Si Si5 0.172296 0.403497 0.338611
Si Si6 0.834762 0.180380 0.750168
Si Si7 0.831161 0.099478 0.563696
Si Si8 0.172541 0.757735 0.061752
O O1 0.500000 0.371939 0.888440
O O2 0.316769 0.500000 0.914973
O O3 0.275230 0.407702 0.827827
O O4 0.241968 0.336109 0.926318
O O5 0.774845 0.111293 0.205452
O O6 0.758991 0.167356 0.100825
O O7 0.000000 0.100578 0.140120
O O8 0.767736 0.000000 0.125184
O O9 0.500000 0.235551 0.643275
O O10 0.738270 0.326252 0.631782
O O11 0.728439 0.186121 0.698580
O O12 0.723439 0.166013 0.593709
O O13 0.218157 0.593426 0.275478
O O14 0.161176 0.730918 0.215621
O O15 0.000000 0.590521 0.204475
O O16 0.206171 0.500000 0.363871
O O17 0.000000 0.380120 0.343840
O O18 0.000000 0.157157 0.729317
O O19 0.805557 0.112207 0.500000
O O20 0.000000 0.120472 0.579138
O O21 0.792929 0.000000 0.580600
O O22 0.000000 0.747577 0.072088
O O23 0.207442 0.785071 0.000000
#
# Coordination Sequence:
#
# PCOD8199950 Si02
#       8
#     8   8   8   8   8   8   8   8
#     4  11  23  35  50  74 103 135 170 210 261 321
#     4   9  17  32  56  83 106 130 166 214 266 316
#     4  11  22  33  51  83 121 154 183 223 276 332
#     4   9  16  30  52  76 103 135 175 220 261 306
#     4   9  18  33  53  77 108 149 193 232 269 314
#     4   9  17  32  52  75 108 146 182 216 255 311
#     4   9  19  38  63  86 108 142 192 242 281 323
#     4  10  21  38  58  78 100 128 168 218 268 320
#
# _framework density 18.726991000000002
#
# number of rings (size 3 to 8) (size 9 to 14) (size 15 to 20)
#    0.000    2.375    1.250    3.000    0.000    5.500 
#    0.000    4.375    0.000    1.500    0.000    3.500 
#    0.000    0.000    0.000    0.000    0.000    0.000 
#
# Total GULP energy -793394.796874 kJ/mol
# GULP energy per Si atom -12396.793701 kJ/mol
# Density = 1.868437 g / cm^3
# Si number density = 18.726991 Si / 1000 Ang^3
#
#
#
# Elastic Constant Matrix: (Units=GPa)
#
#
# Indices 1 2 3 4 5 6 
#
# 1 80.4251 48.1136 43.1484 0.0000 0.0000 0.0000
# 2 48.1136 127.5524 54.7033 0.0000 0.0000 0.0000
# 3 43.1484 54.7033 68.7045 0.0000 0.0000 0.0000
# 4 0.0000 0.0000 0.0000 15.0530 0.0000 0.0000
# 5 0.0000 0.0000 0.0000 0.0000 6.1186 0.0000
# 6 0.0000 0.0000 0.0000 0.0000 0.0000 2.6851
#
#
#
# Elastic Compliance Matrix: (Units=1/GPa)
#
#
# Indices 1 2 3 4 5 6 
#
# 1 0.019580 -0.003207 -0.009743 0.000000 0.000000 0.000000
# 2 -0.003207 0.012430 -0.007883 0.000000 0.000000 0.000000
# 3 -0.009743 -0.007883 0.026951 0.000000 0.000000 0.000000
# 4 0.000000 0.000000 0.000000 0.066432 0.000000 0.000000
# 5 0.000000 0.000000 0.000000 0.000000 0.163435 0.000000
# 6 0.000000 0.000000 0.000000 0.000000 0.000000 0.372430
#
#
# Mechanical properties :
#
#
# Convention : Reuss Voigt Hill
#
# Bulk Modulus (GPa) = 57.82280 63.17917 60.50098
# Shear Modulus (GPa) = 7.05528 13.48579 10.27053
#
# Velocity S-wave (km/s) = 1.94309 2.68643 2.34441
# Velocity P-wave (km/s) = 5.99816 6.59035 6.30121
#
# Compressibility (1/GPa) = 0.01729422
#
# Stress axis : x y z
#
# Youngs Moduli (GPa) = 51.07313 80.44732 37.10474
#
# Poissons Ratio (x) = 0.25800 0.36152
# Poissons Ratio (y) = 0.16380 0.29250
# Poissons Ratio (z) = 0.49761 0.63418
#
# Static dielectric constant tensor:
#      x y z
#    x 3.168660 0.000000 0.000000 
#    y 0.000000 3.664900 0.000000 
#    z 0.000000 0.000000 3.225190 
# 
# 
# High freq. dielectric constant tensor:
#      x y z
#    x 1.699010 0.000000 0.000000 
#    y 0.000000 1.737950 0.000000 
#    z 0.000000 0.000000 1.706650 
# 
# From -- ./inp_files/7853.got.cif
#   From: 2010.03.12/outbox.cif.g09.slc.cpg/sg47_4_cif.got.tgz:7853.got - 2010.04.14 03:12:58.
