data_PCOD8199511
_publ_section_title
;
Structure prediction by ZEFSAII (Michael W. Deem and Ramdas Pophale) SiO2 
 PCOD8199511
Probable space group: P M M M
;
_chemical_formula_sum "Si O2"
_cell_formula_units_Z 48
_cell_length_a 29.869105
_cell_length_b 9.746336
_cell_length_c 9.251613
_cell_angle_alpha 90.000000
_cell_angle_beta 90.000000
_cell_angle_gamma 90.000000
_cell_volume 2693.277151
_symmetry_space_group_name_H-M "P M M M"
_symmetry_group_IT_number 47
_symmetry_cell_setting 'orthorhombic'
loop_
_space_group_symop_operation_xyz
x,y,z
-x,-y,z
x,-y,-z
-x,y,-z
-x,-y,-z
x,y,-z
-x,y,z
x,-y,z
loop_
_atom_site_type_symbol
_atom_site_label
_atom_site_fract_x
_atom_site_fract_y
_atom_site_fract_z
Si Si1 0.119867 0.158934 0.168324
Si Si2 0.947843 0.657409 0.664998
Si Si3 0.550042 0.155438 0.669952
Si Si4 0.278577 0.659415 0.165674
Si Si5 0.209443 0.158744 0.331146
Si Si6 0.618536 0.344447 0.833140
O O1 0.078437 0.246102 0.225577
O O2 0.164444 0.205865 0.251002
O O3 0.109297 0.000000 0.198343
O O4 0.126899 0.188941 0.000000
O O5 0.936335 0.697497 0.500000
O O6 0.934411 0.500000 0.693953
O O7 0.000000 0.679616 0.695520
O O8 0.556317 0.165804 0.500000
O O9 0.500000 0.203985 0.713620
O O10 0.586793 0.248846 0.742094
O O11 0.557499 0.000000 0.722483
O O12 0.269353 0.500000 0.198374
O O13 0.250201 0.751571 0.273580
O O14 0.330145 0.696376 0.194867
O O15 0.265916 0.693157 0.000000
O O16 0.202988 0.186487 0.500000
O O17 0.220077 0.000000 0.298573
O O18 0.610332 0.500000 0.783284
O O19 0.606396 0.326613 0.000000
#
# Coordination Sequence:
#
# PCOD8199511 Si02
#       6
#     8   8   8   8   8   8
#     4  10  21  36  54  77 105 137 173 212 254 302
#     4   9  19  36  56  78 105 137 173 212 254 302
#     4   9  19  35  52  72 101 135 170 209 252 299
#     4   9  19  36  55  75 102 135 169 206 251 303
#     4  10  21  36  54  77 104 134 170 211 254 301
#     4   9  19  35  53  75 103 133 167 208 252 300
#
# _framework density 17.822154000000001
#
# number of rings (size 3 to 8) (size 9 to 14) (size 15 to 20)
#    0.000    2.667    0.000    3.000    0.000    6.667 
#    0.000   10.000    0.000    0.000    0.000    0.000 
#    0.000    0.000    0.000    0.000    0.000    0.000 
#
# Total GULP energy -595268.387172 kJ/mol
# GULP energy per Si atom -12401.424733 kJ/mol
# Density = 1.778159 g / cm^3
# Si number density = 17.822154 Si / 1000 Ang^3
#
#
#
# Elastic Constant Matrix: (Units=GPa)
#
#
# Indices 1 2 3 4 5 6 
#
# 1 98.2815 62.8066 59.2130 0.0000 0.0000 0.0000
# 2 62.8066 77.3536 53.1122 0.0000 0.0000 0.0000
# 3 59.2130 53.1122 88.6675 0.0000 0.0000 0.0000
# 4 0.0000 0.0000 0.0000 30.8256 0.0000 0.0000
# 5 0.0000 0.0000 0.0000 0.0000 45.0658 0.0000
# 6 0.0000 0.0000 0.0000 0.0000 0.0000 39.9828
#
#
#
# Elastic Compliance Matrix: (Units=1/GPa)
#
#
# Indices 1 2 3 4 5 6 
#
# 1 0.023625 -0.014183 -0.007282 0.000000 0.000000 0.000000
# 2 -0.014183 0.030473 -0.008782 0.000000 0.000000 0.000000
# 3 -0.007282 -0.008782 0.021402 0.000000 0.000000 0.000000
# 4 0.000000 0.000000 0.000000 0.032441 0.000000 0.000000
# 5 0.000000 0.000000 0.000000 0.000000 0.022190 0.000000
# 6 0.000000 0.000000 0.000000 0.000000 0.000000 0.025011
#
#
# Mechanical properties :
#
#
# Convention : Reuss Voigt Hill
#
# Bulk Modulus (GPa) = 66.63682 68.28514 67.46098
# Shear Modulus (GPa) = 22.66166 29.11954 25.89060
#
# Velocity S-wave (km/s) = 3.56974 4.04653 3.81559
# Velocity P-wave (km/s) = 7.37982 7.76083 7.57272
#
# Compressibility (1/GPa) = 0.01500672
#
# Stress axis : x y z
#
# Youngs Moduli (GPa) = 42.32727 32.81575 46.72559
#
# Poissons Ratio (x) = 0.46541 0.34025
# Poissons Ratio (y) = 0.60031 0.41036
# Poissons Ratio (z) = 0.30822 0.28820
#
# Static dielectric constant tensor:
#      x y z
#    x 2.932250 0.000000 0.000000 
#    y 0.000000 3.279610 0.000000 
#    z 0.000000 0.000000 3.241850 
# 
# 
# High freq. dielectric constant tensor:
#      x y z
#    x 1.694780 0.000000 0.000000 
#    y 0.000000 1.688880 0.000000 
#    z 0.000000 0.000000 1.691450 
# 
# From -- ./inp_files/2425.got.cif
#   From: 2010.03.12/outbox.cif.g09.slc.cpg/sg47_2_cif.got.tgz:2425.got - 2010.04.14 03:12:58.
