data_PCOD8199384
_publ_section_title
;
Structure prediction by ZEFSAII (Michael W. Deem and Ramdas Pophale) SiO2 
 PCOD8199384
Probable space group: P M M M
;
_chemical_formula_sum "Si O2"
_cell_formula_units_Z 40
_cell_length_a 9.809773
_cell_length_b 23.964039
_cell_length_c 8.336005
_cell_angle_alpha 90.000000
_cell_angle_beta 90.000000
_cell_angle_gamma 90.000000
_cell_volume 1959.642916
_symmetry_space_group_name_H-M "P M M M"
_symmetry_group_IT_number 47
_symmetry_cell_setting 'orthorhombic'
loop_
_space_group_symop_operation_xyz
x,y,z
-x,-y,z
x,-y,-z
-x,y,-z
-x,-y,-z
x,y,-z
-x,y,z
x,-y,z
loop_
_atom_site_type_symbol
_atom_site_label
_atom_site_fract_x
_atom_site_fract_y
_atom_site_fract_z
Si Si1 0.653708 0.341687 0.811634
Si Si2 0.240121 0.129573 0.813627
Si Si3 0.844040 0.753310 0.685974
Si Si4 0.500000 0.936920 0.809301
Si Si5 0.000000 0.934694 0.679893
Si Si6 0.152638 0.562384 0.809081
O O1 0.500000 0.338269 0.737423
O O2 0.740197 0.286399 0.779069
O O3 0.736311 0.394494 0.737460
O O4 0.640069 0.349394 0.000000
O O5 0.207793 0.184214 0.711440
O O6 0.374042 0.099388 0.747245
O O7 0.126617 0.083695 0.785244
O O8 0.251071 0.146121 0.000000
O O9 0.838382 0.738193 0.500000
O O10 0.000000 0.746821 0.750466
O O11 0.500000 0.000000 0.736632
O O12 0.500000 0.941700 0.000000
O O13 0.000000 0.907984 0.500000
O O14 0.000000 0.000000 0.663989
O O15 0.190339 0.500000 0.749980
O O16 0.000000 0.578429 0.748614
O O17 0.154130 0.564629 0.000000
#
# Coordination Sequence:
#
# PCOD8199384 Si02
#       6
#     8   8   8   4   4   8
#     4  10  21  35  55  85 118 152 193 238 285 343
#     4  11  22  38  63  89 113 148 192 238 288 342
#     4  11  24  41  59  80 111 149 191 241 296 349
#     4   9  20  38  59  87 119 145 178 229 284 339
#     4  11  23  39  59  87 123 155 188 233 282 339
#     4   8  14  27  50  81 116 153 192 236 285 335
#
# _framework density 20.411881999999999
#
# number of rings (size 3 to 8) (size 9 to 14) (size 15 to 20)
#    0.000    2.000    1.000    3.300    1.400    4.400 
#    0.000    3.500    0.000    4.200    0.000    4.200 
#    0.000    0.000    0.000    0.000    0.000    0.000 
#
# Total GULP energy -495889.038963 kJ/mol
# GULP energy per Si atom -12397.225974 kJ/mol
# Density = 2.036542 g / cm^3
# Si number density = 20.411882 Si / 1000 Ang^3
#
#
#
# Elastic Constant Matrix: (Units=GPa)
#
#
# Indices 1 2 3 4 5 6 
#
# 1 198.2836 86.0320 9.5847 0.0000 0.0000 0.0000
# 2 86.0320 127.0215 4.1708 0.0000 0.0000 0.0000
# 3 9.5847 4.1708 20.9753 0.0000 0.0000 0.0000
# 4 0.0000 0.0000 0.0000 4.3989 0.0000 0.0000
# 5 0.0000 0.0000 0.0000 0.0000 13.8565 0.0000
# 6 0.0000 0.0000 0.0000 0.0000 0.0000 43.4573
#
#
#
# Elastic Compliance Matrix: (Units=1/GPa)
#
#
# Indices 1 2 3 4 5 6 
#
# 1 0.007256 -0.004837 -0.002354 0.000000 0.000000 0.000000
# 2 -0.004837 0.011149 -0.000007 0.000000 0.000000 0.000000
# 3 -0.002354 -0.000007 0.048752 0.000000 0.000000 0.000000
# 4 0.000000 0.000000 0.000000 0.227327 0.000000 0.000000
# 5 0.000000 0.000000 0.000000 0.000000 0.072168 0.000000
# 6 0.000000 0.000000 0.000000 0.000000 0.000000 0.023011
#
#
# Mechanical properties :
#
#
# Convention : Reuss Voigt Hill
#
# Bulk Modulus (GPa) = 18.95302 60.65060 39.80181
# Shear Modulus (GPa) = 11.85830 28.77541 20.31685
#
# Velocity S-wave (km/s) = 2.41291 3.75872 3.15833
# Velocity P-wave (km/s) = 4.13138 6.97246 5.73077
#
# Compressibility (1/GPa) = 0.05276203
#
# Stress axis : x y z
#
# Youngs Moduli (GPa) = 137.82104 89.69358 20.51198
#
# Poissons Ratio (x) = 0.43386 0.04828
# Poissons Ratio (y) = 0.66665 0.00014
# Poissons Ratio (z) = 0.32439 0.00059
#
# Static dielectric constant tensor:
#      x y z
#    x 4.103560 0.000000 0.000000 
#    y 0.000000 3.824860 0.000000 
#    z 0.000000 0.000000 3.341580 
# 
# 
# High freq. dielectric constant tensor:
#      x y z
#    x 1.810380 0.000000 0.000000 
#    y 0.000000 1.808200 0.000000 
#    z 0.000000 0.000000 1.761170 
# 
# From -- ./inp_files/1862.got.cif
#   From: 2010.03.12/outbox.cif.g09.slc.cpg/sg47_1_cif.got.tgz:1862.got - 2010.04.14 03:12:58.
