data_PCOD8199676
_publ_section_title
;
Structure prediction by ZEFSAII (Michael W. Deem and Ramdas Pophale) SiO2 
 PCOD8199676
Probable space group: P M M M
;
_chemical_formula_sum "Si O2"
_cell_formula_units_Z 64
_cell_length_a 9.132259
_cell_length_b 25.070382
_cell_length_c 14.270825
_cell_angle_alpha 90.000000
_cell_angle_beta 90.000000
_cell_angle_gamma 90.000000
_cell_volume 3267.294276
_symmetry_space_group_name_H-M "P M M M"
_symmetry_group_IT_number 47
_symmetry_cell_setting 'orthorhombic'
loop_
_space_group_symop_operation_xyz
x,y,z
-x,-y,z
x,-y,-z
-x,y,-z
-x,-y,-z
x,y,-z
-x,y,z
x,-y,z
loop_
_atom_site_type_symbol
_atom_site_label
_atom_site_fract_x
_atom_site_fract_y
_atom_site_fract_z
Si Si1 0.832271 0.560755 0.217214
Si Si2 0.835720 0.063345 0.602407
Si Si3 0.671871 0.651366 0.890436
Si Si4 0.332719 0.280103 0.394110
Si Si5 0.671670 0.938660 0.217031
Si Si6 0.831684 0.852835 0.892730
Si Si7 0.172696 0.747288 0.215796
Si Si8 0.332675 0.405424 0.394049
O O1 0.820480 0.500000 0.182430
O O2 0.737070 0.595994 0.146593
O O3 0.773038 0.563997 0.323268
O O4 0.000000 0.580567 0.216009
O O5 0.783339 0.084510 0.500000
O O6 0.730409 0.084681 0.684028
O O7 0.000000 0.083785 0.623056
O O8 0.832620 0.000000 0.600928
O O9 0.500000 0.652179 0.868492
O O10 0.746140 0.700133 0.837612
O O11 0.705389 0.656388 0.000000
O O12 0.286240 0.265260 0.500000
O O13 0.500000 0.262714 0.375743
O O14 0.225416 0.249427 0.323341
O O15 0.315734 0.342760 0.376785
O O16 0.500000 0.932068 0.217001
O O17 0.737866 0.904766 0.132540
O O18 0.719216 0.000000 0.202438
O O19 0.781340 0.802561 0.831842
O O20 0.000000 0.867029 0.874036
O O21 0.802376 0.837959 0.000000
O O22 0.000000 0.737215 0.210711
O O23 0.286584 0.420327 0.500000
O O24 0.500000 0.422894 0.375930
#
# Coordination Sequence:
#
# PCOD8199676 Si02
#       8
#     8   8   8   8   8   8   8   8
#     4  11  24  39  56  83 118 153 191 240 293 341
#     4   8  14  27  50  79 110 147 190 231 272 325
#     4  11  24  41  62  86 111 146 192 237 287 349
#     4   9  18  34  58  88 121 155 190 228 275 337
#     4  10  21  36  56  85 119 153 191 238 290 341
#     4  10  23  42  61  83 113 151 194 238 286 342
#     4  11  22  38  63  92 119 146 184 237 289 339
#     4   9  18  34  57  84 115 153 194 234 279 337
#
# _framework density 19.588073999999999
#
# number of rings (size 3 to 8) (size 9 to 14) (size 15 to 20)
#    0.000    2.125    1.250    3.000    0.000    6.000 
#    0.000    6.875    0.000    0.750    0.000    0.000 
#    0.000    0.000    0.000    0.000    0.000    0.000 
#
# Total GULP energy -793698.899109 kJ/mol
# GULP energy per Si atom -12401.545299 kJ/mol
# Density = 1.954349 g / cm^3
# Si number density = 19.588074 Si / 1000 Ang^3
#
#
#
# Elastic Constant Matrix: (Units=GPa)
#
#
# Indices 1 2 3 4 5 6 
#
# 1 94.9952 49.6187 58.9181 0.0000 0.0000 0.0000
# 2 49.6187 82.3179 52.3403 0.0000 0.0000 0.0000
# 3 58.9181 52.3403 119.5463 0.0000 0.0000 0.0000
# 4 0.0000 0.0000 0.0000 24.7635 0.0000 0.0000
# 5 0.0000 0.0000 0.0000 0.0000 31.4727 0.0000
# 6 0.0000 0.0000 0.0000 0.0000 0.0000 21.9378
#
#
#
# Elastic Compliance Matrix: (Units=1/GPa)
#
#
# Indices 1 2 3 4 5 6 
#
# 1 0.017729 -0.007110 -0.005625 0.000000 0.000000 0.000000
# 2 -0.007110 0.019686 -0.005115 0.000000 0.000000 0.000000
# 3 -0.005625 -0.005115 0.013376 0.000000 0.000000 0.000000
# 4 0.000000 0.000000 0.000000 0.040382 0.000000 0.000000
# 5 0.000000 0.000000 0.000000 0.000000 0.031774 0.000000
# 6 0.000000 0.000000 0.000000 0.000000 0.000000 0.045583
#
#
# Mechanical properties :
#
#
# Convention : Reuss Voigt Hill
#
# Bulk Modulus (GPa) = 66.25939 68.73483 67.49711
# Shear Modulus (GPa) = 23.89358 24.70029 24.29694
#
# Velocity S-wave (km/s) = 3.49636 3.55489 3.52574
# Velocity P-wave (km/s) = 7.08514 7.21221 7.14896
#
# Compressibility (1/GPa) = 0.01509220
#
# Stress axis : x y z
#
# Youngs Moduli (GPa) = 56.40352 50.79761 74.75805
#
# Poissons Ratio (x) = 0.36119 0.42050
# Poissons Ratio (y) = 0.40104 0.38237
# Poissons Ratio (z) = 0.31726 0.25982
#
# Static dielectric constant tensor:
#      x y z
#    x 3.566030 0.000000 0.000000 
#    y 0.000000 3.363030 0.000000 
#    z 0.000000 0.000000 3.814350 
# 
# 
# High freq. dielectric constant tensor:
#      x y z
#    x 1.762550 0.000000 0.000000 
#    y 0.000000 1.745220 0.000000 
#    z 0.000000 0.000000 1.774940 
# 
# From -- ./inp_files/12765.got.cif
#   From: 2010.03.12/outbox.cif.g09.slc.cpg/sg47_7_cif.got.tgz:12765.got - 2010.04.14 03:12:58.
