data_PCOD8199885
_publ_section_title
;
Structure prediction by ZEFSAII (Michael W. Deem and Ramdas Pophale) SiO2 
 PCOD8199885
Probable space group: P M M M
;
_chemical_formula_sum "Si O2"
_cell_formula_units_Z 56
_cell_length_a 20.877154
_cell_length_b 9.023926
_cell_length_c 14.246234
_cell_angle_alpha 90.000000
_cell_angle_beta 90.000000
_cell_angle_gamma 90.000000
_cell_volume 2683.903481
_symmetry_space_group_name_H-M "P M M M"
_symmetry_group_IT_number 47
_symmetry_cell_setting 'orthorhombic'
loop_
_space_group_symop_operation_xyz
x,y,z
-x,-y,z
x,-y,-z
-x,y,-z
-x,-y,-z
x,y,-z
-x,y,z
x,-y,z
loop_
_atom_site_type_symbol
_atom_site_label
_atom_site_fract_x
_atom_site_fract_y
_atom_site_fract_z
Si Si1 0.195189 0.839481 0.604765
Si Si2 0.384738 0.827686 0.780164
Si Si3 0.679725 0.674211 0.610544
Si Si4 0.744430 0.830529 0.108852
Si Si5 0.927008 0.334732 0.351340
Si Si6 0.500000 0.323488 0.889598
Si Si7 0.931216 0.172108 0.000000
Si Si8 0.861704 0.663523 0.155336
O O1 0.216484 0.871793 0.500000
O O2 0.249598 0.729586 0.644596
O O3 0.123819 0.771927 0.599605
O O4 0.195216 0.000000 0.658505
O O5 0.372058 0.756507 0.676909
O O6 0.325178 0.809864 0.849052
O O7 0.439646 0.741478 0.834812
O O8 0.402901 0.000000 0.765247
O O9 0.665537 0.707442 0.500000
O O10 0.676890 0.500000 0.629960
O O11 0.790704 0.727741 0.173404
O O12 0.767180 0.000000 0.115226
O O13 0.745231 0.777399 0.000000
O O14 0.923092 0.500000 0.395170
O O15 0.907068 0.342545 0.244059
O O16 0.000000 0.273975 0.362083
O O17 0.500000 0.500000 0.881178
O O18 0.500000 0.275632 0.000000
O O19 0.892223 0.215977 0.089657
O O20 0.000000 0.253368 0.000000
O O21 0.941342 0.000000 0.000000
O O22 0.857082 0.500000 0.110138
#
# Coordination Sequence:
#
# PCOD8199885 Si02
#       8
#     8   8   8   8   8   4   4   8
#     4  10  21  37  58  85 116 150 192 245 303 362
#     4  11  23  40  66  97 129 169 211 256 308 361
#     4  10  21  39  64  94 128 165 205 253 309 369
#     4  10  21  37  57  84 119 155 194 244 302 363
#     4  10  22  38  54  75 106 146 192 243 302 368
#     4  11  25  45  68  97 136 181 221 258 300 355
#     4  11  23  37  53  73 101 140 183 228 285 351
#     4  11  22  36  55  79 106 140 185 238 292 347
#
# _framework density 20.865131000000002
#
# number of rings (size 3 to 8) (size 9 to 14) (size 15 to 20)
#    0.000    1.571    0.714    3.857    0.000    9.143 
#    0.000    1.786    0.000    2.143    0.000    0.000 
#    0.000    0.000    0.000    0.000    0.000    0.000 
#
# Total GULP energy -694017.114927 kJ/mol
# GULP energy per Si atom -12393.162767 kJ/mol
# Density = 2.081764 g / cm^3
# Si number density = 20.865131 Si / 1000 Ang^3
#
#
#
# Elastic Constant Matrix: (Units=GPa)
#
#
# Indices 1 2 3 4 5 6 
#
# 1 122.4412 60.6669 43.9885 0.0000 0.0000 0.0000
# 2 60.6669 131.8636 47.3521 0.0000 0.0000 0.0000
# 3 43.9885 47.3521 92.5645 0.0000 0.0000 0.0000
# 4 0.0000 0.0000 0.0000 30.3782 0.0000 0.0000
# 5 0.0000 0.0000 0.0000 0.0000 33.2903 0.0000
# 6 0.0000 0.0000 0.0000 0.0000 0.0000 33.1236
#
#
#
# Elastic Compliance Matrix: (Units=1/GPa)
#
#
# Indices 1 2 3 4 5 6 
#
# 1 0.011363 -0.004029 -0.003339 0.000000 0.000000 0.000000
# 2 -0.004029 0.010719 -0.003569 0.000000 0.000000 0.000000
# 3 -0.003339 -0.003569 0.014216 0.000000 0.000000 0.000000
# 4 0.000000 0.000000 0.000000 0.032918 0.000000 0.000000
# 5 0.000000 0.000000 0.000000 0.000000 0.030039 0.000000
# 6 0.000000 0.000000 0.000000 0.000000 0.000000 0.030190
#
#
# Mechanical properties :
#
#
# Convention : Reuss Voigt Hill
#
# Bulk Modulus (GPa) = 69.32691 72.32048 70.82370
# Shear Modulus (GPa) = 32.02561 32.34919 32.18740
#
# Velocity S-wave (km/s) = 3.92201 3.94178 3.93191
# Velocity P-wave (km/s) = 7.33539 7.44668 7.39124
#
# Compressibility (1/GPa) = 0.01442441
#
# Stress axis : x y z
#
# Youngs Moduli (GPa) = 88.00571 93.29565 70.34535
#
# Poissons Ratio (x) = 0.37587 0.23488
# Poissons Ratio (y) = 0.35455 0.25104
# Poissons Ratio (z) = 0.29385 0.33294
#
# Static dielectric constant tensor:
#      x y z
#    x 3.848930 0.000000 0.000000 
#    y 0.000000 3.999890 0.000000 
#    z 0.000000 0.000000 3.768360 
# 
# 
# High freq. dielectric constant tensor:
#      x y z
#    x 1.811230 0.000000 0.000000 
#    y 0.000000 1.824520 0.000000 
#    z 0.000000 0.000000 1.822860 
# 
# From -- ./inp_files/25194.got.cif
#   From: 2010.03.12/outbox.cif.g09.slc.cpg/sg47_13_cif.got.tgz:25194.got - 2010.04.14 03:12:58.
