data_PCOD8199207
_publ_section_title
;
Structure prediction by ZEFSAII (Michael W. Deem and Ramdas Pophale) SiO2 
 PCOD8199207
Probable space group: P M M M
;
_chemical_formula_sum "Si O2"
_cell_formula_units_Z 48
_cell_length_a 30.117245
_cell_length_b 9.311901
_cell_length_c 9.849604
_cell_angle_alpha 90.000000
_cell_angle_beta 90.000000
_cell_angle_gamma 90.000000
_cell_volume 2762.309660
_symmetry_space_group_name_H-M "P M M M"
_symmetry_group_IT_number 47
_symmetry_cell_setting 'orthorhombic'
loop_
_space_group_symop_operation_xyz
x,y,z
-x,-y,z
x,-y,-z
-x,y,-z
-x,-y,-z
x,y,-z
-x,y,z
x,-y,z
loop_
_atom_site_type_symbol
_atom_site_label
_atom_site_fract_x
_atom_site_fract_y
_atom_site_fract_z
Si Si1 0.284637 0.668060 0.657056
Si Si2 0.549159 0.170552 0.847800
Si Si3 0.049853 0.331183 0.653952
Si Si4 0.218135 0.164820 0.157020
Si Si5 0.373216 0.167237 0.656610
Si Si6 0.115501 0.834557 0.845937
O O1 0.273608 0.700230 0.500000
O O2 0.289922 0.500000 0.684714
O O3 0.245180 0.728739 0.747831
O O4 0.329935 0.745435 0.700868
O O5 0.500000 0.228148 0.807736
O O6 0.585689 0.230001 0.743273
O O7 0.548699 0.000000 0.841381
O O8 0.561344 0.221851 0.000000
O O9 0.058476 0.280975 0.500000
O O10 0.055998 0.500000 0.666535
O O11 0.085416 0.258269 0.748934
O O12 0.000000 0.287075 0.698267
O O13 0.166736 0.193704 0.188675
O O14 0.230418 0.000000 0.190467
O O15 0.228861 0.198070 0.000000
O O16 0.385116 0.192973 0.500000
O O17 0.364306 0.000000 0.687309
O O18 0.103564 0.000000 0.823874
O O19 0.105578 0.788397 0.000000
#
# Coordination Sequence:
#
# PCOD8199207 Si02
#       6
#     8   8   8   8   8   8
#     4  10  21  35  50  71 100 131 163 201 244 290
#     4   8  14  25  42  66  94 120 149 190 238 284
#     4   9  19  35  52  72 101 135 169 204 241 284
#     4   9  19  36  55  74  98 128 162 201 245 293
#     4   9  17  29  46  68  93 122 157 196 237 282
#     4   9  19  35  53  75 102 129 160 201 247 293
#
# _framework density 17.376763
#
# number of rings (size 3 to 8) (size 9 to 14) (size 15 to 20)
#    0.000    3.000    0.000    2.500    0.000    5.000 
#    0.000   10.833    0.000    0.500    0.000    3.500 
#    0.000    0.000    0.000    0.000    0.000    0.000 
#
# Total GULP energy -595127.212079 kJ/mol
# GULP energy per Si atom -12398.483585 kJ/mol
# Density = 1.733721 g / cm^3
# Si number density = 17.376763 Si / 1000 Ang^3
#
#
#
# Elastic Constant Matrix: (Units=GPa)
#
#
# Indices 1 2 3 4 5 6 
#
# 1 115.2715 51.1449 76.8324 0.0000 0.0000 0.0000
# 2 51.1449 56.3501 44.1475 0.0000 0.0000 0.0000
# 3 76.8324 44.1475 90.7607 0.0000 0.0000 0.0000
# 4 0.0000 0.0000 0.0000 27.3526 0.0000 0.0000
# 5 0.0000 0.0000 0.0000 0.0000 42.6095 0.0000
# 6 0.0000 0.0000 0.0000 0.0000 0.0000 -14.1505
#
#
#
# Elastic Compliance Matrix: (Units=1/GPa)
#
#
# Indices 1 2 3 4 5 6 
#
# 1 0.022326 -0.008816 -0.014611 0.000000 0.000000 0.000000
# 2 -0.008816 0.032154 -0.008177 0.000000 0.000000 0.000000
# 3 -0.014611 -0.008177 0.027365 0.000000 0.000000 0.000000
# 4 0.000000 0.000000 0.000000 0.036560 0.000000 0.000000
# 5 0.000000 0.000000 0.000000 0.000000 0.023469 0.000000
# 6 0.000000 0.000000 0.000000 0.000000 0.000000 -0.070669
#
#
# Mechanical properties :
#
#
# Convention : Reuss Voigt Hill
#
# Bulk Modulus (GPa) = 53.66139 67.40354 60.53246
# Shear Modulus (GPa) = 35.55539 17.17949 26.36744
#
# Velocity S-wave (km/s) = 4.52834 3.14769 3.89960
# Velocity P-wave (km/s) = 7.63475 7.21694 7.42878
#
# Compressibility (1/GPa) = 0.01863537
#
# Stress axis : x y z
#
# Youngs Moduli (GPa) = 44.79125 31.09986 36.54370
#
# Poissons Ratio (x) = 0.27419 0.53395
# Poissons Ratio (y) = 0.39489 0.29882
# Poissons Ratio (z) = 0.65446 0.25431
#
# Static dielectric constant tensor:
#      x y z
#    x 3.480070 0.000000 0.000000 
#    y 0.000000 2.997930 0.000000 
#    z 0.000000 0.000000 3.284610 
# 
# 
# High freq. dielectric constant tensor:
#      x y z
#    x 1.678360 0.000000 0.000000 
#    y 0.000000 1.649120 0.000000 
#    z 0.000000 0.000000 1.673210 
# 
# From -- ./inp_files/2426.got.cif
#   From: 2010.03.12/outbox.cif.g09.slc.cpg/sg47_2_cif.got.tgz:2426.got - 2010.04.14 03:12:58.
