data_PCOD8199183
_publ_section_title
;
Structure prediction by ZEFSAII (Michael W. Deem and Ramdas Pophale) SiO2 
 PCOD8199183
Probable space group: P M M M
;
_chemical_formula_sum "Si O2"
_cell_formula_units_Z 56
_cell_length_a 18.970582
_cell_length_b 18.708424
_cell_length_c 9.287887
_cell_angle_alpha 90.000000
_cell_angle_beta 90.000000
_cell_angle_gamma 90.000000
_cell_volume 3296.361111
_symmetry_space_group_name_H-M "P M M M"
_symmetry_group_IT_number 47
_symmetry_cell_setting 'orthorhombic'
loop_
_space_group_symop_operation_xyz
x,y,z
-x,-y,z
x,-y,-z
-x,y,-z
-x,-y,-z
x,y,-z
-x,y,z
x,-y,z
loop_
_atom_site_type_symbol
_atom_site_label
_atom_site_fract_x
_atom_site_fract_y
_atom_site_fract_z
Si Si1 0.846087 0.795212 0.165561
Si Si2 0.919826 0.081467 0.330589
Si Si3 0.201642 0.582383 0.666150
Si Si4 0.583374 0.074980 0.159707
Si Si5 0.080480 0.650377 0.833499
Si Si6 0.282997 0.698348 0.831100
Si Si7 0.578382 0.772555 0.828140
O O1 0.864487 0.865195 0.256869
O O2 0.901893 0.732720 0.201299
O O3 0.768295 0.765226 0.204948
O O4 0.850117 0.818133 0.000000
O O5 0.913491 0.092147 0.500000
O O6 0.000000 0.098136 0.280394
O O7 0.900248 0.000000 0.288229
O O8 0.197856 0.604706 0.500000
O O9 0.221857 0.500000 0.685273
O O10 0.125852 0.596925 0.736910
O O11 0.261829 0.628167 0.743982
O O12 0.500000 0.075641 0.145385
O O13 0.603163 0.149913 0.237455
O O14 0.607274 0.000000 0.238857
O O15 0.616920 0.073749 0.000000
O O16 0.000000 0.635391 0.795211
O O17 0.097766 0.634417 0.000000
O O18 0.362924 0.715460 0.781512
O O19 0.277798 0.680698 0.000000
O O20 0.500000 0.750001 0.772364
O O21 0.576581 0.780191 0.000000
#
# Coordination Sequence:
#
# PCOD8199183 Si02
#       7
#     8   8   8   8   8   8   8
#     4   9  17  29  44  64  92 122 151 184 224 272
#     4   9  18  31  45  62  85 116 158 204 241 270
#     4  10  21  35  50  69  93 122 156 190 222 263
#     4   7   9  14  27  51  84 117 143 169 209 261
#     4   9  18  32  50  73  99 124 150 183 226 275
#     4   9  18  32  49  70  95 121 150 186 231 282
#     4   8  13  23  42  67  92 118 151 191 230 269
#
# _framework density 16.988430000000001
#
# number of rings (size 3 to 8) (size 9 to 14) (size 15 to 20)
#    0.000    3.286    0.000    3.429    0.000    5.143 
#    0.000    2.857    0.000    3.429    0.000    3.000 
#    0.000    0.000    0.000    5.143    0.000    4.000 
#
# Total GULP energy -693777.783271 kJ/mol
# GULP energy per Si atom -12388.888987 kJ/mol
# Density = 1.694976 g / cm^3
# Si number density = 16.988430 Si / 1000 Ang^3
#
#
#
# Elastic Constant Matrix: (Units=GPa)
#
#
# Indices 1 2 3 4 5 6 
#
# 1 107.6995 62.6646 38.0153 0.0000 0.0000 0.0000
# 2 62.6646 104.2608 48.5530 0.0000 0.0000 0.0000
# 3 38.0153 48.5530 52.4951 0.0000 0.0000 0.0000
# 4 0.0000 0.0000 0.0000 26.9068 0.0000 0.0000
# 5 0.0000 0.0000 0.0000 0.0000 6.0268 0.0000
# 6 0.0000 0.0000 0.0000 0.0000 0.0000 16.7012
#
#
#
# Elastic Compliance Matrix: (Units=1/GPa)
#
#
# Indices 1 2 3 4 5 6 
#
# 1 0.014831 -0.006873 -0.004384 0.000000 0.000000 0.000000
# 2 -0.006873 0.020033 -0.013552 0.000000 0.000000 0.000000
# 3 -0.004384 -0.013552 0.034758 0.000000 0.000000 0.000000
# 4 0.000000 0.000000 0.000000 0.037165 0.000000 0.000000
# 5 0.000000 0.000000 0.000000 0.000000 0.165925 0.000000
# 6 0.000000 0.000000 0.000000 0.000000 0.000000 0.059876
#
#
# Mechanical properties :
#
#
# Convention : Reuss Voigt Hill
#
# Bulk Modulus (GPa) = 49.98483 62.54680 56.26581
# Shear Modulus (GPa) = 12.85765 17.60845 15.23305
#
# Velocity S-wave (km/s) = 2.75407 3.22296 2.99770
# Velocity P-wave (km/s) = 6.29285 7.12370 6.72113
#
# Compressibility (1/GPa) = 0.02000607
#
# Stress axis : x y z
#
# Youngs Moduli (GPa) = 67.42486 49.91793 28.77047
#
# Poissons Ratio (x) = 0.34307 0.12612
# Poissons Ratio (y) = 0.46339 0.38988
# Poissons Ratio (z) = 0.29557 0.67646
#
# Static dielectric constant tensor:
#      x y z
#    x 3.168020 0.000000 0.000000 
#    y 0.000000 3.290500 0.000000 
#    z 0.000000 0.000000 2.840690 
# 
# 
# High freq. dielectric constant tensor:
#      x y z
#    x 1.638260 0.000000 0.000000 
#    y 0.000000 1.654940 0.000000 
#    z 0.000000 0.000000 1.617600 
# 
# From -- ./inp_files/11510.got.cif
#   From: 2010.03.12/outbox.cif.g09.slc.cpg/sg47_6_cif.got.tgz:11510.got - 2010.04.14 03:12:58.
