data_PCOD8199582
_publ_section_title
;
Structure prediction by ZEFSAII (Michael W. Deem and Ramdas Pophale) SiO2 
 PCOD8199582
Probable space group: P M M M
;
_chemical_formula_sum "Si O2"
_cell_formula_units_Z 48
_cell_length_a 29.019287
_cell_length_b 9.891104
_cell_length_c 8.991210
_cell_angle_alpha 90.000000
_cell_angle_beta 90.000000
_cell_angle_gamma 90.000000
_cell_volume 2580.772053
_symmetry_space_group_name_H-M "P M M M"
_symmetry_group_IT_number 47
_symmetry_cell_setting 'orthorhombic'
loop_
_space_group_symop_operation_xyz
x,y,z
-x,-y,z
x,-y,-z
-x,y,-z
-x,-y,-z
x,y,-z
-x,y,z
x,-y,z
loop_
_atom_site_type_symbol
_atom_site_label
_atom_site_fract_x
_atom_site_fract_y
_atom_site_fract_z
Si Si1 0.197064 0.158042 0.825559
Si Si2 0.053549 0.500000 0.823486
Si Si3 0.893435 0.256112 0.676746
Si Si4 0.446718 0.845199 0.171265
Si Si5 0.050528 0.000000 0.675780
Si Si6 0.376050 0.653419 0.674415
Si Si7 0.281934 0.653752 0.173563
O O1 0.158299 0.235827 0.732527
O O2 0.243262 0.237739 0.781664
O O3 0.201289 0.000000 0.779397
O O4 0.186204 0.171739 0.000000
O O5 0.080625 0.624750 0.757399
O O6 0.000000 0.500000 0.772159
O O7 0.057248 0.500000 0.000000
O O8 0.893474 0.278298 0.500000
O O9 0.921842 0.127943 0.731761
O O10 0.500000 0.817630 0.206582
O O11 0.417266 0.748064 0.274111
O O12 0.434124 0.000000 0.207934
O O13 0.435820 0.813232 0.000000
O O14 0.046292 0.000000 0.500000
O O15 0.000000 0.000000 0.749378
O O16 0.370712 0.666151 0.500000
O O17 0.387283 0.500000 0.723495
O O18 0.328095 0.701335 0.744989
O O19 0.267583 0.500000 0.220225
O O20 0.292016 0.659767 0.000000
#
# Coordination Sequence:
#
# PCOD8199582 Si02
#       7
#     8   4   8   8   4   8   8
#     4  10  21  37  57  83 116 150 186 231 282 337
#     4  11  25  43  61  85 117 151 189 233 280 333
#     4  11  22  38  60  87 117 150 188 231 280 335
#     4   9  19  36  57  81 110 147 192 238 282 334
#     4   9  18  34  57  83 113 147 183 225 272 325
#     4  10  21  36  54  81 116 150 186 233 286 338
#     4   9  19  36  57  79 106 148 195 235 279 332
#
# _framework density 18.599086
#
# number of rings (size 3 to 8) (size 9 to 14) (size 15 to 20)
#    0.000    2.167    0.833    2.250    1.167    4.667 
#    0.000    4.167    0.000    2.000    0.000    0.000 
#    0.000    0.000    0.000    0.000    0.000    0.000 
#
# Total GULP energy -595208.679216 kJ/mol
# GULP energy per Si atom -12400.180817 kJ/mol
# Density = 1.855675 g / cm^3
# Si number density = 18.599086 Si / 1000 Ang^3
#
#
#
# Elastic Constant Matrix: (Units=GPa)
#
#
# Indices 1 2 3 4 5 6 
#
# 1 135.8061 77.8381 52.7764 0.0000 0.0000 0.0000
# 2 77.8381 128.0359 44.2894 0.0000 0.0000 0.0000
# 3 52.7764 44.2894 57.8018 0.0000 0.0000 0.0000
# 4 0.0000 0.0000 0.0000 23.9565 0.0000 0.0000
# 5 0.0000 0.0000 0.0000 0.0000 18.8960 0.0000
# 6 0.0000 0.0000 0.0000 0.0000 0.0000 41.0548
#
#
#
# Elastic Compliance Matrix: (Units=1/GPa)
#
#
# Indices 1 2 3 4 5 6 
#
# 1 0.013745 -0.005463 -0.008364 0.000000 0.000000 0.000000
# 2 -0.005463 0.012798 -0.004818 0.000000 0.000000 0.000000
# 3 -0.008364 -0.004818 0.028629 0.000000 0.000000 0.000000
# 4 0.000000 0.000000 0.000000 0.041742 0.000000 0.000000
# 5 0.000000 0.000000 0.000000 0.000000 0.052921 0.000000
# 6 0.000000 0.000000 0.000000 0.000000 0.000000 0.024358
#
#
# Mechanical properties :
#
#
# Convention : Reuss Voigt Hill
#
# Bulk Modulus (GPa) = 55.92296 74.60573 65.26435
# Shear Modulus (GPa) = 22.99430 26.56412 24.77921
#
# Velocity S-wave (km/s) = 3.51994 3.78332 3.65400
# Velocity P-wave (km/s) = 6.83029 7.69963 7.27795
#
# Compressibility (1/GPa) = 0.01788174
#
# Stress axis : x y z
#
# Youngs Moduli (GPa) = 72.75416 78.13642 34.92903
#
# Poissons Ratio (x) = 0.42684 0.29215
# Poissons Ratio (y) = 0.39744 0.16830
# Poissons Ratio (z) = 0.60853 0.37650
#
# Static dielectric constant tensor:
#      x y z
#    x 3.486390 0.000000 0.000000 
#    y 0.000000 3.436150 0.000000 
#    z 0.000000 0.000000 3.310040 
# 
# 
# High freq. dielectric constant tensor:
#      x y z
#    x 1.730540 0.000000 0.000000 
#    y 0.000000 1.731450 0.000000 
#    z 0.000000 0.000000 1.715120 
# 
# From -- ./inp_files/2809.got.cif
#   From: 2010.03.12/outbox.cif.g09.slc.cpg/sg47_2_cif.got.tgz:2809.got - 2010.04.14 03:12:58.
