data_PCOD8199550
_publ_section_title
;
Structure prediction by ZEFSAII (Michael W. Deem and Ramdas Pophale) SiO2 
 PCOD8199550
Probable space group: P M M M
;
_chemical_formula_sum "Si O2"
_cell_formula_units_Z 56
_cell_length_a 9.145071
_cell_length_b 22.229051
_cell_length_c 13.836692
_cell_angle_alpha 90.000000
_cell_angle_beta 90.000000
_cell_angle_gamma 90.000000
_cell_volume 2812.809224
_symmetry_space_group_name_H-M "P M M M"
_symmetry_group_IT_number 47
_symmetry_cell_setting 'orthorhombic'
loop_
_space_group_symop_operation_xyz
x,y,z
-x,-y,z
x,-y,-z
-x,y,-z
-x,-y,-z
x,y,-z
-x,y,z
x,-y,z
loop_
_atom_site_type_symbol
_atom_site_label
_atom_site_fract_x
_atom_site_fract_y
_atom_site_fract_z
Si Si1 0.163592 0.068401 0.642211
Si Si2 0.673132 0.567939 0.000000
Si Si3 0.167525 0.748774 0.239942
Si Si4 0.661302 0.182649 0.605830
Si Si5 0.674891 0.371253 0.797093
Si Si6 0.667787 0.935190 0.000000
Si Si7 0.169333 0.570783 0.610268
Si Si8 0.843382 0.875477 0.152457
O O1 0.273634 0.115463 0.594123
O O2 0.158061 0.083547 0.754067
O O3 0.000000 0.075588 0.598591
O O4 0.219465 0.000000 0.625681
O O5 0.727482 0.597811 0.898422
O O6 0.733405 0.500000 0.000000
O O7 0.500000 0.569524 0.000000
O O8 0.232331 0.770936 0.341348
O O9 0.264973 0.696158 0.195232
O O10 0.177594 0.804868 0.168468
O O11 0.000000 0.727725 0.255505
O O12 0.644407 0.210135 0.500000
O O13 0.500000 0.179237 0.655566
O O14 0.500000 0.372140 0.789144
O O15 0.737609 0.399976 0.697622
O O16 0.707109 0.896526 0.092083
O O17 0.500000 0.947471 0.000000
O O18 0.749303 0.000000 0.000000
O O19 0.217063 0.590910 0.500000
O O20 0.192340 0.500000 0.619048
O O21 0.000000 0.588202 0.625759
O O22 0.000000 0.885112 0.099856
#
# Coordination Sequence:
#
# PCOD8199550 Si02
#       8
#     8   4   8   8   8   4   8   8
#     4   9  18  33  53  76 102 136 179 223 271 331
#     4   9  20  39  61  88 124 161 192 229 282 339
#     4  10  22  40  59  79 106 142 185 230 278 333
#     4  10  21  36  54  78 108 141 180 228 281 336
#     4  11  22  37  61  91 121 155 198 243 288 343
#     4  11  23  34  49  78 108 133 166 211 268 333
#     4   9  19  37  60  87 122 162 201 243 292 342
#     4   9  19  36  55  73  97 134 177 220 267 319
#
# _framework density 19.908920999999999
#
# number of rings (size 3 to 8) (size 9 to 14) (size 15 to 20)
#    0.000    2.286    0.000    3.643    0.000    8.000 
#    0.000    5.000    0.000    2.571    0.000    0.000 
#    0.000    0.000    0.000    0.000    0.000    0.000 
#
# Total GULP energy -693783.414136 kJ/mol
# GULP energy per Si atom -12388.989538 kJ/mol
# Density = 1.986361 g / cm^3
# Si number density = 19.908921 Si / 1000 Ang^3
#
#
#
# Elastic Constant Matrix: (Units=GPa)
#
#
# Indices 1 2 3 4 5 6 
#
# 1 97.5136 41.3349 51.7923 0.0000 0.0000 0.0000
# 2 41.3349 107.3349 53.8132 0.0000 0.0000 0.0000
# 3 51.7923 53.8132 133.0334 0.0000 0.0000 0.0000
# 4 0.0000 0.0000 0.0000 -4.1695 0.0000 0.0000
# 5 0.0000 0.0000 0.0000 0.0000 23.0888 0.0000
# 6 0.0000 0.0000 0.0000 0.0000 0.0000 34.2543
#
#
#
# Elastic Compliance Matrix: (Units=1/GPa)
#
#
# Indices 1 2 3 4 5 6 
#
# 1 0.013794 -0.003286 -0.004041 0.000000 0.000000 0.000000
# 2 -0.003286 0.012470 -0.003765 0.000000 0.000000 0.000000
# 3 -0.004041 -0.003765 0.010613 0.000000 0.000000 0.000000
# 4 0.000000 0.000000 0.000000 -0.239838 0.000000 0.000000
# 5 0.000000 0.000000 0.000000 0.000000 0.043311 0.000000
# 6 0.000000 0.000000 0.000000 0.000000 0.000000 0.029193
#
#
# Mechanical properties :
#
#
# Convention : Reuss Voigt Hill
#
# Bulk Modulus (GPa) = 68.05955 70.19583 69.12769
# Shear Modulus (GPa) = -48.36757 23.36418 -12.50169
#
# Velocity S-wave (km/s) = -4.93428 3.42943 -2.50860
# Velocity P-wave (km/s) = 1.34044 7.14257 5.13873
#
# Compressibility (1/GPa) = 0.01469302
#
# Stress axis : x y z
#
# Youngs Moduli (GPa) = 72.49379 80.19499 94.22384
#
# Poissons Ratio (x) = 0.26354 0.38077
# Poissons Ratio (y) = 0.23823 0.35472
# Poissons Ratio (z) = 0.29295 0.30191
#
# Static dielectric constant tensor:
#      x y z
#    x 3.733400 0.000000 0.000000 
#    y 0.000000 3.620580 0.000000 
#    z 0.000000 0.000000 3.620670 
# 
# 
# High freq. dielectric constant tensor:
#      x y z
#    x 1.772020 0.000000 0.000000 
#    y 0.000000 1.777140 0.000000 
#    z 0.000000 0.000000 1.779730 
# 
# From -- ./inp_files/21608.got.cif
#   From: 2010.03.12/outbox.cif.g09.slc.cpg/sg47_11_cif.got.tgz:21608.got - 2010.04.14 03:12:58.
