data_PCOD8199394
_publ_section_title
;
Structure prediction by ZEFSAII (Michael W. Deem and Ramdas Pophale) SiO2 
 PCOD8199394
Probable space group: P M M M
;
_chemical_formula_sum "Si O2"
_cell_formula_units_Z 40
_cell_length_a 8.849530
_cell_length_b 14.330724
_cell_length_c 19.553743
_cell_angle_alpha 90.000000
_cell_angle_beta 90.000000
_cell_angle_gamma 90.000000
_cell_volume 2479.809050
_symmetry_space_group_name_H-M "P M M M"
_symmetry_group_IT_number 47
_symmetry_cell_setting 'orthorhombic'
loop_
_space_group_symop_operation_xyz
x,y,z
-x,-y,z
x,-y,-z
-x,y,-z
-x,-y,-z
x,y,-z
-x,y,z
x,-y,z
loop_
_atom_site_type_symbol
_atom_site_label
_atom_site_fract_x
_atom_site_fract_y
_atom_site_fract_z
Si Si1 0.174447 0.891406 0.922153
Si Si2 0.322277 0.223160 0.803609
Si Si3 0.330709 0.389443 0.000000
Si Si4 0.821576 0.606473 0.138915
Si Si5 0.170800 0.896885 0.310138
Si Si6 0.678922 0.000000 0.421607
O O1 0.278432 0.833475 0.871303
O O2 0.000000 0.871836 0.903691
O O3 0.212046 0.000000 0.913446
O O4 0.208867 0.860120 0.000000
O O5 0.500000 0.233068 0.799814
O O6 0.249345 0.326578 0.803731
O O7 0.264671 0.173501 0.735630
O O8 0.240818 0.355808 0.066591
O O9 0.337807 0.500000 0.000000
O O10 0.500000 0.347112 0.000000
O O11 0.771586 0.500000 0.153730
O O12 0.000000 0.616127 0.137950
O O13 0.000000 0.859787 0.319631
O O14 0.169258 0.000000 0.274669
O O15 0.251841 0.907681 0.384442
O O16 0.500000 0.000000 0.413650
O O17 0.730442 0.000000 0.500000
#
# Coordination Sequence:
#
# PCOD8199394 Si02
#       6
#     8   8   4   8   8   4
#     4   9  19  35  51  65  86 120 163 206 248 295
#     4  12  23  32  48  70  97 127 161 207 256 302
#     4   9  17  31  49  67  86 107 142 199 261 309
#     4  10  21  36  52  67  87 120 162 207 257 311
#     4   9  19  33  51  73 102 138 171 199 232 282
#     4   9  17  31  53  81 112 139 164 197 237 279
#
# _framework density 16.130274
#
# number of rings (size 3 to 8) (size 9 to 14) (size 15 to 20)
#    0.600    1.600    0.000    4.500    1.400    6.400 
#    0.000    1.000    0.000    0.000    0.000    0.000 
#    0.000    0.800    0.000    8.400    0.000    3.600 
#
# Total GULP energy -495880.992612 kJ/mol
# GULP energy per Si atom -12397.024815 kJ/mol
# Density = 1.609356 g / cm^3
# Si number density = 16.130274 Si / 1000 Ang^3
#
#
#
# Elastic Constant Matrix: (Units=GPa)
#
#
# Indices 1 2 3 4 5 6 
#
# 1 109.9202 38.8358 46.1681 0.0000 0.0000 0.0000
# 2 38.8358 70.5113 48.1077 0.0000 0.0000 0.0000
# 3 46.1681 48.1077 99.3052 0.0000 0.0000 0.0000
# 4 0.0000 0.0000 0.0000 11.0286 0.0000 0.0000
# 5 0.0000 0.0000 0.0000 0.0000 24.8133 0.0000
# 6 0.0000 0.0000 0.0000 0.0000 0.0000 23.8749
#
#
#
# Elastic Compliance Matrix: (Units=1/GPa)
#
#
# Indices 1 2 3 4 5 6 
#
# 1 0.012090 -0.004218 -0.003577 0.000000 0.000000 0.000000
# 2 -0.004218 0.022656 -0.009014 0.000000 0.000000 0.000000
# 3 -0.003577 -0.009014 0.016100 0.000000 0.000000 0.000000
# 4 0.000000 0.000000 0.000000 0.090673 0.000000 0.000000
# 5 0.000000 0.000000 0.000000 0.000000 0.040301 0.000000
# 6 0.000000 0.000000 0.000000 0.000000 0.000000 0.041885
#
#
# Mechanical properties :
#
#
# Convention : Reuss Voigt Hill
#
# Bulk Modulus (GPa) = 58.05136 60.66222 59.35679
# Shear Modulus (GPa) = 19.00653 21.71836 20.36245
#
# Velocity S-wave (km/s) = 3.43638 3.67336 3.55685
# Velocity P-wave (km/s) = 7.19807 7.46195 7.33120
#
# Compressibility (1/GPa) = 0.01722613
#
# Stress axis : x y z
#
# Youngs Moduli (GPa) = 82.70977 44.13926 62.11172
#
# Poissons Ratio (x) = 0.18619 0.22220
# Poissons Ratio (y) = 0.34890 0.55989
# Poissons Ratio (z) = 0.29589 0.39788
#
# Static dielectric constant tensor:
#      x y z
#    x 3.106230 0.000000 0.000000 
#    y 0.000000 3.031150 0.000000 
#    z 0.000000 0.000000 2.821740 
# 
# 
# High freq. dielectric constant tensor:
#      x y z
#    x 1.635630 0.000000 0.000000 
#    y 0.000000 1.607910 0.000000 
#    z 0.000000 0.000000 1.583660 
# 
# From -- ./inp_files/29417.got.cif
#   From: 2010.03.12/outbox.cif.g09.slc.cpg/sg47_15_cif.got.tgz:29417.got - 2010.04.14 03:12:58.
