data_PCOD8199498
_publ_section_title
;
Structure prediction by ZEFSAII (Michael W. Deem and Ramdas Pophale) SiO2 
 PCOD8199498
Probable space group: P M M M
;
_chemical_formula_sum "Si O2"
_cell_formula_units_Z 48
_cell_length_a 9.101825
_cell_length_b 30.992870
_cell_length_c 9.238436
_cell_angle_alpha 90.000000
_cell_angle_beta 90.000000
_cell_angle_gamma 90.000000
_cell_volume 2606.085922
_symmetry_space_group_name_H-M "P M M M"
_symmetry_group_IT_number 47
_symmetry_cell_setting 'orthorhombic'
loop_
_space_group_symop_operation_xyz
x,y,z
-x,-y,z
x,-y,-z
-x,y,-z
-x,-y,-z
x,y,-z
-x,y,z
x,-y,z
loop_
_atom_site_type_symbol
_atom_site_label
_atom_site_fract_x
_atom_site_fract_y
_atom_site_fract_z
Si Si1 0.670631 0.916547 0.331775
Si Si2 0.829408 0.333282 0.167769
Si Si3 0.174878 0.417213 0.663590
Si Si4 0.175344 0.500000 0.835939
Si Si5 0.669718 0.246487 0.830509
Si Si6 0.674777 0.000000 0.163398
Si Si7 0.830554 0.169944 0.669932
O O1 0.696826 0.926264 0.500000
O O2 0.500000 0.908050 0.298272
O O3 0.733260 0.957388 0.243985
O O4 0.759772 0.874941 0.278710
O O5 0.770086 0.373516 0.260316
O O6 0.738652 0.291790 0.218664
O O7 0.000000 0.323930 0.198602
O O8 0.802474 0.344188 0.000000
O O9 0.235937 0.419053 0.500000
O O10 0.236451 0.457955 0.752952
O O11 0.000000 0.418522 0.663901
O O12 0.000000 0.500000 0.836489
O O13 0.235533 0.500000 0.000000
O O14 0.500000 0.246413 0.786683
O O15 0.750455 0.208596 0.748507
O O16 0.693365 0.239255 0.000000
O O17 0.500000 0.000000 0.168719
O O18 0.734661 0.000000 0.000000
O O19 0.808342 0.176291 0.500000
O O20 0.000000 0.169786 0.714968
#
# Coordination Sequence:
#
# PCOD8199498 Si02
#       7
#     8   8   8   4   8   4   8
#     4   9  17  31  51  73  99 133 170 206 247 296
#     4   9  17  30  47  67  94 128 163 199 243 295
#     4   9  16  25  39  62  92 124 159 200 243 286
#     4   9  15  23  37  59  90 127 162 195 236 288
#     4  10  21  36  54  76 101 131 168 209 253 302
#     4   9  17  29  48  75 102 128 164 209 250 289
#     4  10  21  36  54  77 104 134 169 209 254 303
#
# _framework density 18.418424999999999
#
# number of rings (size 3 to 8) (size 9 to 14) (size 15 to 20)
#    0.000    2.667    0.000    2.000    0.000    7.333 
#    0.000    3.750    0.000    2.500    0.000    0.583 
#    0.000    4.667    0.000    0.000    0.000    0.000 
#
# Total GULP energy -595280.288190 kJ/mol
# GULP energy per Si atom -12401.672671 kJ/mol
# Density = 1.837650 g / cm^3
# Si number density = 18.418425 Si / 1000 Ang^3
#
#
#
# Elastic Constant Matrix: (Units=GPa)
#
#
# Indices 1 2 3 4 5 6 
#
# 1 69.1094 70.3771 39.7098 0.0000 0.0000 0.0000
# 2 70.3771 209.1232 95.3531 0.0000 0.0000 0.0000
# 3 39.7098 95.3531 102.6760 0.0000 0.0000 0.0000
# 4 0.0000 0.0000 0.0000 41.9450 0.0000 0.0000
# 5 0.0000 0.0000 0.0000 0.0000 16.9516 0.0000
# 6 0.0000 0.0000 0.0000 0.0000 0.0000 57.5859
#
#
#
# Elastic Compliance Matrix: (Units=1/GPa)
#
#
# Indices 1 2 3 4 5 6 
#
# 1 0.022500 -0.006251 -0.002896 0.000000 0.000000 0.000000
# 2 -0.006251 0.010031 -0.006898 0.000000 0.000000 0.000000
# 3 -0.002896 -0.006898 0.017265 0.000000 0.000000 0.000000
# 4 0.000000 0.000000 0.000000 0.023841 0.000000 0.000000
# 5 0.000000 0.000000 0.000000 0.000000 0.058991 0.000000
# 6 0.000000 0.000000 0.000000 0.000000 0.000000 0.017365
#
#
# Mechanical properties :
#
#
# Convention : Reuss Voigt Hill
#
# Bulk Modulus (GPa) = 56.48011 87.97650 72.22831
# Shear Modulus (GPa) = 26.59770 34.99440 30.79605
#
# Velocity S-wave (km/s) = 3.80423 4.36359 4.09348
# Velocity P-wave (km/s) = 7.07303 8.55903 7.85127
#
# Compressibility (1/GPa) = 0.01770535
#
# Stress axis : x y z
#
# Youngs Moduli (GPa) = 44.44421 99.69292 57.91988
#
# Poissons Ratio (x) = 0.62323 0.16775
# Poissons Ratio (y) = 0.27784 0.39951
# Poissons Ratio (z) = 0.12872 0.68765
#
# Static dielectric constant tensor:
#      x y z
#    x 3.081910 0.000000 0.000000 
#    y 0.000000 3.609660 0.000000 
#    z 0.000000 0.000000 3.444110 
# 
# 
# High freq. dielectric constant tensor:
#      x y z
#    x 1.675050 0.000000 0.000000 
#    y 0.000000 1.731330 0.000000 
#    z 0.000000 0.000000 1.714010 
# 
# From -- ./inp_files/2575.got.cif
#   From: 2010.03.12/outbox.cif.g09.slc.cpg/sg47_2_cif.got.tgz:2575.got - 2010.04.14 03:12:58.
