data_PCOD8199657
_publ_section_title
;
Structure prediction by ZEFSAII (Michael W. Deem and Ramdas Pophale) SiO2 
 PCOD8199657
Probable space group: P M M M
;
_chemical_formula_sum "Si O2"
_cell_formula_units_Z 40
_cell_length_a 16.203579
_cell_length_b 10.324322
_cell_length_c 13.103711
_cell_angle_alpha 90.000000
_cell_angle_beta 90.000000
_cell_angle_gamma 90.000000
_cell_volume 2192.132486
_symmetry_space_group_name_H-M "P M M M"
_symmetry_group_IT_number 47
_symmetry_cell_setting 'orthorhombic'
loop_
_space_group_symop_operation_xyz
x,y,z
-x,-y,z
x,-y,-z
-x,y,-z
-x,-y,-z
x,y,-z
-x,y,z
x,-y,z
loop_
_atom_site_type_symbol
_atom_site_label
_atom_site_fract_x
_atom_site_fract_y
_atom_site_fract_z
Si Si1 0.000000 0.153469 0.380306
Si Si2 0.271075 0.148322 0.889439
Si Si3 0.150936 0.728094 0.744440
Si Si4 0.404138 0.150807 0.733265
Si Si5 0.306134 0.354875 0.382556
Si Si6 0.904901 0.500000 0.887418
O O1 0.919086 0.211146 0.326882
O O2 0.000000 0.191785 0.500000
O O3 0.000000 0.000000 0.366510
O O4 0.191986 0.163854 0.816570
O O5 0.354337 0.197307 0.833592
O O6 0.281953 0.000000 0.912569
O O7 0.261749 0.219810 0.000000
O O8 0.220246 0.663822 0.674922
O O9 0.115840 0.624900 0.822276
O O10 0.500000 0.171268 0.754849
O O11 0.374625 0.246055 0.643193
O O12 0.384918 0.000000 0.704786
O O13 0.284730 0.339436 0.500000
O O14 0.340021 0.500000 0.358148
O O15 0.000000 0.500000 0.909553
O O16 0.860693 0.500000 0.000000
#
# Coordination Sequence:
#
# PCOD8199657 Si02
#       6
#     4   8   8   8   8   4
#     4  11  24  39  57  82 112 147 186 230 279 329
#     4   9  18  33  55  81 108 140 179 224 275 330
#     4  11  20  38  56  80 109 146 181 229 275 325
#     4   9  19  35  55  80 111 146 184 228 277 331
#     4  10  21  36  56  81 109 144 187 230 277 330
#     4  11  22  36  56  82 109 142 185 227 274 328
#
# _framework density 18.247070999999998
#
# number of rings (size 3 to 8) (size 9 to 14) (size 15 to 20)
#    0.000    2.000    2.000    1.800    0.000    2.400 
#    0.000    4.500    0.000    2.400    0.000    2.800 
#    0.000    0.000    0.000    0.000    0.000    0.000 
#
# Total GULP energy -495720.917269 kJ/mol
# GULP energy per Si atom -12393.022932 kJ/mol
# Density = 1.820554 g / cm^3
# Si number density = 18.247071 Si / 1000 Ang^3
#
#
#
# Elastic Constant Matrix: (Units=GPa)
#
#
# Indices 1 2 3 4 5 6 
#
# 1 112.8168 40.4696 56.5724 0.0000 0.0000 0.0000
# 2 40.4696 79.8751 52.9240 0.0000 0.0000 0.0000
# 3 56.5724 52.9240 142.4292 0.0000 0.0000 0.0000
# 4 0.0000 0.0000 0.0000 25.8416 0.0000 0.0000
# 5 0.0000 0.0000 0.0000 0.0000 47.7482 0.0000
# 6 0.0000 0.0000 0.0000 0.0000 0.0000 23.2679
#
#
#
# Elastic Compliance Matrix: (Units=1/GPa)
#
#
# Indices 1 2 3 4 5 6 
#
# 1 0.011896 -0.003842 -0.003297 0.000000 0.000000 0.000000
# 2 -0.003842 0.017850 -0.005106 0.000000 0.000000 0.000000
# 3 -0.003297 -0.005106 0.010228 0.000000 0.000000 0.000000
# 4 0.000000 0.000000 0.000000 0.038697 0.000000 0.000000
# 5 0.000000 0.000000 0.000000 0.000000 0.020943 0.000000
# 6 0.000000 0.000000 0.000000 0.000000 0.000000 0.042978
#
#
# Mechanical properties :
#
#
# Convention : Reuss Voigt Hill
#
# Bulk Modulus (GPa) = 64.59312 70.56147 67.57729
# Shear Modulus (GPa) = 29.02855 31.71522 30.37189
#
# Velocity S-wave (km/s) = 3.99289 4.17357 4.08423
# Velocity P-wave (km/s) = 7.53217 7.87267 7.70430
#
# Compressibility (1/GPa) = 0.01548152
#
# Stress axis : x y z
#
# Youngs Moduli (GPa) = 84.06438 56.02300 97.76983
#
# Poissons Ratio (x) = 0.21526 0.32236
# Poissons Ratio (y) = 0.32301 0.49926
# Poissons Ratio (z) = 0.27717 0.28608
#
# Static dielectric constant tensor:
#      x y z
#    x 3.336970 0.000000 0.000000 
#    y 0.000000 3.497180 0.000000 
#    z 0.000000 0.000000 3.940410 
# 
# 
# High freq. dielectric constant tensor:
#      x y z
#    x 1.704580 0.000000 0.000000 
#    y 0.000000 1.704510 0.000000 
#    z 0.000000 0.000000 1.722020 
# 
# From -- ./inp_files/20664.got.cif
#   From: 2010.03.12/outbox.cif.g09.slc.cpg/sg47_11_cif.got.tgz:20664.got - 2010.04.14 03:12:58.
