data_PCOD8199149
_publ_section_title
;
Structure prediction by ZEFSAII (Michael W. Deem and Ramdas Pophale) SiO2 
 PCOD8199149
Probable space group: P M M M
;
_chemical_formula_sum "Si O2"
_cell_formula_units_Z 48
_cell_length_a 31.405202
_cell_length_b 9.411158
_cell_length_c 9.333705
_cell_angle_alpha 90.000000
_cell_angle_beta 90.000000
_cell_angle_gamma 90.000000
_cell_volume 2758.663485
_symmetry_space_group_name_H-M "P M M M"
_symmetry_group_IT_number 47
_symmetry_cell_setting 'orthorhombic'
loop_
_space_group_symop_operation_xyz
x,y,z
-x,-y,z
x,-y,-z
-x,y,-z
-x,-y,-z
x,y,-z
-x,y,z
x,-y,z
loop_
_atom_site_type_symbol
_atom_site_label
_atom_site_fract_x
_atom_site_fract_y
_atom_site_fract_z
Si Si1 0.208716 0.163508 0.166706
Si Si2 0.046724 0.660041 0.670304
Si Si3 0.545004 0.168408 0.340111
Si Si4 0.291802 0.666012 0.833257
Si Si5 0.874096 0.834957 0.333619
Si Si6 0.637108 0.163148 0.328834
O O1 0.248272 0.259034 0.215590
O O2 0.167671 0.219623 0.251834
O O3 0.219046 0.000000 0.205530
O O4 0.198898 0.182039 0.000000
O O5 0.047380 0.666745 0.500000
O O6 0.054810 0.500000 0.723596
O O7 0.084338 0.757996 0.732094
O O8 0.000000 0.712355 0.724360
O O9 0.543516 0.231518 0.500000
O O10 0.500000 0.215904 0.261912
O O11 0.590146 0.214006 0.269721
O O12 0.546361 0.000000 0.349328
O O13 0.288091 0.500000 0.799040
O O14 0.329695 0.731767 0.742224
O O15 0.300770 0.694994 0.000000
O O16 0.867689 0.799011 0.500000
O O17 0.881368 0.000000 0.306186
O O18 0.638990 0.177432 0.500000
O O19 0.646638 0.000000 0.283633
#
# Coordination Sequence:
#
# PCOD8199149 Si02
#       6
#     8   8   8   8   8   8
#     4   9  18  33  50  65  85 116 150 183 225 276
#     4   8  14  25  41  62  89 119 147 174 208 253
#     4   7  10  19  38  65  94 119 144 179 223 268
#     4  10  21  35  49  66  90 122 159 194 229 274
#     4   9  17  28  44  68  92 111 138 180 223 259
#     4   9  17  29  48  74  98 120 150 189 232 275
#
# _framework density 17.399730999999999
#
# number of rings (size 3 to 8) (size 9 to 14) (size 15 to 20)
#    0.000    3.333    0.000    2.500    0.000    3.000 
#    0.000    3.333    0.000    1.500    0.000    9.333 
#    0.000    0.000    0.000    0.000    0.000    0.000 
#
# Total GULP energy -594663.556569 kJ/mol
# GULP energy per Si atom -12388.824095 kJ/mol
# Density = 1.736013 g / cm^3
# Si number density = 17.399731 Si / 1000 Ang^3
#
#
#
# Elastic Constant Matrix: (Units=GPa)
#
#
# Indices 1 2 3 4 5 6 
#
# 1 205.3965 79.5758 47.0438 0.0000 0.0000 0.0000
# 2 79.5758 71.4681 25.6299 0.0000 0.0000 0.0000
# 3 47.0438 25.6299 26.5119 0.0000 0.0000 0.0000
# 4 0.0000 0.0000 0.0000 17.5532 0.0000 0.0000
# 5 0.0000 0.0000 0.0000 0.0000 -3.8300 0.0000
# 6 0.0000 0.0000 0.0000 0.0000 0.0000 5.4523
#
#
#
# Elastic Compliance Matrix: (Units=1/GPa)
#
#
# Indices 1 2 3 4 5 6 
#
# 1 0.010307 -0.007527 -0.011013 0.000000 0.000000 0.000000
# 2 -0.007527 0.026914 -0.012663 0.000000 0.000000 0.000000
# 3 -0.011013 -0.012663 0.069502 0.000000 0.000000 0.000000
# 4 0.000000 0.000000 0.000000 0.056970 0.000000 0.000000
# 5 0.000000 0.000000 0.000000 0.000000 -0.261094 0.000000
# 6 0.000000 0.000000 0.000000 0.000000 0.000000 0.183409
#
#
# Mechanical properties :
#
#
# Convention : Reuss Voigt Hill
#
# Bulk Modulus (GPa) = 22.56400 67.54171 45.05285
# Shear Modulus (GPa) = 30.63981 13.91023 22.27502
#
# Velocity S-wave (km/s) = 4.20090 2.83052 3.58186
# Velocity P-wave (km/s) = 6.04370 7.04162 6.56166
#
# Compressibility (1/GPa) = 0.04431839
#
# Stress axis : x y z
#
# Youngs Moduli (GPa) = 97.02010 37.15498 14.38806
#
# Poissons Ratio (x) = 0.27967 0.15845
# Poissons Ratio (y) = 0.73027 0.18219
# Poissons Ratio (z) = 1.06846 0.47048
#
# Static dielectric constant tensor:
#      x y z
#    x 3.825540 0.000000 0.000000 
#    y 0.000000 3.073430 0.000000 
#    z 0.000000 0.000000 2.836730 
# 
# 
# High freq. dielectric constant tensor:
#      x y z
#    x 1.697750 0.000000 0.000000 
#    y 0.000000 1.648710 0.000000 
#    z 0.000000 0.000000 1.624350 
# 
# From -- ./inp_files/4465.got.cif
#   From: 2010.03.12/outbox.cif.g09.slc.cpg/sg47_3_cif.got.tgz:4465.got - 2010.04.14 03:12:58.
