data_PCOD8199831
_publ_section_title
;
Structure prediction by ZEFSAII (Michael W. Deem and Ramdas Pophale) SiO2 
 PCOD8199831
Probable space group: P M M M
;
_chemical_formula_sum "Si O2"
_cell_formula_units_Z 36
_cell_length_a 24.705400
_cell_length_b 9.261903
_cell_length_c 7.872141
_cell_angle_alpha 90.000000
_cell_angle_beta 90.000000
_cell_angle_gamma 90.000000
_cell_volume 1801.295576
_symmetry_space_group_name_H-M "P M M M"
_symmetry_group_IT_number 47
_symmetry_cell_setting 'orthorhombic'
loop_
_space_group_symop_operation_xyz
x,y,z
-x,-y,z
x,-y,-z
-x,y,-z
-x,-y,-z
x,y,-z
-x,y,z
x,-y,z
loop_
_atom_site_type_symbol
_atom_site_label
_atom_site_fract_x
_atom_site_fract_y
_atom_site_fract_z
Si Si1 0.938675 0.663877 0.699525
Si Si2 0.839337 0.161497 0.806405
Si Si3 0.439708 0.829005 0.000000
Si Si4 0.259797 0.658458 0.305165
Si Si5 0.363367 0.830351 0.696618
O O1 0.929651 0.679756 0.500000
O O2 0.926126 0.500000 0.756496
O O3 0.899235 0.772765 0.795207
O O4 0.000000 0.704936 0.749256
O O5 0.797173 0.260968 0.708395
O O6 0.839499 0.000000 0.728320
O O7 0.820802 0.155976 0.000000
O O8 0.410378 0.778425 0.825603
O O9 0.500000 0.761747 0.000000
O O10 0.442872 0.000000 0.000000
O O11 0.272282 0.634230 0.500000
O O12 0.257161 0.500000 0.215652
O O13 0.309114 0.753465 0.233279
O O14 0.378281 0.790625 0.500000
O O15 0.352691 0.000000 0.712322
#
# Coordination Sequence:
#
# PCOD8199831 Si02
#       5
#     8   8   4   8   8
#     4   9  19  37  59  80 103 135 177 223 269 320
#     4  11  24  37  51  77 111 143 176 219 270 324
#     4   9  18  32  53  83 115 147 186 231 274 323
#     4  10  21  37  57  80 106 138 179 227 276 327
#     4   9  18  33  54  80 111 147 185 229 280 329
#
# _framework density 19.985616
#
# number of rings (size 3 to 8) (size 9 to 14) (size 15 to 20)
#    0.000    2.333    0.000    2.667    1.556    7.556 
#    0.000    5.556    0.000    1.333    0.000    3.111 
#    0.000    0.000    0.000    0.000    0.000    0.000 
#
# Total GULP energy -446297.438062 kJ/mol
# GULP energy per Si atom -12397.151057 kJ/mol
# Density = 1.994013 g / cm^3
# Si number density = 19.985616 Si / 1000 Ang^3
#
#
#
# Elastic Constant Matrix: (Units=GPa)
#
#
# Indices 1 2 3 4 5 6 
#
# 1 152.0281 66.4655 38.2487 0.0000 0.0000 0.0000
# 2 66.4655 111.7994 27.1028 0.0000 0.0000 0.0000
# 3 38.2487 27.1028 64.4934 0.0000 0.0000 0.0000
# 4 0.0000 0.0000 0.0000 14.7062 0.0000 0.0000
# 5 0.0000 0.0000 0.0000 0.0000 30.2574 0.0000
# 6 0.0000 0.0000 0.0000 0.0000 0.0000 17.2442
#
#
#
# Elastic Compliance Matrix: (Units=1/GPa)
#
#
# Indices 1 2 3 4 5 6 
#
# 1 0.009610 -0.004823 -0.003673 0.000000 0.000000 0.000000
# 2 -0.004823 0.012380 -0.002342 0.000000 0.000000 0.000000
# 3 -0.003673 -0.002342 0.018668 0.000000 0.000000 0.000000
# 4 0.000000 0.000000 0.000000 0.067998 0.000000 0.000000
# 5 0.000000 0.000000 0.000000 0.000000 0.033050 0.000000
# 6 0.000000 0.000000 0.000000 0.000000 0.000000 0.057990
#
#
# Mechanical properties :
#
#
# Convention : Reuss Voigt Hill
#
# Bulk Modulus (GPa) = 52.68089 65.77277 59.22683
# Shear Modulus (GPa) = 21.95875 25.54182 23.75028
#
# Velocity S-wave (km/s) = 3.31830 3.57881 3.45101
# Velocity P-wave (km/s) = 6.41078 7.07521 6.75118
#
# Compressibility (1/GPa) = 0.01898221
#
# Stress axis : x y z
#
# Youngs Moduli (GPa) = 104.05447 80.77720 53.56804
#
# Poissons Ratio (x) = 0.38959 0.19674
# Poissons Ratio (y) = 0.50186 0.12546
# Poissons Ratio (z) = 0.38216 0.18919
#
# Static dielectric constant tensor:
#      x y z
#    x 3.694330 0.000000 0.000000 
#    y 0.000000 3.788400 0.000000 
#    z 0.000000 0.000000 3.533980 
# 
# 
# High freq. dielectric constant tensor:
#      x y z
#    x 1.778070 0.000000 0.000000 
#    y 0.000000 1.769020 0.000000 
#    z 0.000000 0.000000 1.773570 
# 
# From -- ./inp_files/12057.got.cif
#   From: 2010.03.12/outbox.cif.g09.slc.cpg/sg47_7_cif.got.tgz:12057.got - 2010.04.14 03:12:58.
