data_PCOD8199446
_publ_section_title
;
Structure prediction by ZEFSAII (Michael W. Deem and Ramdas Pophale) SiO2 
 PCOD8199446
Probable space group: P M M M
;
_chemical_formula_sum "Si O2"
_cell_formula_units_Z 64
_cell_length_a 40.869304
_cell_length_b 9.792970
_cell_length_c 9.062910
_cell_angle_alpha 90.000000
_cell_angle_beta 90.000000
_cell_angle_gamma 90.000000
_cell_volume 3627.265399
_symmetry_space_group_name_H-M "P M M M"
_symmetry_group_IT_number 47
_symmetry_cell_setting 'orthorhombic'
loop_
_space_group_symop_operation_xyz
x,y,z
-x,-y,z
x,-y,-z
-x,y,-z
-x,-y,-z
x,y,-z
-x,y,z
x,-y,z
loop_
_atom_site_type_symbol
_atom_site_label
_atom_site_fract_x
_atom_site_fract_y
_atom_site_fract_z
Si Si1 0.160542 0.342075 0.826987
Si Si2 0.406596 0.655993 0.674000
Si Si3 0.463765 0.153223 0.675439
Si Si4 0.340602 0.343304 0.827589
Si Si5 0.093795 0.657423 0.328124
Si Si6 0.785929 0.158002 0.672289
Si Si7 0.036189 0.846765 0.675303
Si Si8 0.719056 0.156973 0.170474
O O1 0.167936 0.500000 0.790277
O O2 0.125901 0.297441 0.759734
O O3 0.188227 0.250613 0.755336
O O4 0.159684 0.314598 0.000000
O O5 0.403399 0.674170 0.500000
O O6 0.413450 0.500000 0.718833
O O7 0.436547 0.744379 0.739819
O O8 0.372978 0.708454 0.745028
O O9 0.463322 0.158991 0.500000
O O10 0.500000 0.196663 0.731697
O O11 0.455673 0.000000 0.729580
O O12 0.332619 0.500000 0.787006
O O13 0.310565 0.250864 0.773247
O O14 0.346764 0.324221 0.000000
O O15 0.099998 0.688313 0.500000
O O16 0.085235 0.500000 0.300819
O O17 0.063447 0.743601 0.262708
O O18 0.787156 0.191015 0.500000
O O19 0.750223 0.195986 0.732108
O O20 0.794049 0.000000 0.704961
O O21 0.036048 0.840022 0.500000
O O22 0.000000 0.804856 0.733776
O O23 0.044718 0.000000 0.728254
O O24 0.708809 0.000000 0.193676
O O25 0.727548 0.187050 0.000000
#
# Coordination Sequence:
#
# PCOD8199446 Si02
#       8
#     8   8   8   8   8   8   8   8
#     4  10  21  36  53  73  99 132 168 204 243 290
#     4   9  17  28  43  65  90 114 145 187 229 267
#     4   8  14  25  41  62  88 116 146 182 225 271
#     4   9  18  32  48  66  91 123 155 186 224 273
#     4   9  17  29  46  69  96 124 157 200 245 287
#     4  10  21  36  54  77 103 129 159 198 244 291
#     4   8  14  25  42  66  95 124 155 194 240 288
#     4   9  18  33  51  70  94 124 157 192 230 275
#
# _framework density 17.644145999999999
#
# number of rings (size 3 to 8) (size 9 to 14) (size 15 to 20)
#    0.000    3.000    0.000    1.500    0.000    4.000 
#    0.000    5.000    0.000    0.750    0.000    5.250 
#    0.000    0.000    0.000    0.000    0.000    0.000 
#
# Total GULP energy -793532.965959 kJ/mol
# GULP energy per Si atom -12398.952593 kJ/mol
# Density = 1.760399 g / cm^3
# Si number density = 17.644146 Si / 1000 Ang^3
#
#
#
# Elastic Constant Matrix: (Units=GPa)
#
#
# Indices 1 2 3 4 5 6 
#
# 1 175.1975 100.1581 50.5482 0.0000 0.0000 0.0000
# 2 100.1581 94.1642 35.1824 0.0000 0.0000 0.0000
# 3 50.5482 35.1824 43.4884 0.0000 0.0000 0.0000
# 4 0.0000 0.0000 0.0000 18.1424 0.0000 0.0000
# 5 0.0000 0.0000 0.0000 0.0000 -18.5258 0.0000
# 6 0.0000 0.0000 0.0000 0.0000 0.0000 43.4323
#
#
#
# Elastic Compliance Matrix: (Units=1/GPa)
#
#
# Indices 1 2 3 4 5 6 
#
# 1 0.015877 -0.014321 -0.006868 0.000000 0.000000 0.000000
# 2 -0.014321 0.028138 -0.006118 0.000000 0.000000 0.000000
# 3 -0.006868 -0.006118 0.035927 0.000000 0.000000 0.000000
# 4 0.000000 0.000000 0.000000 0.055120 0.000000 0.000000
# 5 0.000000 0.000000 0.000000 0.000000 -0.053979 0.000000
# 6 0.000000 0.000000 0.000000 0.000000 0.000000 0.023024
#
#
# Mechanical properties :
#
#
# Convention : Reuss Voigt Hill
#
# Bulk Modulus (GPa) = 39.48269 76.06974 57.77621
# Shear Modulus (GPa) = 29.91057 17.07386 23.49222
#
# Velocity S-wave (km/s) = 4.12176 3.11413 3.65286
# Velocity P-wave (km/s) = 6.71399 7.49248 7.11389
#
# Compressibility (1/GPa) = 0.02532756
#
# Stress axis : x y z
#
# Youngs Moduli (GPa) = 62.98558 35.53866 27.83393
#
# Poissons Ratio (x) = 0.50895 0.19117
# Poissons Ratio (y) = 0.90202 0.17029
# Poissons Ratio (z) = 0.43259 0.21743
#
# Static dielectric constant tensor:
#      x y z
#    x 3.532830 0.000000 0.000000 
#    y 0.000000 3.383380 0.000000 
#    z 0.000000 0.000000 3.018170 
# 
# 
# High freq. dielectric constant tensor:
#      x y z
#    x 1.691710 0.000000 0.000000 
#    y 0.000000 1.681570 0.000000 
#    z 0.000000 0.000000 1.653490 
# 
# From -- ./inp_files/4911.got.cif
#   From: 2010.03.12/outbox.cif.g09.slc.cpg/sg47_3_cif.got.tgz:4911.got - 2010.04.14 03:12:58.
