data_PCOD8199895
_publ_section_title
;
Structure prediction by ZEFSAII (Michael W. Deem and Ramdas Pophale) SiO2 
 PCOD8199895
Probable space group: P M M M
;
_chemical_formula_sum "Si O2"
_cell_formula_units_Z 64
_cell_length_a 20.768176
_cell_length_b 8.761479
_cell_length_c 18.807229
_cell_angle_alpha 90.000000
_cell_angle_beta 90.000000
_cell_angle_gamma 90.000000
_cell_volume 3422.162221
_symmetry_space_group_name_H-M "P M M M"
_symmetry_group_IT_number 47
_symmetry_cell_setting 'orthorhombic'
loop_
_space_group_symop_operation_xyz
x,y,z
-x,-y,z
x,-y,-z
-x,y,-z
-x,-y,-z
x,y,-z
-x,y,z
x,-y,z
loop_
_atom_site_type_symbol
_atom_site_label
_atom_site_fract_x
_atom_site_fract_y
_atom_site_fract_z
Si Si1 0.810985 0.675611 0.583497
Si Si2 0.700594 0.178795 0.674034
Si Si3 0.925973 0.821266 0.662081
Si Si4 0.567580 0.329032 0.164294
Si Si5 0.570452 0.671097 0.333167
Si Si6 0.295587 0.317092 0.827505
Si Si7 0.926394 0.323468 0.810329
Si Si8 0.178074 0.681184 0.079222
O O1 0.805804 0.698858 0.500000
O O2 0.802025 0.500000 0.605721
O O3 0.755334 0.775767 0.618631
O O4 0.881437 0.731309 0.607277
O O5 0.630583 0.225822 0.641938
O O6 0.717536 0.257735 0.748579
O O7 0.701110 0.000000 0.686166
O O8 0.906991 0.775453 0.742167
O O9 0.000000 0.775517 0.646567
O O10 0.914616 0.000000 0.652515
O O11 0.500000 0.245367 0.140137
O O12 0.564572 0.500000 0.133764
O O13 0.570047 0.333311 0.248768
O O14 0.635566 0.253601 0.140829
O O15 0.500000 0.733204 0.359735
O O16 0.580856 0.500000 0.362943
O O17 0.297205 0.500000 0.823245
O O18 0.241085 0.255908 0.880494
O O19 0.912092 0.500000 0.792186
O O20 0.884575 0.266403 0.877064
O O21 0.000000 0.297473 0.832313
O O22 0.181189 0.500000 0.074618
O O23 0.174906 0.751760 0.000000
#
# Coordination Sequence:
#
# PCOD8199895 Si02
#       8
#     8   8   8   8   8   8   8   8
#     4  11  24  40  57  76 101 136 176 213 248 295
#     4  11  21  32  51  78 107 136 169 214 262 307
#     4  10  21  37  58  83 109 134 161 201 254 308
#     4   7  10  18  35  60  86 113 150 195 240 285
#     4   8  14  27  48  73 102 135 170 209 254 305
#     4   9  16  28  47  67  91 127 168 207 249 302
#     4   9  17  30  50  74  99 129 164 201 242 294
#     4   9  17  28  44  68  95 124 163 212 258 293
#
# _framework density 18.701626000000001
#
# number of rings (size 3 to 8) (size 9 to 14) (size 15 to 20)
#    0.000    2.750    0.000    4.125    0.000    3.500 
#    0.000    2.500    0.000    2.250    0.000    7.000 
#    0.000    0.000    0.000    6.250    0.000    7.875 
#
# Total GULP energy -793046.755859 kJ/mol
# GULP energy per Si atom -12391.355560 kJ/mol
# Density = 1.865906 g / cm^3
# Si number density = 18.701626 Si / 1000 Ang^3
#
#
#
# Elastic Constant Matrix: (Units=GPa)
#
#
# Indices 1 2 3 4 5 6 
#
# 1 125.2891 24.0392 35.5695 0.0000 0.0000 0.0000
# 2 24.0392 43.2763 17.5602 0.0000 0.0000 0.0000
# 3 35.5695 17.5602 54.2525 0.0000 0.0000 0.0000
# 4 0.0000 0.0000 0.0000 5.3117 0.0000 0.0000
# 5 0.0000 0.0000 0.0000 0.0000 5.1006 0.0000
# 6 0.0000 0.0000 0.0000 0.0000 0.0000 20.5438
#
#
#
# Elastic Compliance Matrix: (Units=1/GPa)
#
#
# Indices 1 2 3 4 5 6 
#
# 1 0.010225 -0.003407 -0.005601 0.000000 0.000000 0.000000
# 2 -0.003407 0.027736 -0.006744 0.000000 0.000000 0.000000
# 3 -0.005601 -0.006744 0.024287 0.000000 0.000000 0.000000
# 4 0.000000 0.000000 0.000000 0.188265 0.000000 0.000000
# 5 0.000000 0.000000 0.000000 0.000000 0.196057 0.000000
# 6 0.000000 0.000000 0.000000 0.000000 0.000000 0.048676
#
#
# Mechanical properties :
#
#
# Convention : Reuss Voigt Hill
#
# Bulk Modulus (GPa) = 32.52573 41.90617 37.21595
# Shear Modulus (GPa) = 9.31099 15.90116 12.60608
#
# Velocity S-wave (km/s) = 2.23372 2.91908 2.59909
# Velocity P-wave (km/s) = 4.90738 5.81530 5.38053
#
# Compressibility (1/GPa) = 0.03074489
#
# Stress axis : x y z
#
# Youngs Moduli (GPa) = 97.79491 36.05376 41.17357
#
# Poissons Ratio (x) = 0.12284 0.23062
# Poissons Ratio (y) = 0.33321 0.27766
# Poissons Ratio (z) = 0.54778 0.24314
#
# Static dielectric constant tensor:
#      x y z
#    x 4.147830 0.000000 0.000000 
#    y 0.000000 3.153270 0.000000 
#    z 0.000000 0.000000 3.154940 
# 
# 
# High freq. dielectric constant tensor:
#      x y z
#    x 1.755470 0.000000 0.000000 
#    y 0.000000 1.691110 0.000000 
#    z 0.000000 0.000000 1.686550 
# 
# From -- ./inp_files/28830.got.cif
#   From: 2010.03.12/outbox.cif.g09.slc.cpg/sg47_15_cif.got.tgz:28830.got - 2010.04.14 03:12:58.
