data_PCOD8199401
_publ_section_title
;
Structure prediction by ZEFSAII (Michael W. Deem and Ramdas Pophale) SiO2 
 PCOD8199401
Probable space group: P M M M
;
_chemical_formula_sum "Si O2"
_cell_formula_units_Z 52
_cell_length_a 8.881363
_cell_length_b 12.727795
_cell_length_c 26.564564
_cell_angle_alpha 90.000000
_cell_angle_beta 90.000000
_cell_angle_gamma 90.000000
_cell_volume 3002.862766
_symmetry_space_group_name_H-M "P M M M"
_symmetry_group_IT_number 47
_symmetry_cell_setting 'orthorhombic'
loop_
_space_group_symop_operation_xyz
x,y,z
-x,-y,z
x,-y,-z
-x,y,-z
-x,-y,-z
x,y,-z
-x,y,z
x,-y,z
loop_
_atom_site_type_symbol
_atom_site_label
_atom_site_fract_x
_atom_site_fract_y
_atom_site_fract_z
Si Si1 0.174218 0.380410 0.872111
Si Si2 0.821745 0.799037 0.705617
Si Si3 0.675147 0.378602 0.767983
Si Si4 0.179022 0.000000 0.767687
Si Si5 0.335301 0.124466 0.500000
Si Si6 0.320432 0.879895 0.391428
Si Si7 0.821570 0.802228 0.943864
Si Si8 0.820316 0.000000 0.118562
O O1 0.202563 0.500000 0.889049
O O2 0.272108 0.349488 0.823967
O O3 0.225886 0.307382 0.918224
O O4 0.000000 0.360663 0.858003
O O5 0.766828 0.689584 0.728243
O O6 0.756087 0.805867 0.649562
O O7 0.000000 0.799953 0.702941
O O8 0.760918 0.896177 0.739285
O O9 0.500000 0.352869 0.763145
O O10 0.710668 0.500000 0.756317
O O11 0.243254 0.000000 0.824538
O O12 0.000000 0.000000 0.768479
O O13 0.500000 0.177109 0.500000
O O14 0.256247 0.155834 0.553097
O O15 0.355063 0.000000 0.500000
O O16 0.500000 0.867772 0.389944
O O17 0.273409 0.000000 0.380240
O O18 0.757869 0.898006 0.910577
O O19 0.000000 0.811538 0.947372
O O20 0.751816 0.806436 0.000000
O O21 0.000000 0.000000 0.119881
#
# Coordination Sequence:
#
# PCOD8199401 Si02
#       8
#     8   8   8   4   4   8   8   4
#     4   9  17  30  48  68  90 116 146 185 238 292
#     4  11  20  31  48  72 103 132 162 201 246 294
#     4  10  21  36  52  70  93 123 162 204 245 293
#     4   9  18  29  43  67  99 130 157 190 235 286
#     4   7  12  24  43  65  92 133 176 207 235 275
#     4   9  16  28  46  69 100 136 173 207 240 280
#     4   9  16  25  40  64  91 117 148 186 227 275
#     4   9  15  24  37  55  85 123 154 180 217 268
#
# _framework density 17.316808000000002
#
# number of rings (size 3 to 8) (size 9 to 14) (size 15 to 20)
#    0.000    2.692    0.769    3.000    0.000    4.615 
#    0.000    1.923    0.000    1.846    0.000    2.692 
#    0.000    6.769    0.000    0.000    0.000    0.000 
#
# Total GULP energy -644608.048586 kJ/mol
# GULP energy per Si atom -12396.308627 kJ/mol
# Density = 1.727739 g / cm^3
# Si number density = 17.316808 Si / 1000 Ang^3
#
#
#
# Elastic Constant Matrix: (Units=GPa)
#
#
# Indices 1 2 3 4 5 6 
#
# 1 29.9375 20.9122 28.3400 0.0000 0.0000 0.0000
# 2 20.9122 86.9102 68.4720 0.0000 0.0000 0.0000
# 3 28.3400 68.4720 165.7828 0.0000 0.0000 0.0000
# 4 0.0000 0.0000 0.0000 21.0158 0.0000 0.0000
# 5 0.0000 0.0000 0.0000 0.0000 19.4341 0.0000
# 6 0.0000 0.0000 0.0000 0.0000 0.0000 16.5452
#
#
#
# Elastic Compliance Matrix: (Units=1/GPa)
#
#
# Indices 1 2 3 4 5 6 
#
# 1 0.042289 -0.006641 -0.004486 0.000000 0.000000 0.000000
# 2 -0.006641 0.018099 -0.006340 0.000000 0.000000 0.000000
# 3 -0.004486 -0.006340 0.009417 0.000000 0.000000 0.000000
# 4 0.000000 0.000000 0.000000 0.047583 0.000000 0.000000
# 5 0.000000 0.000000 0.000000 0.000000 0.051456 0.000000
# 6 0.000000 0.000000 0.000000 0.000000 0.000000 0.060440
#
#
# Mechanical properties :
#
#
# Convention : Reuss Voigt Hill
#
# Bulk Modulus (GPa) = 28.67740 57.56435 43.12087
# Shear Modulus (GPa) = 18.12624 22.39276 20.25950
#
# Velocity S-wave (km/s) = 3.23885 3.59990 3.42414
# Velocity P-wave (km/s) = 5.53021 7.11288 6.37089
#
# Compressibility (1/GPa) = 0.03487067
#
# Stress axis : x y z
#
# Youngs Moduli (GPa) = 23.64698 55.25139 106.18536
#
# Poissons Ratio (x) = 0.36692 0.47637
# Poissons Ratio (y) = 0.15704 0.67322
# Poissons Ratio (z) = 0.10609 0.35030
#
# Static dielectric constant tensor:
#      x y z
#    x 2.851940 0.000000 0.000000 
#    y 0.000000 3.151990 0.000000 
#    z 0.000000 0.000000 3.499020 
# 
# 
# High freq. dielectric constant tensor:
#      x y z
#    x 1.629930 0.000000 0.000000 
#    y 0.000000 1.652700 0.000000 
#    z 0.000000 0.000000 1.678390 
# 
# From -- ./inp_files/33288.got.cif
#   From: 2010.03.12/outbox.cif.g09.slc.cpg/sg47_17_cif.got.tgz:33288.got - 2010.04.14 03:12:58.
