data_PCOD8199194
_publ_section_title
;
Structure prediction by ZEFSAII (Michael W. Deem and Ramdas Pophale) SiO2 
 PCOD8199194
Probable space group: P M M M
;
_chemical_formula_sum "Si O2"
_cell_formula_units_Z 48
_cell_length_a 20.491333
_cell_length_b 9.238045
_cell_length_c 14.427926
_cell_angle_alpha 90.000000
_cell_angle_beta 90.000000
_cell_angle_gamma 90.000000
_cell_volume 2731.204319
_symmetry_space_group_name_H-M "P M M M"
_symmetry_group_IT_number 47
_symmetry_cell_setting 'orthorhombic'
loop_
_space_group_symop_operation_xyz
x,y,z
-x,-y,z
x,-y,-z
-x,y,-z
-x,-y,-z
x,y,-z
-x,y,z
x,-y,z
loop_
_atom_site_type_symbol
_atom_site_label
_atom_site_fract_x
_atom_site_fract_y
_atom_site_fract_z
Si Si1 0.805260 0.330532 0.892326
Si Si2 0.927964 0.666994 0.773984
Si Si3 0.118510 0.168277 0.604356
Si Si4 0.734440 0.828553 0.399833
Si Si5 0.575253 0.334262 0.892856
Si Si6 0.313344 0.171951 0.794685
O O1 0.792117 0.500000 0.875622
O O2 0.872307 0.277043 0.844272
O O3 0.744984 0.241437 0.852497
O O4 0.812216 0.294684 0.000000
O O5 0.915918 0.500000 0.752568
O O6 0.926730 0.748654 0.676235
O O7 0.000000 0.692169 0.818217
O O8 0.093020 0.196117 0.500000
O O9 0.192148 0.228658 0.615119
O O10 0.115487 0.000000 0.629097
O O11 0.707311 0.770896 0.500000
O O12 0.690579 0.778181 0.313210
O O13 0.737451 0.000000 0.404078
O O14 0.500000 0.304030 0.869818
O O15 0.593462 0.500000 0.869998
O O16 0.617392 0.226739 0.830871
O O17 0.589974 0.301894 0.000000
O O18 0.309013 0.000000 0.805343
#
# Coordination Sequence:
#
# PCOD8199194 Si02
#       6
#     8   8   8   8   8   8
#     4  10  21  36  52  70  96 132 171 208 250 306
#     4  10  21  35  50  70  97 129 167 214 261 299
#     4   9  17  32  53  73  96 129 166 202 247 307
#     4   8  15  29  49  73 101 131 162 199 245 296
#     4   9  19  36  55  75 105 145 178 201 237 294
#     4  11  20  31  54  83 106 129 163 211 256 291
#
# _framework density 17.574665
#
# number of rings (size 3 to 8) (size 9 to 14) (size 15 to 20)
#    0.000    2.500    1.667    2.500    0.000    4.333 
#    0.000    4.167    0.000    2.500    0.000    5.833 
#    0.000    0.000    0.000    0.000    0.000    0.000 
#
# Total GULP energy -595030.739598 kJ/mol
# GULP energy per Si atom -12396.473742 kJ/mol
# Density = 1.753466 g / cm^3
# Si number density = 17.574665 Si / 1000 Ang^3
#
#
#
# Elastic Constant Matrix: (Units=GPa)
#
#
# Indices 1 2 3 4 5 6 
#
# 1 98.5171 37.0326 61.2935 0.0000 0.0000 0.0000
# 2 37.0326 47.6353 43.8906 0.0000 0.0000 0.0000
# 3 61.2935 43.8906 122.2116 0.0000 0.0000 0.0000
# 4 0.0000 0.0000 0.0000 24.9097 0.0000 0.0000
# 5 0.0000 0.0000 0.0000 0.0000 27.6739 0.0000
# 6 0.0000 0.0000 0.0000 0.0000 0.0000 23.5072
#
#
#
# Elastic Compliance Matrix: (Units=1/GPa)
#
#
# Indices 1 2 3 4 5 6 
#
# 1 0.016475 -0.007764 -0.005475 0.000000 0.000000 0.000000
# 2 -0.007764 0.035034 -0.008688 0.000000 0.000000 0.000000
# 3 -0.005475 -0.008688 0.014048 0.000000 0.000000 0.000000
# 4 0.000000 0.000000 0.000000 0.040145 0.000000 0.000000
# 5 0.000000 0.000000 0.000000 0.000000 0.036135 0.000000
# 6 0.000000 0.000000 0.000000 0.000000 0.000000 0.042540
#
#
# Mechanical properties :
#
#
# Convention : Reuss Voigt Hill
#
# Bulk Modulus (GPa) = 46.07383 61.42193 53.74788
# Shear Modulus (GPa) = 21.23459 23.62796 22.43127
#
# Velocity S-wave (km/s) = 3.47976 3.67063 3.57647
# Velocity P-wave (km/s) = 6.51291 7.27940 6.90679
#
# Compressibility (1/GPa) = 0.02170430
#
# Stress axis : x y z
#
# Youngs Moduli (GPa) = 60.69806 28.54401 71.18251
#
# Poissons Ratio (x) = 0.22161 0.38969
# Poissons Ratio (y) = 0.47125 0.61843
# Poissons Ratio (z) = 0.33229 0.24799
#
# Static dielectric constant tensor:
#      x y z
#    x 3.198490 0.000000 0.000000 
#    y 0.000000 3.076380 0.000000 
#    z 0.000000 0.000000 3.560840 
# 
# 
# High freq. dielectric constant tensor:
#      x y z
#    x 1.668940 0.000000 0.000000 
#    y 0.000000 1.661400 0.000000 
#    z 0.000000 0.000000 1.684070 
# 
# From -- ./inp_files/6338.got.cif
#   From: 2010.03.12/outbox.cif.g09.slc.cpg/sg47_4_cif.got.tgz:6338.got - 2010.04.14 03:12:58.
