data_PCOD8199842
_publ_section_title
;
Structure prediction by ZEFSAII (Michael W. Deem and Ramdas Pophale) SiO2 
 PCOD8199842
Probable space group: P M M M
;
_chemical_formula_sum "Si O2"
_cell_formula_units_Z 48
_cell_length_a 9.224722
_cell_length_b 7.738333
_cell_length_c 33.974739
_cell_angle_alpha 90.000000
_cell_angle_beta 90.000000
_cell_angle_gamma 90.000000
_cell_volume 2425.251772
_symmetry_space_group_name_H-M "P M M M"
_symmetry_group_IT_number 47
_symmetry_cell_setting 'orthorhombic'
loop_
_space_group_symop_operation_xyz
x,y,z
-x,-y,z
x,-y,-z
-x,y,-z
-x,-y,-z
x,y,-z
-x,y,z
x,-y,z
loop_
_atom_site_type_symbol
_atom_site_label
_atom_site_fract_x
_atom_site_fract_y
_atom_site_fract_z
Si Si1 0.835823 0.703311 0.455589
Si Si2 0.329685 0.699472 0.764907
Si Si3 0.158588 0.697197 0.689831
Si Si4 0.328652 0.000000 0.178352
Si Si5 0.672765 0.000000 0.089500
Si Si6 0.833172 0.697364 0.045996
Si Si7 0.661418 0.196076 0.382536
O O1 0.792236 0.755211 0.500000
O O2 0.822853 0.500000 0.449536
O O3 0.726966 0.796755 0.426173
O O4 0.000000 0.763755 0.446855
O O5 0.500000 0.717396 0.757533
O O6 0.289271 0.500000 0.775074
O O7 0.254217 0.773369 0.725355
O O8 0.275542 0.824482 0.800006
O O9 0.133986 0.500000 0.700247
O O10 0.238261 0.704611 0.648085
O O11 0.000000 0.789010 0.687442
O O12 0.267954 0.000000 0.134151
O O13 0.500000 0.000000 0.177166
O O14 0.729908 0.173539 0.069255
O O15 0.500000 0.000000 0.087033
O O16 0.795482 0.500000 0.057883
O O17 0.000000 0.738664 0.056180
O O18 0.805302 0.725301 0.000000
O O19 0.500000 0.277622 0.382905
O O20 0.653945 0.000000 0.368447
#
# Coordination Sequence:
#
# PCOD8199842 Si02
#       7
#     8   8   8   4   4   8   8
#     4   9  19  37  59  80 103 134 172 213 257 306
#     4   9  18  35  58  79 103 141 185 227 272 326
#     4  10  21  37  57  81 107 133 167 217 272 321
#     4   9  20  36  54  79 112 150 189 227 276 344
#     4  11  22  34  53  86 122 154 190 241 301 354
#     4   9  19  37  59  81 110 154 204 249 295 350
#     4  11  24  37  51  77 110 141 173 211 254 306
#
# _framework density 19.791758999999999
#
# number of rings (size 3 to 8) (size 9 to 14) (size 15 to 20)
#    0.000    2.333    0.000    3.000    1.167    7.667 
#    0.000    6.667    0.000    2.000    0.000    0.000 
#    0.000    0.000    0.000    0.000    0.000    0.000 
#
# Total GULP energy -595101.313658 kJ/mol
# GULP energy per Si atom -12397.944035 kJ/mol
# Density = 1.974671 g / cm^3
# Si number density = 19.791759 Si / 1000 Ang^3
#
#
#
# Elastic Constant Matrix: (Units=GPa)
#
#
# Indices 1 2 3 4 5 6 
#
# 1 112.9748 42.5106 67.1241 0.0000 0.0000 0.0000
# 2 42.5106 86.9019 53.6138 0.0000 0.0000 0.0000
# 3 67.1241 53.6138 136.0187 0.0000 0.0000 0.0000
# 4 0.0000 0.0000 0.0000 21.0658 0.0000 0.0000
# 5 0.0000 0.0000 0.0000 0.0000 18.8087 0.0000
# 6 0.0000 0.0000 0.0000 0.0000 0.0000 22.1331
#
#
#
# Elastic Compliance Matrix: (Units=1/GPa)
#
#
# Indices 1 2 3 4 5 6 
#
# 1 0.013170 -0.003214 -0.005232 0.000000 0.000000 0.000000
# 2 -0.003214 0.015989 -0.004716 0.000000 0.000000 0.000000
# 3 -0.005232 -0.004716 0.011793 0.000000 0.000000 0.000000
# 4 0.000000 0.000000 0.000000 0.047470 0.000000 0.000000
# 5 0.000000 0.000000 0.000000 0.000000 0.053167 0.000000
# 6 0.000000 0.000000 0.000000 0.000000 0.000000 0.045181
#
#
# Mechanical properties :
#
#
# Convention : Reuss Voigt Hill
#
# Bulk Modulus (GPa) = 68.36899 73.59917 70.98408
# Shear Modulus (GPa) = 22.93882 23.91132 23.42507
#
# Velocity S-wave (km/s) = 3.40812 3.47961 3.44405
# Velocity P-wave (km/s) = 7.07857 7.30829 7.19435
#
# Compressibility (1/GPa) = 0.01462651
#
# Stress axis : x y z
#
# Youngs Moduli (GPa) = 75.93151 62.54212 84.79691
#
# Poissons Ratio (x) = 0.20104 0.44367
# Poissons Ratio (y) = 0.24407 0.39991
# Poissons Ratio (z) = 0.39729 0.29496
#
# Static dielectric constant tensor:
#      x y z
#    x 3.698770 0.000000 0.000000 
#    y 0.000000 3.552080 0.000000 
#    z 0.000000 0.000000 3.645340 
# 
# 
# High freq. dielectric constant tensor:
#      x y z
#    x 1.764510 0.000000 0.000000 
#    y 0.000000 1.772080 0.000000 
#    z 0.000000 0.000000 1.768020 
# 
# From -- ./inp_files/34118.got.cif
#   From: 2010.03.12/outbox.cif.g09.slc.cpg/sg47_18_cif.got.tgz:34118.got - 2010.04.14 03:12:58.
