data_PCOD8199909
_publ_section_title
;
Structure prediction by ZEFSAII (Michael W. Deem and Ramdas Pophale) SiO2 
 PCOD8199909
Probable space group: P M M M
;
_chemical_formula_sum "Si O2"
_cell_formula_units_Z 56
_cell_length_a 9.025610
_cell_length_b 20.847576
_cell_length_c 14.376089
_cell_angle_alpha 90.000000
_cell_angle_beta 90.000000
_cell_angle_gamma 90.000000
_cell_volume 2705.034958
_symmetry_space_group_name_H-M "P M M M"
_symmetry_group_IT_number 47
_symmetry_cell_setting 'orthorhombic'
loop_
_space_group_symop_operation_xyz
x,y,z
-x,-y,z
x,-y,-z
-x,y,-z
-x,-y,-z
x,y,-z
-x,y,z
x,-y,z
loop_
_atom_site_type_symbol
_atom_site_label
_atom_site_fract_x
_atom_site_fract_y
_atom_site_fract_z
Si Si1 0.175031 0.622000 0.106109
Si Si2 0.170153 0.322292 0.390624
Si Si3 0.670277 0.571102 0.272290
Si Si4 0.333819 0.250000 0.889716
Si Si5 0.670277 0.071102 0.727710
Si Si6 0.175031 0.122000 0.893892
Si Si7 0.170153 0.822293 0.609376
O O1 0.240503 0.568657 0.174582
O O2 0.244107 0.688207 0.144409
O O3 0.000000 0.626270 0.114672
O O4 0.222388 0.606727 0.000000
O O5 0.191615 0.330391 0.500000
O O6 0.269907 0.375388 0.341890
O O7 0.218027 0.250000 0.360790
O O8 0.000000 0.334124 0.362330
O O9 0.500000 0.586568 0.250560
O O10 0.688062 0.500000 0.316877
O O11 0.500000 0.250000 0.847928
O O12 0.244107 0.188207 0.855591
O O13 0.339632 0.250000 0.000000
O O14 0.500000 0.086568 0.749441
O O15 0.759497 0.068657 0.825418
O O16 0.730093 0.124612 0.658110
O O17 0.688061 0.000000 0.683123
O O18 0.000000 0.126270 0.885330
O O19 0.222390 0.106728 0.000000
O O20 0.191615 0.830391 0.500000
O O21 0.000000 0.834124 0.637670
#
# Coordination Sequence:
#
# PCOD8199909 Si02
#       7
#     8   8   8   8   8   8   8
#     4  10  21  37  58  84 116 157 205 254 302 353
#     4   9  20  41  68  95 121 152 194 246 304 364
#     4  11  25  41  58  86 124 165 205 247 302 363
#     4   9  17  31  53  81 112 147 190 241 297 353
#     4  11  25  41  58  86 124 165 205 247 302 363
#     4  10  21  37  58  84 116 157 205 254 302 353
#     4   9  20  41  68  95 121 152 194 246 304 364
#
# _framework density 20.702135999999999
#
# number of rings (size 3 to 8) (size 9 to 14) (size 15 to 20)
#    0.000    2.143    0.000    3.000    2.000    8.000 
#    0.000    7.143    0.000    0.000    0.000    0.000 
#    0.000    0.000    0.000    0.000    0.000    0.000 
#
# Total GULP energy -694357.538592 kJ/mol
# GULP energy per Si atom -12399.241761 kJ/mol
# Density = 2.065502 g / cm^3
# Si number density = 20.702136 Si / 1000 Ang^3
#
#
#
# Elastic Constant Matrix: (Units=GPa)
#
#
# Indices 1 2 3 4 5 6 
#
# 1 120.7519 61.4158 35.2994 0.0000 0.0000 0.0000
# 2 61.4158 129.4563 47.3553 0.0000 0.0000 0.0000
# 3 35.2994 47.3553 60.3374 0.0000 0.0000 0.0000
# 4 0.0000 0.0000 0.0000 25.8363 0.0000 0.0000
# 5 0.0000 0.0000 0.0000 0.0000 30.0130 0.0000
# 6 0.0000 0.0000 0.0000 0.0000 0.0000 28.0340
#
#
#
# Elastic Compliance Matrix: (Units=1/GPa)
#
#
# Indices 1 2 3 4 5 6 
#
# 1 0.011391 -0.004161 -0.003399 0.000000 0.000000 0.000000
# 2 -0.004161 0.012355 -0.007263 0.000000 0.000000 0.000000
# 3 -0.003399 -0.007263 0.024262 0.000000 0.000000 0.000000
# 4 0.000000 0.000000 0.000000 0.038705 0.000000 0.000000
# 5 0.000000 0.000000 0.000000 0.000000 0.033319 0.000000
# 6 0.000000 0.000000 0.000000 0.000000 0.000000 0.035671
#
#
# Mechanical properties :
#
#
# Convention : Reuss Voigt Hill
#
# Bulk Modulus (GPa) = 54.45449 66.52073 60.48761
# Shear Modulus (GPa) = 26.11386 27.87500 26.99443
#
# Velocity S-wave (km/s) = 3.55549 3.67342 3.61493
# Velocity P-wave (km/s) = 6.57390 7.08478 6.83412
#
# Compressibility (1/GPa) = 0.01836396
#
# Stress axis : x y z
#
# Youngs Moduli (GPa) = 87.78656 80.93679 41.21712
#
# Poissons Ratio (x) = 0.33678 0.14008
# Poissons Ratio (y) = 0.36528 0.29935
# Poissons Ratio (z) = 0.29835 0.58782
#
# Static dielectric constant tensor:
#      x y z
#    x 3.759730 0.000000 0.000000 
#    y 0.000000 3.783040 0.000000 
#    z 0.000000 0.000000 3.648610 
# 
# 
# High freq. dielectric constant tensor:
#      x y z
#    x 1.814720 0.000000 0.000000 
#    y 0.000000 1.811140 0.000000 
#    z 0.000000 0.000000 1.804690 
# 
# From -- ./inp_files/7276.got.cif
#   From: 2010.03.12/outbox.cif.g09.slc.cpg/sg47_4_cif.got.tgz:7276.got - 2010.04.14 03:12:58.
