data_PCOD8199034
_publ_section_title
;
Structure prediction by ZEFSAII (Michael W. Deem and Ramdas Pophale) SiO2 
 PCOD8199034
Probable space group: P M M M
;
_chemical_formula_sum "Si O2"
_cell_formula_units_Z 56
_cell_length_a 9.890075
_cell_length_b 14.700958
_cell_length_c 21.079893
_cell_angle_alpha 90.000000
_cell_angle_beta 90.000000
_cell_angle_gamma 90.000000
_cell_volume 3064.881050
_symmetry_space_group_name_H-M "P M M M"
_symmetry_group_IT_number 47
_symmetry_cell_setting 'orthorhombic'
loop_
_space_group_symop_operation_xyz
x,y,z
-x,-y,z
x,-y,-z
-x,y,-z
-x,-y,-z
x,y,-z
-x,y,z
x,-y,z
loop_
_atom_site_type_symbol
_atom_site_label
_atom_site_fract_x
_atom_site_fract_y
_atom_site_fract_z
Si Si1 0.157991 0.277576 0.430832
Si Si2 0.839175 0.397900 0.175897
Si Si3 0.155036 0.102538 0.361036
Si Si4 0.155001 0.741849 0.070616
Si Si5 0.656623 0.894589 0.110688
Si Si6 0.839596 0.603125 0.316770
Si Si7 0.647476 0.107734 0.746347
O O1 0.221647 0.301938 0.500000
O O2 0.181079 0.169660 0.419834
O O3 0.224526 0.335261 0.373187
O O4 0.000000 0.299929 0.432920
O O5 0.784940 0.500000 0.162113
O O6 0.784685 0.330144 0.121477
O O7 0.788834 0.366454 0.246383
O O8 0.000000 0.399541 0.174426
O O9 0.239216 0.142514 0.301979
O O10 0.000000 0.105275 0.338965
O O11 0.197992 0.000000 0.380799
O O12 0.245111 0.832930 0.068750
O O13 0.000000 0.767424 0.087655
O O14 0.162183 0.698655 0.000000
O O15 0.500000 0.878493 0.092275
O O16 0.684435 0.862721 0.182717
O O17 0.694478 0.000000 0.099797
O O18 0.794311 0.500000 0.330028
O O19 0.000000 0.612120 0.318002
O O20 0.500000 0.146959 0.726823
O O21 0.641038 0.000000 0.744557
#
# Coordination Sequence:
#
# PCOD8199034 Si02
#       7
#     8   8   8   8   8   8   8
#     4   9  17  26  37  59  92 127 159 191 229 275
#     4   8  15  29  48  69  95 127 160 197 244 297
#     4   9  17  27  41  64  93 125 158 190 231 281
#     4  10  21  33  48  75 104 129 161 203 247 286
#     4   9  19  35  52  70  96 133 171 202 239 291
#     4   8  14  25  41  61  86 119 157 193 232 279
#     4   8  15  29  47  66  88 116 155 200 238 272
#
# _framework density 18.271508999999998
#
# number of rings (size 3 to 8) (size 9 to 14) (size 15 to 20)
#    0.000    3.286    0.000    1.714    2.000    2.286 
#    0.000    7.143    0.000    0.857    0.000    3.000 
#    0.000    0.571    0.000    1.286    0.000    1.429 
#
# Total GULP energy -693865.761325 kJ/mol
# GULP energy per Si atom -12390.460024 kJ/mol
# Density = 1.822992 g / cm^3
# Si number density = 18.271509 Si / 1000 Ang^3
#
#
#
# Elastic Constant Matrix: (Units=GPa)
#
#
# Indices 1 2 3 4 5 6 
#
# 1 32.2104 22.8783 29.0435 0.0000 0.0000 0.0000
# 2 22.8783 93.4660 66.5948 0.0000 0.0000 0.0000
# 3 29.0435 66.5948 136.9491 0.0000 0.0000 0.0000
# 4 0.0000 0.0000 0.0000 23.8660 0.0000 0.0000
# 5 0.0000 0.0000 0.0000 0.0000 11.3183 0.0000
# 6 0.0000 0.0000 0.0000 0.0000 0.0000 9.0225
#
#
#
# Elastic Compliance Matrix: (Units=1/GPa)
#
#
# Indices 1 2 3 4 5 6 
#
# 1 0.040329 -0.005781 -0.005742 0.000000 0.000000 0.000000
# 2 -0.005781 0.017200 -0.007138 0.000000 0.000000 0.000000
# 3 -0.005742 -0.007138 0.011991 0.000000 0.000000 0.000000
# 4 0.000000 0.000000 0.000000 0.041901 0.000000 0.000000
# 5 0.000000 0.000000 0.000000 0.000000 0.088353 0.000000
# 6 0.000000 0.000000 0.000000 0.000000 0.000000 0.110834
#
#
# Mechanical properties :
#
#
# Convention : Reuss Voigt Hill
#
# Bulk Modulus (GPa) = 31.05696 55.51764 43.28730
# Shear Modulus (GPa) = 13.94078 18.44862 16.19470
#
# Velocity S-wave (km/s) = 2.76520 3.18101 2.98037
# Velocity P-wave (km/s) = 5.21819 6.62892 5.96540
#
# Compressibility (1/GPa) = 0.03219890
#
# Stress axis : x y z
#
# Youngs Moduli (GPa) = 24.79601 58.14019 83.39813
#
# Poissons Ratio (x) = 0.33608 0.47886
# Poissons Ratio (y) = 0.14333 0.59529
# Poissons Ratio (z) = 0.14238 0.41500
#
# Static dielectric constant tensor:
#      x y z
#    x 3.075240 0.000000 0.000000 
#    y 0.000000 3.345070 0.000000 
#    z 0.000000 0.000000 3.688600 
# 
# 
# High freq. dielectric constant tensor:
#      x y z
#    x 1.649910 0.000000 0.000000 
#    y 0.000000 1.699710 0.000000 
#    z 0.000000 0.000000 1.713010 
# 
# From -- ./inp_files/29700.got.cif
#   From: 2010.03.12/outbox.cif.g09.slc.cpg/sg47_15_cif.got.tgz:29700.got - 2010.04.14 03:12:58.
