data_PCOD8199203
_publ_section_title
;
Structure prediction by ZEFSAII (Michael W. Deem and Ramdas Pophale) SiO2 
 PCOD8199203
Probable space group: P M M M
;
_chemical_formula_sum "Si O2"
_cell_formula_units_Z 52
_cell_length_a 33.309993
_cell_length_b 9.244091
_cell_length_c 9.731589
_cell_angle_alpha 90.000000
_cell_angle_beta 90.000000
_cell_angle_gamma 90.000000
_cell_volume 2996.556787
_symmetry_space_group_name_H-M "P M M M"
_symmetry_group_IT_number 47
_symmetry_cell_setting 'orthorhombic'
loop_
_space_group_symop_operation_xyz
x,y,z
-x,-y,z
x,-y,-z
-x,y,-z
-x,-y,-z
x,y,-z
-x,y,z
x,-y,z
loop_
_atom_site_type_symbol
_atom_site_label
_atom_site_fract_x
_atom_site_fract_y
_atom_site_fract_z
Si Si1 0.077010 0.837099 0.163955
Si Si2 0.312279 0.669037 0.658532
Si Si3 0.392124 0.168847 0.340884
Si Si4 0.759418 0.672276 0.153137
Si Si5 0.000000 0.663552 0.163772
Si Si6 0.453288 0.334720 0.157695
Si Si7 0.152476 0.661290 0.836491
O O1 0.039288 0.745832 0.219764
O O2 0.117959 0.766161 0.221826
O O3 0.073864 0.000000 0.220752
O O4 0.077146 0.836953 0.000000
O O5 0.302989 0.701224 0.500000
O O6 0.319346 0.500000 0.686089
O O7 0.351756 0.752208 0.708905
O O8 0.274681 0.730647 0.744509
O O9 0.400673 0.203109 0.500000
O O10 0.429365 0.226558 0.254470
O O11 0.386877 0.000000 0.313519
O O12 0.759495 0.500000 0.149656
O O13 0.803520 0.722620 0.205904
O O14 0.750674 0.732740 0.000000
O O15 0.000000 0.500000 0.220738
O O16 0.000000 0.662740 0.000000
O O17 0.500000 0.303695 0.181206
O O18 0.443006 0.500000 0.196823
O O19 0.441514 0.304965 0.000000
O O20 0.145503 0.500000 0.776415
O O21 0.150410 0.653535 0.000000
#
# Coordination Sequence:
#
# PCOD8199203 Si02
#       7
#     8   8   8   8   4   8   8
#     4   9  15  21  29  43  65  92 123 162 206 247
#     4   9  17  30  48  68  90 118 153 192 232 271
#     4  10  21  35  50  71 100 131 161 193 231 277
#     4   8  14  25  42  63  84 108 142 182 221 263
#     4   9  15  21  29  41  59  89 130 167 198 241
#     4   9  19  36  56  77 100 126 158 196 236 277
#     4   8  13  22  35  49  67  94 128 164 203 250
#
# _framework density 17.353252000000001
#
# number of rings (size 3 to 8) (size 9 to 14) (size 15 to 20)
#    0.000    3.154    0.000    2.538    0.000    5.231 
#    0.000    4.615    0.000    0.923    0.000    0.000 
#    0.000    0.000    0.000    0.692    0.000   17.077 
#
# Total GULP energy -644642.458806 kJ/mol
# GULP energy per Si atom -12396.970362 kJ/mol
# Density = 1.731376 g / cm^3
# Si number density = 17.353252 Si / 1000 Ang^3
#
#
#
# Elastic Constant Matrix: (Units=GPa)
#
#
# Indices 1 2 3 4 5 6 
#
# 1 144.4928 66.2932 49.7255 0.0000 0.0000 0.0000
# 2 66.2932 93.1838 29.3003 0.0000 0.0000 0.0000
# 3 49.7255 29.3003 40.3220 0.0000 0.0000 0.0000
# 4 0.0000 0.0000 0.0000 14.6193 0.0000 0.0000
# 5 0.0000 0.0000 0.0000 0.0000 2.7767 0.0000
# 6 0.0000 0.0000 0.0000 0.0000 0.0000 11.3490
#
#
#
# Elastic Compliance Matrix: (Units=1/GPa)
#
#
# Indices 1 2 3 4 5 6 
#
# 1 0.014181 -0.005949 -0.013165 0.000000 0.000000 0.000000
# 2 -0.005949 0.016405 -0.004585 0.000000 0.000000 0.000000
# 3 -0.013165 -0.004585 0.044367 0.000000 0.000000 0.000000
# 4 0.000000 0.000000 0.000000 0.068403 0.000000 0.000000
# 5 0.000000 0.000000 0.000000 0.000000 0.360142 0.000000
# 6 0.000000 0.000000 0.000000 0.000000 0.000000 0.088113
#
#
# Mechanical properties :
#
#
# Convention : Reuss Voigt Hill
#
# Bulk Modulus (GPa) = 36.29005 63.18186 49.73596
# Shear Modulus (GPa) = 7.71375 14.59430 11.15403
#
# Velocity S-wave (km/s) = 2.11064 2.90317 2.53803
# Velocity P-wave (km/s) = 5.18629 6.90841 6.10835
#
# Compressibility (1/GPa) = 0.02755576
#
# Stress axis : x y z
#
# Youngs Moduli (GPa) = 70.51854 60.95585 22.53930
#
# Poissons Ratio (x) = 0.36262 0.29673
# Poissons Ratio (y) = 0.41951 0.10334
# Poissons Ratio (z) = 0.92837 0.27947
#
# Static dielectric constant tensor:
#      x y z
#    x 3.504530 0.000000 0.000000 
#    y 0.000000 3.170530 0.000000 
#    z 0.000000 0.000000 2.842520 
# 
# 
# High freq. dielectric constant tensor:
#      x y z
#    x 1.685700 0.000000 0.000000 
#    y 0.000000 1.656820 0.000000 
#    z 0.000000 0.000000 1.617180 
# 
# From -- ./inp_files/20043.got.cif
#   From: 2010.03.12/outbox.cif.g09.slc.cpg/sg47_11_cif.got.tgz:20043.got - 2010.04.14 03:12:58.
