data_PCOD8199013
_publ_section_title
;
Structure prediction by ZEFSAII (Michael W. Deem and Ramdas Pophale) SiO2 
 PCOD8199013
Probable space group: P M M M
;
_chemical_formula_sum "Si O2"
_cell_formula_units_Z 48
_cell_length_a 17.648132
_cell_length_b 9.156663
_cell_length_c 15.282690
_cell_angle_alpha 90.000000
_cell_angle_beta 90.000000
_cell_angle_gamma 90.000000
_cell_volume 2469.652097
_symmetry_space_group_name_H-M "P M M M"
_symmetry_group_IT_number 47
_symmetry_cell_setting 'orthorhombic'
loop_
_space_group_symop_operation_xyz
x,y,z
-x,-y,z
x,-y,-z
-x,y,-z
-x,-y,-z
x,y,-z
-x,y,z
x,-y,z
loop_
_atom_site_type_symbol
_atom_site_label
_atom_site_fract_x
_atom_site_fract_y
_atom_site_fract_z
Si Si1 0.849700 0.330583 0.339609
Si Si2 0.414805 0.169869 0.260075
Si Si3 0.088850 0.167097 0.000000
Si Si4 0.817709 0.332446 0.862425
Si Si5 0.649087 0.670648 0.901277
Si Si6 0.000000 0.169427 0.396772
Si Si7 0.706198 0.168401 0.598290
O O1 0.859743 0.500000 0.364674
O O2 0.828099 0.308787 0.239536
O O3 0.926819 0.246328 0.357334
O O4 0.782364 0.262745 0.396565
O O5 0.500000 0.201030 0.293245
O O6 0.404116 0.248015 0.167249
O O7 0.356987 0.228719 0.334122
O O8 0.401034 0.000000 0.244313
O O9 0.119718 0.240048 0.087722
O O10 0.000000 0.187855 0.000000
O O11 0.113785 0.000000 0.000000
O O12 0.827699 0.500000 0.890349
O O13 0.735149 0.274871 0.889929
O O14 0.643899 0.500000 0.880569
O O15 0.621561 0.705512 0.000000
O O16 0.000000 0.188870 0.500000
O O17 0.000000 0.000000 0.369406
O O18 0.673527 0.184122 0.500000
O O19 0.726198 0.000000 0.618840
#
# Coordination Sequence:
#
# PCOD8199013 Si02
#       7
#     8   8   4   8   8   4   8
#     4  11  23  39  62  90 118 152 198 248 296 348
#     4  10  22  39  59  87 122 157 196 245 298 353
#     4  11  25  39  55  87 122 153 194 241 291 346
#     4  10  21  39  60  83 113 153 196 239 289 346
#     4  10  20  38  62  86 114 151 195 239 289 351
#     4  11  25  43  61  84 119 158 193 237 294 353
#     4  10  21  38  61  88 119 158 201 244 297 358
#
# _framework density 19.435936000000002
#
# number of rings (size 3 to 8) (size 9 to 14) (size 15 to 20)
#    0.000    1.667    2.500    1.500    1.167    7.000 
#    0.000    3.333    0.000    0.000    0.000    2.333 
#    0.000    0.000    0.000    0.000    0.000    0.000 
#
# Total GULP energy -595389.599618 kJ/mol
# GULP energy per Si atom -12403.949992 kJ/mol
# Density = 1.939170 g / cm^3
# Si number density = 19.435936 Si / 1000 Ang^3
#
#
#
# Elastic Constant Matrix: (Units=GPa)
#
#
# Indices 1 2 3 4 5 6 
#
# 1 107.2513 46.1921 44.4170 0.0000 0.0000 0.0000
# 2 46.1921 73.2488 35.7593 0.0000 0.0000 0.0000
# 3 44.4170 35.7593 97.9694 0.0000 0.0000 0.0000
# 4 0.0000 0.0000 0.0000 31.8545 0.0000 0.0000
# 5 0.0000 0.0000 0.0000 0.0000 31.0998 0.0000
# 6 0.0000 0.0000 0.0000 0.0000 0.0000 32.7552
#
#
#
# Elastic Compliance Matrix: (Units=1/GPa)
#
#
# Indices 1 2 3 4 5 6 
#
# 1 0.013854 -0.006900 -0.003763 0.000000 0.000000 0.000000
# 2 -0.006900 0.020048 -0.004190 0.000000 0.000000 0.000000
# 3 -0.003763 -0.004190 0.013442 0.000000 0.000000 0.000000
# 4 0.000000 0.000000 0.000000 0.031393 0.000000 0.000000
# 5 0.000000 0.000000 0.000000 0.000000 0.032155 0.000000
# 6 0.000000 0.000000 0.000000 0.000000 0.000000 0.030530
#
#
# Mechanical properties :
#
#
# Convention : Reuss Voigt Hill
#
# Bulk Modulus (GPa) = 56.68643 59.02294 57.85468
# Shear Modulus (GPa) = 28.24775 29.28198 28.76486
#
# Velocity S-wave (km/s) = 3.81645 3.88569 3.85123
# Velocity P-wave (km/s) = 6.97492 7.11093 7.04325
#
# Compressibility (1/GPa) = 0.01764091
#
# Stress axis : x y z
#
# Youngs Moduli (GPa) = 72.18290 49.87914 74.39159
#
# Poissons Ratio (x) = 0.34414 0.27990
# Poissons Ratio (y) = 0.49803 0.31168
# Poissons Ratio (z) = 0.27159 0.20898
#
# Static dielectric constant tensor:
#      x y z
#    x 3.565210 0.000000 0.000000 
#    y 0.000000 3.567760 0.000000 
#    z 0.000000 0.000000 3.671090 
# 
# 
# High freq. dielectric constant tensor:
#      x y z
#    x 1.758870 0.000000 0.000000 
#    y 0.000000 1.753420 0.000000 
#    z 0.000000 0.000000 1.768810 
# 
# From -- ./inp_files/24485.got.cif
#   From: 2010.03.12/outbox.cif.g09.slc.cpg/sg47_13_cif.got.tgz:24485.got - 2010.04.14 03:12:58.
