data_PCOD8199674
_publ_section_title
;
Structure prediction by ZEFSAII (Michael W. Deem and Ramdas Pophale) SiO2 
 PCOD8199674
Probable space group: P M M M
;
_chemical_formula_sum "Si O2"
_cell_formula_units_Z 56
_cell_length_a 8.725873
_cell_length_b 19.926207
_cell_length_c 15.717235
_cell_angle_alpha 90.000000
_cell_angle_beta 90.000000
_cell_angle_gamma 90.000000
_cell_volume 2732.811472
_symmetry_space_group_name_H-M "P M M M"
_symmetry_group_IT_number 47
_symmetry_cell_setting 'orthorhombic'
loop_
_space_group_symop_operation_xyz
x,y,z
-x,-y,z
x,-y,-z
-x,y,-z
-x,-y,-z
x,y,-z
-x,y,z
x,-y,z
loop_
_atom_site_type_symbol
_atom_site_label
_atom_site_fract_x
_atom_site_fract_y
_atom_site_fract_z
Si Si1 0.676964 0.574445 0.728846
Si Si2 0.331671 0.743203 0.095093
Si Si3 0.318686 0.923876 0.500000
Si Si4 0.178653 0.167842 0.639998
Si Si5 0.176114 0.000000 0.100586
Si Si6 0.322014 0.876762 0.805882
Si Si7 0.682316 0.311456 0.598272
Si Si8 0.177399 0.608786 0.095909
O O1 0.500000 0.590774 0.740836
O O2 0.703251 0.500000 0.689637
O O3 0.744599 0.629247 0.661509
O O4 0.746778 0.572091 0.824072
O O5 0.500000 0.712370 0.116460
O O6 0.295967 0.806066 0.151157
O O7 0.203082 0.687625 0.111235
O O8 0.326924 0.770311 0.000000
O O9 0.500000 0.923361 0.500000
O O10 0.257511 0.884435 0.420628
O O11 0.255964 0.000000 0.500000
O O12 0.209009 0.129788 0.727310
O O13 0.253134 0.241393 0.632936
O O14 0.000000 0.175409 0.620833
O O15 0.264935 0.935415 0.133890
O O16 0.000000 0.000000 0.131413
O O17 0.186627 0.000000 0.000000
O O18 0.500000 0.888631 0.780718
O O19 0.735508 0.324380 0.500000
O O20 0.500000 0.308049 0.601713
O O21 0.000000 0.591428 0.098094
O O22 0.241289 0.588943 0.000000
#
# Coordination Sequence:
#
# PCOD8199674 Si02
#       8
#     8   8   4   8   4   8   8   8
#     4  10  22  39  60  89 122 159 207 260 312 367
#     4   9  18  34  57  84 112 147 195 248 297 348
#     4  11  25  45  69  93 122 159 202 249 304 367
#     4  12  25  41  64  95 129 162 202 252 308 368
#     4  11  25  43  61  86 123 164 207 259 315 367
#     4  11  23  39  61  86 117 158 205 251 300 363
#     4  10  21  40  66  92 124 165 209 257 311 378
#     4  10  21  36  56  84 118 157 199 246 307 375
#
# _framework density 20.491716
#
# number of rings (size 3 to 8) (size 9 to 14) (size 15 to 20)
#    0.000    1.571    0.714    3.857    1.000    8.571 
#    0.000    4.286    0.000    0.000    0.000    2.000 
#    0.000    0.000    0.000    0.000    0.000    0.000 
#
# Total GULP energy -694020.551508 kJ/mol
# GULP energy per Si atom -12393.224134 kJ/mol
# Density = 2.044508 g / cm^3
# Si number density = 20.491716 Si / 1000 Ang^3
#
#
#
# Elastic Constant Matrix: (Units=GPa)
#
#
# Indices 1 2 3 4 5 6 
#
# 1 226.9756 -410.5504 34.5740 0.0000 0.0000 0.0000
# 2 -410.5504 1273.3120 25.3758 0.0000 0.0000 0.0000
# 3 34.5740 25.3758 105.1192 0.0000 0.0000 0.0000
# 4 0.0000 0.0000 0.0000 38.9206 0.0000 0.0000
# 5 0.0000 0.0000 0.0000 0.0000 -30.5468 0.0000
# 6 0.0000 0.0000 0.0000 0.0000 0.0000 -6.8617
#
#
#
# Elastic Compliance Matrix: (Units=1/GPa)
#
#
# Indices 1 2 3 4 5 6 
#
# 1 0.012965 0.004286 -0.005299 0.000000 0.000000 0.000000
# 2 0.004286 0.002206 -0.001942 0.000000 0.000000 0.000000
# 3 -0.005299 -0.001942 0.011725 0.000000 0.000000 0.000000
# 4 0.000000 0.000000 0.000000 0.025693 0.000000 0.000000
# 5 0.000000 0.000000 0.000000 0.000000 -0.032737 0.000000
# 6 0.000000 0.000000 0.000000 0.000000 0.000000 -0.145737
#
#
# Mechanical properties :
#
#
# Convention : Reuss Voigt Hill
#
# Bulk Modulus (GPa) = 47.65157 100.46728 74.05942
# Shear Modulus (GPa) = -44.25606 130.70292 43.22343
#
# Velocity S-wave (km/s) = -4.65230 7.99511 4.59771
# Velocity P-wave (km/s) = 2.35670 11.59154 8.02526
#
# Compressibility (1/GPa) = 0.02098567
#
# Stress axis : x y z
#
# Youngs Moduli (GPa) = 77.12862 453.31375 85.29000
#
# Poissons Ratio (x) = -1.94290 0.45195
# Poissons Ratio (y) = -0.33057 0.16565
# Poissons Ratio (z) = 0.40870 0.88042
#
# Static dielectric constant tensor:
#      x y z
#    x 3.716050 0.000000 0.000000 
#    y 0.000000 3.861760 0.000000 
#    z 0.000000 0.000000 3.892020 
# 
# 
# High freq. dielectric constant tensor:
#      x y z
#    x 1.792030 0.000000 0.000000 
#    y 0.000000 1.808900 0.000000 
#    z 0.000000 0.000000 1.815200 
# 
# From -- ./inp_files/21672.got.cif
#   From: 2010.03.12/outbox.cif.g09.slc.cpg/sg47_11_cif.got.tgz:21672.got - 2010.04.14 03:12:58.
