data_PCOD8199422
_publ_section_title
;
Structure prediction by ZEFSAII (Michael W. Deem and Ramdas Pophale) SiO2 
 PCOD8199422
Probable space group: P M M M
;
_chemical_formula_sum "Si O2"
_cell_formula_units_Z 64
_cell_length_a 25.826828
_cell_length_b 9.170598
_cell_length_c 14.308567
_cell_angle_alpha 90.000000
_cell_angle_beta 90.000000
_cell_angle_gamma 90.000000
_cell_volume 3388.947710
_symmetry_space_group_name_H-M "P M M M"
_symmetry_group_IT_number 47
_symmetry_cell_setting 'orthorhombic'
loop_
_space_group_symop_operation_xyz
x,y,z
-x,-y,z
x,-y,-z
-x,y,-z
-x,-y,-z
x,y,-z
-x,y,z
x,-y,z
loop_
_atom_site_type_symbol
_atom_site_label
_atom_site_fract_x
_atom_site_fract_y
_atom_site_fract_z
Si Si1 0.942932 0.831131 0.785051
Si Si2 0.146532 0.664448 0.889049
Si Si3 0.785293 0.337541 0.389494
Si Si4 0.317199 0.828412 0.392160
Si Si5 0.260934 0.673072 0.104026
Si Si6 0.884607 0.167183 0.605301
Si Si7 0.357660 0.672800 0.225801
Si Si8 0.559881 0.833872 0.891874
O O1 0.898991 0.760036 0.847285
O O2 0.932718 0.808169 0.674327
O O3 0.000000 0.765237 0.806610
O O4 0.942347 0.000000 0.810658
O O5 0.137841 0.500000 0.854206
O O6 0.203966 0.720280 0.857246
O O7 0.143680 0.673647 0.000000
O O8 0.788081 0.347001 0.500000
O O9 0.779060 0.500000 0.345868
O O10 0.737391 0.238456 0.359391
O O11 0.838092 0.265013 0.353472
O O12 0.329786 0.791481 0.500000
O O13 0.360064 0.751521 0.326972
O O14 0.316204 0.000000 0.374913
O O15 0.262246 0.500000 0.096801
O O16 0.306225 0.729058 0.171866
O O17 0.270249 0.738482 0.000000
O O18 0.900877 0.213312 0.500000
O O19 0.865610 0.000000 0.606030
O O20 0.358159 0.500000 0.239647
O O21 0.407988 0.720014 0.168907
O O22 0.500000 0.810307 0.867247
O O23 0.576305 0.000000 0.868971
O O24 0.570240 0.799164 0.000000
#
# Coordination Sequence:
#
# PCOD8199422 Si02
#       8
#     8   8   8   8   8   8   8   8
#     4  10  22  37  52  74 101 129 168 219 268 314
#     4   9  19  37  58  76  98 132 172 212 259 320
#     4   9  17  30  49  73 100 131 170 216 264 313
#     4  10  21  36  52  73 108 152 192 228 269 322
#     4   8  16  32  52  77 109 139 167 206 261 323
#     4   9  18  33  52  73  99 133 170 207 255 319
#     4  11  21  32  54  87 117 147 185 232 283 329
#     4   9  19  37  59  83 116 158 199 236 274 322
#
# _framework density 18.884917000000002
#
# number of rings (size 3 to 8) (size 9 to 14) (size 15 to 20)
#    0.000    2.625    0.000    2.625    1.750    4.750 
#    0.000    3.750    0.000    1.875    0.000    5.250 
#    0.000    0.000    0.000    0.000    0.000    0.000 
#
# Total GULP energy -793439.084250 kJ/mol
# GULP energy per Si atom -12397.485691 kJ/mol
# Density = 1.884193 g / cm^3
# Si number density = 18.884917 Si / 1000 Ang^3
#
#
#
# Elastic Constant Matrix: (Units=GPa)
#
#
# Indices 1 2 3 4 5 6 
#
# 1 106.3304 46.6513 50.1927 0.0000 0.0000 0.0000
# 2 46.6513 81.9353 38.7056 0.0000 0.0000 0.0000
# 3 50.1927 38.7056 61.5407 0.0000 0.0000 0.0000
# 4 0.0000 0.0000 0.0000 26.1333 0.0000 0.0000
# 5 0.0000 0.0000 0.0000 0.0000 25.8816 0.0000
# 6 0.0000 0.0000 0.0000 0.0000 0.0000 30.1897
#
#
#
# Elastic Compliance Matrix: (Units=1/GPa)
#
#
# Indices 1 2 3 4 5 6 
#
# 1 0.016275 -0.004262 -0.010593 0.000000 0.000000 0.000000
# 2 -0.004262 0.018480 -0.008146 0.000000 0.000000 0.000000
# 3 -0.010593 -0.008146 0.030013 0.000000 0.000000 0.000000
# 4 0.000000 0.000000 0.000000 0.038265 0.000000 0.000000
# 5 0.000000 0.000000 0.000000 0.000000 0.038637 0.000000
# 6 0.000000 0.000000 0.000000 0.000000 0.000000 0.033124
#
#
# Mechanical properties :
#
#
# Convention : Reuss Voigt Hill
#
# Bulk Modulus (GPa) = 53.29381 57.87839 55.58610
# Shear Modulus (GPa) = 22.02123 24.05804 23.03963
#
# Velocity S-wave (km/s) = 3.41849 3.57309 3.49664
# Velocity P-wave (km/s) = 6.62291 6.90920 6.76757
#
# Compressibility (1/GPa) = 0.01876391
#
# Stress axis : x y z
#
# Youngs Moduli (GPa) = 61.44300 54.11280 33.31897
#
# Poissons Ratio (x) = 0.23065 0.35296
# Poissons Ratio (y) = 0.26190 0.27143
# Poissons Ratio (z) = 0.65088 0.44082
#
# Static dielectric constant tensor:
#      x y z
#    x 3.398200 0.000000 0.000000 
#    y 0.000000 3.401810 0.000000 
#    z 0.000000 0.000000 3.524430 
# 
# 
# High freq. dielectric constant tensor:
#      x y z
#    x 1.718370 0.000000 0.000000 
#    y 0.000000 1.720860 0.000000 
#    z 0.000000 0.000000 1.737630 
# 
# From -- ./inp_files/12694.got.cif
#   From: 2010.03.12/outbox.cif.g09.slc.cpg/sg47_7_cif.got.tgz:12694.got - 2010.04.14 03:12:58.
