data_PCOD8199719
_publ_section_title
;
Structure prediction by ZEFSAII (Michael W. Deem and Ramdas Pophale) SiO2 
 PCOD8199719
Probable space group: P M M M
;
_chemical_formula_sum "Si O2"
_cell_formula_units_Z 56
_cell_length_a 14.298787
_cell_length_b 21.098999
_cell_length_c 8.855307
_cell_angle_alpha 90.000000
_cell_angle_beta 90.000000
_cell_angle_gamma 90.000000
_cell_volume 2671.558389
_symmetry_space_group_name_H-M "P M M M"
_symmetry_group_IT_number 47
_symmetry_cell_setting 'orthorhombic'
loop_
_space_group_symop_operation_xyz
x,y,z
-x,-y,z
x,-y,-z
-x,y,-z
-x,-y,-z
x,y,-z
-x,y,z
x,-y,z
loop_
_atom_site_type_symbol
_atom_site_label
_atom_site_fract_x
_atom_site_fract_y
_atom_site_fract_z
Si Si1 0.889243 0.069245 0.330952
Si Si2 0.388250 0.000000 0.333426
Si Si3 0.604905 0.136133 0.319438
Si Si4 0.713975 0.617115 0.177559
Si Si5 0.894634 0.425387 0.671926
Si Si6 0.389975 0.500000 0.324551
Si Si7 0.725524 0.745885 0.321640
Si Si8 0.108121 0.194843 0.175454
O O1 0.855092 0.087292 0.500000
O O2 0.856229 0.124026 0.217543
O O3 0.000000 0.063830 0.328247
O O4 0.847274 0.000000 0.284174
O O5 0.357833 0.932779 0.255773
O O6 0.500000 0.000000 0.343978
O O7 0.344024 0.000000 0.500000
O O8 0.605414 0.133393 0.500000
O O9 0.500000 0.149196 0.260567
O O10 0.669642 0.192894 0.260513
O O11 0.823478 0.609119 0.216404
O O12 0.652336 0.562388 0.250502
O O13 0.680098 0.684211 0.244272
O O14 0.699251 0.615681 0.000000
O O15 0.874960 0.403709 0.500000
O O16 0.879490 0.500000 0.685980
O O17 0.000000 0.406948 0.719878
O O18 0.500000 0.500000 0.297275
O O19 0.363157 0.500000 0.500000
O O20 0.718949 0.737794 0.500000
O O21 0.833212 0.753758 0.269939
O O22 0.000000 0.203938 0.220300
O O23 0.125440 0.206328 0.000000
#
# Coordination Sequence:
#
# PCOD8199719 Si02
#       8
#     8   4   8   8   8   4   8   8
#     4   8  14  27  49  75 102 137 187 246 302 355
#     4   7  10  22  48  80 112 141 172 226 295 351
#     4   8  15  30  54  84 115 146 185 236 296 358
#     4  12  25  41  63  92 128 165 200 248 301 355
#     4   9  18  35  62  93 124 159 199 243 292 350
#     4  11  25  47  74  99 124 159 203 248 294 351
#     4  11  23  38  58  86 120 161 203 245 294 354
#     4  10  21  37  55  76 110 156 204 253 304 359
#
# _framework density 20.961549000000002
#
# number of rings (size 3 to 8) (size 9 to 14) (size 15 to 20)
#    0.000    2.429    0.714    4.071    0.000    3.143 
#    1.286    3.571    0.000    1.286    0.000    0.000 
#    0.000    6.857    0.000    0.000    0.000    0.000 
#
# Total GULP energy -694163.515837 kJ/mol
# GULP energy per Si atom -12395.777069 kJ/mol
# Density = 2.091384 g / cm^3
# Si number density = 20.961549 Si / 1000 Ang^3
#
#
#
# Elastic Constant Matrix: (Units=GPa)
#
#
# Indices 1 2 3 4 5 6 
#
# 1 73.8590 61.7879 41.0919 0.0000 0.0000 0.0000
# 2 61.7879 168.9159 58.9638 0.0000 0.0000 0.0000
# 3 41.0919 58.9638 96.0800 0.0000 0.0000 0.0000
# 4 0.0000 0.0000 0.0000 26.0898 0.0000 0.0000
# 5 0.0000 0.0000 0.0000 0.0000 11.9262 0.0000
# 6 0.0000 0.0000 0.0000 0.0000 0.0000 22.5312
#
#
#
# Elastic Compliance Matrix: (Units=1/GPa)
#
#
# Indices 1 2 3 4 5 6 
#
# 1 0.021641 -0.005963 -0.005596 0.000000 0.000000 0.000000
# 2 -0.005963 0.009177 -0.003082 0.000000 0.000000 0.000000
# 3 -0.005596 -0.003082 0.014693 0.000000 0.000000 0.000000
# 4 0.000000 0.000000 0.000000 0.038329 0.000000 0.000000
# 5 0.000000 0.000000 0.000000 0.000000 0.083849 0.000000
# 6 0.000000 0.000000 0.000000 0.000000 0.000000 0.044383
#
#
# Mechanical properties :
#
#
# Convention : Reuss Voigt Hill
#
# Bulk Modulus (GPa) = 61.61674 73.61581 67.61627
# Shear Modulus (GPa) = 20.26240 23.91020 22.08630
#
# Velocity S-wave (km/s) = 3.11247 3.38104 3.24953
# Velocity P-wave (km/s) = 6.50965 7.10195 6.81224
#
# Compressibility (1/GPa) = 0.01622936
#
# Stress axis : x y z
#
# Youngs Moduli (GPa) = 46.20875 108.96923 68.06111
#
# Poissons Ratio (x) = 0.64973 0.38089
# Poissons Ratio (y) = 0.27552 0.20975
# Poissons Ratio (z) = 0.25860 0.33581
#
# Static dielectric constant tensor:
#      x y z
#    x 3.767910 0.000000 0.000000 
#    y 0.000000 4.133090 0.000000 
#    z 0.000000 0.000000 3.427120 
# 
# 
# High freq. dielectric constant tensor:
#      x y z
#    x 1.814940 0.000000 0.000000 
#    y 0.000000 1.834580 0.000000 
#    z 0.000000 0.000000 1.782190 
# 
# From -- ./inp_files/7384.got.cif
#   From: 2010.03.12/outbox.cif.g09.slc.cpg/sg47_4_cif.got.tgz:7384.got - 2010.04.14 03:12:58.
