data_PCOD8199471
_publ_section_title
;
Structure prediction by ZEFSAII (Michael W. Deem and Ramdas Pophale) SiO2 
 PCOD8199471
Probable space group: P M M M
;
_chemical_formula_sum "Si O2"
_cell_formula_units_Z 48
_cell_length_a 9.104875
_cell_length_b 30.913424
_cell_length_c 8.725688
_cell_angle_alpha 90.000000
_cell_angle_beta 90.000000
_cell_angle_gamma 90.000000
_cell_volume 2455.957112
_symmetry_space_group_name_H-M "P M M M"
_symmetry_group_IT_number 47
_symmetry_cell_setting 'orthorhombic'
loop_
_space_group_symop_operation_xyz
x,y,z
-x,-y,z
x,-y,-z
-x,y,-z
-x,-y,-z
x,y,-z
-x,y,z
x,-y,z
loop_
_atom_site_type_symbol
_atom_site_label
_atom_site_fract_x
_atom_site_fract_y
_atom_site_fract_z
Si Si1 0.326965 0.593329 0.176839
Si Si2 0.334299 0.000000 0.319098
Si Si3 0.831010 0.919489 0.820424
Si Si4 0.328916 0.160363 0.321621
Si Si5 0.168996 0.327874 0.324523
Si Si6 0.829012 0.239060 0.177920
Si Si7 0.325965 0.500000 0.170096
O O1 0.500000 0.598636 0.188809
O O2 0.256771 0.629578 0.281426
O O3 0.277033 0.545886 0.245524
O O4 0.276475 0.598119 0.000000
O O5 0.251344 0.042439 0.265397
O O6 0.500000 0.000000 0.252777
O O7 0.338450 0.000000 0.500000
O O8 0.758270 0.874138 0.778966
O O9 0.000000 0.918841 0.767775
O O10 0.817541 0.927624 0.000000
O O11 0.302037 0.150914 0.500000
O O12 0.500000 0.157666 0.280094
O O13 0.268811 0.207440 0.279919
O O14 0.200338 0.315565 0.500000
O O15 0.219295 0.287669 0.219972
O O16 0.000000 0.338385 0.295017
O O17 0.000000 0.231583 0.217834
O O18 0.797226 0.230587 0.000000
O O19 0.500000 0.500000 0.159554
O O20 0.260022 0.500000 0.000000
#
# Coordination Sequence:
#
# PCOD8199471 Si02
#       7
#     8   4   8   8   8   8   4
#     4   9  17  31  53  78 102 132 173 220 268 318
#     4  11  24  41  62  90 122 155 194 239 286 334
#     4  11  24  41  62  89 119 153 195 237 278 330
#     4  11  24  40  59  86 118 150 185 226 274 328
#     4  10  21  36  53  75 106 143 179 217 266 322
#     4  10  21  38  60  83 106 138 182 227 271 323
#     4   7  12  26  48  73 100 130 168 215 264 315
#
# _framework density 19.544315000000001
#
# number of rings (size 3 to 8) (size 9 to 14) (size 15 to 20)
#    0.000    2.000    0.000    4.500    0.000   11.333 
#    0.000    0.833    0.000    4.000    0.000    0.000 
#    0.000    0.000    0.000    0.000    0.000    0.000 
#
# Total GULP energy -595165.210404 kJ/mol
# GULP energy per Si atom -12399.275217 kJ/mol
# Density = 1.949983 g / cm^3
# Si number density = 19.544315 Si / 1000 Ang^3
#
#
#
# Elastic Constant Matrix: (Units=GPa)
#
#
# Indices 1 2 3 4 5 6 
#
# 1 90.2791 51.1072 33.8989 0.0000 0.0000 0.0000
# 2 51.1072 125.6427 21.2995 0.0000 0.0000 0.0000
# 3 33.8989 21.2995 49.8626 0.0000 0.0000 0.0000
# 4 0.0000 0.0000 0.0000 52.9289 0.0000 0.0000
# 5 0.0000 0.0000 0.0000 0.0000 28.7679 0.0000
# 6 0.0000 0.0000 0.0000 0.0000 0.0000 36.9093
#
#
#
# Elastic Compliance Matrix: (Units=1/GPa)
#
#
# Indices 1 2 3 4 5 6 
#
# 1 0.017946 -0.005640 -0.009791 0.000000 0.000000 0.000000
# 2 -0.005640 0.010353 -0.000588 0.000000 0.000000 0.000000
# 3 -0.009791 -0.000588 0.026963 0.000000 0.000000 0.000000
# 4 0.000000 0.000000 0.000000 0.018893 0.000000 0.000000
# 5 0.000000 0.000000 0.000000 0.000000 0.034761 0.000000
# 6 0.000000 0.000000 0.000000 0.000000 0.000000 0.027093
#
#
# Mechanical properties :
#
#
# Convention : Reuss Voigt Hill
#
# Bulk Modulus (GPa) = 43.06060 53.15508 48.10784
# Shear Modulus (GPa) = 28.44306 34.35313 31.39810
#
# Velocity S-wave (km/s) = 3.81899 4.19705 4.01248
# Velocity P-wave (km/s) = 6.44410 7.12343 6.79226
#
# Compressibility (1/GPa) = 0.02322309
#
# Stress axis : x y z
#
# Youngs Moduli (GPa) = 55.72222 96.59093 37.08790
#
# Poissons Ratio (x) = 0.54477 0.36314
# Poissons Ratio (y) = 0.31427 0.02181
# Poissons Ratio (z) = 0.54560 0.05680
#
# Static dielectric constant tensor:
#      x y z
#    x 3.538340 0.000000 0.000000 
#    y 0.000000 4.004650 0.000000 
#    z 0.000000 0.000000 3.504830 
# 
# 
# High freq. dielectric constant tensor:
#      x y z
#    x 1.752070 0.000000 0.000000 
#    y 0.000000 1.782380 0.000000 
#    z 0.000000 0.000000 1.755640 
# 
# From -- ./inp_files/2593.got.cif
#   From: 2010.03.12/outbox.cif.g09.slc.cpg/sg47_2_cif.got.tgz:2593.got - 2010.04.14 03:12:58.
