data_PCOD8199618
_publ_section_title
;
Structure prediction by ZEFSAII (Michael W. Deem and Ramdas Pophale) SiO2 
 PCOD8199618
Probable space group: P M M M
;
_chemical_formula_sum "Si O2"
_cell_formula_units_Z 40
_cell_length_a 9.309186
_cell_length_b 8.086358
_cell_length_c 27.125652
_cell_angle_alpha 90.000000
_cell_angle_beta 90.000000
_cell_angle_gamma 90.000000
_cell_volume 2041.948846
_symmetry_space_group_name_H-M "P M M M"
_symmetry_group_IT_number 47
_symmetry_cell_setting 'orthorhombic'
loop_
_space_group_symop_operation_xyz
x,y,z
-x,-y,z
x,-y,-z
-x,y,-z
-x,-y,-z
x,y,-z
-x,y,z
x,-y,z
loop_
_atom_site_type_symbol
_atom_site_label
_atom_site_fract_x
_atom_site_fract_y
_atom_site_fract_z
Si Si1 0.339905 0.689686 0.590214
Si Si2 0.156773 0.810299 0.500000
Si Si3 0.669825 0.688723 0.880762
Si Si4 0.837436 0.691392 0.783205
Si Si5 0.836579 0.189535 0.678444
Si Si6 0.670659 0.000000 0.944645
O O1 0.500000 0.768583 0.591118
O O2 0.351911 0.500000 0.576172
O O3 0.244544 0.773480 0.548916
O O4 0.267622 0.707003 0.643571
O O5 0.000000 0.718550 0.500000
O O6 0.122794 0.000000 0.500000
O O7 0.500000 0.695916 0.875513
O O8 0.716935 0.500000 0.896489
O O9 0.735519 0.738633 0.828353
O O10 0.724684 0.829225 0.918969
O O11 0.825057 0.500000 0.769784
O O12 0.786343 0.791274 0.735048
O O13 0.000000 0.739629 0.797926
O O14 0.000000 0.255596 0.672979
O O15 0.826389 0.000000 0.662424
O O16 0.500000 0.000000 0.945096
O O17 0.732838 0.000000 0.000000
#
# Coordination Sequence:
#
# PCOD8199618 Si02
#       6
#     8   4   8   8   8   4
#     4  11  24  40  58  82 111 143 181 223 268 320
#     4  11  24  41  62  86 110 139 178 223 270 324
#     4   9  18  32  51  76 105 138 179 225 271 324
#     4   9  18  33  53  77 106 141 177 216 266 321
#     4  10  21  36  55  81 110 141 180 222 266 322
#     4   9  18  32  51  77 107 139 179 226 275 324
#
# _framework density 19.589130000000001
#
# number of rings (size 3 to 8) (size 9 to 14) (size 15 to 20)
#    0.000    2.200    0.000    2.400    1.400    8.400 
#    0.000    4.000    0.000    1.200    0.000    2.800 
#    0.000    0.000    0.000    0.000    0.000    0.000 
#
# Total GULP energy -495927.947720 kJ/mol
# GULP energy per Si atom -12398.198693 kJ/mol
# Density = 1.954454 g / cm^3
# Si number density = 19.589130 Si / 1000 Ang^3
#
#
#
# Elastic Constant Matrix: (Units=GPa)
#
#
# Indices 1 2 3 4 5 6 
#
# 1 87.8459 33.5538 59.4218 0.0000 0.0000 0.0000
# 2 33.5538 82.1727 50.5141 0.0000 0.0000 0.0000
# 3 59.4218 50.5141 137.0737 0.0000 0.0000 0.0000
# 4 0.0000 0.0000 0.0000 38.8337 0.0000 0.0000
# 5 0.0000 0.0000 0.0000 0.0000 95.0459 0.0000
# 6 0.0000 0.0000 0.0000 0.0000 0.0000 22.8243
#
#
#
# Elastic Compliance Matrix: (Units=1/GPa)
#
#
# Indices 1 2 3 4 5 6 
#
# 1 0.016681 -0.003059 -0.006104 0.000000 0.000000 0.000000
# 2 -0.003059 0.016295 -0.004679 0.000000 0.000000 0.000000
# 3 -0.006104 -0.004679 0.011666 0.000000 0.000000 0.000000
# 4 0.000000 0.000000 0.000000 0.025751 0.000000 0.000000
# 5 0.000000 0.000000 0.000000 0.000000 0.010521 0.000000
# 6 0.000000 0.000000 0.000000 0.000000 0.000000 0.043813
#
#
# Mechanical properties :
#
#
# Convention : Reuss Voigt Hill
#
# Bulk Modulus (GPa) = 58.97004 66.00797 62.48900
# Shear Modulus (GPa) = 31.63304 42.24762 36.94033
#
# Velocity S-wave (km/s) = 4.02285 4.64905 4.34724
# Velocity P-wave (km/s) = 7.19351 7.91123 7.56089
#
# Compressibility (1/GPa) = 0.01695776
#
# Stress axis : x y z
#
# Youngs Moduli (GPa) = 59.94884 61.36916 85.72205
#
# Poissons Ratio (x) = 0.18773 0.52324
# Poissons Ratio (y) = 0.18339 0.40108
# Poissons Ratio (z) = 0.36592 0.28713
#
# Static dielectric constant tensor:
#      x y z
#    x 3.636840 0.000000 0.000000 
#    y 0.000000 3.688080 0.000000 
#    z 0.000000 0.000000 3.597740 
# 
# 
# High freq. dielectric constant tensor:
#      x y z
#    x 1.750410 0.000000 0.000000 
#    y 0.000000 1.768070 0.000000 
#    z 0.000000 0.000000 1.761750 
# 
# From -- ./inp_files/33097.got.cif
#   From: 2010.03.12/outbox.cif.g09.slc.cpg/sg47_17_cif.got.tgz:33097.got - 2010.04.14 03:12:58.
