data_PCOD8199391
_publ_section_title
;
Structure prediction by ZEFSAII (Michael W. Deem and Ramdas Pophale) SiO2 
 PCOD8199391
Probable space group: P M M M
;
_chemical_formula_sum "Si O2"
_cell_formula_units_Z 60
_cell_length_a 14.741378
_cell_length_b 16.493929
_cell_length_c 15.587935
_cell_angle_alpha 90.000000
_cell_angle_beta 90.000000
_cell_angle_gamma 90.000000
_cell_volume 3790.101053
_symmetry_space_group_name_H-M "P M M M"
_symmetry_group_IT_number 47
_symmetry_cell_setting 'orthorhombic'
loop_
_space_group_symop_operation_xyz
x,y,z
-x,-y,z
x,-y,-z
-x,y,-z
-x,-y,-z
x,y,-z
-x,y,z
x,-y,z
loop_
_atom_site_type_symbol
_atom_site_label
_atom_site_fract_x
_atom_site_fract_y
_atom_site_fract_z
Si Si1 0.397688 0.000000 0.397622
Si Si2 0.902954 0.908320 0.601971
Si Si3 0.286833 0.333798 0.402775
Si Si4 0.897655 0.406567 0.643151
Si Si5 0.902463 0.406190 0.844260
Si Si6 0.282898 0.847989 0.601613
Si Si7 0.399326 0.594919 0.253219
Si Si8 0.285615 0.596559 0.905265
O O1 0.349142 0.081757 0.362012
O O2 0.500000 0.000000 0.362394
O O3 0.396175 0.000000 0.500000
O O4 0.900254 0.906738 0.500000
O O5 0.818431 0.858809 0.640307
O O6 0.000000 0.872049 0.634027
O O7 0.893388 0.000000 0.634561
O O8 0.320856 0.348656 0.500000
O O9 0.178394 0.350581 0.401476
O O10 0.312755 0.242451 0.373094
O O11 0.340696 0.391750 0.338716
O O12 0.880876 0.500000 0.616775
O O13 0.885838 0.395598 0.743878
O O14 0.000000 0.380668 0.614436
O O15 0.908497 0.500000 0.868164
O O16 0.816416 0.367301 0.893237
O O17 0.000000 0.365993 0.870539
O O18 0.279433 0.856935 0.500000
O O19 0.500000 0.633312 0.262523
O O20 0.407988 0.500000 0.239718
O O21 0.351316 0.632748 0.168370
O O22 0.281284 0.500000 0.895387
O O23 0.321278 0.621446 0.000000
#
# Coordination Sequence:
#
# PCOD8199391 Si02
#       8
#     4   8   8   8   8   8   8   8
#     4   9  16  28  45  59  75 101 131 169 221 274
#     4   8  12  20  37  57  77 102 129 160 201 251
#     4  11  22  32  45  64  86 114 152 195 228 259
#     4   9  17  30  46  61  83 119 158 191 223 260
#     4   8  13  23  41  63  86 111 138 170 210 259
#     4   9  17  28  41  60  82 103 135 177 218 262
#     4  10  21  36  49  60  81 113 148 189 233 269
#     4   9  16  27  46  69  87 105 135 174 219 272
#
# _framework density 15.830712999999999
#
# number of rings (size 3 to 8) (size 9 to 14) (size 15 to 20)
#    0.000    2.867    2.000    1.600    0.000    3.200 
#    0.000    6.667    0.000    0.000    0.000    0.000 
#    0.000    0.000    0.000    0.600    0.000    2.667 
#
# Total GULP energy -743298.250506 kJ/mol
# GULP energy per Si atom -12388.304175 kJ/mol
# Density = 1.579468 g / cm^3
# Si number density = 15.830713 Si / 1000 Ang^3
#
#
#
# Elastic Constant Matrix: (Units=GPa)
#
#
# Indices 1 2 3 4 5 6 
#
# 1 115.8475 20.7511 34.4693 0.0000 0.0000 0.0000
# 2 20.7511 37.4404 9.8625 0.0000 0.0000 0.0000
# 3 34.4693 9.8625 61.8834 0.0000 0.0000 0.0000
# 4 0.0000 0.0000 0.0000 0.1798 0.0000 0.0000
# 5 0.0000 0.0000 0.0000 0.0000 11.8410 0.0000
# 6 0.0000 0.0000 0.0000 0.0000 0.0000 10.6841
#
#
#
# Elastic Compliance Matrix: (Units=1/GPa)
#
#
# Indices 1 2 3 4 5 6 
#
# 1 0.011092 -0.004718 -0.005426 0.000000 0.000000 0.000000
# 2 -0.004718 0.029887 -0.002135 0.000000 0.000000 0.000000
# 3 -0.005426 -0.002135 0.019522 0.000000 0.000000 0.000000
# 4 0.000000 0.000000 0.000000 5.561207 0.000000 0.000000
# 5 0.000000 0.000000 0.000000 0.000000 0.084452 0.000000
# 6 0.000000 0.000000 0.000000 0.000000 0.000000 0.093597
#
#
# Mechanical properties :
#
#
# Convention : Reuss Voigt Hill
#
# Bulk Modulus (GPa) = 27.82293 38.37078 33.09686
# Shear Modulus (GPa) = 0.85671 14.54686 7.70179
#
# Velocity S-wave (km/s) = 0.73644 3.03463 2.20809
# Velocity P-wave (km/s) = 4.28212 6.04727 5.23956
#
# Compressibility (1/GPa) = 0.03594157
#
# Stress axis : x y z
#
# Youngs Moduli (GPa) = 90.15771 33.45989 51.22400
#
# Poissons Ratio (x) = 0.15787 0.27795
# Poissons Ratio (y) = 0.42538 0.10937
# Poissons Ratio (z) = 0.48921 0.07144
#
# Static dielectric constant tensor:
#      x y z
#    x 3.930620 0.000000 0.000000 
#    y 0.000000 2.718470 0.000000 
#    z 0.000000 0.000000 2.653880 
# 
# 
# High freq. dielectric constant tensor:
#      x y z
#    x 1.627620 0.000000 0.000000 
#    y 0.000000 1.556710 0.000000 
#    z 0.000000 0.000000 1.559370 
# 
# From -- ./inp_files/23909.got.cif
#   From: 2010.03.12/outbox.cif.g09.slc.cpg/sg47_12_cif.got.tgz:23909.got - 2010.04.14 03:12:58.
