data_PCOD8199553
_publ_section_title
;
Structure prediction by ZEFSAII (Michael W. Deem and Ramdas Pophale) SiO2 
 PCOD8199553
Probable space group: P M M M
;
_chemical_formula_sum "Si O2"
_cell_formula_units_Z 48
_cell_length_a 30.754453
_cell_length_b 8.947737
_cell_length_c 9.072100
_cell_angle_alpha 90.000000
_cell_angle_beta 90.000000
_cell_angle_gamma 90.000000
_cell_volume 2496.485490
_symmetry_space_group_name_H-M "P M M M"
_symmetry_group_IT_number 47
_symmetry_cell_setting 'orthorhombic'
loop_
_space_group_symop_operation_xyz
x,y,z
-x,-y,z
x,-y,-z
-x,y,-z
-x,-y,-z
x,y,-z
-x,y,z
x,-y,z
loop_
_atom_site_type_symbol
_atom_site_label
_atom_site_fract_x
_atom_site_fract_y
_atom_site_fract_z
Si Si1 0.173134 0.170797 0.326425
Si Si2 0.340512 0.174434 0.170868
Si Si3 0.250754 0.672861 0.169301
Si Si4 0.086087 0.174914 0.169245
Si Si5 0.000000 0.668926 0.175272
Si Si6 0.580712 0.674344 0.672421
Si Si7 0.500000 0.176161 0.170556
O O1 0.169885 0.184280 0.500000
O O2 0.211380 0.276053 0.270705
O O3 0.128017 0.229753 0.258978
O O4 0.181988 0.000000 0.276236
O O5 0.292603 0.230056 0.212238
O O6 0.373459 0.264871 0.272035
O O7 0.344121 0.000000 0.207266
O O8 0.351140 0.206909 0.000000
O O9 0.261351 0.500000 0.199504
O O10 0.237730 0.700637 0.000000
O O11 0.043430 0.253131 0.237299
O O12 0.078658 0.000000 0.186656
O O13 0.093433 0.221428 0.000000
O O14 0.000000 0.500000 0.230595
O O15 0.000000 0.683573 0.000000
O O16 0.576247 0.706442 0.500000
O O17 0.577340 0.500000 0.708273
O O18 0.542641 0.758729 0.755495
O O19 0.500000 0.000000 0.192678
O O20 0.500000 0.221119 0.000000
#
# Coordination Sequence:
#
# PCOD8199553 Si02
#       7
#     8   8   8   8   4   8   4
#     4  10  21  36  54  78 108 142 180 222 270 323
#     4  10  21  38  61  87 113 144 185 230 275 326
#     4  10  21  37  58  83 110 143 183 226 273 324
#     4   9  17  31  52  75 100 133 173 216 263 316
#     4   9  17  29  48  75 102 128 166 217 266 313
#     4  11  24  40  59  86 119 153 189 229 276 330
#     4  11  24  41  62  88 116 149 192 237 280 328
#
# _framework density 19.227029000000002
#
# number of rings (size 3 to 8) (size 9 to 14) (size 15 to 20)
#    0.000    2.000    0.000    3.250    0.000   10.333 
#    0.000    2.083    0.000    2.500    0.000    0.000 
#    0.000    0.000    0.000    0.000    0.000    0.000 
#
# Total GULP energy -595423.631607 kJ/mol
# GULP energy per Si atom -12404.658992 kJ/mol
# Density = 1.918327 g / cm^3
# Si number density = 19.227029 Si / 1000 Ang^3
#
#
#
# Elastic Constant Matrix: (Units=GPa)
#
#
# Indices 1 2 3 4 5 6 
#
# 1 130.2311 40.4432 62.0707 0.0000 0.0000 0.0000
# 2 40.4432 61.3967 51.9034 0.0000 0.0000 0.0000
# 3 62.0707 51.9034 82.3932 0.0000 0.0000 0.0000
# 4 0.0000 0.0000 0.0000 26.6544 0.0000 0.0000
# 5 0.0000 0.0000 0.0000 0.0000 32.8939 0.0000
# 6 0.0000 0.0000 0.0000 0.0000 0.0000 50.6228
#
#
#
# Elastic Compliance Matrix: (Units=1/GPa)
#
#
# Indices 1 2 3 4 5 6 
#
# 1 0.011989 -0.000561 -0.008679 0.000000 0.000000 0.000000
# 2 -0.000561 0.034869 -0.021543 0.000000 0.000000 0.000000
# 3 -0.008679 -0.021543 0.032246 0.000000 0.000000 0.000000
# 4 0.000000 0.000000 0.000000 0.037517 0.000000 0.000000
# 5 0.000000 0.000000 0.000000 0.000000 0.030401 0.000000
# 6 0.000000 0.000000 0.000000 0.000000 0.000000 0.019754
#
#
# Mechanical properties :
#
#
# Convention : Reuss Voigt Hill
#
# Bulk Modulus (GPa) = 57.01605 64.76173 60.88889
# Shear Modulus (GPa) = 21.35028 30.00779 25.67903
#
# Velocity S-wave (km/s) = 3.33593 3.95487 3.65851
# Velocity P-wave (km/s) = 6.67506 7.38988 7.04155
#
# Compressibility (1/GPa) = 0.01753892
#
# Stress axis : x y z
#
# Youngs Moduli (GPa) = 83.40752 28.67872 31.01119
#
# Poissons Ratio (x) = 0.01608 0.26915
# Poissons Ratio (y) = 0.04676 0.66809
# Poissons Ratio (z) = 0.72389 0.61784
#
# Static dielectric constant tensor:
#      x y z
#    x 3.725830 0.000000 0.000000 
#    y 0.000000 3.595830 0.000000 
#    z 0.000000 0.000000 3.423890 
# 
# 
# High freq. dielectric constant tensor:
#      x y z
#    x 1.764030 0.000000 0.000000 
#    y 0.000000 1.754240 0.000000 
#    z 0.000000 0.000000 1.735790 
# 
# From -- ./inp_files/2672.got.cif
#   From: 2010.03.12/outbox.cif.g09.slc.cpg/sg47_2_cif.got.tgz:2672.got - 2010.04.14 03:12:58.
