data_PCOD8199087
_publ_section_title
;
Structure prediction by ZEFSAII (Michael W. Deem and Ramdas Pophale) SiO2 
 PCOD8199087
Probable space group: P M M M
;
_chemical_formula_sum "Si O2"
_cell_formula_units_Z 36
_cell_length_a 9.261695
_cell_length_b 15.676175
_cell_length_c 13.613653
_cell_angle_alpha 90.000000
_cell_angle_beta 90.000000
_cell_angle_gamma 90.000000
_cell_volume 1976.538393
_symmetry_space_group_name_H-M "P M M M"
_symmetry_group_IT_number 47
_symmetry_cell_setting 'orthorhombic'
loop_
_space_group_symop_operation_xyz
x,y,z
-x,-y,z
x,-y,-z
-x,y,-z
-x,-y,-z
x,y,-z
-x,y,z
x,-y,z
loop_
_atom_site_type_symbol
_atom_site_label
_atom_site_fract_x
_atom_site_fract_y
_atom_site_fract_z
Si Si1 0.833736 0.902963 0.288908
Si Si2 0.828972 0.500000 0.112772
Si Si3 0.666707 0.758062 0.389512
Si Si4 0.335358 0.344167 0.797493
Si Si5 0.665928 0.163612 0.110994
O O1 0.758144 0.842804 0.368744
O O2 0.763921 0.893135 0.181566
O O3 0.000000 0.876377 0.281154
O O4 0.815749 0.000000 0.324692
O O5 0.771423 0.417235 0.168166
O O6 0.000000 0.500000 0.119003
O O7 0.775433 0.500000 0.000000
O O8 0.697730 0.725998 0.500000
O O9 0.500000 0.783434 0.373934
O O10 0.706642 0.682285 0.314169
O O11 0.500000 0.377453 0.802756
O O12 0.312700 0.263579 0.868084
O O13 0.500000 0.137873 0.128610
O O14 0.714153 0.144683 0.000000
#
# Coordination Sequence:
#
# PCOD8199087 Si02
#       5
#     8   4   8   8   8
#     4  10  21  34  48  72 106 139 171 209 254 307
#     4  11  23  35  50  77 110 140 169 201 240 291
#     4   9  19  37  59  79  99 128 169 215 260 304
#     4   9  18  34  55  77 101 130 166 208 253 300
#     4   9  18  33  53  75  99 132 175 218 258 302
#
# _framework density 18.213660999999998
#
# number of rings (size 3 to 8) (size 9 to 14) (size 15 to 20)
#    0.000    2.556    0.000    3.000    0.000    8.889 
#    0.000    5.000    0.000    3.333    0.000    0.000 
#    0.000    0.000    0.000    0.000    0.000    0.000 
#
# Total GULP energy -446440.229581 kJ/mol
# GULP energy per Si atom -12401.117488 kJ/mol
# Density = 1.817221 g / cm^3
# Si number density = 18.213661 Si / 1000 Ang^3
#
#
#
# Elastic Constant Matrix: (Units=GPa)
#
#
# Indices 1 2 3 4 5 6 
#
# 1 87.2444 49.7639 47.9046 0.0000 0.0000 0.0000
# 2 49.7639 81.2770 40.7707 0.0000 0.0000 0.0000
# 3 47.9046 40.7707 131.6559 0.0000 0.0000 0.0000
# 4 0.0000 0.0000 0.0000 14.9336 0.0000 0.0000
# 5 0.0000 0.0000 0.0000 0.0000 18.4058 0.0000
# 6 0.0000 0.0000 0.0000 0.0000 0.0000 26.0790
#
#
#
# Elastic Compliance Matrix: (Units=1/GPa)
#
#
# Indices 1 2 3 4 5 6 
#
# 1 0.019215 -0.009776 -0.003964 0.000000 0.000000 0.000000
# 2 -0.009776 0.019541 -0.002494 0.000000 0.000000 0.000000
# 3 -0.003964 -0.002494 0.009810 0.000000 0.000000 0.000000
# 4 0.000000 0.000000 0.000000 0.066963 0.000000 0.000000
# 5 0.000000 0.000000 0.000000 0.000000 0.054331 0.000000
# 6 0.000000 0.000000 0.000000 0.000000 0.000000 0.038345
#
#
# Mechanical properties :
#
#
# Convention : Reuss Voigt Hill
#
# Bulk Modulus (GPa) = 62.12389 64.11732 63.12061
# Shear Modulus (GPa) = 20.32196 22.66623 21.49409
#
# Velocity S-wave (km/s) = 3.34391 3.53152 3.43900
# Velocity P-wave (km/s) = 7.00653 7.20473 7.10632
#
# Compressibility (1/GPa) = 0.01609687
#
# Stress axis : x y z
#
# Youngs Moduli (GPa) = 52.04227 51.17574 101.93396
#
# Poissons Ratio (x) = 0.50032 0.40408
# Poissons Ratio (y) = 0.50879 0.25422
# Poissons Ratio (z) = 0.20630 0.12763
#
# Static dielectric constant tensor:
#      x y z
#    x 3.338370 0.000000 0.000000 
#    y 0.000000 3.155950 0.000000 
#    z 0.000000 0.000000 3.539370 
# 
# 
# High freq. dielectric constant tensor:
#      x y z
#    x 1.704360 0.000000 0.000000 
#    y 0.000000 1.691330 0.000000 
#    z 0.000000 0.000000 1.711140 
# 
# From -- ./inp_files/5482.got.cif
#   From: 2010.03.12/outbox.cif.g09.slc.cpg/sg47_3_cif.got.tgz:5482.got - 2010.04.14 03:12:58.
