data_PCOD8199275
_publ_section_title
;
Structure prediction by ZEFSAII (Michael W. Deem and Ramdas Pophale) SiO2 
 PCOD8199275
Probable space group: P M M M
;
_chemical_formula_sum "Si O2"
_cell_formula_units_Z 36
_cell_length_a 9.336633
_cell_length_b 9.233391
_cell_length_c 23.025629
_cell_angle_alpha 90.000000
_cell_angle_beta 90.000000
_cell_angle_gamma 90.000000
_cell_volume 1985.011456
_symmetry_space_group_name_H-M "P M M M"
_symmetry_group_IT_number 47
_symmetry_cell_setting 'orthorhombic'
loop_
_space_group_symop_operation_xyz
x,y,z
-x,-y,z
x,-y,-z
-x,y,-z
-x,-y,-z
x,y,-z
-x,y,z
x,-y,z
loop_
_atom_site_type_symbol
_atom_site_label
_atom_site_fract_x
_atom_site_fract_y
_atom_site_fract_z
Si Si1 0.170463 0.163745 0.111572
Si Si2 0.833261 0.668199 0.775159
Si Si3 0.664295 0.670139 0.662170
Si Si4 0.162481 0.831753 0.566805
Si Si5 0.170921 0.335801 0.000000
O O1 0.224206 0.241073 0.170111
O O2 0.230396 0.252646 0.056575
O O3 0.000000 0.163704 0.109801
O O4 0.230054 0.000000 0.109434
O O5 0.803381 0.500000 0.788181
O O6 0.747974 0.724253 0.719122
O O7 0.000000 0.697046 0.763467
O O8 0.500000 0.716243 0.668875
O O9 0.682980 0.500000 0.654603
O O10 0.727571 0.742698 0.605134
O O11 0.199703 0.799954 0.500000
O O12 0.000000 0.782765 0.580414
O O13 0.180994 0.000000 0.580974
O O14 0.229605 0.500000 0.000000
O O15 0.000000 0.336562 0.000000
#
# Coordination Sequence:
#
# PCOD8199275 Si02
#       5
#     8   8   8   8   4
#     4   9  16  25  39  62  91 121 155 197 242 286
#     4   9  17  30  47  66  91 125 163 200 240 288
#     4  10  21  35  51  74 103 133 166 205 248 294
#     4   9  19  36  56  77 101 130 165 204 246 294
#     4   9  15  23  37  59  90 125 156 189 236 292
#
# _framework density 18.135916000000002
#
# number of rings (size 3 to 8) (size 9 to 14) (size 15 to 20)
#    0.000    2.778    0.000    2.333    0.000    7.556 
#    0.000    5.556    0.000    0.000    0.000    0.778 
#    0.000    6.222    0.000    0.000    0.000    0.000 
#
# Total GULP energy -446433.816135 kJ/mol
# GULP energy per Si atom -12400.939337 kJ/mol
# Density = 1.809464 g / cm^3
# Si number density = 18.135916 Si / 1000 Ang^3
#
#
#
# Elastic Constant Matrix: (Units=GPa)
#
#
# Indices 1 2 3 4 5 6 
#
# 1 63.5566 37.6581 59.8125 0.0000 0.0000 0.0000
# 2 37.6581 90.1228 69.1870 0.0000 0.0000 0.0000
# 3 59.8125 69.1870 149.9716 0.0000 0.0000 0.0000
# 4 0.0000 0.0000 0.0000 29.3061 0.0000 0.0000
# 5 0.0000 0.0000 0.0000 0.0000 2.3011 0.0000
# 6 0.0000 0.0000 0.0000 0.0000 0.0000 17.5578
#
#
#
# Elastic Compliance Matrix: (Units=1/GPa)
#
#
# Indices 1 2 3 4 5 6 
#
# 1 0.026342 -0.004555 -0.008405 0.000000 0.000000 0.000000
# 2 -0.004555 0.017968 -0.006473 0.000000 0.000000 0.000000
# 3 -0.008405 -0.006473 0.013006 0.000000 0.000000 0.000000
# 4 0.000000 0.000000 0.000000 0.034123 0.000000 0.000000
# 5 0.000000 0.000000 0.000000 0.000000 0.434576 0.000000
# 6 0.000000 0.000000 0.000000 0.000000 0.000000 0.056955
#
#
# Mechanical properties :
#
#
# Convention : Reuss Voigt Hill
#
# Bulk Modulus (GPa) = 54.19475 70.77403 62.48439
# Shear Modulus (GPa) = 7.96196 18.96588 13.46392
#
# Velocity S-wave (km/s) = 2.09754 3.23734 2.72764
# Velocity P-wave (km/s) = 5.98445 7.28579 6.66695
#
# Compressibility (1/GPa) = 0.01845197
#
# Stress axis : x y z
#
# Youngs Moduli (GPa) = 37.96152 55.65307 76.88735
#
# Poissons Ratio (x) = 0.25350 0.64621
# Poissons Ratio (y) = 0.17292 0.49768
# Poissons Ratio (z) = 0.31905 0.36023
#
# Static dielectric constant tensor:
#      x y z
#    x 2.974600 0.000000 0.000000 
#    y 0.000000 3.360420 0.000000 
#    z 0.000000 0.000000 3.467060 
# 
# 
# High freq. dielectric constant tensor:
#      x y z
#    x 1.657960 0.000000 0.000000 
#    y 0.000000 1.703420 0.000000 
#    z 0.000000 0.000000 1.717040 
# 
# From -- ./inp_files/1414.got.cif
#   From: 2010.03.12/outbox.cif.g09.slc.cpg/sg47_1_cif.got.tgz:1414.got - 2010.04.14 03:12:58.
