data_PCOD8199993
_publ_section_title
;
Structure prediction by ZEFSAII (Michael W. Deem and Ramdas Pophale) SiO2 
 PCOD8199993
Probable space group: P M M M
;
_chemical_formula_sum "Si O2"
_cell_formula_units_Z 48
_cell_length_a 16.585253
_cell_length_b 8.866498
_cell_length_c 17.122007
_cell_angle_alpha 90.000000
_cell_angle_beta 90.000000
_cell_angle_gamma 90.000000
_cell_volume 2517.844423
_symmetry_space_group_name_H-M "P M M M"
_symmetry_group_IT_number 47
_symmetry_cell_setting 'orthorhombic'
loop_
_space_group_symop_operation_xyz
x,y,z
-x,-y,z
x,-y,-z
-x,y,-z
-x,-y,-z
x,y,-z
-x,y,z
x,-y,z
loop_
_atom_site_type_symbol
_atom_site_label
_atom_site_fract_x
_atom_site_fract_y
_atom_site_fract_z
Si Si1 0.822523 0.823432 0.154596
Si Si2 0.091398 0.179704 0.000000
Si Si3 0.851383 0.677248 0.312237
Si Si4 0.329567 0.678397 0.652215
Si Si5 0.405131 0.175435 0.500000
Si Si6 0.500000 0.324440 0.908155
Si Si7 0.359932 0.822552 0.812327
Si Si8 0.000000 0.679737 0.412906
O O1 0.866664 0.748462 0.227796
O O2 0.728155 0.783388 0.154455
O O3 0.837022 0.000000 0.161232
O O4 0.862369 0.757596 0.076036
O O5 0.000000 0.240334 0.000000
O O6 0.093348 0.000000 0.000000
O O7 0.858119 0.500000 0.302157
O O8 0.764687 0.723383 0.347043
O O9 0.920021 0.739976 0.369869
O O10 0.342310 0.500000 0.652663
O O11 0.368400 0.747175 0.575694
O O12 0.373501 0.748186 0.727664
O O13 0.500000 0.202250 0.500000
O O14 0.382662 0.000000 0.500000
O O15 0.500000 0.500000 0.886744
O O16 0.578839 0.247023 0.873585
O O17 0.500000 0.296317 0.000000
O O18 0.374583 0.000000 0.804259
O O19 0.000000 0.500000 0.415185
O O20 0.000000 0.746773 0.500000
#
# Coordination Sequence:
#
# PCOD8199993 Si02
#       8
#     8   4   8   8   4   4   8   4
#     4   9  19  35  57  82 110 147 188 229 277 333
#     4   9  18  32  53  82 113 148 188 229 273 327
#     4   9  19  35  57  83 111 146 186 229 279 334
#     4  10  21  38  61  86 115 150 191 234 284 340
#     4  11  25  41  59  84 115 148 190 237 284 338
#     4  11  25  41  59  86 117 148 189 237 287 339
#     4  10  21  38  61  85 114 150 190 235 286 340
#     4   9  18  32  55  82 111 146 186 229 273 329
#
# _framework density 19.063925999999999
#
# number of rings (size 3 to 8) (size 9 to 14) (size 15 to 20)
#    0.000    2.333    0.000    1.500    4.667    2.667 
#    0.000    0.417    0.000    1.000    0.000    0.000 
#    0.000    0.000    0.000    0.000    0.000    0.000 
#
# Total GULP energy -595334.481307 kJ/mol
# GULP energy per Si atom -12402.801694 kJ/mol
# Density = 1.902054 g / cm^3
# Si number density = 19.063926 Si / 1000 Ang^3
#
#
#
# Elastic Constant Matrix: (Units=GPa)
#
#
# Indices 1 2 3 4 5 6 
#
# 1 110.1601 43.2543 89.3734 0.0000 0.0000 0.0000
# 2 43.2543 64.2298 56.9036 0.0000 0.0000 0.0000
# 3 89.3734 56.9036 183.9718 0.0000 0.0000 0.0000
# 4 0.0000 0.0000 0.0000 31.1041 0.0000 0.0000
# 5 0.0000 0.0000 0.0000 0.0000 40.7752 0.0000
# 6 0.0000 0.0000 0.0000 0.0000 0.0000 20.8424
#
#
#
# Elastic Compliance Matrix: (Units=1/GPa)
#
#
# Indices 1 2 3 4 5 6 
#
# 1 0.016256 -0.005442 -0.006214 0.000000 0.000000 0.000000
# 2 -0.005442 0.023268 -0.004553 0.000000 0.000000 0.000000
# 3 -0.006214 -0.004553 0.009863 0.000000 0.000000 0.000000
# 4 0.000000 0.000000 0.000000 0.032150 0.000000 0.000000
# 5 0.000000 0.000000 0.000000 0.000000 0.024525 0.000000
# 6 0.000000 0.000000 0.000000 0.000000 0.000000 0.047979
#
#
# Mechanical properties :
#
#
# Convention : Reuss Voigt Hill
#
# Bulk Modulus (GPa) = 58.93398 81.93603 70.43501
# Shear Modulus (GPa) = 26.02624 29.79973 27.91298
#
# Velocity S-wave (km/s) = 3.69888 3.95796 3.83061
# Velocity P-wave (km/s) = 7.01593 7.99751 7.52275
#
# Compressibility (1/GPa) = 0.01696814
#
# Stress axis : x y z
#
# Youngs Moduli (GPa) = 61.51646 42.97804 101.39362
#
# Poissons Ratio (x) = 0.23389 0.63004
# Poissons Ratio (y) = 0.33478 0.46165
# Poissons Ratio (z) = 0.38225 0.19568
#
# Static dielectric constant tensor:
#      x y z
#    x 3.720210 0.000000 0.000000 
#    y 0.000000 3.370300 0.000000 
#    z 0.000000 0.000000 -17.819400 
# 
# 
# High freq. dielectric constant tensor:
#      x y z
#    x 1.749190 0.000000 0.000000 
#    y 0.000000 1.728070 0.000000 
#    z 0.000000 0.000000 1.753240 
# 
# From -- ./inp_files/24524.got.cif
#   From: 2010.03.12/outbox.cif.g09.slc.cpg/sg47_13_cif.got.tgz:24524.got - 2010.04.14 03:12:58.
