data_PCOD8199023
_publ_section_title
;
Structure prediction by ZEFSAII (Michael W. Deem and Ramdas Pophale) SiO2 
 PCOD8199023
Probable space group: P M M M
;
_chemical_formula_sum "Si O2"
_cell_formula_units_Z 56
_cell_length_a 19.079690
_cell_length_b 9.200836
_cell_length_c 21.343619
_cell_angle_alpha 90.000000
_cell_angle_beta 90.000000
_cell_angle_gamma 90.000000
_cell_volume 3746.853077
_symmetry_space_group_name_H-M "P M M M"
_symmetry_group_IT_number 47
_symmetry_cell_setting 'orthorhombic'
loop_
_space_group_symop_operation_xyz
x,y,z
-x,-y,z
x,-y,-z
-x,y,-z
-x,-y,-z
x,y,-z
-x,y,z
x,-y,z
loop_
_atom_site_type_symbol
_atom_site_label
_atom_site_fract_x
_atom_site_fract_y
_atom_site_fract_z
Si Si1 0.421877 0.331851 0.622809
Si Si2 0.083168 0.163592 0.000000
Si Si3 0.079795 0.328637 0.629833
Si Si4 0.918333 0.670809 0.122938
Si Si5 0.198931 0.167174 0.429011
Si Si6 0.280882 0.331545 0.674848
Si Si7 0.582797 0.161731 0.500000
Si Si8 0.156557 0.329852 0.754816
O O1 0.500000 0.281041 0.644513
O O2 0.423973 0.500000 0.603485
O O3 0.365342 0.306428 0.679328
O O4 0.393833 0.245160 0.562509
O O5 0.109819 0.247333 0.061501
O O6 0.000000 0.163030 0.000000
O O7 0.113263 0.000000 0.000000
O O8 0.089265 0.500000 0.620585
O O9 0.123653 0.245379 0.576961
O O10 0.107703 0.277941 0.697786
O O11 0.000000 0.279947 0.623234
O O12 0.906775 0.500000 0.112293
O O13 0.871769 0.737001 0.180146
O O14 0.000000 0.703779 0.136786
O O15 0.226053 0.183433 0.500000
O O16 0.255409 0.241323 0.384476
O O17 0.190491 0.000000 0.409698
O O18 0.263437 0.500000 0.661315
O O19 0.237848 0.286048 0.737995
O O20 0.500000 0.150908 0.500000
O O21 0.616541 0.000000 0.500000
O O22 0.148350 0.500000 0.763582
#
# Coordination Sequence:
#
# PCOD8199023 Si02
#       8
#     8   4   8   8   8   8   4   8
#     4   9  17  29  44  62  82 103 129 162 201 246
#     4   9  17  27  37  55  85 113 136 163 192 224
#     4   9  17  30  47  63  77  96 128 168 205 244
#     4   9  15  24  41  61  80 105 136 167 196 226
#     4  10  21  33  42  55  76 101 128 163 208 251
#     4   9  18  31  46  61  78 103 133 165 201 244
#     4   9  17  27  39  57  79 101 126 157 196 243
#     4   8  14  26  43  62  80 100 131 167 199 231
#
# _framework density 14.945874999999999
#
# number of rings (size 3 to 8) (size 9 to 14) (size 15 to 20)
#    0.000    3.000    0.000    2.143    1.000    5.714 
#    0.000    4.286    0.000    3.429    0.000    0.000 
#    0.000    0.000    0.000    0.643    0.000   17.429 
#
# Total GULP energy -693918.662153 kJ/mol
# GULP energy per Si atom -12391.404681 kJ/mol
# Density = 1.491186 g / cm^3
# Si number density = 14.945875 Si / 1000 Ang^3
#
#
#
# Elastic Constant Matrix: (Units=GPa)
#
#
# Indices 1 2 3 4 5 6 
#
# 1 90.4775 23.4036 37.4770 0.0000 0.0000 0.0000
# 2 23.4036 49.3918 30.3176 0.0000 0.0000 0.0000
# 3 37.4770 30.3176 86.6975 0.0000 0.0000 0.0000
# 4 0.0000 0.0000 0.0000 6.5457 0.0000 0.0000
# 5 0.0000 0.0000 0.0000 0.0000 16.9634 0.0000
# 6 0.0000 0.0000 0.0000 0.0000 0.0000 8.8826
#
#
#
# Elastic Compliance Matrix: (Units=1/GPa)
#
#
# Indices 1 2 3 4 5 6 
#
# 1 0.013978 -0.003711 -0.004744 0.000000 0.000000 0.000000
# 2 -0.003711 0.026765 -0.007755 0.000000 0.000000 0.000000
# 3 -0.004744 -0.007755 0.016297 0.000000 0.000000 0.000000
# 4 0.000000 0.000000 0.000000 0.152772 0.000000 0.000000
# 5 0.000000 0.000000 0.000000 0.000000 0.058950 0.000000
# 6 0.000000 0.000000 0.000000 0.000000 0.000000 0.112579
#
#
# Mechanical properties :
#
#
# Convention : Reuss Voigt Hill
#
# Bulk Modulus (GPa) = 40.62007 45.44035 43.03021
# Shear Modulus (GPa) = 11.84920 15.50294 13.67607
#
# Velocity S-wave (km/s) = 2.81874 3.22416 3.02824
# Velocity P-wave (km/s) = 6.15068 6.65805 6.40938
#
# Compressibility (1/GPa) = 0.02461837
#
# Stress axis : x y z
#
# Youngs Moduli (GPa) = 71.54326 37.36214 61.35985
#
# Poissons Ratio (x) = 0.13864 0.29112
# Poissons Ratio (y) = 0.26548 0.47588
# Poissons Ratio (z) = 0.33943 0.28976
#
# Static dielectric constant tensor:
#      x y z
#    x 3.010840 0.000000 0.000000 
#    y 0.000000 2.862510 0.000000 
#    z 0.000000 0.000000 2.822730 
# 
# 
# High freq. dielectric constant tensor:
#      x y z
#    x 1.561210 0.000000 0.000000 
#    y 0.000000 1.564140 0.000000 
#    z 0.000000 0.000000 1.539160 
# 
# From -- ./inp_files/30110.got.cif
#   From: 2010.03.12/outbox.cif.g09.slc.cpg/sg47_16_cif.got.tgz:30110.got - 2010.04.14 03:12:58.
