data_PCOD8199073
_publ_section_title
;
Structure prediction by ZEFSAII (Michael W. Deem and Ramdas Pophale) SiO2 
 PCOD8199073
Probable space group: P M M M
;
_chemical_formula_sum "Si O2"
_cell_formula_units_Z 56
_cell_length_a 23.391962
_cell_length_b 14.568178
_cell_length_c 9.013299
_cell_angle_alpha 90.000000
_cell_angle_beta 90.000000
_cell_angle_gamma 90.000000
_cell_volume 3071.536406
_symmetry_space_group_name_H-M "P M M M"
_symmetry_group_IT_number 47
_symmetry_cell_setting 'orthorhombic'
loop_
_space_group_symop_operation_xyz
x,y,z
-x,-y,z
x,-y,-z
-x,y,-z
-x,-y,-z
x,y,-z
-x,y,z
x,-y,z
loop_
_atom_site_type_symbol
_atom_site_label
_atom_site_fract_x
_atom_site_fract_y
_atom_site_fract_z
Si Si1 0.216104 0.605122 0.325150
Si Si2 0.386977 0.896230 0.671717
Si Si3 0.255088 0.894254 0.670200
Si Si4 0.436899 0.271380 0.824878
Si Si5 0.834770 0.229036 0.824504
Si Si6 0.666405 0.606055 0.828316
Si Si7 0.063739 0.102570 0.176242
O O1 0.215534 0.619042 0.500000
O O2 0.202152 0.500000 0.280751
O O3 0.168558 0.670749 0.251324
O O4 0.278209 0.634757 0.265345
O O5 0.398874 0.877536 0.500000
O O6 0.320956 0.877354 0.709055
O O7 0.426970 0.830993 0.767283
O O8 0.403207 0.000000 0.713820
O O9 0.242193 0.866621 0.500000
O O10 0.219801 0.831382 0.781614
O O11 0.238585 0.000000 0.696975
O O12 0.500000 0.304696 0.773141
O O13 0.388158 0.339556 0.763147
O O14 0.433584 0.269893 0.000000
O O15 0.891302 0.177236 0.762831
O O16 0.836673 0.242247 0.000000
O O17 0.651791 0.500000 0.806571
O O18 0.678739 0.629544 0.000000
O O19 0.000000 0.130125 0.230139
O O20 0.079032 0.000000 0.235164
O O21 0.066240 0.101191 0.000000
#
# Coordination Sequence:
#
# PCOD8199073 Si02
#       7
#     8   8   8   8   8   8   8
#     4  10  21  36  53  73  99 131 164 200 247 301
#     4   9  19  35  51  66  88 123 164 200 237 284
#     4   9  18  32  49  71 101 133 162 197 245 298
#     4  10  21  34  48  70  97 123 154 193 239 290
#     4  11  20  29  49  79 105 130 165 208 249 290
#     4   9  18  34  55  76  98 124 155 194 241 293
#     4   8  15  29  48  72 105 141 172 202 238 281
#
# _framework density 18.231918
#
# number of rings (size 3 to 8) (size 9 to 14) (size 15 to 20)
#    0.000    2.571    0.000    3.429    0.000    6.286 
#    0.000    4.286    0.000    2.143    0.000   11.000 
#    0.000    0.000    0.000    0.000    0.000    0.000 
#
# Total GULP energy -694357.693691 kJ/mol
# GULP energy per Si atom -12399.244530 kJ/mol
# Density = 1.819042 g / cm^3
# Si number density = 18.231918 Si / 1000 Ang^3
#
#
#
# Elastic Constant Matrix: (Units=GPa)
#
#
# Indices 1 2 3 4 5 6 
#
# 1 101.7668 69.7960 29.5688 0.0000 0.0000 0.0000
# 2 69.7960 109.2590 30.3236 0.0000 0.0000 0.0000
# 3 29.5688 30.3236 34.2839 0.0000 0.0000 0.0000
# 4 0.0000 0.0000 0.0000 29.5519 0.0000 0.0000
# 5 0.0000 0.0000 0.0000 0.0000 8.4621 0.0000
# 6 0.0000 0.0000 0.0000 0.0000 0.0000 27.8207
#
#
#
# Elastic Compliance Matrix: (Units=1/GPa)
#
#
# Indices 1 2 3 4 5 6 
#
# 1 0.018811 -0.009959 -0.007416 0.000000 0.000000 0.000000
# 2 -0.009959 0.017402 -0.006803 0.000000 0.000000 0.000000
# 3 -0.007416 -0.006803 0.041581 0.000000 0.000000 0.000000
# 4 0.000000 0.000000 0.000000 0.033839 0.000000 0.000000
# 5 0.000000 0.000000 0.000000 0.000000 0.118174 0.000000
# 6 0.000000 0.000000 0.000000 0.000000 0.000000 0.035944
#
#
# Mechanical properties :
#
#
# Convention : Reuss Voigt Hill
#
# Bulk Modulus (GPa) = 33.96760 56.07628 45.02194
# Shear Modulus (GPa) = 15.43588 20.87503 18.15545
#
# Velocity S-wave (km/s) = 2.91287 3.38741 3.15906
# Velocity P-wave (km/s) = 5.47580 6.79142 6.16878
#
# Compressibility (1/GPa) = 0.02943982
#
# Stress axis : x y z
#
# Youngs Moduli (GPa) = 53.16001 57.46336 24.04921
#
# Poissons Ratio (x) = 0.57226 0.17834
# Poissons Ratio (y) = 0.52940 0.16361
# Poissons Ratio (z) = 0.39422 0.39093
#
# Static dielectric constant tensor:
#      x y z
#    x 3.487250 0.000000 0.000000 
#    y 0.000000 3.506940 0.000000 
#    z 0.000000 0.000000 3.132450 
# 
# 
# High freq. dielectric constant tensor:
#      x y z
#    x 1.694890 0.000000 0.000000 
#    y 0.000000 1.710920 0.000000 
#    z 0.000000 0.000000 1.688630 
# 
# From -- ./inp_files/11249.got.cif
#   From: 2010.03.12/outbox.cif.g09.slc.cpg/sg47_6_cif.got.tgz:11249.got - 2010.04.14 03:12:58.
