data_PCOD8199970
_publ_section_title
;
Structure prediction by ZEFSAII (Michael W. Deem and Ramdas Pophale) SiO2 
 PCOD8199970
Probable space group: P M M M
;
_chemical_formula_sum "Si O2"
_cell_formula_units_Z 56
_cell_length_a 13.839902
_cell_length_b 8.290298
_cell_length_c 24.077214
_cell_angle_alpha 90.000000
_cell_angle_beta 90.000000
_cell_angle_gamma 90.000000
_cell_volume 2762.545181
_symmetry_space_group_name_H-M "P M M M"
_symmetry_group_IT_number 47
_symmetry_cell_setting 'orthorhombic'
loop_
_space_group_symop_operation_xyz
x,y,z
-x,-y,z
x,-y,-z
-x,y,-z
-x,-y,-z
x,y,-z
-x,y,z
x,-y,z
loop_
_atom_site_type_symbol
_atom_site_label
_atom_site_fract_x
_atom_site_fract_y
_atom_site_fract_z
Si Si1 0.893792 0.688048 0.059685
Si Si2 0.893607 0.000000 0.435021
Si Si3 0.110648 0.315026 0.731073
Si Si4 0.385233 0.817605 0.000000
Si Si5 0.212921 0.816964 0.837015
Si Si6 0.389529 0.188283 0.435738
Si Si7 0.205575 0.685361 0.613899
Si Si8 0.391694 0.311258 0.883083
O O1 0.905595 0.500000 0.053800
O O2 0.827460 0.716724 0.112084
O O3 0.000000 0.764986 0.070260
O O4 0.852505 0.755228 0.000000
O O5 0.843022 0.830462 0.420202
O O6 0.901221 0.000000 0.500000
O O7 0.000000 0.000000 0.407524
O O8 0.111435 0.500000 0.749478
O O9 0.158095 0.213312 0.779815
O O10 0.176816 0.286274 0.677457
O O11 0.000000 0.258377 0.719902
O O12 0.348210 0.728950 0.055759
O O13 0.500000 0.809068 0.000000
O O14 0.346818 0.000000 0.000000
O O15 0.326368 0.769474 0.834683
O O16 0.199813 0.000000 0.852783
O O17 0.369902 0.232744 0.500000
O O18 0.500000 0.228628 0.419969
O O19 0.320629 0.295063 0.396037
O O20 0.367573 0.000000 0.426075
O O21 0.174945 0.500000 0.596481
O O22 0.500000 0.240960 0.876692
O O23 0.391509 0.500000 0.873974
#
# Coordination Sequence:
#
# PCOD8199970 Si02
#       8
#     8   4   8   4   8   8   8   8
#     4   9  19  37  59  81 110 150 191 236 297 366
#     4  11  24  40  61  93 133 173 211 263 325 380
#     4  10  23  44  66  87 116 159 212 264 308 361
#     4   9  17  31  53  81 112 143 180 233 293 355
#     4  12  25  37  57  88 118 150 194 250 312 366
#     4   9  18  35  61  94 134 177 218 262 315 377
#     4  11  23  40  65  95 128 171 222 268 320 381
#     4  10  21  38  59  81 110 152 197 239 292 363
#
# _framework density 20.271160999999999
#
# number of rings (size 3 to 8) (size 9 to 14) (size 15 to 20)
#    0.000    1.857    0.714    4.071    2.000    6.571 
#    0.000    2.857    0.000    0.857    0.000    0.000 
#    0.000    0.000    0.000    0.000    0.000    0.000 
#
# Total GULP energy -694070.079718 kJ/mol
# GULP energy per Si atom -12394.108566 kJ/mol
# Density = 2.022502 g / cm^3
# Si number density = 20.271161 Si / 1000 Ang^3
#
#
#
# Elastic Constant Matrix: (Units=GPa)
#
#
# Indices 1 2 3 4 5 6 
#
# 1 113.9822 34.8427 61.5434 0.0000 0.0000 0.0000
# 2 34.8427 83.6041 30.6117 0.0000 0.0000 0.0000
# 3 61.5434 30.6117 92.6038 0.0000 0.0000 0.0000
# 4 0.0000 0.0000 0.0000 -5.1478 0.0000 0.0000
# 5 0.0000 0.0000 0.0000 0.0000 33.0140 0.0000
# 6 0.0000 0.0000 0.0000 0.0000 0.0000 17.3962
#
#
#
# Elastic Compliance Matrix: (Units=1/GPa)
#
#
# Indices 1 2 3 4 5 6 
#
# 1 0.014241 -0.002810 -0.008535 0.000000 0.000000 0.000000
# 2 -0.002810 0.014163 -0.002814 0.000000 0.000000 0.000000
# 3 -0.008535 -0.002814 0.017402 0.000000 0.000000 0.000000
# 4 0.000000 0.000000 0.000000 -0.194257 0.000000 0.000000
# 5 0.000000 0.000000 0.000000 0.000000 0.030290 0.000000
# 6 0.000000 0.000000 0.000000 0.000000 0.000000 0.057484
#
#
# Mechanical properties :
#
#
# Convention : Reuss Voigt Hill
#
# Bulk Modulus (GPa) = 57.18897 60.46507 58.82702
# Shear Modulus (GPa) = -188.46292 19.93195 -84.26548
#
# Velocity S-wave (km/s) = -9.65261 3.13911 -6.45441
# Velocity P-wave (km/s) = 9.79577 6.55984 5.14420
#
# Compressibility (1/GPa) = 0.01748589
#
# Stress axis : x y z
#
# Youngs Moduli (GPa) = 70.22060 70.60849 57.46593
#
# Poissons Ratio (x) = 0.19839 0.49050
# Poissons Ratio (y) = 0.19730 0.16173
# Poissons Ratio (z) = 0.59937 0.19872
#
# Static dielectric constant tensor:
#      x y z
#    x 4.063920 0.000000 0.000000 
#    y 0.000000 3.693580 0.000000 
#    z 0.000000 0.000000 3.488600 
# 
# 
# High freq. dielectric constant tensor:
#      x y z
#    x 1.804370 0.000000 0.000000 
#    y 0.000000 1.789770 0.000000 
#    z 0.000000 0.000000 1.770540 
# 
# From -- ./inp_files/30989.got.cif
#   From: 2010.03.12/outbox.cif.g09.slc.cpg/sg47_16_cif.got.tgz:30989.got - 2010.04.14 03:12:58.
