data_PCOD8199370
_publ_section_title
;
Structure prediction by ZEFSAII (Michael W. Deem and Ramdas Pophale) SiO2 
 PCOD8199370
Probable space group: P M M M
;
_chemical_formula_sum "Si O2"
_cell_formula_units_Z 48
_cell_length_a 7.992265
_cell_length_b 32.411013
_cell_length_c 9.036671
_cell_angle_alpha 90.000000
_cell_angle_beta 90.000000
_cell_angle_gamma 90.000000
_cell_volume 2340.835804
_symmetry_space_group_name_H-M "P M M M"
_symmetry_group_IT_number 47
_symmetry_cell_setting 'orthorhombic'
loop_
_space_group_symop_operation_xyz
x,y,z
-x,-y,z
x,-y,-z
-x,y,-z
-x,-y,-z
x,y,-z
-x,y,z
x,-y,z
loop_
_atom_site_type_symbol
_atom_site_label
_atom_site_fract_x
_atom_site_fract_y
_atom_site_fract_z
Si Si1 0.693905 0.906655 0.175378
Si Si2 0.304156 0.580505 0.337513
Si Si3 0.191815 0.256068 0.164460
Si Si4 0.305876 0.177872 0.667521
Si Si5 0.305871 0.342511 0.164031
Si Si6 0.000000 0.048745 0.670257
Si Si7 0.804268 0.500000 0.170248
O O1 0.500000 0.918157 0.218453
O O2 0.738464 0.860889 0.229875
O O3 0.828371 0.936723 0.251098
O O4 0.717564 0.908908 0.000000
O O5 0.222790 0.575021 0.500000
O O6 0.500000 0.587208 0.354468
O O7 0.222500 0.621303 0.262277
O O8 0.272734 0.540445 0.241186
O O9 0.211615 0.217641 0.272706
O O10 0.279343 0.296844 0.232953
O O11 0.000000 0.267146 0.151204
O O12 0.265513 0.245848 0.000000
O O13 0.247062 0.168401 0.500000
O O14 0.500000 0.188019 0.673577
O O15 0.500000 0.352118 0.151953
O O16 0.224047 0.343428 0.000000
O O17 0.000000 0.063956 0.500000
O O18 0.000000 0.000000 0.679978
O O19 0.000000 0.500000 0.195863
O O20 0.753113 0.500000 0.000000
#
# Coordination Sequence:
#
# PCOD8199370 Si02
#       7
#     8   8   8   8   8   4   4
#     4  10  22  41  66  94 125 165 213 264 316 372
#     4  10  21  37  58  83 109 138 175 221 273 330
#     4  10  21  35  53  80 114 151 190 234 284 340
#     4  10  21  37  58  84 115 153 197 246 299 354
#     4   9  18  34  55  77 105 145 189 230 273 326
#     4  11  25  43  65  95 131 171 211 257 317 380
#     4  11  24  39  56  80 108 139 176 219 268 324
#
# _framework density 20.505496000000001
#
# number of rings (size 3 to 8) (size 9 to 14) (size 15 to 20)
#    0.000    2.000    0.000    2.750    1.167    8.000 
#    0.000    5.000    0.000    0.000    0.000    0.000 
#    0.000    0.000    0.000    0.000    0.000    0.000 
#
# Total GULP energy -595104.106310 kJ/mol
# GULP energy per Si atom -12398.002215 kJ/mol
# Density = 2.045882 g / cm^3
# Si number density = 20.505496 Si / 1000 Ang^3
#
#
#
# Elastic Constant Matrix: (Units=GPa)
#
#
# Indices 1 2 3 4 5 6 
#
# 1 59.6271 39.3289 43.9657 0.0000 0.0000 0.0000
# 2 39.3289 124.6092 49.1804 0.0000 0.0000 0.0000
# 3 43.9657 49.1804 104.8796 0.0000 0.0000 0.0000
# 4 0.0000 0.0000 0.0000 27.5480 0.0000 0.0000
# 5 0.0000 0.0000 0.0000 0.0000 23.5327 0.0000
# 6 0.0000 0.0000 0.0000 0.0000 0.0000 169.6239
#
#
#
# Elastic Compliance Matrix: (Units=1/GPa)
#
#
# Indices 1 2 3 4 5 6 
#
# 1 0.026491 -0.004882 -0.008816 0.000000 0.000000 0.000000
# 2 -0.004882 0.010747 -0.002993 0.000000 0.000000 0.000000
# 3 -0.008816 -0.002993 0.014634 0.000000 0.000000 0.000000
# 4 0.000000 0.000000 0.000000 0.036300 0.000000 0.000000
# 5 0.000000 0.000000 0.000000 0.000000 0.042494 0.000000
# 6 0.000000 0.000000 0.000000 0.000000 0.000000 0.005895
#
#
# Mechanical properties :
#
#
# Convention : Reuss Voigt Hill
#
# Bulk Modulus (GPa) = 54.08139 61.56286 57.82213
# Shear Modulus (GPa) = 28.39178 54.58365 41.48772
#
# Velocity S-wave (km/s) = 3.72505 5.16496 4.50293
# Velocity P-wave (km/s) = 6.70318 8.10289 7.43605
#
# Compressibility (1/GPa) = 0.01849065
#
# Stress axis : x y z
#
# Youngs Moduli (GPa) = 37.74845 93.04792 68.33395
#
# Poissons Ratio (x) = 0.45422 0.60243
# Poissons Ratio (y) = 0.18427 0.20454
# Poissons Ratio (z) = 0.33279 0.27851
#
# Static dielectric constant tensor:
#      x y z
#    x 3.650500 0.000000 0.000000 
#    y 0.000000 3.645770 0.000000 
#    z 0.000000 0.000000 4.065660 
# 
# 
# High freq. dielectric constant tensor:
#      x y z
#    x 1.793290 0.000000 0.000000 
#    y 0.000000 1.807330 0.000000 
#    z 0.000000 0.000000 1.806400 
# 
# From -- ./inp_files/2706.got.cif
#   From: 2010.03.12/outbox.cif.g09.slc.cpg/sg47_2_cif.got.tgz:2706.got - 2010.04.14 03:12:58.
