data_PCOD8199792
_publ_section_title
;
Structure prediction by ZEFSAII (Michael W. Deem and Ramdas Pophale) SiO2 
 PCOD8199792
Probable space group: P M M M
;
_chemical_formula_sum "Si O2"
_cell_formula_units_Z 56
_cell_length_a 8.803128
_cell_length_b 20.984909
_cell_length_c 14.404332
_cell_angle_alpha 90.000000
_cell_angle_beta 90.000000
_cell_angle_gamma 90.000000
_cell_volume 2660.953159
_symmetry_space_group_name_H-M "P M M M"
_symmetry_group_IT_number 47
_symmetry_cell_setting 'orthorhombic'
loop_
_space_group_symop_operation_xyz
x,y,z
-x,-y,z
x,-y,-z
-x,y,-z
-x,-y,-z
x,y,-z
-x,y,z
x,-y,z
loop_
_atom_site_type_symbol
_atom_site_label
_atom_site_fract_x
_atom_site_fract_y
_atom_site_fract_z
Si Si1 0.824592 0.927632 0.391487
Si Si2 0.169543 0.500000 0.890222
Si Si3 0.329859 0.000000 0.890188
Si Si4 0.179319 0.870297 0.106336
Si Si5 0.679155 0.370044 0.106633
Si Si6 0.678696 0.184101 0.277701
Si Si7 0.180248 0.687849 0.724805
Si Si8 0.819825 0.570400 0.395717
O O1 0.795753 0.916994 0.500000
O O2 0.722282 0.878122 0.335851
O O3 0.000000 0.915264 0.366633
O O4 0.778791 0.000000 0.363865
O O5 0.259295 0.437913 0.856996
O O6 0.000000 0.500000 0.845785
O O7 0.157789 0.500000 0.000000
O O8 0.236682 0.061282 0.857056
O O9 0.500000 0.000000 0.847166
O O10 0.340769 0.000000 0.000000
O O11 0.259729 0.819058 0.171954
O O12 0.000000 0.867026 0.118452
O O13 0.228082 0.857422 0.000000
O O14 0.500000 0.368338 0.119378
O O15 0.758254 0.316512 0.169649
O O16 0.725966 0.357361 0.000000
O O17 0.500000 0.191755 0.276786
O O18 0.753705 0.247676 0.321540
O O19 0.245105 0.627077 0.668091
O O20 0.000000 0.691056 0.724388
O O21 0.756518 0.579565 0.500000
O O22 0.770763 0.500000 0.357943
O O23 0.000000 0.574963 0.397430
#
# Coordination Sequence:
#
# PCOD8199792 Si02
#       8
#     8   4   4   8   8   8   8   8
#     4   9  20  42  71  98 123 155 199 252 308 367
#     4   9  17  31  53  81 110 145 196 251 297 348
#     4   9  17  31  53  83 116 149 190 241 299 357
#     4  10  21  38  60  85 116 158 208 258 304 355
#     4  10  21  37  56  81 118 162 203 248 307 366
#     4  12  26  41  59  87 127 168 206 251 309 370
#     4  11  23  38  60  89 121 159 206 253 301 361
#     4   8  16  34  61  92 121 148 186 241 301 358
#
# _framework density 21.045089999999998
#
# number of rings (size 3 to 8) (size 9 to 14) (size 15 to 20)
#    0.000    2.143    0.000    3.857    2.000    5.143 
#    0.000    2.143    0.000    1.286    0.000    4.000 
#    0.000    0.000    0.000    0.000    0.000    0.000 
#
# Total GULP energy -694398.589612 kJ/mol
# GULP energy per Si atom -12399.974815 kJ/mol
# Density = 2.099719 g / cm^3
# Si number density = 21.045090 Si / 1000 Ang^3
#
#
#
# Elastic Constant Matrix: (Units=GPa)
#
#
# Indices 1 2 3 4 5 6 
#
# 1 106.0722 50.7911 35.3050 0.0000 0.0000 0.0000
# 2 50.7911 145.4712 58.4284 0.0000 0.0000 0.0000
# 3 35.3050 58.4284 72.1908 0.0000 0.0000 0.0000
# 4 0.0000 0.0000 0.0000 30.4749 0.0000 0.0000
# 5 0.0000 0.0000 0.0000 0.0000 20.0441 0.0000
# 6 0.0000 0.0000 0.0000 0.0000 0.0000 32.1701
#
#
#
# Elastic Compliance Matrix: (Units=1/GPa)
#
#
# Indices 1 2 3 4 5 6 
#
# 1 0.011936 -0.002701 -0.003651 0.000000 0.000000 0.000000
# 2 -0.002701 0.010796 -0.007417 0.000000 0.000000 0.000000
# 3 -0.003651 -0.007417 0.021641 0.000000 0.000000 0.000000
# 4 0.000000 0.000000 0.000000 0.032814 0.000000 0.000000
# 5 0.000000 0.000000 0.000000 0.000000 0.049890 0.000000
# 6 0.000000 0.000000 0.000000 0.000000 0.000000 0.031085
#
#
# Mechanical properties :
#
#
# Convention : Reuss Voigt Hill
#
# Bulk Modulus (GPa) = 59.40171 68.08703 63.74437
# Shear Modulus (GPa) = 26.13521 28.48516 27.31018
#
# Velocity S-wave (km/s) = 3.52784 3.68303 3.60627
# Velocity P-wave (km/s) = 6.69936 7.10700 6.90618
#
# Compressibility (1/GPa) = 0.01683453
#
# Stress axis : x y z
#
# Youngs Moduli (GPa) = 83.77910 92.62365 46.20832
#
# Poissons Ratio (x) = 0.25017 0.16872
# Poissons Ratio (y) = 0.22628 0.34274
# Poissons Ratio (z) = 0.30591 0.68701
#
# Static dielectric constant tensor:
#      x y z
#    x 3.581650 0.000000 0.000000 
#    y 0.000000 4.034750 0.000000 
#    z 0.000000 0.000000 3.820420 
# 
# 
# High freq. dielectric constant tensor:
#      x y z
#    x 1.809320 0.000000 0.000000 
#    y 0.000000 1.831120 0.000000 
#    z 0.000000 0.000000 1.818940 
# 
# From -- ./inp_files/21597.got.cif
#   From: 2010.03.12/outbox.cif.g09.slc.cpg/sg47_11_cif.got.tgz:21597.got - 2010.04.14 03:12:58.
