data_PCOD8199759
_publ_section_title
;
Structure prediction by ZEFSAII (Michael W. Deem and Ramdas Pophale) SiO2 
 PCOD8199759
Probable space group: P M M M
;
_chemical_formula_sum "Si O2"
_cell_formula_units_Z 40
_cell_length_a 9.405424
_cell_length_b 7.943397
_cell_length_c 27.013825
_cell_angle_alpha 90.000000
_cell_angle_beta 90.000000
_cell_angle_gamma 90.000000
_cell_volume 2018.230333
_symmetry_space_group_name_H-M "P M M M"
_symmetry_group_IT_number 47
_symmetry_cell_setting 'orthorhombic'
loop_
_space_group_symop_operation_xyz
x,y,z
-x,-y,z
x,-y,-z
-x,y,-z
-x,-y,-z
x,y,-z
-x,y,z
x,-y,z
loop_
_atom_site_type_symbol
_atom_site_label
_atom_site_fract_x
_atom_site_fract_y
_atom_site_fract_z
Si Si1 0.663806 0.500000 0.941490
Si Si2 0.338543 0.698842 0.304225
Si Si3 0.846066 0.692412 0.500000
Si Si4 0.836675 0.306963 0.788065
Si Si5 0.834461 0.808567 0.895426
Si Si6 0.658428 0.194397 0.589892
O O1 0.500000 0.500000 0.923079
O O2 0.739506 0.670898 0.923287
O O3 0.671851 0.500000 0.000000
O O4 0.500000 0.758550 0.297009
O O5 0.323216 0.500000 0.306510
O O6 0.251168 0.770409 0.257662
O O7 0.277294 0.773108 0.355491
O O8 0.881111 0.500000 0.500000
O O9 0.759867 0.728995 0.450705
O O10 0.000000 0.787988 0.500000
O O11 0.793103 0.500000 0.799080
O O12 0.803057 0.200219 0.836947
O O13 0.000000 0.293617 0.772794
O O14 0.000000 0.766726 0.905872
O O15 0.798256 0.000000 0.913079
O O16 0.500000 0.276263 0.586408
O O17 0.647014 0.000000 0.578613
#
# Coordination Sequence:
#
# PCOD8199759 Si02
#       6
#     4   8   4   8   8   8
#     4  11  25  43  63  89 125 165 203 252 311 364
#     4   9  18  32  51  77 109 147 188 227 270 328
#     4  11  24  39  56  78 102 131 174 227 280 336
#     4   9  17  32  54  81 115 153 191 236 288 340
#     4  10  21  39  64  92 122 160 208 255 301 361
#     4  10  21  37  56  78 106 141 180 222 272 332
#
# _framework density 19.819344999999998
#
# number of rings (size 3 to 8) (size 9 to 14) (size 15 to 20)
#    0.000    2.200    1.000    1.500    0.000    7.200 
#    0.000    4.000    0.000    0.000    0.000    0.000 
#    0.000    0.000    0.000    0.000    0.000    0.000 
#
# Total GULP energy -495912.337697 kJ/mol
# GULP energy per Si atom -12397.808442 kJ/mol
# Density = 1.977424 g / cm^3
# Si number density = 19.819345 Si / 1000 Ang^3
#
#
#
# Elastic Constant Matrix: (Units=GPa)
#
#
# Indices 1 2 3 4 5 6 
#
# 1 109.2834 50.6464 71.3558 0.0000 0.0000 0.0000
# 2 50.6464 89.1354 43.3593 0.0000 0.0000 0.0000
# 3 71.3558 43.3593 111.2645 0.0000 0.0000 0.0000
# 4 0.0000 0.0000 0.0000 -2.2838 0.0000 0.0000
# 5 0.0000 0.0000 0.0000 0.0000 155.0863 0.0000
# 6 0.0000 0.0000 0.0000 0.0000 0.0000 16.1953
#
#
#
# Elastic Compliance Matrix: (Units=1/GPa)
#
#
# Indices 1 2 3 4 5 6 
#
# 1 0.017762 -0.005616 -0.009203 0.000000 0.000000 0.000000
# 2 -0.005616 0.015619 -0.002485 0.000000 0.000000 0.000000
# 3 -0.009203 -0.002485 0.015858 0.000000 0.000000 0.000000
# 4 0.000000 0.000000 0.000000 -0.437876 0.000000 0.000000
# 5 0.000000 0.000000 0.000000 0.000000 0.006448 0.000000
# 6 0.000000 0.000000 0.000000 0.000000 0.000000 0.061746
#
#
# Mechanical properties :
#
#
# Convention : Reuss Voigt Hill
#
# Bulk Modulus (GPa) = 68.34545 71.15626 69.75086
# Shear Modulus (GPa) = -17.79613 43.42102 12.81244
#
# Velocity S-wave (km/s) = -2.99978 4.68572 2.54532
# Velocity P-wave (km/s) = 4.74983 8.07806 6.62631
#
# Compressibility (1/GPa) = 0.01463155
#
# Stress axis : x y z
#
# Youngs Moduli (GPa) = 56.30070 64.02651 63.06068
#
# Poissons Ratio (x) = 0.35955 0.58032
# Poissons Ratio (y) = 0.31617 0.15671
# Poissons Ratio (z) = 0.51811 0.15911
#
# Static dielectric constant tensor:
#      x y z
#    x 3.894770 0.000000 0.000000 
#    y 0.000000 3.575670 0.000000 
#    z 0.000000 0.000000 3.637810 
# 
# 
# High freq. dielectric constant tensor:
#      x y z
#    x 1.765020 0.000000 0.000000 
#    y 0.000000 1.769340 0.000000 
#    z 0.000000 0.000000 1.777840 
# 
# From -- ./inp_files/33034.got.cif
#   From: 2010.03.12/outbox.cif.g09.slc.cpg/sg47_17_cif.got.tgz:33034.got - 2010.04.14 03:12:58.
