data_PCOD8199656
_publ_section_title
;
Structure prediction by ZEFSAII (Michael W. Deem and Ramdas Pophale) SiO2 
 PCOD8199656
Probable space group: P M M M
;
_chemical_formula_sum "Si O2"
_cell_formula_units_Z 64
_cell_length_a 25.575479
_cell_length_b 9.175053
_cell_length_c 14.403393
_cell_angle_alpha 90.000000
_cell_angle_beta 90.000000
_cell_angle_gamma 90.000000
_cell_volume 3379.847994
_symmetry_space_group_name_H-M "P M M M"
_symmetry_group_IT_number 47
_symmetry_cell_setting 'orthorhombic'
loop_
_space_group_symop_operation_xyz
x,y,z
-x,-y,z
x,-y,-z
-x,y,-z
-x,-y,-z
x,y,-z
-x,y,z
x,-y,z
loop_
_atom_site_type_symbol
_atom_site_label
_atom_site_fract_x
_atom_site_fract_y
_atom_site_fract_z
Si Si1 0.357812 0.166396 0.890152
Si Si2 0.144342 0.827352 0.776787
Si Si3 0.396341 0.170735 0.607121
Si Si4 0.820318 0.328187 0.605546
Si Si5 0.939630 0.666191 0.107367
Si Si6 0.703687 0.339835 0.609644
Si Si7 0.758451 0.173113 0.896629
Si Si8 0.558754 0.331877 0.230360
O O1 0.299399 0.220817 0.861361
O O2 0.400960 0.266365 0.842892
O O3 0.366648 0.000000 0.857668
O O4 0.364290 0.179444 0.000000
O O5 0.141329 0.758344 0.674037
O O6 0.093453 0.777879 0.832080
O O7 0.196438 0.767960 0.828701
O O8 0.144251 0.000000 0.768556
O O9 0.406419 0.212536 0.500000
O O10 0.339268 0.223399 0.643154
O O11 0.438886 0.251311 0.670043
O O12 0.400149 0.000000 0.623069
O O13 0.831852 0.278502 0.500000
O O14 0.829163 0.500000 0.615493
O O15 0.761414 0.285119 0.636577
O O16 0.923246 0.500000 0.129450
O O17 0.000000 0.690619 0.132526
O O18 0.929487 0.701793 0.000000
O O19 0.701748 0.355095 0.500000
O O20 0.691985 0.500000 0.653038
O O21 0.759946 0.000000 0.901960
O O22 0.768789 0.236534 0.000000
O O23 0.500000 0.312033 0.191464
O O24 0.572467 0.500000 0.245966
#
# Coordination Sequence:
#
# PCOD8199656 Si02
#       8
#     8   8   8   8   8   8   8   8
#     4   9  19  38  62  83 106 139 178 221 269 323
#     4  11  21  31  52  86 119 150 185 230 280 329
#     4  10  21  36  56  81 107 136 173 220 271 326
#     4   9  19  35  52  73 108 153 195 232 270 318
#     4   9  19  37  59  82 112 152 196 238 277 324
#     4   8  15  30  51  74 102 137 176 217 263 317
#     4   8  16  32  52  78 113 145 171 207 262 326
#     4  11  25  41  56  77 105 138 178 225 274 328
#
# _framework density 18.935763999999999
#
# number of rings (size 3 to 8) (size 9 to 14) (size 15 to 20)
#    0.000    2.625    0.000    3.375    1.750    4.250 
#    0.000    5.000    0.000    1.875    0.000    2.625 
#    0.000    0.000    0.000    0.000    0.000    0.000 
#
# Total GULP energy -793480.319547 kJ/mol
# GULP energy per Si atom -12398.129993 kJ/mol
# Density = 1.889267 g / cm^3
# Si number density = 18.935764 Si / 1000 Ang^3
#
#
#
# Elastic Constant Matrix: (Units=GPa)
#
#
# Indices 1 2 3 4 5 6 
#
# 1 95.5627 44.7259 52.3802 0.0000 0.0000 0.0000
# 2 44.7259 78.0401 39.4388 0.0000 0.0000 0.0000
# 3 52.3802 39.4388 80.4374 0.0000 0.0000 0.0000
# 4 0.0000 0.0000 0.0000 27.1228 0.0000 0.0000
# 5 0.0000 0.0000 0.0000 0.0000 28.8373 0.0000
# 6 0.0000 0.0000 0.0000 0.0000 0.0000 30.0488
#
#
#
# Elastic Compliance Matrix: (Units=1/GPa)
#
#
# Indices 1 2 3 4 5 6 
#
# 1 0.018091 -0.005869 -0.008903 0.000000 0.000000 0.000000
# 2 -0.005869 0.018939 -0.005464 0.000000 0.000000 0.000000
# 3 -0.008903 -0.005464 0.020909 0.000000 0.000000 0.000000
# 4 0.000000 0.000000 0.000000 0.036869 0.000000 0.000000
# 5 0.000000 0.000000 0.000000 0.000000 0.034677 0.000000
# 6 0.000000 0.000000 0.000000 0.000000 0.000000 0.033279
#
#
# Mechanical properties :
#
#
# Convention : Reuss Voigt Hill
#
# Bulk Modulus (GPa) = 57.25273 58.57002 57.91138
# Shear Modulus (GPa) = 23.91664 25.03480 24.47572
#
# Velocity S-wave (km/s) = 3.55778 3.64000 3.59913
# Velocity P-wave (km/s) = 6.86862 6.97597 6.92251
#
# Compressibility (1/GPa) = 0.01746641
#
# Stress axis : x y z
#
# Youngs Moduli (GPa) = 55.27519 52.80168 47.82666
#
# Poissons Ratio (x) = 0.30989 0.42582
# Poissons Ratio (y) = 0.32441 0.26132
# Poissons Ratio (z) = 0.49213 0.28851
#
# Static dielectric constant tensor:
#      x y z
#    x 3.442270 0.000000 0.000000 
#    y 0.000000 3.315880 0.000000 
#    z 0.000000 0.000000 3.420430 
# 
# 
# High freq. dielectric constant tensor:
#      x y z
#    x 1.723200 0.000000 0.000000 
#    y 0.000000 1.724500 0.000000 
#    z 0.000000 0.000000 1.733750 
# 
# From -- ./inp_files/7917.got.cif
#   From: 2010.03.12/outbox.cif.g09.slc.cpg/sg47_4_cif.got.tgz:7917.got - 2010.04.14 03:12:58.
