data_PCOD8199702
_publ_section_title
;
Structure prediction by ZEFSAII (Michael W. Deem and Ramdas Pophale) SiO2 
 PCOD8199702
Probable space group: P M M M
;
_chemical_formula_sum "Si O2"
_cell_formula_units_Z 48
_cell_length_a 15.342984
_cell_length_b 9.203649
_cell_length_c 18.947422
_cell_angle_alpha 90.000000
_cell_angle_beta 90.000000
_cell_angle_gamma 90.000000
_cell_volume 2675.592733
_symmetry_space_group_name_H-M "P M M M"
_symmetry_group_IT_number 47
_symmetry_cell_setting 'orthorhombic'
loop_
_space_group_symop_operation_xyz
x,y,z
-x,-y,z
x,-y,-z
-x,y,-z
-x,-y,-z
x,y,-z
-x,y,z
x,-y,z
loop_
_atom_site_type_symbol
_atom_site_label
_atom_site_fract_x
_atom_site_fract_y
_atom_site_fract_z
Si Si1 0.500000 0.672273 0.421897
Si Si2 0.336762 0.673007 0.667111
Si Si3 0.737411 0.168905 0.920213
Si Si4 0.095534 0.664594 0.916162
Si Si5 0.600857 0.830540 0.196727
Si Si6 0.000000 0.168566 0.581521
Si Si7 0.811592 0.828029 0.582950
O O1 0.500000 0.500000 0.426110
O O2 0.500000 0.740864 0.500000
O O3 0.584153 0.728785 0.381086
O O4 0.331137 0.500000 0.671516
O O5 0.350940 0.736218 0.744500
O O6 0.250928 0.735697 0.631906
O O7 0.823531 0.242947 0.885932
O O8 0.650707 0.205240 0.875995
O O9 0.758063 0.000000 0.919298
O O10 0.719976 0.224265 0.000000
O O11 0.108460 0.500000 0.890476
O O12 0.000000 0.721459 0.889573
O O13 0.096983 0.674303 0.000000
O O14 0.500000 0.783698 0.188273
O O15 0.608312 0.000000 0.216391
O O16 0.907423 0.227451 0.610278
O O17 0.000000 0.203024 0.500000
O O18 0.000000 0.000000 0.596057
O O19 0.797204 0.792422 0.500000
O O20 0.798922 0.000000 0.595426
#
# Coordination Sequence:
#
# PCOD8199702 Si02
#       7
#     4   8   8   8   8   4   8
#     4   9  18  32  49  71 100 131 164 204 251 299
#     4  11  21  34  52  74 103 139 174 211 257 308
#     4   9  18  32  52  79 105 130 166 212 258 303
#     4   8  14  26  46  73 104 135 163 195 243 299
#     4  10  21  37  55  73  99 135 172 212 258 311
#     4   7  12  26  49  75 103 135 168 203 248 299
#     4   9  17  31  53  80 107 136 172 212 253 301
#
# _framework density 17.939951000000001
#
# number of rings (size 3 to 8) (size 9 to 14) (size 15 to 20)
#    0.000    2.833    0.833    2.500    0.000    2.333 
#    0.000    3.750    1.833    3.500    0.000    3.500 
#    0.000    0.000    0.000    0.000    0.000    0.000 
#
# Total GULP energy -594785.106811 kJ/mol
# GULP energy per Si atom -12391.356392 kJ/mol
# Density = 1.789912 g / cm^3
# Si number density = 17.939951 Si / 1000 Ang^3
#
#
#
# Elastic Constant Matrix: (Units=GPa)
#
#
# Indices 1 2 3 4 5 6 
#
# 1 177.4814 55.7899 64.3531 0.0000 0.0000 0.0000
# 2 55.7899 54.4699 37.8612 0.0000 0.0000 0.0000
# 3 64.3531 37.8612 82.1009 0.0000 0.0000 0.0000
# 4 0.0000 0.0000 0.0000 17.5143 0.0000 0.0000
# 5 0.0000 0.0000 0.0000 0.0000 163.6703 0.0000
# 6 0.0000 0.0000 0.0000 0.0000 0.0000 24.6473
#
#
#
# Elastic Compliance Matrix: (Units=1/GPa)
#
#
# Indices 1 2 3 4 5 6 
#
# 1 0.009207 -0.006496 -0.004221 0.000000 0.000000 0.000000
# 2 -0.006496 0.031603 -0.009482 0.000000 0.000000 0.000000
# 3 -0.004221 -0.009482 0.019861 0.000000 0.000000 0.000000
# 4 0.000000 0.000000 0.000000 0.057096 0.000000 0.000000
# 5 0.000000 0.000000 0.000000 0.000000 0.006110 0.000000
# 6 0.000000 0.000000 0.000000 0.000000 0.000000 0.040572
#
#
# Mechanical properties :
#
#
# Convention : Reuss Voigt Hill
#
# Bulk Modulus (GPa) = 49.32638 70.00671 59.66655
# Shear Modulus (GPa) = 23.62886 51.56960 37.59923
#
# Velocity S-wave (km/s) = 3.63314 5.36732 4.58300
# Velocity P-wave (km/s) = 6.71971 8.80445 7.83176
#
# Compressibility (1/GPa) = 0.02027313
#
# Stress axis : x y z
#
# Youngs Moduli (GPa) = 108.61493 31.64241 50.34911
#
# Poissons Ratio (x) = 0.20555 0.21252
# Poissons Ratio (y) = 0.70557 0.47742
# Poissons Ratio (z) = 0.45845 0.30004
#
# Static dielectric constant tensor:
#      x y z
#    x 3.798310 0.000000 0.000000 
#    y 0.000000 3.127470 0.000000 
#    z 0.000000 0.000000 3.137760 
# 
# 
# High freq. dielectric constant tensor:
#      x y z
#    x 1.715290 0.000000 0.000000 
#    y 0.000000 1.673700 0.000000 
#    z 0.000000 0.000000 1.664940 
# 
# From -- ./inp_files/28043.got.cif
#   From: 2010.03.12/outbox.cif.g09.slc.cpg/sg47_15_cif.got.tgz:28043.got - 2010.04.14 03:12:58.
