data_PCOD8199658
_publ_section_title
;
Structure prediction by ZEFSAII (Michael W. Deem and Ramdas Pophale) SiO2 
 PCOD8199658
Probable space group: P M M M
;
_chemical_formula_sum "Si O2"
_cell_formula_units_Z 48
_cell_length_a 29.130494
_cell_length_b 8.629500
_cell_length_c 9.577400
_cell_angle_alpha 90.000000
_cell_angle_beta 90.000000
_cell_angle_gamma 90.000000
_cell_volume 2407.582116
_symmetry_space_group_name_H-M "P M M M"
_symmetry_group_IT_number 47
_symmetry_cell_setting 'orthorhombic'
loop_
_space_group_symop_operation_xyz
x,y,z
-x,-y,z
x,-y,-z
-x,y,-z
-x,-y,-z
x,y,-z
-x,y,z
x,-y,z
loop_
_atom_site_type_symbol
_atom_site_label
_atom_site_fract_x
_atom_site_fract_y
_atom_site_fract_z
Si Si1 0.366478 0.684137 0.841945
Si Si2 0.448844 0.315625 0.343452
Si Si3 0.948609 0.180131 0.500000
Si Si4 0.053213 0.827886 0.000000
Si Si5 0.802379 0.180565 0.839748
Si Si6 0.897999 0.320128 0.246448
Si Si7 0.721041 0.682542 0.663358
O O1 0.368425 0.500000 0.848143
O O2 0.412553 0.750963 0.768688
O O3 0.324110 0.737903 0.746286
O O4 0.362262 0.750994 0.000000
O O5 0.436695 0.256660 0.500000
O O6 0.500000 0.259338 0.301210
O O7 0.446776 0.500000 0.343152
O O8 0.916227 0.223468 0.374024
O O9 0.000000 0.258953 0.500000
O O10 0.957323 0.000000 0.500000
O O11 0.066505 0.722231 0.872061
O O12 0.000000 0.857578 0.000000
O O13 0.077297 0.000000 0.000000
O O14 0.846897 0.276130 0.797513
O O15 0.762786 0.227137 0.732905
O O16 0.813024 0.000000 0.823574
O O17 0.788617 0.221092 0.000000
O O18 0.899602 0.500000 0.282894
O O19 0.716518 0.727231 0.500000
O O20 0.729133 0.500000 0.680699
#
# Coordination Sequence:
#
# PCOD8199658 Si02
#       7
#     8   8   4   4   8   8   8
#     4   9  16  26  42  66  98 138 182 232 288 344
#     4   8  13  21  34  55  89 135 184 231 282 343
#     4  11  25  45  67  91 125 167 203 241 294 351
#     4  11  23  41  65  93 127 165 203 241 290 351
#     4  11  24  42  63  85 114 150 189 234 291 355
#     4  12  25  41  65  94 124 158 200 249 295 346
#     4  10  21  36  56  81 110 144 186 235 288 348
#
# _framework density 19.937016
#
# number of rings (size 3 to 8) (size 9 to 14) (size 15 to 20)
#    0.000    1.833    0.833    4.500    1.167    7.667 
#    0.000    1.667    0.000    0.000    0.000    0.000 
#    0.000    0.667    0.000    7.000    0.000    9.667 
#
# Total GULP energy -595039.891048 kJ/mol
# GULP energy per Si atom -12396.664397 kJ/mol
# Density = 1.989164 g / cm^3
# Si number density = 19.937016 Si / 1000 Ang^3
#
#
#
# Elastic Constant Matrix: (Units=GPa)
#
#
# Indices 1 2 3 4 5 6 
#
# 1 118.2301 24.1316 64.4219 0.0000 0.0000 0.0000
# 2 24.1316 49.2525 19.7004 0.0000 0.0000 0.0000
# 3 64.4219 19.7004 161.7315 0.0000 0.0000 0.0000
# 4 0.0000 0.0000 0.0000 28.1099 0.0000 0.0000
# 5 0.0000 0.0000 0.0000 0.0000 41.8494 0.0000
# 6 0.0000 0.0000 0.0000 0.0000 0.0000 -8.9244
#
#
#
# Elastic Compliance Matrix: (Units=1/GPa)
#
#
# Indices 1 2 3 4 5 6 
#
# 1 0.011506 -0.003999 -0.004096 0.000000 0.000000 0.000000
# 2 -0.003999 0.022733 -0.001176 0.000000 0.000000 0.000000
# 3 -0.004096 -0.001176 0.007958 0.000000 0.000000 0.000000
# 4 0.000000 0.000000 0.000000 0.035575 0.000000 0.000000
# 5 0.000000 0.000000 0.000000 0.000000 0.023895 0.000000
# 6 0.000000 0.000000 0.000000 0.000000 0.000000 -0.112052
#
#
# Mechanical properties :
#
#
# Convention : Reuss Voigt Hill
#
# Bulk Modulus (GPa) = 42.27488 60.63577 51.45533
# Shear Modulus (GPa) = 311.65579 26.93765 169.29672
#
# Velocity S-wave (km/s) = 12.51637 3.67977 9.22497
# Velocity P-wave (km/s) = 15.17002 6.96663 11.80389
#
# Compressibility (1/GPa) = 0.02365471
#
# Stress axis : x y z
#
# Youngs Moduli (GPa) = 86.90929 43.98816 125.66058
#
# Poissons Ratio (x) = 0.17592 0.51472
# Poissons Ratio (y) = 0.34756 0.14780
# Poissons Ratio (z) = 0.35599 0.05174
#
# Static dielectric constant tensor:
#      x y z
#    x 3.667470 0.000000 0.000000 
#    y 0.000000 3.288760 0.000000 
#    z 0.000000 0.000000 4.155240 
# 
# 
# High freq. dielectric constant tensor:
#      x y z
#    x 1.791030 0.000000 0.000000 
#    y 0.000000 1.740700 0.000000 
#    z 0.000000 0.000000 1.792720 
# 
# From -- ./inp_files/13929.got.cif
#   From: 2010.03.12/outbox.cif.g09.slc.cpg/sg47_7_cif.got.tgz:13929.got - 2010.04.14 03:12:58.
