data_PCOD8199960
_publ_section_title
;
Structure prediction by ZEFSAII (Michael W. Deem and Ramdas Pophale) SiO2 
 PCOD8199960
Probable space group: P M M M
;
_chemical_formula_sum "Si O2"
_cell_formula_units_Z 30
_cell_length_a 7.776891
_cell_length_b 25.064727
_cell_length_c 7.482281
_cell_angle_alpha 90.000000
_cell_angle_beta 90.000000
_cell_angle_gamma 90.000000
_cell_volume 1458.488486
_symmetry_space_group_name_H-M "P M M M"
_symmetry_group_IT_number 47
_symmetry_cell_setting 'orthorhombic'
loop_
_space_group_symop_operation_xyz
x,y,z
-x,-y,z
x,-y,-z
-x,y,-z
-x,-y,-z
x,y,-z
-x,y,z
x,-y,z
loop_
_atom_site_type_symbol
_atom_site_label
_atom_site_fract_x
_atom_site_fract_y
_atom_site_fract_z
Si Si1 0.000000 0.633376 0.713461
Si Si2 0.690883 0.440586 0.711625
Si Si3 0.301963 0.886845 0.303087
Si Si4 0.803461 0.000000 0.709100
Si Si5 0.292848 0.192379 0.000000
Si Si6 0.000000 0.722384 0.000000
O O1 0.832594 0.600866 0.780179
O O2 0.000000 0.643734 0.500000
O O3 0.000000 0.688795 0.817416
O O4 0.698388 0.442771 0.500000
O O5 0.500000 0.422354 0.775051
O O6 0.730659 0.500000 0.786361
O O7 0.211205 0.883147 0.500000
O O8 0.500000 0.875986 0.328514
O O9 0.276867 0.945422 0.213582
O O10 0.231359 0.841345 0.172493
O O11 0.766024 0.000000 0.500000
O O12 0.000000 0.000000 0.762277
O O13 0.178932 0.245295 0.000000
O O14 0.500000 0.204241 0.000000
#
# Coordination Sequence:
#
# PCOD8199960 Si02
#       6
#     4   8   8   4   4   2
#     4  10  21  38  58  82 113 150 185 226 280 326
#     4   8  14  28  55  89 120 150 182 216 264 331
#     4   9  18  35  58  81 109 143 175 215 272 335
#     4   9  17  28  49  86 119 140 165 207 265 334
#     4  10  24  43  59  78 104 141 191 239 280 322
#     4  12  28  42  57  81 106 142 196 248 282 316
#
# _framework density 20.569240000000001
#
# number of rings (size 3 to 8) (size 9 to 14) (size 15 to 20)
#    0.000    2.800    0.000    1.600    1.867    5.867 
#    0.000    4.000    0.000    1.600    0.000    0.000 
#    0.000    0.000    0.000    0.000    0.000    0.000 
#
# Total GULP energy -371721.876698 kJ/mol
# GULP energy per Si atom -12390.729223 kJ/mol
# Density = 2.052242 g / cm^3
# Si number density = 20.569240 Si / 1000 Ang^3
#
#
#
# Elastic Constant Matrix: (Units=GPa)
#
#
# Indices 1 2 3 4 5 6 
#
# 1 101.3814 87.3470 12.0294 0.0000 0.0000 0.0000
# 2 87.3470 119.8641 118.5342 0.0000 0.0000 0.0000
# 3 12.0294 118.5342 -20.9829 0.0000 0.0000 0.0000
# 4 0.0000 0.0000 0.0000 -25.7344 0.0000 0.0000
# 5 0.0000 0.0000 0.0000 0.0000 9.7920 0.0000
# 6 0.0000 0.0000 0.0000 0.0000 0.0000 36.1496
#
#
#
# Elastic Compliance Matrix: (Units=1/GPa)
#
#
# Indices 1 2 3 4 5 6 
#
# 1 0.012865 -0.002531 -0.006921 0.000000 0.000000 0.000000
# 2 -0.002531 0.001765 0.008517 0.000000 0.000000 0.000000
# 3 -0.006921 0.008517 -0.003512 0.000000 0.000000 0.000000
# 4 0.000000 0.000000 0.000000 -0.038858 0.000000 0.000000
# 5 0.000000 0.000000 0.000000 0.000000 0.102125 0.000000
# 6 0.000000 0.000000 0.000000 0.000000 0.000000 0.027663
#
#
# Mechanical properties :
#
#
# Convention : Reuss Voigt Hill
#
# Bulk Modulus (GPa) = 108.13725 70.67599 89.40662
# Shear Modulus (GPa) = 46.72933 2.86491 24.79712
#
# Velocity S-wave (km/s) = 4.77152 1.18146 3.47586
# Velocity P-wave (km/s) = 9.11279 6.02460 7.72459
#
# Compressibility (1/GPa) = 0.00924751
#
# Stress axis : x y z
#
# Youngs Moduli (GPa) = 77.72750 566.72648 -284.70797
#
# Poissons Ratio (x) = 1.43429 -1.97053
# Poissons Ratio (y) = 0.19672 2.42486
# Poissons Ratio (z) = 0.53797 -4.82682
#
# Static dielectric constant tensor:
#      x y z
#    x 3.827190 0.000000 0.000000 
#    y 0.000000 3.670190 0.000000 
#    z 0.000000 0.000000 3.947450 
# 
# 
# High freq. dielectric constant tensor:
#      x y z
#    x 1.805090 0.000000 0.000000 
#    y 0.000000 1.786200 0.000000 
#    z 0.000000 0.000000 1.792630 
# 
# From -- ./inp_files/1035.got.cif
#   From: 2010.03.12/outbox.cif.g09.slc.cpg/sg47_1_cif.got.tgz:1035.got - 2010.04.14 03:12:58.
