data_PCOD8199379
_publ_section_title
;
Structure prediction by ZEFSAII (Michael W. Deem and Ramdas Pophale) SiO2 
 PCOD8199379
Probable space group: P M M M
;
_chemical_formula_sum "Si O2"
_cell_formula_units_Z 56
_cell_length_a 20.956213
_cell_length_b 9.238044
_cell_length_c 14.127585
_cell_angle_alpha 90.000000
_cell_angle_beta 90.000000
_cell_angle_gamma 90.000000
_cell_volume 2735.021593
_symmetry_space_group_name_H-M "P M M M"
_symmetry_group_IT_number 47
_symmetry_cell_setting 'orthorhombic'
loop_
_space_group_symop_operation_xyz
x,y,z
-x,-y,z
x,-y,-z
-x,y,-z
-x,-y,-z
x,y,-z
-x,y,z
x,-y,z
loop_
_atom_site_type_symbol
_atom_site_label
_atom_site_fract_x
_atom_site_fract_y
_atom_site_fract_z
Si Si1 0.571295 0.833244 0.796538
Si Si2 0.746483 0.658700 0.388574
Si Si3 0.929162 0.331232 0.198797
Si Si4 0.686950 0.666741 0.111865
Si Si5 0.627747 0.834248 0.605042
Si Si6 0.188621 0.834710 0.887741
Si Si7 0.885422 0.670889 0.396866
O O1 0.500000 0.791801 0.830507
O O2 0.621756 0.732916 0.848735
O O3 0.572347 0.810781 0.682188
O O4 0.586787 0.000000 0.821604
O O5 0.738321 0.645373 0.500000
O O6 0.740621 0.500000 0.341086
O O7 0.689535 0.756569 0.349383
O O8 0.815357 0.731002 0.367084
O O9 0.911458 0.500000 0.185678
O O10 0.877497 0.236095 0.145289
O O11 0.932402 0.290211 0.311041
O O12 0.000000 0.299168 0.157977
O O13 0.691519 0.500000 0.142290
O O14 0.749876 0.748251 0.153080
O O15 0.684907 0.685085 0.000000
O O16 0.607467 0.775484 0.500000
O O17 0.646921 0.000000 0.595146
O O18 0.191891 0.000000 0.851832
O O19 0.189196 0.827307 0.000000
O O20 0.908126 0.733880 0.500000
O O21 0.878188 0.500000 0.409052
#
# Coordination Sequence:
#
# PCOD8199379 Si02
#       7
#     8   8   8   8   8   8   8
#     4  10  22  38  56  83 119 157 194 231 277 333
#     4   8  14  26  45  69  97 133 180 232 282 326
#     4  10  21  35  54  85 121 155 193 237 284 332
#     4  10  22  41  65  90 114 142 181 233 290 345
#     4   9  18  32  50  75 109 148 191 235 275 320
#     4  10  22  41  64  87 112 145 186 233 287 348
#     4   8  15  29  49  75 109 149 191 232 276 329
#
# _framework density 20.475158
#
# number of rings (size 3 to 8) (size 9 to 14) (size 15 to 20)
#    0.000    2.714    0.000    1.714    2.000    4.000 
#    0.000    5.714    0.000    0.429    0.000    4.000 
#    0.000    0.000    0.000    0.000    0.000    0.000 
#
# Total GULP energy -693969.159313 kJ/mol
# GULP energy per Si atom -12392.306416 kJ/mol
# Density = 2.042856 g / cm^3
# Si number density = 20.475158 Si / 1000 Ang^3
#
#
#
# Elastic Constant Matrix: (Units=GPa)
#
#
# Indices 1 2 3 4 5 6 
#
# 1 138.7586 71.5124 31.0984 0.0000 0.0000 0.0000
# 2 71.5124 105.1511 29.3787 0.0000 0.0000 0.0000
# 3 31.0984 29.3787 20.5068 0.0000 0.0000 0.0000
# 4 0.0000 0.0000 0.0000 19.9753 0.0000 0.0000
# 5 0.0000 0.0000 0.0000 0.0000 26.6007 0.0000
# 6 0.0000 0.0000 0.0000 0.0000 0.0000 26.9272
#
#
#
# Elastic Compliance Matrix: (Units=1/GPa)
#
#
# Indices 1 2 3 4 5 6 
#
# 1 0.012489 -0.005339 -0.011290 0.000000 0.000000 0.000000
# 2 -0.005339 0.018140 -0.017891 0.000000 0.000000 0.000000
# 3 -0.011290 -0.017891 0.091517 0.000000 0.000000 0.000000
# 4 0.000000 0.000000 0.000000 0.050062 0.000000 0.000000
# 5 0.000000 0.000000 0.000000 0.000000 0.037593 0.000000
# 6 0.000000 0.000000 0.000000 0.000000 0.000000 0.037137
#
#
# Mechanical properties :
#
#
# Convention : Reuss Voigt Hill
#
# Bulk Modulus (GPa) = 18.83064 58.71061 38.77063
# Shear Modulus (GPa) = 14.98444 23.52909 19.25677
#
# Velocity S-wave (km/s) = 2.70818 3.39359 3.07007
# Velocity P-wave (km/s) = 4.35841 6.64015 5.61638
#
# Compressibility (1/GPa) = 0.05310494
#
# Stress axis : x y z
#
# Youngs Moduli (GPa) = 80.07245 55.12726 10.92696
#
# Poissons Ratio (x) = 0.29433 0.12337
# Poissons Ratio (y) = 0.42751 0.19549
# Poissons Ratio (z) = 0.90402 0.98628
#
# Static dielectric constant tensor:
#      x y z
#    x 3.728570 0.000000 0.000000 
#    y 0.000000 3.704680 0.000000 
#    z 0.000000 0.000000 3.761140 
# 
# 
# High freq. dielectric constant tensor:
#      x y z
#    x 1.797270 0.000000 0.000000 
#    y 0.000000 1.771690 0.000000 
#    z 0.000000 0.000000 1.803990 
# 
# From -- ./inp_files/7301.got.cif
#   From: 2010.03.12/outbox.cif.g09.slc.cpg/sg47_4_cif.got.tgz:7301.got - 2010.04.14 03:12:58.
