data_PCOD8199946
_publ_section_title
;
Structure prediction by ZEFSAII (Michael W. Deem and Ramdas Pophale) SiO2 
 PCOD8199946
Probable space group: P M M M
;
_chemical_formula_sum "Si O2"
_cell_formula_units_Z 52
_cell_length_a 9.220165
_cell_length_b 10.647764
_cell_length_c 29.320582
_cell_angle_alpha 90.000000
_cell_angle_beta 90.000000
_cell_angle_gamma 90.000000
_cell_volume 2878.522950
_symmetry_space_group_name_H-M "P M M M"
_symmetry_group_IT_number 47
_symmetry_cell_setting 'orthorhombic'
loop_
_space_group_symop_operation_xyz
x,y,z
-x,-y,z
x,-y,-z
-x,y,-z
-x,-y,-z
x,y,-z
-x,y,z
x,-y,z
loop_
_atom_site_type_symbol
_atom_site_label
_atom_site_fract_x
_atom_site_fract_y
_atom_site_fract_z
Si Si1 0.328319 0.301346 0.109871
Si Si2 0.840161 0.145744 0.050150
Si Si3 0.837370 0.500000 0.946371
Si Si4 0.162749 0.149332 0.550267
Si Si5 0.832603 0.356950 0.202110
Si Si6 0.338740 0.851308 0.635102
Si Si7 0.169541 0.855993 0.725459
O O1 0.500000 0.316776 0.110228
O O2 0.274937 0.166263 0.091845
O O3 0.252403 0.381411 0.070468
O O4 0.270156 0.339504 0.159014
O O5 0.000000 0.206672 0.060629
O O6 0.861997 0.000000 0.047466
O O7 0.786642 0.194300 0.000000
O O8 0.000000 0.500000 0.925564
O O9 0.843429 0.500000 0.000000
O O10 0.220031 0.190259 0.500000
O O11 0.264254 0.206807 0.589810
O O12 0.000000 0.200461 0.557638
O O13 0.161283 0.000000 0.553681
O O14 0.810562 0.500000 0.221269
O O15 0.785037 0.248054 0.237347
O O16 0.000000 0.336931 0.188219
O O17 0.500000 0.794771 0.639070
O O18 0.249639 0.813374 0.679700
O O19 0.344647 0.000000 0.630565
O O20 0.000000 0.850041 0.715221
O O21 0.212569 0.000000 0.740249
#
# Coordination Sequence:
#
# PCOD8199946 Si02
#       7
#     8   8   4   8   8   8   8
#     4  12  24  36  54  81 109 134 162 203 257 307
#     4   9  19  37  59  80 104 138 176 207 239 290
#     4  11  23  39  59  79 101 133 171 205 238 289
#     4   8  13  21  34  54  84 125 169 209 250 298
#     4  10  21  38  58  76 100 136 176 215 257 309
#     4   9  16  25  39  62  93 128 164 206 257 309
#     4   9  18  33  53  75  97 127 171 218 260 304
#
# _framework density 18.064820000000001
#
# number of rings (size 3 to 8) (size 9 to 14) (size 15 to 20)
#    0.000    2.385    0.769    3.462    0.000    6.462 
#    0.000    3.846    0.000    0.000    0.000    0.000 
#    0.000    0.615    0.000    7.077    0.000    9.077 
#
# Total GULP energy -644279.944650 kJ/mol
# GULP energy per Si atom -12389.998936 kJ/mol
# Density = 1.802370 g / cm^3
# Si number density = 18.064820 Si / 1000 Ang^3
#
#
#
# Elastic Constant Matrix: (Units=GPa)
#
#
# Indices 1 2 3 4 5 6 
#
# 1 111.3234 31.9685 68.0895 0.0000 0.0000 0.0000
# 2 31.9685 61.5639 47.3716 0.0000 0.0000 0.0000
# 3 68.0895 47.3716 123.8470 0.0000 0.0000 0.0000
# 4 0.0000 0.0000 0.0000 4.1181 0.0000 0.0000
# 5 0.0000 0.0000 0.0000 0.0000 13.4824 0.0000
# 6 0.0000 0.0000 0.0000 0.0000 0.0000 28.3178
#
#
#
# Elastic Compliance Matrix: (Units=1/GPa)
#
#
# Indices 1 2 3 4 5 6 
#
# 1 0.013683 -0.001866 -0.006809 0.000000 0.000000 0.000000
# 2 -0.001866 0.023272 -0.007876 0.000000 0.000000 0.000000
# 3 -0.006809 -0.007876 0.014831 0.000000 0.000000 0.000000
# 4 0.000000 0.000000 0.000000 0.242828 0.000000 0.000000
# 5 0.000000 0.000000 0.000000 0.000000 0.074171 0.000000
# 6 0.000000 0.000000 0.000000 0.000000 0.000000 0.035314
#
#
# Mechanical properties :
#
#
# Convention : Reuss Voigt Hill
#
# Bulk Modulus (GPa) = 53.52046 65.73260 59.62653
# Shear Modulus (GPa) = 11.27575 19.13732 15.20654
#
# Velocity S-wave (km/s) = 2.50108 3.25833 2.90449
# Velocity P-wave (km/s) = 6.16699 7.11489 6.65783
#
# Compressibility (1/GPa) = 0.01868444
#
# Stress axis : x y z
#
# Youngs Moduli (GPa) = 73.08078 42.96926 67.42787
#
# Poissons Ratio (x) = 0.08018 0.45914
# Poissons Ratio (y) = 0.13636 0.53105
# Poissons Ratio (z) = 0.49763 0.33842
#
# Static dielectric constant tensor:
#      x y z
#    x 3.450870 0.000000 0.000000 
#    y 0.000000 3.675600 0.000000 
#    z 0.000000 0.000000 3.420710 
# 
# 
# High freq. dielectric constant tensor:
#      x y z
#    x 1.697130 0.000000 0.000000 
#    y 0.000000 1.664120 0.000000 
#    z 0.000000 0.000000 1.699780 
# 
# From -- ./inp_files/13260.got.cif
#   From: 2010.03.12/outbox.cif.g09.slc.cpg/sg47_7_cif.got.tgz:13260.got - 2010.04.14 03:12:58.
