data_PCOD8199824
_publ_section_title
;
Structure prediction by ZEFSAII (Michael W. Deem and Ramdas Pophale) SiO2 
 PCOD8199824
Probable space group: P M M M
;
_chemical_formula_sum "Si O2"
_cell_formula_units_Z 40
_cell_length_a 25.891058
_cell_length_b 8.996551
_cell_length_c 9.144364
_cell_angle_alpha 90.000000
_cell_angle_beta 90.000000
_cell_angle_gamma 90.000000
_cell_volume 2129.998752
_symmetry_space_group_name_H-M "P M M M"
_symmetry_group_IT_number 47
_symmetry_cell_setting 'orthorhombic'
loop_
_space_group_symop_operation_xyz
x,y,z
-x,-y,z
x,-y,-z
-x,y,-z
-x,-y,-z
x,y,-z
-x,y,z
x,-y,z
loop_
_atom_site_type_symbol
_atom_site_label
_atom_site_fract_x
_atom_site_fract_y
_atom_site_fract_z
Si Si1 0.799726 0.177015 0.165008
Si Si2 0.301391 0.171740 0.330383
Si Si3 0.000000 0.822810 0.834551
Si Si4 0.100450 0.177318 0.665406
Si Si5 0.406630 0.326122 0.669280
Si Si6 0.500000 0.171027 0.172367
O O1 0.747087 0.233688 0.239409
O O2 0.848576 0.239839 0.254511
O O3 0.801009 0.000000 0.167343
O O4 0.802399 0.238064 0.000000
O O5 0.288095 0.193915 0.500000
O O6 0.350884 0.266202 0.282349
O O7 0.312849 0.000000 0.294445
O O8 0.949532 0.762133 0.751189
O O9 0.000000 0.000000 0.835372
O O10 0.000000 0.761465 0.000000
O O11 0.099248 0.238255 0.500000
O O12 0.100682 0.000000 0.665454
O O13 0.417286 0.288936 0.500000
O O14 0.408941 0.500000 0.700084
O O15 0.449246 0.247040 0.765521
O O16 0.500000 0.000000 0.219997
O O17 0.500000 0.190974 0.000000
#
# Coordination Sequence:
#
# PCOD8199824 Si02
#       6
#     8   8   4   8   8   4
#     4   9  16  25  38  57  81 110 147 192 238 283
#     4   9  17  30  48  69  93 123 159 198 240 287
#     4   9  15  21  29  43  67 101 142 187 234 285
#     4   9  15  22  32  47  70 103 144 188 234 285
#     4  10  21  37  57  80 105 134 168 205 247 296
#     4  11  24  39  56  80 108 137 170 207 246 290
#
# _framework density 18.779354999999999
#
# number of rings (size 3 to 8) (size 9 to 14) (size 15 to 20)
#    0.000    2.600    0.000    2.700    0.000   10.000 
#    0.000    2.000    0.000    0.000    0.000    0.000 
#    0.000    0.000    0.000    0.900    0.000   19.600 
#
# Total GULP energy -496047.406172 kJ/mol
# GULP energy per Si atom -12401.185154 kJ/mol
# Density = 1.873661 g / cm^3
# Si number density = 18.779355 Si / 1000 Ang^3
#
#
#
# Elastic Constant Matrix: (Units=GPa)
#
#
# Indices 1 2 3 4 5 6 
#
# 1 189.9247 46.1995 100.3865 0.0000 0.0000 0.0000
# 2 46.1995 44.0913 33.2874 0.0000 0.0000 0.0000
# 3 100.3865 33.2874 140.9846 0.0000 0.0000 0.0000
# 4 0.0000 0.0000 0.0000 12.2634 0.0000 0.0000
# 5 0.0000 0.0000 0.0000 0.0000 25.6591 0.0000
# 6 0.0000 0.0000 0.0000 0.0000 0.0000 -8.1035
#
#
#
# Elastic Compliance Matrix: (Units=1/GPa)
#
#
# Indices 1 2 3 4 5 6 
#
# 1 0.009572 -0.005943 -0.005412 0.000000 0.000000 0.000000
# 2 -0.005943 0.031290 -0.003156 0.000000 0.000000 0.000000
# 3 -0.005412 -0.003156 0.011692 0.000000 0.000000 0.000000
# 4 0.000000 0.000000 0.000000 0.081543 0.000000 0.000000
# 5 0.000000 0.000000 0.000000 0.000000 0.038973 0.000000
# 6 0.000000 0.000000 0.000000 0.000000 0.000000 -0.123403
#
#
# Mechanical properties :
#
#
# Convention : Reuss Voigt Hill
#
# Bulk Modulus (GPa) = 42.49733 81.63861 62.06797
# Shear Modulus (GPa) = 57.78194 18.97229 38.37711
#
# Velocity S-wave (km/s) = 5.55299 3.18193 4.52550
# Velocity P-wave (km/s) = 7.98706 7.55423 7.77366
#
# Compressibility (1/GPa) = 0.02353089
#
# Stress axis : x y z
#
# Youngs Moduli (GPa) = 104.47611 31.95877 85.53050
#
# Poissons Ratio (x) = 0.18994 0.46290
# Poissons Ratio (y) = 0.62093 0.26993
# Poissons Ratio (z) = 0.56543 0.10086
#
# Static dielectric constant tensor:
#      x y z
#    x 3.613650 0.000000 0.000000 
#    y 0.000000 2.899450 0.000000 
#    z 0.000000 0.000000 3.571390 
# 
# 
# High freq. dielectric constant tensor:
#      x y z
#    x 1.748770 0.000000 0.000000 
#    y 0.000000 1.667810 0.000000 
#    z 0.000000 0.000000 1.736850 
# 
# From -- ./inp_files/1884.got.cif
#   From: 2010.03.12/outbox.cif.g09.slc.cpg/sg47_1_cif.got.tgz:1884.got - 2010.04.14 03:12:58.
