data_PCOD8199808
_publ_section_title
;
Structure prediction by ZEFSAII (Michael W. Deem and Ramdas Pophale) SiO2 
 PCOD8199808
Probable space group: P M M M
;
_chemical_formula_sum "Si O2"
_cell_formula_units_Z 52
_cell_length_a 9.154183
_cell_length_b 15.797345
_cell_length_c 19.313456
_cell_angle_alpha 90.000000
_cell_angle_beta 90.000000
_cell_angle_gamma 90.000000
_cell_volume 2792.953386
_symmetry_space_group_name_H-M "P M M M"
_symmetry_group_IT_number 47
_symmetry_cell_setting 'orthorhombic'
loop_
_space_group_symop_operation_xyz
x,y,z
-x,-y,z
x,-y,-z
-x,y,-z
-x,-y,-z
x,y,-z
-x,y,z
x,-y,z
loop_
_atom_site_type_symbol
_atom_site_label
_atom_site_fract_x
_atom_site_fract_y
_atom_site_fract_z
Si Si1 0.831646 0.904725 0.780447
Si Si2 0.833231 0.832299 0.076267
Si Si3 0.827326 0.316628 0.419263
Si Si4 0.326285 0.756758 0.701884
Si Si5 0.170872 0.500000 0.579829
Si Si6 0.327924 0.659898 0.075752
Si Si7 0.673239 0.591898 0.781952
O O1 0.802206 0.899720 0.863137
O O2 0.728893 0.840916 0.739115
O O3 0.000000 0.882923 0.763769
O O4 0.793550 0.000000 0.756926
O O5 0.734272 0.751907 0.091254
O O6 0.000000 0.801322 0.078913
O O7 0.798266 0.871728 0.000000
O O8 0.790033 0.303902 0.500000
O O9 0.739962 0.246385 0.375632
O O10 0.769743 0.409835 0.391499
O O11 0.000000 0.306998 0.407178
O O12 0.500000 0.759686 0.698827
O O13 0.264533 0.672809 0.740860
O O14 0.210253 0.500000 0.500000
O O15 0.000000 0.500000 0.590895
O O16 0.500000 0.670447 0.076889
O O17 0.278086 0.597641 0.137275
O O18 0.275932 0.625792 0.000000
O O19 0.500000 0.593705 0.775753
O O20 0.731825 0.500000 0.754114
#
# Coordination Sequence:
#
# PCOD8199808 Si02
#       7
#     8   8   8   8   4   8   8
#     4  10  21  37  57  79 104 137 177 220 267 322
#     4   9  17  30  50  75 102 131 166 214 269 319
#     4   9  18  34  56  80 108 143 180 217 257 306
#     4  11  22  35  54  79 110 144 175 216 267 315
#     4   7  12  26  49  77 107 139 176 213 248 293
#     4   9  16  28  48  70  95 133 180 223 261 303
#     4   9  18  31  46  70 105 141 179 220 261 305
#
# _framework density 18.618283000000002
#
# number of rings (size 3 to 8) (size 9 to 14) (size 15 to 20)
#    0.000    2.692    1.538    1.385    1.077    1.231 
#    0.000    3.077    0.000    4.154    0.000    8.615 
#    0.000    0.000    0.000    0.000    0.000    0.000 
#
# Total GULP energy -644222.820324 kJ/mol
# GULP energy per Si atom -12388.900391 kJ/mol
# Density = 1.857591 g / cm^3
# Si number density = 18.618283 Si / 1000 Ang^3
#
#
#
# Elastic Constant Matrix: (Units=GPa)
#
#
# Indices 1 2 3 4 5 6 
#
# 1 35.9724 31.3021 39.4879 0.0000 0.0000 0.0000
# 2 31.3021 103.0743 56.9532 0.0000 0.0000 0.0000
# 3 39.4879 56.9532 91.8279 0.0000 0.0000 0.0000
# 4 0.0000 0.0000 0.0000 22.4861 0.0000 0.0000
# 5 0.0000 0.0000 0.0000 0.0000 21.2128 0.0000
# 6 0.0000 0.0000 0.0000 0.0000 0.0000 23.1657
#
#
#
# Elastic Compliance Matrix: (Units=1/GPa)
#
#
# Indices 1 2 3 4 5 6 
#
# 1 0.054624 -0.005491 -0.020084 0.000000 0.000000 0.000000
# 2 -0.005491 0.015312 -0.007135 0.000000 0.000000 0.000000
# 3 -0.020084 -0.007135 0.023952 0.000000 0.000000 0.000000
# 4 0.000000 0.000000 0.000000 0.044472 0.000000 0.000000
# 5 0.000000 0.000000 0.000000 0.000000 0.047141 0.000000
# 6 0.000000 0.000000 0.000000 0.000000 0.000000 0.043167
#
#
# Mechanical properties :
#
#
# Convention : Reuss Voigt Hill
#
# Bulk Modulus (GPa) = 35.12842 54.04013 44.58428
# Shear Modulus (GPa) = 16.47025 20.24833 18.35929
#
# Velocity S-wave (km/s) = 2.97750 3.30138 3.14361
# Velocity P-wave (km/s) = 5.54340 6.60458 6.09712
#
# Compressibility (1/GPa) = 0.02846698
#
# Stress axis : x y z
#
# Youngs Moduli (GPa) = 18.30707 65.30825 41.75058
#
# Poissons Ratio (x) = 0.35863 0.83850
# Poissons Ratio (y) = 0.10053 0.29791
# Poissons Ratio (z) = 0.36767 0.46600
#
# Static dielectric constant tensor:
#      x y z
#    x 3.124920 0.000000 0.000000 
#    y 0.000000 3.363190 0.000000 
#    z 0.000000 0.000000 3.554220 
# 
# 
# High freq. dielectric constant tensor:
#      x y z
#    x 1.695120 0.000000 0.000000 
#    y 0.000000 1.702980 0.000000 
#    z 0.000000 0.000000 1.726900 
# 
# From -- ./inp_files/21378.got.cif
#   From: 2010.03.12/outbox.cif.g09.slc.cpg/sg47_11_cif.got.tgz:21378.got - 2010.04.14 03:12:58.
