data_PCOD8199045
_publ_section_title
;
Structure prediction by ZEFSAII (Michael W. Deem and Ramdas Pophale) SiO2 
 PCOD8199045
Probable space group: P M M M
;
_chemical_formula_sum "Si O2"
_cell_formula_units_Z 56
_cell_length_a 13.719066
_cell_length_b 9.279672
_cell_length_c 29.200426
_cell_angle_alpha 90.000000
_cell_angle_beta 90.000000
_cell_angle_gamma 90.000000
_cell_volume 3717.460466
_symmetry_space_group_name_H-M "P M M M"
_symmetry_group_IT_number 47
_symmetry_cell_setting 'orthorhombic'
loop_
_space_group_symop_operation_xyz
x,y,z
-x,-y,z
x,-y,-z
-x,y,-z
-x,-y,-z
x,y,-z
-x,y,z
x,-y,z
loop_
_atom_site_type_symbol
_atom_site_label
_atom_site_fract_x
_atom_site_fract_y
_atom_site_fract_z
Si Si1 0.715740 0.833878 0.947896
Si Si2 0.113874 0.668186 0.724564
Si Si3 0.390005 0.667986 0.870845
Si Si4 0.884087 0.661857 0.550547
Si Si5 0.111091 0.669398 0.909196
Si Si6 0.883865 0.838211 0.364175
Si Si7 0.793727 0.331447 0.816318
O O1 0.635550 0.757616 0.916138
O O2 0.820784 0.757369 0.943719
O O3 0.725866 0.000000 0.933170
O O4 0.679558 0.819909 0.000000
O O5 0.134863 0.500000 0.716692
O O6 0.152928 0.750965 0.679988
O O7 0.172330 0.735766 0.768008
O O8 0.000000 0.696087 0.733297
O O9 0.500000 0.703013 0.855368
O O10 0.376168 0.500000 0.883022
O O11 0.317757 0.710901 0.829084
O O12 0.850618 0.715671 0.500000
O O13 0.845593 0.500000 0.559215
O O14 0.840731 0.765493 0.589745
O O15 0.000000 0.662016 0.553129
O O16 0.132225 0.500000 0.915314
O O17 0.135727 0.719266 0.857422
O O18 0.000000 0.707708 0.920607
O O19 0.000000 0.836448 0.365716
O O20 0.843153 0.000000 0.361451
O O21 0.806213 0.500000 0.809993
#
# Coordination Sequence:
#
# PCOD8199045 Si02
#       7
#     8   8   8   8   8   8   8
#     4  10  21  34  46  63  88 114 137 162 194 235
#     4   9  15  23  37  54  73 100 130 157 187 226
#     4   9  18  33  52  70  85 102 128 165 205 243
#     4   8  13  21  32  44  59  84 122 165 202 234
#     4   9  17  30  48  67  86 109 138 170 200 232
#     4   9  16  23  30  44  68  95 124 160 198 231
#     4   8  14  26  44  64  82 100 127 161 196 236
#
# _framework density 15.064047
#
# number of rings (size 3 to 8) (size 9 to 14) (size 15 to 20)
#    0.000    3.143    0.000    2.571    0.000    6.000 
#    0.000    7.143    0.000    3.429    0.000    0.000 
#    0.000    0.000    0.000    0.000    0.000    0.714 
#
# Total GULP energy -694098.844017 kJ/mol
# GULP energy per Si atom -12394.622215 kJ/mol
# Density = 1.502976 g / cm^3
# Si number density = 15.064047 Si / 1000 Ang^3
#
#
#
# Elastic Constant Matrix: (Units=GPa)
#
#
# Indices 1 2 3 4 5 6 
#
# 1 60.9523 24.7765 26.2719 0.0000 0.0000 0.0000
# 2 24.7765 69.0282 49.8372 0.0000 0.0000 0.0000
# 3 26.2719 49.8372 116.2773 0.0000 0.0000 0.0000
# 4 0.0000 0.0000 0.0000 9.9302 0.0000 0.0000
# 5 0.0000 0.0000 0.0000 0.0000 10.0919 0.0000
# 6 0.0000 0.0000 0.0000 0.0000 0.0000 8.2803
#
#
#
# Elastic Compliance Matrix: (Units=1/GPa)
#
#
# Indices 1 2 3 4 5 6 
#
# 1 0.019537 -0.005540 -0.002040 0.000000 0.000000 0.000000
# 2 -0.005540 0.022549 -0.008413 0.000000 0.000000 0.000000
# 3 -0.002040 -0.008413 0.012667 0.000000 0.000000 0.000000
# 4 0.000000 0.000000 0.000000 0.100703 0.000000 0.000000
# 5 0.000000 0.000000 0.000000 0.000000 0.099089 0.000000
# 6 0.000000 0.000000 0.000000 0.000000 0.000000 0.120769
#
#
# Mechanical properties :
#
#
# Convention : Reuss Voigt Hill
#
# Bulk Modulus (GPa) = 43.92131 49.78102 46.85117
# Shear Modulus (GPa) = 12.05139 15.35196 13.70167
#
# Velocity S-wave (km/s) = 2.83151 3.19582 3.01917
# Velocity P-wave (km/s) = 6.31741 6.83635 6.58199
#
# Compressibility (1/GPa) = 0.02276799
#
# Stress axis : x y z
#
# Youngs Moduli (GPa) = 51.18384 44.34708 78.94558
#
# Poissons Ratio (x) = 0.24568 0.16104
# Poissons Ratio (y) = 0.28355 0.66418
# Poissons Ratio (z) = 0.10441 0.37310
#
# Static dielectric constant tensor:
#      x y z
#    x 2.638830 0.000000 0.000000 
#    y 0.000000 2.878350 0.000000 
#    z 0.000000 0.000000 3.079620 
# 
# 
# High freq. dielectric constant tensor:
#      x y z
#    x 1.525720 0.000000 0.000000 
#    y 0.000000 1.568150 0.000000 
#    z 0.000000 0.000000 1.578650 
# 
# From -- ./inp_files/22102.got.cif
#   From: 2010.03.12/outbox.cif.g09.slc.cpg/sg47_12_cif.got.tgz:22102.got - 2010.04.14 03:12:58.
