data_PCOD8199720
_publ_section_title
;
Structure prediction by ZEFSAII (Michael W. Deem and Ramdas Pophale) SiO2 
 PCOD8199720
Probable space group: P M M M
;
_chemical_formula_sum "Si O2"
_cell_formula_units_Z 64
_cell_length_a 19.753973
_cell_length_b 19.753981
_cell_length_c 9.038500
_cell_angle_alpha 90.000000
_cell_angle_beta 90.000000
_cell_angle_gamma 90.000000
_cell_volume 3526.999921
_symmetry_space_group_name_H-M "P M M M"
_symmetry_group_IT_number 47
_symmetry_cell_setting 'orthorhombic'
loop_
_space_group_symop_operation_xyz
x,y,z
-x,-y,z
x,-y,-z
-x,y,-z
-x,-y,-z
x,y,-z
-x,y,z
x,-y,z
loop_
_atom_site_type_symbol
_atom_site_label
_atom_site_fract_x
_atom_site_fract_y
_atom_site_fract_z
Si Si1 0.424551 0.924551 0.674851
Si Si2 0.422057 0.421523 0.331059
Si Si3 0.822892 0.322892 0.674828
Si Si4 0.078477 0.077943 0.668941
Si Si5 0.324849 0.824849 0.168707
Si Si6 0.829485 0.183016 0.827665
Si Si7 0.316984 0.329485 0.172335
Si Si8 0.078378 0.578378 0.831225
O O1 0.423145 0.923145 0.500000
O O2 0.500000 0.905501 0.731331
O O3 0.370929 0.870929 0.730364
O O4 0.405501 0.000000 0.731331
O O5 0.406471 0.400691 0.500000
O O6 0.500000 0.406594 0.292973
O O7 0.405396 0.500000 0.306619
O O8 0.376636 0.378938 0.219975
O O9 0.817243 0.317244 0.500000
O O10 0.846635 0.250897 0.738757
O O11 0.750897 0.346636 0.738757
O O12 0.878297 0.378297 0.717080
O O13 0.099310 0.093528 0.500000
O O14 0.121062 0.123364 0.780024
O O15 0.000000 0.094605 0.693380
O O16 0.093406 0.000000 0.707029
O O17 0.246843 0.840785 0.205210
O O18 0.340785 0.746843 0.205212
O O19 0.341943 0.841942 0.000000
O O20 0.839296 0.199195 0.000000
O O21 0.300805 0.339295 0.000000
O O22 0.094141 0.500000 0.801481
O O23 0.000000 0.594141 0.801482
O O24 0.097319 0.597318 0.000000
#
# Coordination Sequence:
#
# PCOD8199720 Si02
#       8
#     8   8   8   8   8   8   8   8
#     4   9  19  35  53  75 103 134 170 210 251 301
#     4   9  19  36  56  79 108 140 176 219 264 312
#     4  11  22  36  56  80 107 140 178 220 265 314
#     4   9  19  36  56  79 108 140 176 219 264 312
#     4   9  20  36  52  74 103 134 170 212 257 304
#     4  10  21  37  55  77 107 140 176 219 264 314
#     4  10  21  37  55  77 107 140 176 219 264 314
#     4   9  19  37  59  81 107 140 176 214 259 313
#
# _framework density 18.145731999999999
#
# number of rings (size 3 to 8) (size 9 to 14) (size 15 to 20)
#    0.000    2.500    0.000    4.125    0.000    7.000 
#    0.000    7.500    0.000    0.000    0.000    0.000 
#    0.000    0.000    0.000    0.000    0.000    0.000 
#
# Total GULP energy -793716.321257 kJ/mol
# GULP energy per Si atom -12401.817520 kJ/mol
# Density = 1.810443 g / cm^3
# Si number density = 18.145732 Si / 1000 Ang^3
#
#
#
# Elastic Constant Matrix: (Units=GPa)
#
#
# Indices 1 2 3 4 5 6 
#
# 1 96.6530 72.9243 60.1769 0.0000 0.0000 0.0000
# 2 72.9243 96.6530 60.1768 0.0000 0.0000 0.0000
# 3 60.1769 60.1768 107.0124 0.0000 0.0000 0.0000
# 4 0.0000 0.0000 0.0000 35.8622 0.0000 0.0000
# 5 0.0000 0.0000 0.0000 0.0000 35.8621 0.0000
# 6 0.0000 0.0000 0.0000 0.0000 0.0000 38.1717
#
#
#
# Elastic Compliance Matrix: (Units=1/GPa)
#
#
# Indices 1 2 3 4 5 6 
#
# 1 0.025978 -0.016165 -0.005519 0.000000 0.000000 0.000000
# 2 -0.016165 0.025978 -0.005519 0.000000 0.000000 0.000000
# 3 -0.005519 -0.005519 0.015551 0.000000 0.000000 0.000000
# 4 0.000000 0.000000 0.000000 0.027885 0.000000 0.000000
# 5 0.000000 0.000000 0.000000 0.000000 0.027885 0.000000
# 6 0.000000 0.000000 0.000000 0.000000 0.000000 0.026197
#
#
# Mechanical properties :
#
#
# Convention : Reuss Voigt Hill
#
# Bulk Modulus (GPa) = 76.31050 76.31937 76.31493
# Shear Modulus (GPa) = 24.01002 29.11523 26.56262
#
# Velocity S-wave (km/s) = 3.64150 4.00999 3.83018
# Velocity P-wave (km/s) = 7.73474 7.97437 7.85547
#
# Compressibility (1/GPa) = 0.01310436
#
# Stress axis : x y z
#
# Youngs Moduli (GPa) = 38.49355 38.49361 64.30321
#
# Poissons Ratio (x) = 0.62224 0.35487
# Poissons Ratio (y) = 0.62223 0.35486
# Poissons Ratio (z) = 0.21243 0.21243
#
# Static dielectric constant tensor:
#      x y z
#    x 3.346600 0.000000 0.000000 
#    y 0.000000 3.346600 0.000000 
#    z 0.000000 0.000000 3.264790 
# 
# 
# High freq. dielectric constant tensor:
#      x y z
#    x 1.705140 0.000000 0.000000 
#    y 0.000000 1.705140 0.000000 
#    z 0.000000 0.000000 1.703590 
# 
# From -- ./inp_files/9994.got.cif
#   From: 2010.03.12/outbox.cif.g09.slc.cpg/sg47_5_cif.got.tgz:9994.got - 2010.04.14 03:12:58.
