data_PCOD8199988
_publ_section_title
;
Structure prediction by ZEFSAII (Michael W. Deem and Ramdas Pophale) SiO2 
 PCOD8199988
Probable space group: P M M M
;
_chemical_formula_sum "Si O2"
_cell_formula_units_Z 40
_cell_length_a 13.472030
_cell_length_b 15.512226
_cell_length_c 9.512497
_cell_angle_alpha 90.000000
_cell_angle_beta 90.000000
_cell_angle_gamma 90.000000
_cell_volume 1987.932791
_symmetry_space_group_name_H-M "P M M M"
_symmetry_group_IT_number 47
_symmetry_cell_setting 'orthorhombic'
loop_
_space_group_symop_operation_xyz
x,y,z
-x,-y,z
x,-y,-z
-x,y,-z
-x,-y,-z
x,y,-z
-x,y,z
x,-y,z
loop_
_atom_site_type_symbol
_atom_site_label
_atom_site_fract_x
_atom_site_fract_y
_atom_site_fract_z
Si Si1 0.610173 0.748598 0.339084
Si Si2 0.117443 0.841646 0.342193
Si Si3 0.118722 0.000000 0.159385
Si Si4 0.197951 0.657103 0.338404
Si Si5 0.617642 0.905167 0.841241
Si Si6 0.883328 0.500000 0.836361
O O1 0.604398 0.776625 0.500000
O O2 0.500000 0.724342 0.281851
O O3 0.682797 0.666919 0.320256
O O4 0.659128 0.830647 0.260275
O O5 0.159021 0.857844 0.500000
O O6 0.146794 0.746232 0.291804
O O7 0.000000 0.849047 0.342630
O O8 0.160827 0.914173 0.236509
O O9 0.000000 0.000000 0.162233
O O10 0.158823 0.000000 0.000000
O O11 0.170774 0.633665 0.500000
O O12 0.161998 0.583951 0.234644
O O13 0.500000 0.910514 0.821036
O O14 0.663542 0.000000 0.805494
O O15 0.644528 0.879290 0.000000
O O16 0.000000 0.500000 0.812067
O O17 0.855206 0.500000 0.000000
#
# Coordination Sequence:
#
# PCOD8199988 Si02
#       6
#     8   8   4   8   8   4
#     4   9  18  33  53  79 111 146 187 236 282 320
#     4   9  17  31  52  76 103 138 180 223 267 321
#     4   9  17  29  47  73 106 143 178 216 269 329
#     4  10  21  38  60  85 111 146 188 228 275 336
#     4   8  14  26  45  69 100 143 192 235 277 326
#     4  11  25  43  64  91 118 140 169 221 286 345
#
# _framework density 20.121404999999999
#
# number of rings (size 3 to 8) (size 9 to 14) (size 15 to 20)
#    0.000    2.800    0.000    1.800    0.000    4.800 
#    1.800    4.500    0.000    3.000    0.000    0.000 
#    0.000    0.000    0.000    0.000    0.000    0.000 
#
# Total GULP energy -495924.082774 kJ/mol
# GULP energy per Si atom -12398.102069 kJ/mol
# Density = 2.007561 g / cm^3
# Si number density = 20.121405 Si / 1000 Ang^3
#
#
#
# Elastic Constant Matrix: (Units=GPa)
#
#
# Indices 1 2 3 4 5 6 
#
# 1 42.2101 45.7851 39.2126 0.0000 0.0000 0.0000
# 2 45.7851 158.8729 100.6131 0.0000 0.0000 0.0000
# 3 39.2126 100.6131 125.8920 0.0000 0.0000 0.0000
# 4 0.0000 0.0000 0.0000 54.4770 0.0000 0.0000
# 5 0.0000 0.0000 0.0000 0.0000 17.9018 0.0000
# 6 0.0000 0.0000 0.0000 0.0000 0.0000 28.4392
#
#
#
# Elastic Compliance Matrix: (Units=1/GPa)
#
#
# Indices 1 2 3 4 5 6 
#
# 1 0.036581 -0.006735 -0.006011 0.000000 0.000000 0.000000
# 2 -0.006735 0.013985 -0.009079 0.000000 0.000000 0.000000
# 3 -0.006011 -0.009079 0.017072 0.000000 0.000000 0.000000
# 4 0.000000 0.000000 0.000000 0.018356 0.000000 0.000000
# 5 0.000000 0.000000 0.000000 0.000000 0.055860 0.000000
# 6 0.000000 0.000000 0.000000 0.000000 0.000000 0.035163
#
#
# Mechanical properties :
#
#
# Convention : Reuss Voigt Hill
#
# Bulk Modulus (GPa) = 41.68987 77.57741 59.63364
# Shear Modulus (GPa) = 21.86614 29.58788 25.72701
#
# Velocity S-wave (km/s) = 3.30011 3.83883 3.57962
# Velocity P-wave (km/s) = 5.94012 7.63460 6.84004
#
# Compressibility (1/GPa) = 0.02398664
#
# Stress axis : x y z
#
# Youngs Moduli (GPa) = 27.33641 71.50534 58.57666
#
# Poissons Ratio (x) = 0.48160 0.35213
# Poissons Ratio (y) = 0.18412 0.53181
# Poissons Ratio (z) = 0.16433 0.64919
#
# Static dielectric constant tensor:
#      x y z
#    x 3.817730 0.000000 0.000000 
#    y 0.000000 3.868760 0.000000 
#    z 0.000000 0.000000 3.704420 
# 
# 
# High freq. dielectric constant tensor:
#      x y z
#    x 1.801680 0.000000 0.000000 
#    y 0.000000 1.766130 0.000000 
#    z 0.000000 0.000000 1.778380 
# 
# From -- ./inp_files/5785.got.cif
#   From: 2010.03.12/outbox.cif.g09.slc.cpg/sg47_3_cif.got.tgz:5785.got - 2010.04.14 03:12:58.
