data_PCOD8199994
_publ_section_title
;
Structure prediction by ZEFSAII (Michael W. Deem and Ramdas Pophale) SiO2 
 PCOD8199994
Probable space group: P M M M
;
_chemical_formula_sum "Si O2"
_cell_formula_units_Z 44
_cell_length_a 28.689872
_cell_length_b 9.082508
_cell_length_c 8.907094
_cell_angle_alpha 90.000000
_cell_angle_beta 90.000000
_cell_angle_gamma 90.000000
_cell_volume 2320.974855
_symmetry_space_group_name_H-M "P M M M"
_symmetry_group_IT_number 47
_symmetry_cell_setting 'orthorhombic'
loop_
_space_group_symop_operation_xyz
x,y,z
-x,-y,z
x,-y,-z
-x,y,-z
-x,-y,-z
x,y,-z
-x,y,z
x,-y,z
loop_
_atom_site_type_symbol
_atom_site_label
_atom_site_fract_x
_atom_site_fract_y
_atom_site_fract_z
Si Si1 0.318627 0.169088 0.324703
Si Si2 0.950725 0.835467 0.321946
Si Si3 0.414617 0.169845 0.824005
Si Si4 0.765687 0.328382 0.173227
Si Si5 0.500000 0.673830 0.671233
Si Si6 0.149941 0.175763 0.672269
O O1 0.327118 0.191286 0.500000
O O2 0.364996 0.221152 0.239785
O O3 0.276409 0.269847 0.273040
O O4 0.306608 0.000000 0.285759
O O5 0.949031 0.844074 0.500000
O O6 0.901324 0.763230 0.272978
O O7 0.000000 0.755300 0.271818
O O8 0.952399 0.000000 0.255978
O O9 0.454205 0.267295 0.750902
O O10 0.424218 0.000000 0.783872
O O11 0.414821 0.197711 0.000000
O O12 0.771820 0.500000 0.204548
O O13 0.813023 0.247949 0.218285
O O14 0.754891 0.294590 0.000000
O O15 0.500000 0.500000 0.684036
O O16 0.500000 0.727836 0.500000
O O17 0.160319 0.221783 0.500000
O O18 0.151885 0.000000 0.687157
#
# Coordination Sequence:
#
# PCOD8199994 Si02
#       6
#     8   8   8   8   4   8
#     4  10  21  38  61  86 108 133 170 216 265 316
#     4   7  10  19  39  69 101 127 154 197 253 306
#     4  10  21  38  61  87 113 143 179 218 263 314
#     4  11  24  38  51  71 102 140 178 214 256 308
#     4  11  24  39  56  82 116 153 190 225 262 304
#     4   9  17  30  51  78 103 129 166 211 258 309
#
# _framework density 18.957553000000001
#
# number of rings (size 3 to 8) (size 9 to 14) (size 15 to 20)
#    0.000    2.455    0.000    4.364    0.000    8.727 
#    0.000    0.000    0.000    1.091    0.000    6.364 
#    0.000    0.000    0.000    0.000    0.000    0.000 
#
# Total GULP energy -545320.307001 kJ/mol
# GULP energy per Si atom -12393.643341 kJ/mol
# Density = 1.891441 g / cm^3
# Si number density = 18.957553 Si / 1000 Ang^3
#
#
#
# Elastic Constant Matrix: (Units=GPa)
#
#
# Indices 1 2 3 4 5 6 
#
# 1 158.1363 43.2501 43.5543 0.0000 0.0000 0.0000
# 2 43.2501 46.9177 29.1517 0.0000 0.0000 0.0000
# 3 43.5543 29.1517 64.2833 0.0000 0.0000 0.0000
# 4 0.0000 0.0000 0.0000 25.9490 0.0000 0.0000
# 5 0.0000 0.0000 0.0000 0.0000 173.7383 0.0000
# 6 0.0000 0.0000 0.0000 0.0000 0.0000 0.0243
#
#
#
# Elastic Compliance Matrix: (Units=1/GPa)
#
#
# Indices 1 2 3 4 5 6 
#
# 1 0.008909 -0.006213 -0.003219 0.000000 0.000000 0.000000
# 2 -0.006213 0.034008 -0.011213 0.000000 0.000000 0.000000
# 3 -0.003219 -0.011213 0.022822 0.000000 0.000000 0.000000
# 4 0.000000 0.000000 0.000000 0.038537 0.000000 0.000000
# 5 0.000000 0.000000 0.000000 0.000000 0.005756 0.000000
# 6 0.000000 0.000000 0.000000 0.000000 0.000000 41.171030
#
#
# Mechanical properties :
#
#
# Convention : Reuss Voigt Hill
#
# Bulk Modulus (GPa) = 40.89955 55.69438 48.29697
# Shear Modulus (GPa) = 0.12098 50.16772 25.14435
#
# Velocity S-wave (km/s) = 0.25289 5.14982 3.64586
# Velocity P-wave (km/s) = 4.65901 8.05004 6.57683
#
# Compressibility (1/GPa) = 0.02445014
#
# Stress axis : x y z
#
# Youngs Moduli (GPa) = 112.24008 29.40480 43.81740
#
# Poissons Ratio (x) = 0.18269 0.14105
# Poissons Ratio (y) = 0.69734 0.49131
# Poissons Ratio (z) = 0.36130 0.32971
#
# Static dielectric constant tensor:
#      x y z
#    x 3.931070 0.000000 0.000000 
#    y 0.000000 3.212710 0.000000 
#    z 0.000000 0.000000 3.369200 
# 
# 
# High freq. dielectric constant tensor:
#      x y z
#    x 1.765490 0.000000 0.000000 
#    y 0.000000 1.703470 0.000000 
#    z 0.000000 0.000000 1.723740 
# 
# From -- ./inp_files/13690.got.cif
#   From: 2010.03.12/outbox.cif.g09.slc.cpg/sg47_7_cif.got.tgz:13690.got - 2010.04.14 03:12:58.
