data_PCOD8199323
_publ_section_title
;
Structure prediction by ZEFSAII (Michael W. Deem and Ramdas Pophale) SiO2 
 PCOD8199323
Probable space group: P M M M
;
_chemical_formula_sum "Si O2"
_cell_formula_units_Z 64
_cell_length_a 9.416664
_cell_length_b 18.104398
_cell_length_c 21.791057
_cell_angle_alpha 90.000000
_cell_angle_beta 90.000000
_cell_angle_gamma 90.000000
_cell_volume 3715.005487
_symmetry_space_group_name_H-M "P M M M"
_symmetry_group_IT_number 47
_symmetry_cell_setting 'orthorhombic'
loop_
_space_group_symop_operation_xyz
x,y,z
-x,-y,z
x,-y,-z
-x,y,-z
-x,-y,-z
x,y,-z
-x,y,z
x,-y,z
loop_
_atom_site_type_symbol
_atom_site_label
_atom_site_fract_x
_atom_site_fract_y
_atom_site_fract_z
Si Si1 0.334501 0.789090 0.262475
Si Si2 0.836581 0.916503 0.315911
Si Si3 0.161136 0.580633 0.400443
Si Si4 0.661950 0.875308 0.568701
Si Si5 0.339630 0.285038 0.613047
Si Si6 0.834337 0.583990 0.070755
Si Si7 0.336006 0.330736 0.830799
Si Si8 0.153387 0.418124 0.256415
O O1 0.500000 0.808411 0.273289
O O2 0.243977 0.864180 0.267099
O O3 0.284152 0.734104 0.317655
O O4 0.311033 0.752940 0.194800
O O5 0.766636 0.913545 0.383263
O O6 0.000000 0.891170 0.321249
O O7 0.825596 0.000000 0.291034
O O8 0.211802 0.500000 0.426184
O O9 0.254222 0.649957 0.422041
O O10 0.176712 0.578535 0.328016
O O11 0.000000 0.594276 0.421566
O O12 0.702290 0.901336 0.500000
O O13 0.500000 0.898283 0.584459
O O14 0.676712 0.787032 0.571363
O O15 0.500000 0.313128 0.617103
O O16 0.784522 0.500000 0.086581
O O17 0.752881 0.647066 0.109163
O O18 0.000000 0.591868 0.085196
O O19 0.802271 0.600838 0.000000
O O20 0.500000 0.344830 0.845573
O O21 0.287921 0.380261 0.774075
O O22 0.147222 0.500000 0.228787
O O23 0.000000 0.379592 0.241129
#
# Coordination Sequence:
#
# PCOD8199323 Si02
#       8
#     8   8   8   8   8   8   8   8
#     4   9  19  33  47  68  97 127 157 188 231 290
#     4  10  21  35  52  76 103 127 153 190 231 272
#     4   9  17  27  39  58  84 114 148 185 228 280
#     4   9  19  35  53  72  95 125 159 191 228 281
#     4   9  16  29  46  64  88 116 150 193 235 276
#     4   9  19  35  50  64  90 133 180 217 249 289
#     4  11  20  29  44  68  95 121 158 207 246 279
#     4   9  17  27  38  56  85 120 154 186 227 281
#
# _framework density 17.227430999999999
#
# number of rings (size 3 to 8) (size 9 to 14) (size 15 to 20)
#    0.000    2.625    1.250    3.000    0.000    7.000 
#    0.000    3.125    0.000    0.375    0.000    2.625 
#    0.000    0.500    0.000    5.500    0.000    4.000 
#
# Total GULP energy -793033.370982 kJ/mol
# GULP energy per Si atom -12391.146422 kJ/mol
# Density = 1.718822 g / cm^3
# Si number density = 17.227431 Si / 1000 Ang^3
#
#
#
# Elastic Constant Matrix: (Units=GPa)
#
#
# Indices 1 2 3 4 5 6 
#
# 1 84.6478 49.1234 30.9125 0.0000 0.0000 0.0000
# 2 49.1234 83.7197 20.2462 0.0000 0.0000 0.0000
# 3 30.9125 20.2462 69.1152 0.0000 0.0000 0.0000
# 4 0.0000 0.0000 0.0000 12.7790 0.0000 0.0000
# 5 0.0000 0.0000 0.0000 0.0000 20.1919 0.0000
# 6 0.0000 0.0000 0.0000 0.0000 0.0000 25.7513
#
#
#
# Elastic Compliance Matrix: (Units=1/GPa)
#
#
# Indices 1 2 3 4 5 6 
#
# 1 0.019927 -0.010264 -0.005906 0.000000 0.000000 0.000000
# 2 -0.010264 0.018142 -0.000724 0.000000 0.000000 0.000000
# 3 -0.005906 -0.000724 0.017322 0.000000 0.000000 0.000000
# 4 0.000000 0.000000 0.000000 0.078254 0.000000 0.000000
# 5 0.000000 0.000000 0.000000 0.000000 0.049525 0.000000
# 6 0.000000 0.000000 0.000000 0.000000 0.000000 0.038833
#
#
# Mechanical properties :
#
#
# Convention : Reuss Voigt Hill
#
# Bulk Modulus (GPa) = 46.28806 48.67189 47.47998
# Shear Modulus (GPa) = 19.01203 20.89114 19.95159
#
# Velocity S-wave (km/s) = 3.32564 3.48611 3.40682
# Velocity P-wave (km/s) = 6.45551 6.67217 6.56474
#
# Compressibility (1/GPa) = 0.02160384
#
# Stress axis : x y z
#
# Youngs Moduli (GPa) = 50.18330 55.12003 57.72990
#
# Poissons Ratio (x) = 0.56576 0.34094
# Poissons Ratio (y) = 0.51509 0.04178
# Poissons Ratio (z) = 0.29637 0.03989
#
# Static dielectric constant tensor:
#      x y z
#    x 3.248620 0.000000 0.000000 
#    y 0.000000 3.235650 0.000000 
#    z 0.000000 0.000000 2.976100 
# 
# 
# High freq. dielectric constant tensor:
#      x y z
#    x 1.666180 0.000000 0.000000 
#    y 0.000000 1.649310 0.000000 
#    z 0.000000 0.000000 1.633370 
# 
# From -- ./inp_files/32199.got.cif
#   From: 2010.03.12/outbox.cif.g09.slc.cpg/sg47_17_cif.got.tgz:32199.got - 2010.04.14 03:12:58.
