data_PCOD8199244
_publ_section_title
;
Structure prediction by ZEFSAII (Michael W. Deem and Ramdas Pophale) SiO2 
 PCOD8199244
Probable space group: P M M M
;
_chemical_formula_sum "Si O2"
_cell_formula_units_Z 64
_cell_length_a 9.184964
_cell_length_b 25.683882
_cell_length_c 14.348532
_cell_angle_alpha 90.000000
_cell_angle_beta 90.000000
_cell_angle_gamma 90.000000
_cell_volume 3384.898068
_symmetry_space_group_name_H-M "P M M M"
_symmetry_group_IT_number 47
_symmetry_cell_setting 'orthorhombic'
loop_
_space_group_symop_operation_xyz
x,y,z
-x,-y,z
x,-y,-z
-x,y,-z
-x,-y,-z
x,y,-z
-x,y,z
x,-y,z
loop_
_atom_site_type_symbol
_atom_site_label
_atom_site_fract_x
_atom_site_fract_y
_atom_site_fract_z
Si Si1 0.671082 0.821512 0.106590
Si Si2 0.332465 0.764711 0.389694
Si Si3 0.340797 0.294867 0.110254
Si Si4 0.328113 0.351844 0.602960
Si Si5 0.665896 0.060137 0.391878
Si Si6 0.330834 0.557905 0.264733
Si Si7 0.169413 0.393914 0.892333
Si Si8 0.172609 0.145524 0.280739
O O1 0.500000 0.833195 0.115401
O O2 0.706327 0.762750 0.141458
O O3 0.762407 0.857846 0.176020
O O4 0.722447 0.830936 0.000000
O O5 0.307626 0.770014 0.500000
O O6 0.500000 0.777487 0.364781
O O7 0.292172 0.705777 0.356841
O O8 0.229378 0.804321 0.336210
O O9 0.500000 0.308985 0.152836
O O10 0.225146 0.337570 0.143576
O O11 0.353856 0.293847 0.000000
O O12 0.259050 0.357941 0.500000
O O13 0.500000 0.358326 0.594761
O O14 0.264036 0.398208 0.666702
O O15 0.697158 0.070777 0.500000
O O16 0.500000 0.076444 0.368191
O O17 0.778689 0.093265 0.332344
O O18 0.691312 0.000000 0.367348
O O19 0.500000 0.568093 0.246368
O O20 0.305015 0.500000 0.306321
O O21 0.248959 0.561298 0.165897
O O22 0.000000 0.396765 0.873409
O O23 0.208400 0.402957 0.000000
O O24 0.000000 0.147738 0.275449
#
# Coordination Sequence:
#
# PCOD8199244 Si02
#       8
#     8   8   8   8   8   8   8   8
#     4   9  19  36  56  77 105 146 193 234 271 317
#     4   9  18  34  55  77 105 143 185 225 265 320
#     4   8  15  30  52  75  97 126 169 218 264 310
#     4   8  16  33  56  79 101 129 168 216 269 319
#     4   9  19  38  63  87 112 148 196 243 280 320
#     4  10  21  35  53  78 102 127 168 221 270 319
#     4  10  21  35  51  72 101 136 170 208 259 321
#     4  12  24  33  50  84 122 155 184 223 277 332
#
# _framework density 18.907512000000001
#
# number of rings (size 3 to 8) (size 9 to 14) (size 15 to 20)
#    0.000    2.625    0.000    3.750    1.750    4.500 
#    0.000    4.375    0.000    1.500    0.000    3.500 
#    0.000    0.000    0.000    0.000    0.000    0.000 
#
# Total GULP energy -793445.518341 kJ/mol
# GULP energy per Si atom -12397.586224 kJ/mol
# Density = 1.886448 g / cm^3
# Si number density = 18.907512 Si / 1000 Ang^3
#
#
#
# Elastic Constant Matrix: (Units=GPa)
#
#
# Indices 1 2 3 4 5 6 
#
# 1 79.8574 46.9439 49.3183 0.0000 0.0000 0.0000
# 2 46.9439 104.5622 57.0447 0.0000 0.0000 0.0000
# 3 49.3183 57.0447 77.1186 0.0000 0.0000 0.0000
# 4 0.0000 0.0000 0.0000 30.5782 0.0000 0.0000
# 5 0.0000 0.0000 0.0000 0.0000 17.2441 0.0000
# 6 0.0000 0.0000 0.0000 0.0000 0.0000 5.3332
#
#
#
# Elastic Compliance Matrix: (Units=1/GPa)
#
#
# Indices 1 2 3 4 5 6 
#
# 1 0.021477 -0.003603 -0.011069 0.000000 0.000000 0.000000
# 2 -0.003603 0.016639 -0.010003 0.000000 0.000000 0.000000
# 3 -0.011069 -0.010003 0.027446 0.000000 0.000000 0.000000
# 4 0.000000 0.000000 0.000000 0.032703 0.000000 0.000000
# 5 0.000000 0.000000 0.000000 0.000000 0.057991 0.000000
# 6 0.000000 0.000000 0.000000 0.000000 0.000000 0.187505
#
#
# Mechanical properties :
#
#
# Convention : Reuss Voigt Hill
#
# Bulk Modulus (GPa) = 61.69364 63.12802 62.41083
# Shear Modulus (GPa) = 12.54659 17.84652 15.19656
#
# Velocity S-wave (km/s) = 2.57879 3.07560 2.83809
# Velocity P-wave (km/s) = 6.44724 6.78769 6.61965
#
# Compressibility (1/GPa) = 0.01620913
#
# Stress axis : x y z
#
# Youngs Moduli (GPa) = 46.56233 60.10045 36.43572
#
# Poissons Ratio (x) = 0.21655 0.40332
# Poissons Ratio (y) = 0.16777 0.36448
# Poissons Ratio (z) = 0.51541 0.60121
#
# Static dielectric constant tensor:
#      x y z
#    x 3.181830 0.000000 0.000000 
#    y 0.000000 3.476150 0.000000 
#    z 0.000000 0.000000 3.574410 
# 
# 
# High freq. dielectric constant tensor:
#      x y z
#    x 1.704890 0.000000 0.000000 
#    y 0.000000 1.725560 0.000000 
#    z 0.000000 0.000000 1.736780 
# 
# From -- ./inp_files/21893.got.cif
#   From: 2010.03.12/outbox.cif.g09.slc.cpg/sg47_11_cif.got.tgz:21893.got - 2010.04.14 03:12:58.
