data_PCOD8199791
_publ_section_title
;
Structure prediction by ZEFSAII (Michael W. Deem and Ramdas Pophale) SiO2 
 PCOD8199791
Probable space group: P M M M
;
_chemical_formula_sum "Si O2"
_cell_formula_units_Z 64
_cell_length_a 23.442539
_cell_length_b 8.886762
_cell_length_c 15.168860
_cell_angle_alpha 90.000000
_cell_angle_beta 90.000000
_cell_angle_gamma 90.000000
_cell_volume 3160.102282
_symmetry_space_group_name_H-M "P M M M"
_symmetry_group_IT_number 47
_symmetry_cell_setting 'orthorhombic'
loop_
_space_group_symop_operation_xyz
x,y,z
-x,-y,z
x,-y,-z
-x,y,-z
-x,-y,-z
x,y,-z
-x,y,z
x,-y,z
loop_
_atom_site_type_symbol
_atom_site_label
_atom_site_fract_x
_atom_site_fract_y
_atom_site_fract_z
Si Si1 0.067105 0.173216 0.400508
Si Si2 0.564149 0.330932 0.601583
Si Si3 0.563050 0.832351 0.103686
Si Si4 0.664322 0.827595 0.323834
Si Si5 0.319943 0.676054 0.149898
Si Si6 0.149416 0.322024 0.733995
Si Si7 0.242888 0.329616 0.404527
Si Si8 0.205715 0.825243 0.900775
O O1 0.084785 0.229999 0.500000
O O2 0.093664 0.263745 0.317712
O O3 0.000000 0.192594 0.389814
O O4 0.085432 0.000000 0.391030
O O5 0.567423 0.283924 0.500000
O O6 0.500000 0.322771 0.636282
O O7 0.588213 0.500000 0.614708
O O8 0.598456 0.211217 0.659534
O O9 0.500000 0.774322 0.136575
O O10 0.615208 0.725189 0.129405
O O11 0.574544 0.000000 0.142430
O O12 0.561146 0.842017 0.000000
O O13 0.691640 0.719803 0.250215
O O14 0.702199 0.781279 0.407932
O O15 0.670201 0.000000 0.297068
O O16 0.314536 0.500000 0.132825
O O17 0.269696 0.756079 0.095533
O O18 0.144165 0.500000 0.746697
O O19 0.200466 0.273482 0.670246
O O20 0.162274 0.250982 0.830424
O O21 0.212750 0.316208 0.500000
O O22 0.263188 0.500000 0.387569
O O23 0.210986 0.000000 0.876004
O O24 0.180502 0.804310 0.000000
#
# Coordination Sequence:
#
# PCOD8199791 Si02
#       8
#     8   8   8   8   8   8   8   8
#     4   9  19  37  62  94 135 182 224 259 299 350
#     4   9  19  37  58  76  98 134 179 228 286 351
#     4   9  19  37  59  81 106 137 175 225 290 362
#     4  12  24  36  53  77 107 143 185 234 288 346
#     4  12  24  38  57  81 111 147 189 240 300 362
#     4  11  22  37  61  93 127 165 208 254 304 356
#     4  10  21  37  56  81 117 157 192 234 292 353
#     4  11  24  42  64  89 119 158 204 255 311 369
#
# _framework density 20.252509
#
# number of rings (size 3 to 8) (size 9 to 14) (size 15 to 20)
#    0.000    1.625    1.250    5.250    0.000    7.250 
#    0.000    1.875    0.000    0.375    0.000    2.625 
#    0.000    0.000    0.000    0.000    0.000    0.000 
#
# Total GULP energy -793132.769306 kJ/mol
# GULP energy per Si atom -12392.699520 kJ/mol
# Density = 2.020641 g / cm^3
# Si number density = 20.252509 Si / 1000 Ang^3
#
#
#
# Elastic Constant Matrix: (Units=GPa)
#
#
# Indices 1 2 3 4 5 6 
#
# 1 81.4133 43.2120 39.2256 0.0000 0.0000 0.0000
# 2 43.2120 114.5443 48.2707 0.0000 0.0000 0.0000
# 3 39.2256 48.2707 106.9263 0.0000 0.0000 0.0000
# 4 0.0000 0.0000 0.0000 26.5676 0.0000 0.0000
# 5 0.0000 0.0000 0.0000 0.0000 30.2251 0.0000
# 6 0.0000 0.0000 0.0000 0.0000 0.0000 27.0716
#
#
#
# Elastic Compliance Matrix: (Units=1/GPa)
#
#
# Indices 1 2 3 4 5 6 
#
# 1 0.016664 -0.004582 -0.004045 0.000000 0.000000 0.000000
# 2 -0.004582 0.012041 -0.003755 0.000000 0.000000 0.000000
# 3 -0.004045 -0.003755 0.012531 0.000000 0.000000 0.000000
# 4 0.000000 0.000000 0.000000 0.037640 0.000000 0.000000
# 5 0.000000 0.000000 0.000000 0.000000 0.033085 0.000000
# 6 0.000000 0.000000 0.000000 0.000000 0.000000 0.036939
#
#
# Mechanical properties :
#
#
# Convention : Reuss Voigt Hill
#
# Bulk Modulus (GPa) = 60.70540 62.70007 61.70273
# Shear Modulus (GPa) = 27.90893 28.25122 28.08008
#
# Velocity S-wave (km/s) = 3.71623 3.73895 3.72761
# Velocity P-wave (km/s) = 6.96083 7.04742 7.00426
#
# Compressibility (1/GPa) = 0.01647300
#
# Stress axis : x y z
#
# Youngs Moduli (GPa) = 60.01073 83.04807 79.80132
#
# Poissons Ratio (x) = 0.38052 0.32276
# Poissons Ratio (y) = 0.27497 0.29965
# Poissons Ratio (z) = 0.24272 0.31185
#
# Static dielectric constant tensor:
#      x y z
#    x 3.729590 0.000000 0.000000 
#    y 0.000000 3.604730 0.000000 
#    z 0.000000 0.000000 3.773590 
# 
# 
# High freq. dielectric constant tensor:
#      x y z
#    x 1.775650 0.000000 0.000000 
#    y 0.000000 1.786730 0.000000 
#    z 0.000000 0.000000 1.793600 
# 
# From -- ./inp_files/25528.got.cif
#   From: 2010.03.12/outbox.cif.g09.slc.cpg/sg47_13_cif.got.tgz:25528.got - 2010.04.14 03:12:58.
