data_PCOD8199752
_publ_section_title
;
Structure prediction by ZEFSAII (Michael W. Deem and Ramdas Pophale) SiO2 
 PCOD8199752
Probable space group: P M M M
;
_chemical_formula_sum "Si O2"
_cell_formula_units_Z 40
_cell_length_a 9.139185
_cell_length_b 29.610698
_cell_length_c 7.631642
_cell_angle_alpha 90.000000
_cell_angle_beta 90.000000
_cell_angle_gamma 90.000000
_cell_volume 2065.257001
_symmetry_space_group_name_H-M "P M M M"
_symmetry_group_IT_number 47
_symmetry_cell_setting 'orthorhombic'
loop_
_space_group_symop_operation_xyz
x,y,z
-x,-y,z
x,-y,-z
-x,y,-z
-x,-y,-z
x,y,-z
-x,y,z
x,-y,z
loop_
_atom_site_type_symbol
_atom_site_label
_atom_site_fract_x
_atom_site_fract_y
_atom_site_fract_z
Si Si1 0.171670 0.823404 0.798053
Si Si2 0.173271 0.344030 0.500000
Si Si3 0.663978 0.500000 0.792419
Si Si4 0.162819 0.000000 0.705065
Si Si5 0.171971 0.410896 0.799041
Si Si6 0.173246 0.243685 0.500000
Si Si7 0.661564 0.911195 0.796380
O O1 0.224431 0.782011 0.676426
O O2 0.251806 0.867936 0.723128
O O3 0.000000 0.832582 0.777600
O O4 0.211779 0.812169 0.000000
O O5 0.224566 0.369767 0.676115
O O6 0.243051 0.293852 0.500000
O O7 0.000000 0.340440 0.500000
O O8 0.500000 0.500000 0.714936
O O9 0.747969 0.544467 0.727375
O O10 0.661619 0.500000 0.000000
O O11 0.248879 0.956245 0.764917
O O12 0.148960 0.000000 0.500000
O O13 0.000000 0.000000 0.789356
O O14 0.000000 0.419817 0.781570
O O15 0.214601 0.399372 0.000000
O O16 0.000000 0.247355 0.500000
O O17 0.500000 0.914629 0.708624
O O18 0.642521 0.903851 0.000000
#
# Coordination Sequence:
#
# PCOD8199752 Si02
#       7
#     8   4   4   4   8   4   8
#     4   9  18  33  54  78 103 134 171 212 258 305
#     4   9  18  31  48  75 103 129 166 212 259 303
#     4   9  17  30  49  72  99 133 170 207 249 296
#     4  11  24  37  52  78 110 141 172 207 250 304
#     4   9  17  30  49  72 100 133 168 207 251 300
#     4   9  18  32  52  77 104 130 166 216 260 305
#     4  10  21  37  56  78 105 136 171 212 256 305
#
# _framework density 19.368048000000002
#
# number of rings (size 3 to 8) (size 9 to 14) (size 15 to 20)
#    0.000    2.600    0.000    1.500    1.400    5.600 
#    0.000    6.500    0.000    2.400    0.000    5.600 
#    0.000    0.000    0.000    0.000    0.000    0.000 
#
# Total GULP energy -495883.235894 kJ/mol
# GULP energy per Si atom -12397.080897 kJ/mol
# Density = 1.932397 g / cm^3
# Si number density = 19.368048 Si / 1000 Ang^3
#
#
#
# Elastic Constant Matrix: (Units=GPa)
#
#
# Indices 1 2 3 4 5 6 
#
# 1 84.0167 61.5954 28.4135 0.0000 0.0000 0.0000
# 2 61.5954 204.8872 68.5007 0.0000 0.0000 0.0000
# 3 28.4135 68.5007 86.9122 0.0000 0.0000 0.0000
# 4 0.0000 0.0000 0.0000 39.3366 0.0000 0.0000
# 5 0.0000 0.0000 0.0000 0.0000 8.5859 0.0000
# 6 0.0000 0.0000 0.0000 0.0000 0.0000 -0.2354
#
#
#
# Elastic Compliance Matrix: (Units=1/GPa)
#
#
# Indices 1 2 3 4 5 6 
#
# 1 0.015493 -0.004025 -0.001893 0.000000 0.000000 0.000000
# 2 -0.004025 0.007673 -0.004731 0.000000 0.000000 0.000000
# 3 -0.001893 -0.004731 0.015854 0.000000 0.000000 0.000000
# 4 0.000000 0.000000 0.000000 0.025422 0.000000 0.000000
# 5 0.000000 0.000000 0.000000 0.000000 0.116469 0.000000
# 6 0.000000 0.000000 0.000000 0.000000 0.000000 -4.247241
#
#
# Mechanical properties :
#
#
# Convention : Reuss Voigt Hill
#
# Bulk Modulus (GPa) = 56.42894 76.98170 66.70532
# Shear Modulus (GPa) = -1.23789 24.02451 11.39331
#
# Velocity S-wave (km/s) = -0.80033 3.52578 2.42802
# Velocity P-wave (km/s) = 5.32393 7.51052 6.50969
#
# Compressibility (1/GPa) = 0.01772140
#
# Stress axis : x y z
#
# Youngs Moduli (GPa) = 64.54384 130.33345 63.07645
#
# Poissons Ratio (x) = 0.52458 0.11939
# Poissons Ratio (y) = 0.25979 0.29844
# Poissons Ratio (z) = 0.12217 0.61666
#
# Static dielectric constant tensor:
#      x y z
#    x 3.648770 0.000000 0.000000 
#    y 0.000000 3.768770 0.000000 
#    z 0.000000 0.000000 3.588990 
# 
# 
# High freq. dielectric constant tensor:
#      x y z
#    x 1.731640 0.000000 0.000000 
#    y 0.000000 1.753290 0.000000 
#    z 0.000000 0.000000 1.754610 
# 
# From -- ./inp_files/1923.got.cif
#   From: 2010.03.12/outbox.cif.g09.slc.cpg/sg47_1_cif.got.tgz:1923.got - 2010.04.14 03:12:58.
