data_PCOD8199428
_publ_section_title
;
Structure prediction by ZEFSAII (Michael W. Deem and Ramdas Pophale) SiO2 
 PCOD8199428
Probable space group: P M M M
;
_chemical_formula_sum "Si O2"
_cell_formula_units_Z 64
_cell_length_a 20.678341
_cell_length_b 18.209053
_cell_length_c 8.970217
_cell_angle_alpha 90.000000
_cell_angle_beta 90.000000
_cell_angle_gamma 90.000000
_cell_volume 3377.582782
_symmetry_space_group_name_H-M "P M M M"
_symmetry_group_IT_number 47
_symmetry_cell_setting 'orthorhombic'
loop_
_space_group_symop_operation_xyz
x,y,z
-x,-y,z
x,-y,-z
-x,y,-z
-x,-y,-z
x,y,-z
-x,y,z
x,-y,z
loop_
_atom_site_type_symbol
_atom_site_label
_atom_site_fract_x
_atom_site_fract_y
_atom_site_fract_z
Si Si1 0.074304 0.204884 0.162834
Si Si2 0.430658 0.236928 0.674740
Si Si3 0.926392 0.349617 0.674673
Si Si4 0.739534 0.136279 0.174702
Si Si5 0.861937 0.917613 0.330448
Si Si6 0.617667 0.918979 0.671337
Si Si7 0.205287 0.580561 0.676108
Si Si8 0.292212 0.285216 0.678230
O O1 0.100175 0.277167 0.244389
O O2 0.082578 0.135304 0.269439
O O3 0.000000 0.216725 0.134687
O O4 0.108671 0.195502 0.000000
O O5 0.431768 0.249666 0.500000
O O6 0.500000 0.265377 0.741782
O O7 0.428833 0.149299 0.710563
O O8 0.367579 0.280869 0.736478
O O9 0.926591 0.333260 0.500000
O O10 0.870838 0.408352 0.717376
O O11 0.000000 0.373922 0.723357
O O12 0.801421 0.090078 0.221561
O O13 0.679413 0.087155 0.223634
O O14 0.744208 0.214705 0.256923
O O15 0.736935 0.149974 0.000000
O O16 0.843313 0.897064 0.500000
O O17 0.888943 0.000000 0.321017
O O18 0.640512 0.911788 0.500000
O O19 0.585346 0.000000 0.697772
O O20 0.212474 0.582117 0.500000
O O21 0.225068 0.500000 0.738648
O O22 0.255406 0.641934 0.739529
O O23 0.289760 0.280970 0.500000
#
# Coordination Sequence:
#
# PCOD8199428 Si02
#       8
#     8   8   8   8   8   8   8   8
#     4  10  21  36  53  72  95 124 159 201 247 294
#     4   8  14  25  43  68  94 123 165 210 245 282
#     4   9  17  30  50  74  99 129 163 197 235 286
#     4  11  21  32  49  71  95 124 160 201 244 291
#     4  11  23  36  50  68  92 124 163 207 251 294
#     4   9  17  29  45  66  94 127 161 198 243 293
#     4   9  17  29  48  75 102 126 155 194 240 289
#     4   9  17  31  51  71  94 127 163 199 241 291
#
# _framework density 18.948461999999999
#
# number of rings (size 3 to 8) (size 9 to 14) (size 15 to 20)
#    0.000    2.500    0.000    3.750    0.000    5.250 
#    0.000    3.750    0.000    7.875    0.000    7.875 
#    0.000    0.000    0.000    4.500    0.000    5.000 
#
# Total GULP energy -792856.252304 kJ/mol
# GULP energy per Si atom -12388.378942 kJ/mol
# Density = 1.890533 g / cm^3
# Si number density = 18.948462 Si / 1000 Ang^3
#
#
#
# Elastic Constant Matrix: (Units=GPa)
#
#
# Indices 1 2 3 4 5 6 
#
# 1 82.7694 45.2909 13.9105 0.0000 0.0000 0.0000
# 2 45.2909 114.5441 21.9582 0.0000 0.0000 0.0000
# 3 13.9105 21.9582 46.3333 0.0000 0.0000 0.0000
# 4 0.0000 0.0000 0.0000 5.7242 0.0000 0.0000
# 5 0.0000 0.0000 0.0000 0.0000 7.9961 0.0000
# 6 0.0000 0.0000 0.0000 0.0000 0.0000 15.7674
#
#
#
# Elastic Compliance Matrix: (Units=1/GPa)
#
#
# Indices 1 2 3 4 5 6 
#
# 1 0.015573 -0.005787 -0.001933 0.000000 0.000000 0.000000
# 2 -0.005787 0.011753 -0.003833 0.000000 0.000000 0.000000
# 3 -0.001933 -0.003833 0.023979 0.000000 0.000000 0.000000
# 4 0.000000 0.000000 0.000000 0.174698 0.000000 0.000000
# 5 0.000000 0.000000 0.000000 0.000000 0.125060 0.000000
# 6 0.000000 0.000000 0.000000 0.000000 0.000000 0.063422
#
#
# Mechanical properties :
#
#
# Convention : Reuss Voigt Hill
#
# Bulk Modulus (GPa) = 35.46023 45.10734 40.28378
# Shear Modulus (GPa) = 11.18588 16.73002 13.95795
#
# Velocity S-wave (km/s) = 2.43231 2.97462 2.71703
# Velocity P-wave (km/s) = 5.16167 5.97117 5.58111
#
# Compressibility (1/GPa) = 0.02820061
#
# Stress axis : x y z
#
# Youngs Moduli (GPa) = 64.21235 85.08297 41.70250
#
# Poissons Ratio (x) = 0.49239 0.08061
# Poissons Ratio (y) = 0.37161 0.15983
# Poissons Ratio (z) = 0.12412 0.32609
#
# Static dielectric constant tensor:
#      x y z
#    x 3.745000 0.000000 0.000000 
#    y 0.000000 3.584230 0.000000 
#    z 0.000000 0.000000 3.443710 
# 
# 
# High freq. dielectric constant tensor:
#      x y z
#    x 1.732650 0.000000 0.000000 
#    y 0.000000 1.720220 0.000000 
#    z 0.000000 0.000000 1.705890 
# 
# From -- ./inp_files/12747.got.cif
#   From: 2010.03.12/outbox.cif.g09.slc.cpg/sg47_7_cif.got.tgz:12747.got - 2010.04.14 03:12:58.
