data_PCOD8199742
_publ_section_title
;
Structure prediction by ZEFSAII (Michael W. Deem and Ramdas Pophale) SiO2 
 PCOD8199742
Probable space group: P M M M
;
_chemical_formula_sum "Si O2"
_cell_formula_units_Z 40
_cell_length_a 8.078366
_cell_length_b 9.176556
_cell_length_c 27.707256
_cell_angle_alpha 90.000000
_cell_angle_beta 90.000000
_cell_angle_gamma 90.000000
_cell_volume 2053.982609
_symmetry_space_group_name_H-M "P M M M"
_symmetry_group_IT_number 47
_symmetry_cell_setting 'orthorhombic'
loop_
_space_group_symop_operation_xyz
x,y,z
-x,-y,z
x,-y,-z
-x,y,-z
-x,-y,-z
x,y,-z
-x,y,z
x,-y,z
loop_
_atom_site_type_symbol
_atom_site_label
_atom_site_fract_x
_atom_site_fract_y
_atom_site_fract_z
Si Si1 0.195089 0.837737 0.593303
Si Si2 0.183423 0.673504 0.113600
Si Si3 0.687251 0.327244 0.214028
Si Si4 0.804543 0.663527 0.684222
Si Si5 0.304820 0.334373 0.500000
Si Si6 0.500000 0.673784 0.054716
O O1 0.270425 0.760387 0.640903
O O2 0.237108 0.744577 0.546828
O O3 0.000000 0.848707 0.598557
O O4 0.271587 0.000000 0.588657
O O5 0.192758 0.500000 0.112845
O O6 0.208060 0.731095 0.168407
O O7 0.332259 0.734751 0.080077
O O8 0.000000 0.724969 0.095713
O O9 0.500000 0.276466 0.206068
O O10 0.703036 0.500000 0.216324
O O11 0.754528 0.263686 0.264607
O O12 0.730694 0.500000 0.679448
O O13 0.000000 0.657135 0.680565
O O14 0.239358 0.500000 0.500000
O O15 0.500000 0.328250 0.500000
O O16 0.500000 0.500000 0.057046
O O17 0.500000 0.730724 0.000000
#
# Coordination Sequence:
#
# PCOD8199742 Si02
#       6
#     8   8   8   8   4   4
#     4  10  21  37  56  77 102 133 167 202 247 304
#     4   9  15  23  35  50  72 105 146 193 245 296
#     4   9  15  24  39  59  83 110 144 191 243 291
#     4   9  17  29  46  69  94 120 155 199 244 292
#     4  11  24  39  56  78 102 129 166 211 254 296
#     4   9  16  24  32  46  72 106 149 198 243 292
#
# _framework density 19.474360999999998
#
# number of rings (size 3 to 8) (size 9 to 14) (size 15 to 20)
#    0.000    2.600    1.000    1.800    0.000    6.800 
#    0.000    4.000    0.000    0.000    0.000    0.000 
#    0.000    0.000    0.000    0.000    0.000    2.000 
#
# Total GULP energy -495777.856106 kJ/mol
# GULP energy per Si atom -12394.446403 kJ/mol
# Density = 1.943004 g / cm^3
# Si number density = 19.474361 Si / 1000 Ang^3
#
#
#
# Elastic Constant Matrix: (Units=GPa)
#
#
# Indices 1 2 3 4 5 6 
#
# 1 87.9055 17.9482 57.6776 0.0000 0.0000 0.0000
# 2 17.9482 64.7171 42.3246 0.0000 0.0000 0.0000
# 3 57.6776 42.3246 181.2202 0.0000 0.0000 0.0000
# 4 0.0000 0.0000 0.0000 -1.5706 0.0000 0.0000
# 5 0.0000 0.0000 0.0000 0.0000 31.1122 0.0000
# 6 0.0000 0.0000 0.0000 0.0000 0.0000 7.6894
#
#
#
# Elastic Compliance Matrix: (Units=1/GPa)
#
#
# Indices 1 2 3 4 5 6 
#
# 1 0.014454 -0.001180 -0.004325 0.000000 0.000000 0.000000
# 2 -0.001180 0.018334 -0.003906 0.000000 0.000000 0.000000
# 3 -0.004325 -0.003906 0.007807 0.000000 0.000000 0.000000
# 4 0.000000 0.000000 0.000000 -0.636708 0.000000 0.000000
# 5 0.000000 0.000000 0.000000 0.000000 0.032142 0.000000
# 6 0.000000 0.000000 0.000000 0.000000 0.000000 0.130049
#
#
# Mechanical properties :
#
#
# Convention : Reuss Voigt Hill
#
# Bulk Modulus (GPa) = 45.92942 63.30484 54.61713
# Shear Modulus (GPa) = -12.25967 21.83903 4.78968
#
# Velocity S-wave (km/s) = -2.51176 3.35240 1.56997
# Velocity P-wave (km/s) = 3.90177 6.89653 5.60294
#
# Compressibility (1/GPa) = 0.02177254
#
# Stress axis : x y z
#
# Youngs Moduli (GPa) = 69.18263 54.54375 128.09097
#
# Poissons Ratio (x) = 0.06438 0.55397
# Poissons Ratio (y) = 0.08166 0.50036
# Poissons Ratio (z) = 0.29920 0.21306
#
# Static dielectric constant tensor:
#      x y z
#    x 3.603790 0.000000 0.000000 
#    y 0.000000 3.220140 0.000000 
#    z 0.000000 0.000000 3.806540 
# 
# 
# High freq. dielectric constant tensor:
#      x y z
#    x 1.758710 0.000000 0.000000 
#    y 0.000000 1.689250 0.000000 
#    z 0.000000 0.000000 1.771560 
# 
# From -- ./inp_files/1843.got.cif
#   From: 2010.03.12/outbox.cif.g09.slc.cpg/sg47_1_cif.got.tgz:1843.got - 2010.04.14 03:12:58.
