data_PCOD8199703
_publ_section_title
;
Structure prediction by ZEFSAII (Michael W. Deem and Ramdas Pophale) SiO2 
 PCOD8199703
Probable space group: P M M M
;
_chemical_formula_sum "Si O2"
_cell_formula_units_Z 52
_cell_length_a 10.388730
_cell_length_b 9.361694
_cell_length_c 29.140426
_cell_angle_alpha 90.000000
_cell_angle_beta 90.000000
_cell_angle_gamma 90.000000
_cell_volume 2834.084515
_symmetry_space_group_name_H-M "P M M M"
_symmetry_group_IT_number 47
_symmetry_cell_setting 'orthorhombic'
loop_
_space_group_symop_operation_xyz
x,y,z
-x,-y,z
x,-y,-z
-x,y,-z
-x,-y,-z
x,y,-z
-x,y,z
x,-y,z
loop_
_atom_site_type_symbol
_atom_site_label
_atom_site_fract_x
_atom_site_fract_y
_atom_site_fract_z
Si Si1 0.851715 0.165149 0.707891
Si Si2 0.000000 0.668857 0.550285
Si Si3 0.353781 0.165140 0.785006
Si Si4 0.856258 0.669594 0.948683
Si Si5 0.353870 0.667648 0.877301
Si Si6 0.647739 0.156128 0.549726
Si Si7 0.778284 0.331358 0.617516
O O1 0.752385 0.209845 0.747673
O O2 0.816729 0.264945 0.665660
O O3 0.000000 0.192600 0.723295
O O4 0.831673 0.000000 0.694327
O O5 0.878578 0.719790 0.578994
O O6 0.000000 0.500000 0.546301
O O7 0.000000 0.740075 0.500000
O O8 0.500000 0.195972 0.767091
O O9 0.323096 0.256883 0.829632
O O10 0.338839 0.000000 0.798254
O O11 0.848740 0.500000 0.949436
O O12 0.746394 0.729944 0.914760
O O13 0.000000 0.717612 0.932652
O O14 0.829257 0.728348 0.000000
O O15 0.500000 0.700660 0.893670
O O16 0.333506 0.500000 0.869794
O O17 0.702797 0.214765 0.500000
O O18 0.500000 0.131445 0.542114
O O19 0.653904 0.263260 0.593726
O O20 0.710654 0.000000 0.560822
O O21 0.766230 0.500000 0.624335
#
# Coordination Sequence:
#
# PCOD8199703 Si02
#       7
#     8   4   8   8   8   8   8
#     4  10  21  37  55  74 100 133 171 212 254 306
#     4   9  18  32  49  71 101 133 159 189 236 291
#     4   9  19  36  55  73  96 131 171 210 259 315
#     4   8  14  25  42  67 101 138 172 206 248 300
#     4   9  17  29  47  73 101 127 162 212 260 300
#     4   9  19  36  55  75 102 135 169 204 242 289
#     4  11  21  34  53  77 105 133 163 202 250 301
#
# _framework density 18.348077
#
# number of rings (size 3 to 8) (size 9 to 14) (size 15 to 20)
#    0.000    2.692    0.769    1.846    0.000    3.385 
#    0.000    3.846    0.000    2.308    0.000    3.231 
#    0.000    0.000    0.000    0.000    0.000    0.000 
#
# Total GULP energy -644267.497548 kJ/mol
# GULP energy per Si atom -12389.759568 kJ/mol
# Density = 1.830632 g / cm^3
# Si number density = 18.348077 Si / 1000 Ang^3
#
#
#
# Elastic Constant Matrix: (Units=GPa)
#
#
# Indices 1 2 3 4 5 6 
#
# 1 115.6907 40.6253 90.4383 0.0000 0.0000 0.0000
# 2 40.6253 59.4745 53.8718 0.0000 0.0000 0.0000
# 3 90.4383 53.8718 143.9980 0.0000 0.0000 0.0000
# 4 0.0000 0.0000 0.0000 20.7011 0.0000 0.0000
# 5 0.0000 0.0000 0.0000 0.0000 43.4425 0.0000
# 6 0.0000 0.0000 0.0000 0.0000 0.0000 17.2221
#
#
#
# Elastic Compliance Matrix: (Units=1/GPa)
#
#
# Indices 1 2 3 4 5 6 
#
# 1 0.017326 -0.002992 -0.009762 0.000000 0.000000 0.000000
# 2 -0.002992 0.025949 -0.007829 0.000000 0.000000 0.000000
# 3 -0.009762 -0.007829 0.016004 0.000000 0.000000 0.000000
# 4 0.000000 0.000000 0.000000 0.048307 0.000000 0.000000
# 5 0.000000 0.000000 0.000000 0.000000 0.023019 0.000000
# 6 0.000000 0.000000 0.000000 0.000000 0.000000 0.058065
#
#
# Mechanical properties :
#
#
# Convention : Reuss Voigt Hill
#
# Bulk Modulus (GPa) = 55.20798 76.55932 65.88365
# Shear Modulus (GPa) = 21.19784 25.22164 23.20974
#
# Velocity S-wave (km/s) = 3.40268 3.71161 3.56050
# Velocity P-wave (km/s) = 6.75220 7.75788 7.27245
#
# Compressibility (1/GPa) = 0.01811332
#
# Stress axis : x y z
#
# Youngs Moduli (GPa) = 57.71778 38.53714 62.48297
#
# Poissons Ratio (x) = 0.11532 0.60996
# Poissons Ratio (y) = 0.17271 0.48915
# Poissons Ratio (z) = 0.56344 0.30169
#
# Static dielectric constant tensor:
#      x y z
#    x 3.614870 0.000000 0.000000 
#    y 0.000000 3.136820 0.000000 
#    z 0.000000 0.000000 3.419920 
# 
# 
# High freq. dielectric constant tensor:
#      x y z
#    x 1.717920 0.000000 0.000000 
#    y 0.000000 1.687670 0.000000 
#    z 0.000000 0.000000 1.707540 
# 
# From -- ./inp_files/33581.got.cif
#   From: 2010.03.12/outbox.cif.g09.slc.cpg/sg47_17_cif.got.tgz:33581.got - 2010.04.14 03:12:58.
