data_PCOD8199470
_publ_section_title
;
Structure prediction by ZEFSAII (Michael W. Deem and Ramdas Pophale) SiO2 
 PCOD8199470
Probable space group: P M M M
;
_chemical_formula_sum "Si O2"
_cell_formula_units_Z 64
_cell_length_a 9.202777
_cell_length_b 14.243944
_cell_length_c 25.994909
_cell_angle_alpha 90.000000
_cell_angle_beta 90.000000
_cell_angle_gamma 90.000000
_cell_volume 3407.512498
_symmetry_space_group_name_H-M "P M M M"
_symmetry_group_IT_number 47
_symmetry_cell_setting 'orthorhombic'
loop_
_space_group_symop_operation_xyz
x,y,z
-x,-y,z
x,-y,-z
-x,y,-z
-x,-y,-z
x,y,-z
-x,y,z
x,-y,z
loop_
_atom_site_type_symbol
_atom_site_label
_atom_site_fract_x
_atom_site_fract_y
_atom_site_fract_z
Si Si1 0.165921 0.105119 0.305175
Si Si2 0.668431 0.610898 0.741355
Si Si3 0.667082 0.608004 0.440593
Si Si4 0.832398 0.104723 0.892065
Si Si5 0.167950 0.610592 0.156780
Si Si6 0.830491 0.710855 0.944298
Si Si7 0.167939 0.705781 0.352884
Si Si8 0.337957 0.111494 0.793566
O O1 0.185590 0.180650 0.350792
O O2 0.260096 0.145592 0.258131
O O3 0.000000 0.101446 0.286295
O O4 0.215527 0.000000 0.322928
O O5 0.500000 0.639580 0.741772
O O6 0.689284 0.500000 0.736580
O O7 0.741340 0.648179 0.794232
O O8 0.745474 0.656639 0.692748
O O9 0.698848 0.629509 0.500000
O O10 0.500000 0.629628 0.427076
O O11 0.702345 0.500000 0.427757
O O12 0.770313 0.674501 0.407627
O O13 0.804971 0.176953 0.938461
O O14 0.747331 0.147305 0.843401
O O15 0.000000 0.101787 0.875965
O O16 0.779019 0.000000 0.908105
O O17 0.184514 0.500000 0.151434
O O18 0.235561 0.654634 0.104246
O O19 0.000000 0.640575 0.164498
O O20 0.000000 0.687249 0.945673
O O21 0.762002 0.681709 0.000000
O O22 0.000000 0.676173 0.348507
O O23 0.500000 0.153182 0.794332
O O24 0.338123 0.000000 0.794347
#
# Coordination Sequence:
#
# PCOD8199470 Si02
#       8
#     8   8   8   8   8   8   8   8
#     4   9  19  35  51  70 103 144 180 214 257 308
#     4  10  21  36  53  75 106 141 172 205 255 320
#     4   9  19  37  59  82 112 150 186 219 260 312
#     4   9  17  29  46  67  93 125 157 194 245 304
#     4   9  18  33  52  72  95 124 160 206 257 305
#     4   9  18  31  48  71  94 118 157 207 253 303
#     4  11  22  33  53  84 112 141 179 223 265 305
#     4   9  17  29  46  69  95 124 163 209 252 297
#
# _framework density 18.782029000000001
#
# number of rings (size 3 to 8) (size 9 to 14) (size 15 to 20)
#    0.000    2.625    0.000    1.875    1.750    5.750 
#    0.000    3.125    0.000    1.875    0.000    6.125 
#    0.000    0.000    0.000    0.000    0.000    0.000 
#
# Total GULP energy -793373.285775 kJ/mol
# GULP energy per Si atom -12396.457590 kJ/mol
# Density = 1.873928 g / cm^3
# Si number density = 18.782029 Si / 1000 Ang^3
#
#
#
# Elastic Constant Matrix: (Units=GPa)
#
#
# Indices 1 2 3 4 5 6 
#
# 1 87.2207 33.5435 54.1690 0.0000 0.0000 0.0000
# 2 33.5435 45.6275 48.7584 0.0000 0.0000 0.0000
# 3 54.1690 48.7584 121.1223 0.0000 0.0000 0.0000
# 4 0.0000 0.0000 0.0000 23.1950 0.0000 0.0000
# 5 0.0000 0.0000 0.0000 0.0000 11.6908 0.0000
# 6 0.0000 0.0000 0.0000 0.0000 0.0000 15.5553
#
#
#
# Elastic Compliance Matrix: (Units=1/GPa)
#
#
# Indices 1 2 3 4 5 6 
#
# 1 0.017332 -0.007825 -0.004602 0.000000 0.000000 0.000000
# 2 -0.007825 0.041995 -0.013406 0.000000 0.000000 0.000000
# 3 -0.004602 -0.013406 0.015711 0.000000 0.000000 0.000000
# 4 0.000000 0.000000 0.000000 0.043113 0.000000 0.000000
# 5 0.000000 0.000000 0.000000 0.000000 0.085537 0.000000
# 6 0.000000 0.000000 0.000000 0.000000 0.000000 0.064287
#
#
# Mechanical properties :
#
#
# Convention : Reuss Voigt Hill
#
# Bulk Modulus (GPa) = 42.78345 58.54582 50.66463
# Shear Modulus (GPa) = 15.27046 17.92152 16.59599
#
# Velocity S-wave (km/s) = 2.85447 3.09234 2.97578
# Velocity P-wave (km/s) = 5.80451 6.63242 6.23223
#
# Compressibility (1/GPa) = 0.02337352
#
# Stress axis : x y z
#
# Youngs Moduli (GPa) = 57.69607 23.81251 63.65114
#
# Poissons Ratio (x) = 0.18632 0.29289
# Poissons Ratio (y) = 0.45145 0.85330
# Poissons Ratio (z) = 0.26549 0.31923
#
# Static dielectric constant tensor:
#      x y z
#    x 3.414210 0.000000 0.000000 
#    y 0.000000 3.517290 0.000000 
#    z 0.000000 0.000000 3.402370 
# 
# 
# High freq. dielectric constant tensor:
#      x y z
#    x 1.713180 0.000000 0.000000 
#    y 0.000000 1.732790 0.000000 
#    z 0.000000 0.000000 1.714070 
# 
# From -- ./inp_files/7879.got.cif
#   From: 2010.03.12/outbox.cif.g09.slc.cpg/sg47_4_cif.got.tgz:7879.got - 2010.04.14 03:12:58.
