data_PCOD8199376
_publ_section_title
;
Structure prediction by ZEFSAII (Michael W. Deem and Ramdas Pophale) SiO2 
 PCOD8199376
Probable space group: P M M M
;
_chemical_formula_sum "Si O2"
_cell_formula_units_Z 48
_cell_length_a 8.884052
_cell_length_b 19.756278
_cell_length_c 15.072994
_cell_angle_alpha 90.000000
_cell_angle_beta 90.000000
_cell_angle_gamma 90.000000
_cell_volume 2645.548617
_symmetry_space_group_name_H-M "P M M M"
_symmetry_group_IT_number 47
_symmetry_cell_setting 'orthorhombic'
loop_
_space_group_symop_operation_xyz
x,y,z
-x,-y,z
x,-y,-z
-x,y,-z
-x,-y,-z
x,y,-z
-x,y,z
x,-y,z
loop_
_atom_site_type_symbol
_atom_site_label
_atom_site_fract_x
_atom_site_fract_y
_atom_site_fract_z
Si Si1 0.821973 0.078891 0.000000
Si Si2 0.171917 0.724289 0.599197
Si Si3 0.173622 0.421385 0.100664
Si Si4 0.822214 0.000000 0.594895
Si Si5 0.322990 0.312312 0.218057
Si Si6 0.171953 0.136195 0.318513
Si Si7 0.326141 0.171295 0.853324
O O1 0.769242 0.122500 0.916189
O O2 0.000000 0.075946 0.000000
O O3 0.761344 0.000000 0.000000
O O4 0.235294 0.705157 0.500000
O O5 0.257406 0.690017 0.681900
O O6 0.181627 0.805512 0.607579
O O7 0.000000 0.699816 0.605680
O O8 0.198912 0.500000 0.120961
O O9 0.272649 0.380848 0.170938
O O10 0.000000 0.401404 0.113338
O O11 0.224574 0.404832 0.000000
O O12 0.768955 0.933591 0.643829
O O13 0.742872 0.000000 0.500000
O O14 0.000000 0.000000 0.584738
O O15 0.500000 0.310858 0.229955
O O16 0.273457 0.250424 0.151886
O O17 0.297809 0.146803 0.245171
O O18 0.000000 0.132270 0.280883
O O19 0.500000 0.165245 0.881160
#
# Coordination Sequence:
#
# PCOD8199376 Si02
#       7
#     4   8   8   4   8   8   8
#     4  11  25  41  57  75  96 129 180 231 275 320
#     4   9  17  31  52  76 103 139 183 226 268 314
#     4   9  19  36  58  85 115 146 180 218 263 314
#     4   9  16  26  45  72  97 122 157 209 266 311
#     4  10  21  35  54  82 114 146 180 218 263 320
#     4   9  17  30  49  72  99 129 169 217 262 313
#     4  10  22  38  53  74 104 138 174 214 265 319
#
# _framework density 18.143684
#
# number of rings (size 3 to 8) (size 9 to 14) (size 15 to 20)
#    0.000    2.500    0.000    2.250    2.333    5.667 
#    0.000    0.833    0.000    2.500    0.000    3.500 
#    0.000    0.000    0.000    0.000    0.000    0.000 
#
# Total GULP energy -594717.897696 kJ/mol
# GULP energy per Si atom -12389.956202 kJ/mol
# Density = 1.810239 g / cm^3
# Si number density = 18.143684 Si / 1000 Ang^3
#
#
#
# Elastic Constant Matrix: (Units=GPa)
#
#
# Indices 1 2 3 4 5 6 
#
# 1 47.6289 31.8006 37.7816 0.0000 0.0000 0.0000
# 2 31.8006 91.3733 57.1488 0.0000 0.0000 0.0000
# 3 37.7816 57.1488 107.0427 0.0000 0.0000 0.0000
# 4 0.0000 0.0000 0.0000 29.6080 0.0000 0.0000
# 5 0.0000 0.0000 0.0000 0.0000 -28.5959 0.0000
# 6 0.0000 0.0000 0.0000 0.0000 0.0000 17.9566
#
#
#
# Elastic Compliance Matrix: (Units=1/GPa)
#
#
# Indices 1 2 3 4 5 6 
#
# 1 0.031180 -0.005958 -0.007825 0.000000 0.000000 0.000000
# 2 -0.005958 0.017569 -0.007277 0.000000 0.000000 0.000000
# 3 -0.007825 -0.007277 0.015989 0.000000 0.000000 0.000000
# 4 0.000000 0.000000 0.000000 0.033775 0.000000 0.000000
# 5 0.000000 0.000000 0.000000 0.000000 -0.034970 0.000000
# 6 0.000000 0.000000 0.000000 0.000000 0.000000 0.055690
#
#
# Mechanical properties :
#
#
# Convention : Reuss Voigt Hill
#
# Bulk Modulus (GPa) = 44.20972 55.50076 49.85524
# Shear Modulus (GPa) = 29.60485 11.74801 20.67643
#
# Velocity S-wave (km/s) = 4.04380 2.54736 3.37945
# Velocity P-wave (km/s) = 6.79871 6.26961 6.53951
#
# Compressibility (1/GPa) = 0.02261946
#
# Stress axis : x y z
#
# Youngs Moduli (GPa) = 32.07148 56.91857 62.54347
#
# Poissons Ratio (x) = 0.33911 0.48937
# Poissons Ratio (y) = 0.19108 0.45513
# Poissons Ratio (z) = 0.25094 0.41420
#
# Static dielectric constant tensor:
#      x y z
#    x 3.170680 0.000000 0.000000 
#    y 0.000000 3.394200 0.000000 
#    z 0.000000 0.000000 3.480410 
# 
# 
# High freq. dielectric constant tensor:
#      x y z
#    x 1.689490 0.000000 0.000000 
#    y 0.000000 1.694880 0.000000 
#    z 0.000000 0.000000 1.705130 
# 
# From -- ./inp_files/9171.got.cif
#   From: 2010.03.12/outbox.cif.g09.slc.cpg/sg47_5_cif.got.tgz:9171.got - 2010.04.14 03:12:58.
