data_PCOD8199613
_publ_section_title
;
Structure prediction by ZEFSAII (Michael W. Deem and Ramdas Pophale) SiO2 
 PCOD8199613
Probable space group: P M M M
;
_chemical_formula_sum "Si O2"
_cell_formula_units_Z 40
_cell_length_a 8.730802
_cell_length_b 11.866580
_cell_length_c 20.501415
_cell_angle_alpha 90.000000
_cell_angle_beta 90.000000
_cell_angle_gamma 90.000000
_cell_volume 2124.044189
_symmetry_space_group_name_H-M "P M M M"
_symmetry_group_IT_number 47
_symmetry_cell_setting 'orthorhombic'
loop_
_space_group_symop_operation_xyz
x,y,z
-x,-y,z
x,-y,-z
-x,y,-z
-x,-y,-z
x,y,-z
-x,y,z
x,-y,z
loop_
_atom_site_type_symbol
_atom_site_label
_atom_site_fract_x
_atom_site_fract_y
_atom_site_fract_z
Si Si1 0.822436 0.500000 0.370944
Si Si2 0.321927 0.870370 0.307745
Si Si3 0.319839 0.500000 0.769771
Si Si4 0.819026 0.730918 0.192395
Si Si5 0.675202 0.715366 0.426469
Si Si6 0.818058 0.873967 0.072117
O O1 0.724025 0.500000 0.305633
O O2 0.784631 0.609993 0.412880
O O3 0.000000 0.500000 0.351818
O O4 0.500000 0.857471 0.289686
O O5 0.222829 0.804130 0.255181
O O6 0.286274 0.818819 0.378721
O O7 0.270360 0.000000 0.308674
O O8 0.500000 0.500000 0.775387
O O9 0.255581 0.608841 0.805978
O O10 0.753115 0.791152 0.127457
O O11 0.000000 0.716777 0.190035
O O12 0.704100 0.758177 0.500000
O O13 0.500000 0.675480 0.416795
O O14 0.000000 0.876374 0.075707
O O15 0.754955 0.000000 0.085340
O O16 0.765137 0.833010 0.000000
#
# Coordination Sequence:
#
# PCOD8199613 Si02
#       6
#     4   8   4   8   8   8
#     4  12  23  37  58  84 109 139 182 236 287 334
#     4  10  21  36  55  80 112 151 189 226 273 330
#     4  12  24  39  58  79 110 149 184 227 282 342
#     4  11  21  35  58  87 113 143 186 235 280 324
#     4  10  21  37  57  80 110 150 190 227 273 332
#     4   8  15  30  54  85 119 151 182 220 268 320
#
# _framework density 18.832001999999999
#
# number of rings (size 3 to 8) (size 9 to 14) (size 15 to 20)
#    0.000    1.800    2.000    3.900    0.000    3.200 
#    0.000    2.500    0.000    5.400    0.000    9.800 
#    0.000    0.000    0.000    0.000    0.000    0.000 
#
# Total GULP energy -496073.870918 kJ/mol
# GULP energy per Si atom -12401.846773 kJ/mol
# Density = 1.878914 g / cm^3
# Si number density = 18.832002 Si / 1000 Ang^3
#
#
#
# Elastic Constant Matrix: (Units=GPa)
#
#
# Indices 1 2 3 4 5 6 
#
# 1 69.8552 45.9773 36.8609 0.0000 0.0000 0.0000
# 2 45.9773 152.0655 80.2111 0.0000 0.0000 0.0000
# 3 36.8609 80.2111 159.7734 0.0000 0.0000 0.0000
# 4 0.0000 0.0000 0.0000 38.8063 0.0000 0.0000
# 5 0.0000 0.0000 0.0000 0.0000 2.5196 0.0000
# 6 0.0000 0.0000 0.0000 0.0000 0.0000 22.2196
#
#
#
# Elastic Compliance Matrix: (Units=1/GPa)
#
#
# Indices 1 2 3 4 5 6 
#
# 1 0.018315 -0.004501 -0.001966 0.000000 0.000000 0.000000
# 2 -0.004501 0.010051 -0.004007 0.000000 0.000000 0.000000
# 3 -0.001966 -0.004007 0.008724 0.000000 0.000000 0.000000
# 4 0.000000 0.000000 0.000000 0.025769 0.000000 0.000000
# 5 0.000000 0.000000 0.000000 0.000000 0.396889 0.000000
# 6 0.000000 0.000000 0.000000 0.000000 0.000000 0.045005
#
#
# Mechanical properties :
#
#
# Convention : Reuss Voigt Hill
#
# Bulk Modulus (GPa) = 61.95037 78.64364 70.29700
# Shear Modulus (GPa) = 9.41474 27.28542 18.35008
#
# Velocity S-wave (km/s) = 2.23834 3.81055 3.12494
# Velocity P-wave (km/s) = 6.29666 7.82379 7.10140
#
# Compressibility (1/GPa) = 0.01614195
#
# Stress axis : x y z
#
# Youngs Moduli (GPa) = 54.60040 99.49560 114.62251
#
# Poissons Ratio (x) = 0.44778 0.22535
# Poissons Ratio (y) = 0.24573 0.45934
# Poissons Ratio (z) = 0.10734 0.39872
#
# Static dielectric constant tensor:
#      x y z
#    x 3.266520 0.000000 0.000000 
#    y 0.000000 3.613790 0.000000 
#    z 0.000000 0.000000 3.683380 
# 
# 
# High freq. dielectric constant tensor:
#      x y z
#    x 1.712830 0.000000 0.000000 
#    y 0.000000 1.733810 0.000000 
#    z 0.000000 0.000000 1.738400 
# 
# From -- ./inp_files/18942.got.cif
#   From: 2010.03.12/outbox.cif.g09.slc.cpg/sg47_10_cif.got.tgz:18942.got - 2010.04.14 03:12:58.
