data_PCOD8199195
_publ_section_title
;
Structure prediction by ZEFSAII (Michael W. Deem and Ramdas Pophale) SiO2 
 PCOD8199195
Probable space group: P M M M
;
_chemical_formula_sum "Si O2"
_cell_formula_units_Z 48
_cell_length_a 34.567562
_cell_length_b 7.594002
_cell_length_c 9.278064
_cell_angle_alpha 90.000000
_cell_angle_beta 90.000000
_cell_angle_gamma 90.000000
_cell_volume 2435.548721
_symmetry_space_group_name_H-M "P M M M"
_symmetry_group_IT_number 47
_symmetry_cell_setting 'orthorhombic'
loop_
_space_group_symop_operation_xyz
x,y,z
-x,-y,z
x,-y,-z
-x,y,-z
-x,-y,-z
x,y,-z
-x,y,z
x,-y,z
loop_
_atom_site_type_symbol
_atom_site_label
_atom_site_fract_x
_atom_site_fract_y
_atom_site_fract_z
Si Si1 0.040893 0.302947 0.171292
Si Si2 0.410278 0.500000 0.328277
Si Si3 0.729767 0.797615 0.833478
Si Si4 0.876433 0.290991 0.839002
Si Si5 0.454865 0.202337 0.165071
Si Si6 0.669282 0.500000 0.167100
Si Si7 0.802428 0.203951 0.341900
O O1 0.039177 0.500000 0.233909
O O2 0.081835 0.214507 0.219552
O O3 0.000000 0.207214 0.218819
O O4 0.042698 0.310030 0.000000
O O5 0.410824 0.500000 0.500000
O O6 0.431255 0.324911 0.272416
O O7 0.366789 0.500000 0.272402
O O8 0.693213 0.676344 0.796776
O O9 0.766749 0.718258 0.749123
O O10 0.719696 0.000000 0.792181
O O11 0.740973 0.782267 0.000000
O O12 0.879244 0.500000 0.843145
O O13 0.843294 0.230766 0.732885
O O14 0.867442 0.218973 0.000000
O O15 0.500000 0.236622 0.190426
O O16 0.444354 0.000000 0.198999
O O17 0.443903 0.247681 0.000000
O O18 0.656178 0.500000 0.000000
O O19 0.803348 0.293438 0.500000
O O20 0.794344 0.000000 0.357708
#
# Coordination Sequence:
#
# PCOD8199195 Si02
#       7
#     8   4   8   8   8   4   8
#     4   7  10  19  37  62  91 119 148 188 238 287
#     4  12  25  37  54  87 128 164 196 237 295 356
#     4   9  19  37  59  80 102 132 175 228 279 323
#     4   9  17  28  46  73  98 121 155 199 245 294
#     4   9  19  38  64  90 117 157 209 258 300 343
#     4  10  22  39  59  82 108 145 193 235 274 332
#     4  10  21  35  50  70  98 131 163 199 250 310
#
# _framework density 19.708086000000002
#
# number of rings (size 3 to 8) (size 9 to 14) (size 15 to 20)
#    0.000    2.833    0.000    3.500    1.167    4.333 
#    0.000    2.500    0.000    1.000    0.000    5.833 
#    0.000    0.000    0.000    0.000    0.000    0.000 
#
# Total GULP energy -594681.020378 kJ/mol
# GULP energy per Si atom -12389.187925 kJ/mol
# Density = 1.966323 g / cm^3
# Si number density = 19.708086 Si / 1000 Ang^3
#
#
#
# Elastic Constant Matrix: (Units=GPa)
#
#
# Indices 1 2 3 4 5 6 
#
# 1 160.7553 54.6839 89.0409 0.0000 0.0000 0.0000
# 2 54.6839 73.2001 43.3940 0.0000 0.0000 0.0000
# 3 89.0409 43.3940 119.3893 0.0000 0.0000 0.0000
# 4 0.0000 0.0000 0.0000 10.4950 0.0000 0.0000
# 5 0.0000 0.0000 0.0000 0.0000 21.9811 0.0000
# 6 0.0000 0.0000 0.0000 0.0000 0.0000 276.0151
#
#
#
# Elastic Compliance Matrix: (Units=1/GPa)
#
#
# Indices 1 2 3 4 5 6 
#
# 1 0.011672 -0.004537 -0.007056 0.000000 0.000000 0.000000
# 2 -0.004537 0.019176 -0.003587 0.000000 0.000000 0.000000
# 3 -0.007056 -0.003587 0.014942 0.000000 0.000000 0.000000
# 4 0.000000 0.000000 0.000000 0.095283 0.000000 0.000000
# 5 0.000000 0.000000 0.000000 0.000000 0.045494 0.000000
# 6 0.000000 0.000000 0.000000 0.000000 0.000000 0.003623
#
#
# Mechanical properties :
#
#
# Convention : Reuss Voigt Hill
#
# Bulk Modulus (GPa) = 64.80093 80.84246 72.82170
# Shear Modulus (GPa) = 22.15395 72.77999 47.46697
#
# Velocity S-wave (km/s) = 3.35640 6.08352 4.91297
# Velocity P-wave (km/s) = 6.92621 9.51076 8.31946
#
# Compressibility (1/GPa) = 0.01543188
#
# Stress axis : x y z
#
# Youngs Moduli (GPa) = 85.67302 52.14739 66.92481
#
# Poissons Ratio (x) = 0.23658 0.47224
# Poissons Ratio (y) = 0.38867 0.24003
# Poissons Ratio (z) = 0.60453 0.18703
#
# Static dielectric constant tensor:
#      x y z
#    x 3.914480 0.000000 0.000000 
#    y 0.000000 3.540360 0.000000 
#    z 0.000000 0.000000 -9.468210 
# 
# 
# High freq. dielectric constant tensor:
#      x y z
#    x 1.781230 0.000000 0.000000 
#    y 0.000000 1.755560 0.000000 
#    z 0.000000 0.000000 1.734000 
# 
# From -- ./inp_files/13991.got.cif
#   From: 2010.03.12/outbox.cif.g09.slc.cpg/sg47_7_cif.got.tgz:13991.got - 2010.04.14 03:12:58.
