data_PCOD8199123
_publ_section_title
;
Structure prediction by ZEFSAII (Michael W. Deem and Ramdas Pophale) SiO2 
 PCOD8199123
Probable space group: P M M M
;
_chemical_formula_sum "Si O2"
_cell_formula_units_Z 36
_cell_length_a 24.417924
_cell_length_b 9.425432
_cell_length_c 7.749102
_cell_angle_alpha 90.000000
_cell_angle_beta 90.000000
_cell_angle_gamma 90.000000
_cell_volume 1783.451813
_symmetry_space_group_name_H-M "P M M M"
_symmetry_group_IT_number 47
_symmetry_cell_setting 'orthorhombic'
loop_
_space_group_symop_operation_xyz
x,y,z
-x,-y,z
x,-y,-z
-x,y,-z
-x,-y,-z
x,y,-z
-x,y,z
x,-y,z
loop_
_atom_site_type_symbol
_atom_site_label
_atom_site_fract_x
_atom_site_fract_y
_atom_site_fract_z
Si Si1 0.438510 0.840678 0.703508
Si Si2 0.338745 0.344505 0.198550
Si Si3 0.935286 0.336515 0.000000
Si Si4 0.119689 0.164931 0.695800
Si Si5 0.760234 0.838919 0.203409
O O1 0.432522 0.833406 0.500000
O O2 0.500000 0.797507 0.759602
O O3 0.396772 0.732310 0.787925
O O4 0.425652 0.000000 0.768732
O O5 0.342123 0.500000 0.286771
O O6 0.289101 0.255146 0.282457
O O7 0.324368 0.362085 0.000000
O O8 0.914217 0.261085 0.826938
O O9 0.915554 0.500000 0.000000
O O10 0.000000 0.325785 0.000000
O O11 0.099142 0.192583 0.500000
O O12 0.183562 0.206425 0.705350
O O13 0.111854 0.000000 0.747498
O O14 0.744869 0.000000 0.248709
O O15 0.768231 0.818222 0.000000
#
# Coordination Sequence:
#
# PCOD8199123 Si02
#       5
#     8   8   4   8   8
#     4   9  19  36  55  73  96 132 181 234 284 335
#     4  10  21  34  50  78 113 145 179 222 275 337
#     4  11  25  43  63  89 127 171 206 245 298 355
#     4  10  21  39  65  95 123 156 204 257 305 354
#     4   9  17  33  56  81 113 150 188 233 287 344
#
# _framework density 20.185573999999999
#
# number of rings (size 3 to 8) (size 9 to 14) (size 15 to 20)
#    0.000    2.333    1.111    1.667    0.000    6.222 
#    0.000    7.778    0.000    0.000    0.000    0.000 
#    0.000    0.000    0.000    0.000    0.000    0.000 
#
# Total GULP energy -446347.204038 kJ/mol
# GULP energy per Si atom -12398.533445 kJ/mol
# Density = 2.013963 g / cm^3
# Si number density = 20.185574 Si / 1000 Ang^3
#
#
#
# Elastic Constant Matrix: (Units=GPa)
#
#
# Indices 1 2 3 4 5 6 
#
# 1 113.3440 83.5085 40.8029 0.0000 0.0000 0.0000
# 2 83.5085 142.5207 43.7978 0.0000 0.0000 0.0000
# 3 40.8029 43.7978 64.4088 0.0000 0.0000 0.0000
# 4 0.0000 0.0000 0.0000 16.6145 0.0000 0.0000
# 5 0.0000 0.0000 0.0000 0.0000 -0.8534 0.0000
# 6 0.0000 0.0000 0.0000 0.0000 0.0000 17.1685
#
#
#
# Elastic Compliance Matrix: (Units=1/GPa)
#
#
# Indices 1 2 3 4 5 6 
#
# 1 0.016691 -0.008255 -0.004960 0.000000 0.000000 0.000000
# 2 -0.008255 0.012953 -0.003578 0.000000 0.000000 0.000000
# 3 -0.004960 -0.003578 0.021101 0.000000 0.000000 0.000000
# 4 0.000000 0.000000 0.000000 0.060188 0.000000 0.000000
# 5 0.000000 0.000000 0.000000 0.000000 -1.171822 0.000000
# 6 0.000000 0.000000 0.000000 0.000000 0.000000 0.058246
#
#
# Mechanical properties :
#
#
# Convention : Reuss Voigt Hill
#
# Bulk Modulus (GPa) = 58.28259 72.94355 65.61307
# Shear Modulus (GPa) = -5.19030 16.73021 5.76996
#
# Velocity S-wave (km/s) = -1.60526 2.88205 1.69253
# Velocity P-wave (km/s) = 5.04978 6.87676 6.03283
#
# Compressibility (1/GPa) = 0.01715778
#
# Stress axis : x y z
#
# Youngs Moduli (GPa) = 59.91408 77.19966 47.39073
#
# Poissons Ratio (x) = 0.63732 0.23505
# Poissons Ratio (y) = 0.49462 0.16959
# Poissons Ratio (z) = 0.29716 0.27625
#
# Static dielectric constant tensor:
#      x y z
#    x 3.749650 0.000000 0.000000 
#    y 0.000000 3.956960 0.000000 
#    z 0.000000 0.000000 3.531580 
# 
# 
# High freq. dielectric constant tensor:
#      x y z
#    x 1.789720 0.000000 0.000000 
#    y 0.000000 1.783810 0.000000 
#    z 0.000000 0.000000 1.778650 
# 
# From -- ./inp_files/12050.got.cif
#   From: 2010.03.12/outbox.cif.g09.slc.cpg/sg47_7_cif.got.tgz:12050.got - 2010.04.14 03:12:58.
