data_PCOD8199296
_publ_section_title
;
Structure prediction by ZEFSAII (Michael W. Deem and Ramdas Pophale) SiO2 
 PCOD8199296
Probable space group: P M M M
;
_chemical_formula_sum "Si O2"
_cell_formula_units_Z 64
_cell_length_a 9.560371
_cell_length_b 9.407121
_cell_length_c 40.727289
_cell_angle_alpha 90.000000
_cell_angle_beta 90.000000
_cell_angle_gamma 90.000000
_cell_volume 3662.831821
_symmetry_space_group_name_H-M "P M M M"
_symmetry_group_IT_number 47
_symmetry_cell_setting 'orthorhombic'
loop_
_space_group_symop_operation_xyz
x,y,z
-x,-y,z
x,-y,-z
-x,y,-z
-x,-y,-z
x,y,-z
-x,y,z
x,-y,z
loop_
_atom_site_type_symbol
_atom_site_label
_atom_site_fract_x
_atom_site_fract_y
_atom_site_fract_z
Si Si1 0.662168 0.835605 0.347535
Si Si2 0.161015 0.161755 0.538196
Si Si3 0.666376 0.340443 0.036358
Si Si4 0.337543 0.335087 0.840748
Si Si5 0.336677 0.335005 0.411423
Si Si6 0.333371 0.840078 0.903452
Si Si7 0.838550 0.834997 0.714752
Si Si8 0.161279 0.665091 0.221708
O O1 0.500000 0.809686 0.339671
O O2 0.712610 0.743834 0.378438
O O3 0.749327 0.782649 0.316251
O O4 0.693458 0.000000 0.355499
O O5 0.185146 0.192351 0.500000
O O6 0.255727 0.271427 0.557781
O O7 0.000000 0.186826 0.547704
O O8 0.204501 0.000000 0.546666
O O9 0.500000 0.340217 0.038106
O O10 0.721135 0.500000 0.043333
O O11 0.728285 0.234778 0.063843
O O12 0.715137 0.290292 0.000000
O O13 0.500000 0.305657 0.833752
O O14 0.309904 0.500000 0.848596
O O15 0.281664 0.245529 0.871611
O O16 0.251922 0.283430 0.809136
O O17 0.500000 0.309763 0.417639
O O18 0.299544 0.500000 0.407860
O O19 0.500000 0.839547 0.904688
O O20 0.274504 0.000000 0.901861
O O21 0.786213 0.749964 0.746518
O O22 0.000000 0.802078 0.707092
O O23 0.812451 0.000000 0.721888
O O24 0.185909 0.500000 0.228937
O O25 0.000000 0.699070 0.213935
#
# Coordination Sequence:
#
# PCOD8199296 Si02
#       8
#     8   8   8   8   8   8   8   8
#     4   9  18  33  51  70  95 128 163 197 234 278
#     4   9  19  36  56  77 101 131 169 210 249 291
#     4   8  13  21  33  49  72 106 144 176 210 257
#     4   9  17  29  44  61  83 113 146 177 213 260
#     4  10  21  35  51  75 106 136 166 202 245 291
#     4   9  16  24  35  54  80 108 139 178 220 257
#     4   9  18  32  49  69  92 118 149 186 229 275
#     4   9  18  32  48  66  89 116 146 182 223 266
#
# _framework density 17.472819999999999
#
# number of rings (size 3 to 8) (size 9 to 14) (size 15 to 20)
#    0.000    3.000    0.000    1.500    0.000    5.250 
#    0.000    4.375    0.000    0.000    0.000    0.000 
#    0.000    0.500    0.000    5.750    0.000    7.375 
#
# Total GULP energy -793611.362837 kJ/mol
# GULP energy per Si atom -12400.177544 kJ/mol
# Density = 1.743305 g / cm^3
# Si number density = 17.472820 Si / 1000 Ang^3
#
#
#
# Elastic Constant Matrix: (Units=GPa)
#
#
# Indices 1 2 3 4 5 6 
#
# 1 40.6330 36.7384 54.1605 0.0000 0.0000 0.0000
# 2 36.7384 99.2227 84.6511 0.0000 0.0000 0.0000
# 3 54.1605 84.6511 155.1010 0.0000 0.0000 0.0000
# 4 0.0000 0.0000 0.0000 36.7069 0.0000 0.0000
# 5 0.0000 0.0000 0.0000 0.0000 2.6528 0.0000
# 6 0.0000 0.0000 0.0000 0.0000 0.0000 18.5980
#
#
#
# Elastic Compliance Matrix: (Units=1/GPa)
#
#
# Indices 1 2 3 4 5 6 
#
# 1 0.048196 -0.006525 -0.013269 0.000000 0.000000 0.000000
# 2 -0.006525 0.019744 -0.008497 0.000000 0.000000 0.000000
# 3 -0.013269 -0.008497 0.015718 0.000000 0.000000 0.000000
# 4 0.000000 0.000000 0.000000 0.027243 0.000000 0.000000
# 5 0.000000 0.000000 0.000000 0.000000 0.376959 0.000000
# 6 0.000000 0.000000 0.000000 0.000000 0.000000 0.053769
#
#
# Mechanical properties :
#
#
# Convention : Reuss Voigt Hill
#
# Bulk Modulus (GPa) = 36.93258 71.78409 54.35834
# Shear Modulus (GPa) = 8.23402 19.55198 13.89300
#
# Velocity S-wave (km/s) = 2.17318 3.34877 2.82285
# Velocity P-wave (km/s) = 5.24214 7.49165 6.46548
#
# Compressibility (1/GPa) = 0.02707636
#
# Stress axis : x y z
#
# Youngs Moduli (GPa) = 20.74844 50.64916 63.62030
#
# Poissons Ratio (x) = 0.33050 0.84415
# Poissons Ratio (y) = 0.13539 0.54059
# Poissons Ratio (z) = 0.27530 0.43037
#
# Static dielectric constant tensor:
#      x y z
#    x 2.940370 0.000000 0.000000 
#    y 0.000000 3.298420 0.000000 
#    z 0.000000 0.000000 3.385720 
# 
# 
# High freq. dielectric constant tensor:
#      x y z
#    x 1.639410 0.000000 0.000000 
#    y 0.000000 1.674480 0.000000 
#    z 0.000000 0.000000 1.685170 
# 
# From -- ./inp_files/34594.got.cif
#   From: 2010.03.12/outbox.cif.g09.slc.cpg/sg47_18_cif.got.tgz:34594.got - 2010.04.14 03:12:58.
