data_PCOD8199503
_publ_section_title
;
Structure prediction by ZEFSAII (Michael W. Deem and Ramdas Pophale) SiO2 
 PCOD8199503
Probable space group: P M M M
;
_chemical_formula_sum "Si O2"
_cell_formula_units_Z 52
_cell_length_a 9.095610
_cell_length_b 21.507398
_cell_length_c 14.033374
_cell_angle_alpha 90.000000
_cell_angle_beta 90.000000
_cell_angle_gamma 90.000000
_cell_volume 2745.249379
_symmetry_space_group_name_H-M "P M M M"
_symmetry_group_IT_number 47
_symmetry_cell_setting 'orthorhombic'
loop_
_space_group_symop_operation_xyz
x,y,z
-x,-y,z
x,-y,-z
-x,y,-z
-x,-y,-z
x,y,-z
-x,y,z
x,-y,z
loop_
_atom_site_type_symbol
_atom_site_label
_atom_site_fract_x
_atom_site_fract_y
_atom_site_fract_z
Si Si1 0.674715 0.000000 0.607063
Si Si2 0.329401 0.430540 0.229939
Si Si3 0.326841 0.686636 0.109532
Si Si4 0.171945 0.634821 0.607523
Si Si5 0.827471 0.755261 0.726501
Si Si6 0.832989 0.072249 0.107661
Si Si7 0.673510 0.120836 0.720011
O O1 0.732286 0.062025 0.659341
O O2 0.500000 0.000000 0.608180
O O3 0.736949 0.000000 0.500000
O O4 0.500000 0.423646 0.252721
O O5 0.290259 0.500000 0.194061
O O6 0.282450 0.381989 0.147789
O O7 0.246937 0.418041 0.329039
O O8 0.500000 0.698430 0.120226
O O9 0.241873 0.738432 0.170770
O O10 0.276284 0.691448 0.000000
O O11 0.233458 0.631562 0.500000
O O12 0.209273 0.702311 0.650008
O O13 0.000000 0.621981 0.609496
O O14 0.753554 0.817164 0.683351
O O15 0.000000 0.765623 0.740493
O O16 0.718494 0.110763 0.170378
O O17 0.000000 0.084460 0.142042
O O18 0.794142 0.000000 0.115462
O O19 0.813028 0.095542 0.000000
O O20 0.500000 0.129343 0.710890
#
# Coordination Sequence:
#
# PCOD8199503 Si02
#       7
#     4   8   8   8   8   8   8
#     4   9  20  38  56  77 106 136 167 207 258 315
#     4   9  18  32  51  79 112 141 172 213 260 309
#     4   9  18  34  55  78 106 141 180 218 254 300
#     4   9  19  36  55  74 100 136 177 220 264 310
#     4  10  21  36  54  76 103 136 173 218 266 311
#     4   9  18  33  53  76 103 134 165 201 249 303
#     4  11  21  35  56  80 105 136 172 213 260 311
#
# _framework density 18.941814000000001
#
# number of rings (size 3 to 8) (size 9 to 14) (size 15 to 20)
#    0.000    2.538    0.769    1.385    0.000    3.692 
#    0.000    3.846    0.000    3.231    0.000    4.308 
#    0.000    0.000    0.000    0.000    0.000    0.000 
#
# Total GULP energy -644841.179184 kJ/mol
# GULP energy per Si atom -12400.791907 kJ/mol
# Density = 1.889870 g / cm^3
# Si number density = 18.941814 Si / 1000 Ang^3
#
#
#
# Elastic Constant Matrix: (Units=GPa)
#
#
# Indices 1 2 3 4 5 6 
#
# 1 48.5307 30.2333 24.5325 0.0000 0.0000 0.0000
# 2 30.2333 104.0193 26.0466 0.0000 0.0000 0.0000
# 3 24.5325 26.0466 95.0034 0.0000 0.0000 0.0000
# 4 0.0000 0.0000 0.0000 15.3071 0.0000 0.0000
# 5 0.0000 0.0000 0.0000 0.0000 25.3315 0.0000
# 6 0.0000 0.0000 0.0000 0.0000 0.0000 29.2138
#
#
#
# Elastic Compliance Matrix: (Units=1/GPa)
#
#
# Indices 1 2 3 4 5 6 
#
# 1 0.027404 -0.006649 -0.005253 0.000000 0.000000 0.000000
# 2 -0.006649 0.011936 -0.001555 0.000000 0.000000 0.000000
# 3 -0.005253 -0.001555 0.012309 0.000000 0.000000 0.000000
# 4 0.000000 0.000000 0.000000 0.065329 0.000000 0.000000
# 5 0.000000 0.000000 0.000000 0.000000 0.039477 0.000000
# 6 0.000000 0.000000 0.000000 0.000000 0.000000 0.034230
#
#
# Mechanical properties :
#
#
# Convention : Reuss Voigt Hill
#
# Bulk Modulus (GPa) = 40.43330 45.46424 42.94877
# Shear Modulus (GPa) = 22.13915 25.08654 23.61285
#
# Velocity S-wave (km/s) = 3.42248 3.64318 3.53455
# Velocity P-wave (km/s) = 6.08360 6.46151 6.27540
#
# Compressibility (1/GPa) = 0.02473209
#
# Stress axis : x y z
#
# Youngs Moduli (GPa) = 36.49168 83.78225 81.24211
#
# Poissons Ratio (x) = 0.55710 0.42679
# Poissons Ratio (y) = 0.24265 0.12635
# Poissons Ratio (z) = 0.19170 0.13031
#
# Static dielectric constant tensor:
#      x y z
#    x 3.320440 0.000000 0.000000 
#    y 0.000000 3.573100 0.000000 
#    z 0.000000 0.000000 3.514230 
# 
# 
# High freq. dielectric constant tensor:
#      x y z
#    x 1.724660 0.000000 0.000000 
#    y 0.000000 1.740360 0.000000 
#    z 0.000000 0.000000 1.729750 
# 
# From -- ./inp_files/21434.got.cif
#   From: 2010.03.12/outbox.cif.g09.slc.cpg/sg47_11_cif.got.tgz:21434.got - 2010.04.14 03:12:58.
