data_PCOD8199464
_publ_section_title
;
Structure prediction by ZEFSAII (Michael W. Deem and Ramdas Pophale) SiO2 
 PCOD8199464
Probable space group: P M M M
;
_chemical_formula_sum "Si O2"
_cell_formula_units_Z 64
_cell_length_a 9.085719
_cell_length_b 40.417364
_cell_length_c 9.759036
_cell_angle_alpha 90.000000
_cell_angle_beta 90.000000
_cell_angle_gamma 90.000000
_cell_volume 3583.721124
_symmetry_space_group_name_H-M "P M M M"
_symmetry_group_IT_number 47
_symmetry_cell_setting 'orthorhombic'
loop_
_space_group_symop_operation_xyz
x,y,z
-x,-y,z
x,-y,-z
-x,y,-z
-x,-y,-z
x,y,-z
-x,y,z
x,-y,z
loop_
_atom_site_type_symbol
_atom_site_label
_atom_site_fract_x
_atom_site_fract_y
_atom_site_fract_z
Si Si1 0.168197 0.910643 0.160623
Si Si2 0.824886 0.162776 0.847959
Si Si3 0.670466 0.410656 0.157892
Si Si4 0.673803 0.962914 0.653652
Si Si5 0.170674 0.778631 0.658138
Si Si6 0.172271 0.656741 0.841117
Si Si7 0.327763 0.288703 0.658965
Si Si8 0.168178 0.538415 0.657435
O O1 0.228848 0.873822 0.196439
O O2 0.261971 0.937398 0.239428
O O3 0.000000 0.914100 0.207651
O O4 0.184311 0.917300 0.000000
O O5 0.766018 0.190327 0.743064
O O6 0.000000 0.162309 0.849739
O O7 0.765763 0.171426 0.000000
O O8 0.500000 0.403202 0.186214
O O9 0.762810 0.378619 0.201588
O O10 0.721184 0.441455 0.247930
O O11 0.699136 0.419748 0.000000
O O12 0.726039 0.953781 0.500000
O O13 0.500000 0.961153 0.663052
O O14 0.727676 0.000000 0.690614
O O15 0.193636 0.787480 0.500000
O O16 0.263478 0.746746 0.701569
O O17 0.000000 0.771556 0.691827
O O18 0.249238 0.684094 0.749837
O O19 0.000000 0.656579 0.809493
O O20 0.205393 0.664399 0.000000
O O21 0.294287 0.296201 0.500000
O O22 0.500000 0.288967 0.690416
O O23 0.195778 0.548250 0.500000
O O24 0.202616 0.500000 0.680361
O O25 0.000000 0.546303 0.698529
#
# Coordination Sequence:
#
# PCOD8199464 Si02
#       8
#     8   8   8   8   8   8   8   8
#     4   9  18  32  50  74 102 129 160 201 247 294
#     4   8  15  29  48  70  97 127 159 198 243 290
#     4  10  21  36  54  78 108 139 171 210 257 308
#     4   9  19  35  51  68  94 128 165 204 246 294
#     4   9  17  30  49  72  97 127 165 205 242 285
#     4  10  21  37  57  79 102 132 172 214 255 301
#     4  10  21  36  53  75 105 138 169 204 250 301
#     4   9  19  36  56  78 105 138 177 218 257 300
#
# _framework density 17.858533000000001
#
# number of rings (size 3 to 8) (size 9 to 14) (size 15 to 20)
#    0.000    2.750    0.000    2.625    0.000    5.500 
#    0.000    6.875    0.000    2.250    0.000    0.000 
#    0.000    0.000    0.000    0.000    0.000    0.000 
#
# Total GULP energy -793600.960784 kJ/mol
# GULP energy per Si atom -12400.015012 kJ/mol
# Density = 1.781789 g / cm^3
# Si number density = 17.858533 Si / 1000 Ang^3
#
#
#
# Elastic Constant Matrix: (Units=GPa)
#
#
# Indices 1 2 3 4 5 6 
#
# 1 70.3706 56.1435 42.9608 0.0000 0.0000 0.0000
# 2 56.1435 132.6067 75.2059 0.0000 0.0000 0.0000
# 3 42.9608 75.2059 75.9339 0.0000 0.0000 0.0000
# 4 0.0000 0.0000 0.0000 42.1247 0.0000 0.0000
# 5 0.0000 0.0000 0.0000 0.0000 29.4568 0.0000
# 6 0.0000 0.0000 0.0000 0.0000 0.0000 -148.7343
#
#
#
# Elastic Compliance Matrix: (Units=1/GPa)
#
#
# Indices 1 2 3 4 5 6 
#
# 1 0.023318 -0.005454 -0.007791 0.000000 0.000000 0.000000
# 2 -0.005454 0.018481 -0.015218 0.000000 0.000000 0.000000
# 3 -0.007791 -0.015218 0.032649 0.000000 0.000000 0.000000
# 4 0.000000 0.000000 0.000000 0.023739 0.000000 0.000000
# 5 0.000000 0.000000 0.000000 0.000000 0.033948 0.000000
# 6 0.000000 0.000000 0.000000 0.000000 0.000000 -0.006723
#
#
# Mechanical properties :
#
#
# Convention : Reuss Voigt Hill
#
# Bulk Modulus (GPa) = 57.06953 69.72573 63.39763
# Shear Modulus (GPa) = 26.57053 -8.45714 9.05669
#
# Velocity S-wave (km/s) = 3.86143 -2.17851 2.25441
# Velocity P-wave (km/s) = 7.20463 5.72715 6.50795
#
# Compressibility (1/GPa) = 0.01752249
#
# Stress axis : x y z
#
# Youngs Moduli (GPa) = 42.88510 54.10986 30.62864
#
# Poissons Ratio (x) = 0.29512 0.23862
# Poissons Ratio (y) = 0.23390 0.46611
# Poissons Ratio (z) = 0.33411 0.82344
#
# Static dielectric constant tensor:
#      x y z
#    x 3.184500 0.000000 0.000000 
#    y 0.000000 3.439930 0.000000 
#    z 0.000000 0.000000 3.349890 
# 
# 
# High freq. dielectric constant tensor:
#      x y z
#    x 1.679700 0.000000 0.000000 
#    y 0.000000 1.699200 0.000000 
#    z 0.000000 0.000000 1.690410 
# 
# From -- ./inp_files/15734.got.cif
#   From: 2010.03.12/outbox.cif.g09.slc.cpg/sg47_8_cif.got.tgz:15734.got - 2010.04.14 03:12:58.
