data_PCOD8199211
_publ_section_title
;
Structure prediction by ZEFSAII (Michael W. Deem and Ramdas Pophale) SiO2 
 PCOD8199211
Probable space group: P M M M
;
_chemical_formula_sum "Si O2"
_cell_formula_units_Z 44
_cell_length_a 8.068400
_cell_length_b 29.766946
_cell_length_c 9.896544
_cell_angle_alpha 90.000000
_cell_angle_beta 90.000000
_cell_angle_gamma 90.000000
_cell_volume 2376.869075
_symmetry_space_group_name_H-M "P M M M"
_symmetry_group_IT_number 47
_symmetry_cell_setting 'orthorhombic'
loop_
_space_group_symop_operation_xyz
x,y,z
-x,-y,z
x,-y,-z
-x,y,-z
-x,-y,-z
x,y,-z
-x,y,z
x,-y,z
loop_
_atom_site_type_symbol
_atom_site_label
_atom_site_fract_x
_atom_site_fract_y
_atom_site_fract_z
Si Si1 0.692091 0.779208 0.349652
Si Si2 0.500000 0.448960 0.161197
Si Si3 0.305690 0.050900 0.846757
Si Si4 0.184920 0.393858 0.160391
Si Si5 0.190144 0.126059 0.650338
Si Si6 0.303299 0.297297 0.846039
O O1 0.772579 0.774870 0.500000
O O2 0.500000 0.768820 0.359357
O O3 0.717272 0.829729 0.293316
O O4 0.768923 0.742969 0.246476
O O5 0.500000 0.500000 0.212660
O O6 0.331806 0.425601 0.218713
O O7 0.500000 0.446122 0.000000
O O8 0.500000 0.057649 0.829071
O O9 0.212372 0.083871 0.746991
O O10 0.254832 0.000000 0.810058
O O11 0.252150 0.061797 0.000000
O O12 0.218798 0.342901 0.206617
O O13 0.000000 0.408549 0.211436
O O14 0.191185 0.396535 0.000000
O O15 0.256841 0.113749 0.500000
O O16 0.000000 0.139073 0.644107
O O17 0.500000 0.303113 0.834950
O O18 0.251828 0.286627 0.000000
#
# Coordination Sequence:
#
# PCOD8199211 Si02
#       6
#     8   4   8   8   8   8
#     4   9  18  32  49  69  95 128 164 202 243 286
#     4   9  16  26  40  60  91 129 165 203 246 293
#     4   9  19  36  56  76  97 123 159 203 247 292
#     4   9  16  26  41  62  90 124 161 202 247 294
#     4  10  21  35  50  71 101 133 162 197 243 293
#     4   9  16  28  46  66  91 124 160 199 244 292
#
# _framework density 18.511747
#
# number of rings (size 3 to 8) (size 9 to 14) (size 15 to 20)
#    0.000    2.818    0.909    1.091    0.000    4.000 
#    0.000    6.364    0.000    0.000    0.000    0.000 
#    0.000    1.455    0.000    1.636    0.000    1.818 
#
# Total GULP energy -545380.789200 kJ/mol
# GULP energy per Si atom -12395.017936 kJ/mol
# Density = 1.846961 g / cm^3
# Si number density = 18.511747 Si / 1000 Ang^3
#
#
#
# Elastic Constant Matrix: (Units=GPa)
#
#
# Indices 1 2 3 4 5 6 
#
# 1 68.8471 48.9707 25.8401 0.0000 0.0000 0.0000
# 2 48.9707 142.7410 60.5995 0.0000 0.0000 0.0000
# 3 25.8401 60.5995 59.2810 0.0000 0.0000 0.0000
# 4 0.0000 0.0000 0.0000 5.7566 0.0000 0.0000
# 5 0.0000 0.0000 0.0000 0.0000 13.6955 0.0000
# 6 0.0000 0.0000 0.0000 0.0000 0.0000 14.5910
#
#
#
# Elastic Compliance Matrix: (Units=1/GPa)
#
#
# Indices 1 2 3 4 5 6 
#
# 1 0.019498 -0.005443 -0.002935 0.000000 0.000000 0.000000
# 2 -0.005443 0.013897 -0.011833 0.000000 0.000000 0.000000
# 3 -0.002935 -0.011833 0.030244 0.000000 0.000000 0.000000
# 4 0.000000 0.000000 0.000000 0.173714 0.000000 0.000000
# 5 0.000000 0.000000 0.000000 0.000000 0.073017 0.000000
# 6 0.000000 0.000000 0.000000 0.000000 0.000000 0.068535
#
#
# Mechanical properties :
#
#
# Convention : Reuss Voigt Hill
#
# Bulk Modulus (GPa) = 43.07196 60.18776 51.62986
# Shear Modulus (GPa) = 11.70776 15.83921 13.77349
#
# Velocity S-wave (km/s) = 2.51758 2.92829 2.73067
# Velocity P-wave (km/s) = 5.63639 6.63453 6.15572
#
# Compressibility (1/GPa) = 0.02321696
#
# Stress axis : x y z
#
# Youngs Moduli (GPa) = 51.28655 71.95850 33.06402
#
# Poissons Ratio (x) = 0.39171 0.09703
# Poissons Ratio (y) = 0.27918 0.39125
# Poissons Ratio (z) = 0.15051 0.85150
#
# Static dielectric constant tensor:
#      x y z
#    x 3.404900 0.000000 0.000000 
#    y 0.000000 3.457720 0.000000 
#    z 0.000000 0.000000 3.300870 
# 
# 
# High freq. dielectric constant tensor:
#      x y z
#    x 1.716670 0.000000 0.000000 
#    y 0.000000 1.719320 0.000000 
#    z 0.000000 0.000000 1.676340 
# 
# From -- ./inp_files/1968.got.cif
#   From: 2010.03.12/outbox.cif.g09.slc.cpg/sg47_1_cif.got.tgz:1968.got - 2010.04.14 03:12:58.
