data_PCOD8199593
_publ_section_title
;
Structure prediction by ZEFSAII (Michael W. Deem and Ramdas Pophale) SiO2 
 PCOD8199593
Probable space group: P M M M
;
_chemical_formula_sum "Si O2"
_cell_formula_units_Z 52
_cell_length_a 11.736429
_cell_length_b 8.931476
_cell_length_c 28.298442
_cell_angle_alpha 90.000000
_cell_angle_beta 90.000000
_cell_angle_gamma 90.000000
_cell_volume 2966.345525
_symmetry_space_group_name_H-M "P M M M"
_symmetry_group_IT_number 47
_symmetry_cell_setting 'orthorhombic'
loop_
_space_group_symop_operation_xyz
x,y,z
-x,-y,z
x,-y,-z
-x,y,-z
-x,-y,-z
x,y,-z
-x,y,z
x,-y,z
loop_
_atom_site_type_symbol
_atom_site_label
_atom_site_fract_x
_atom_site_fract_y
_atom_site_fract_z
Si Si1 0.629803 0.824415 0.812881
Si Si2 0.368793 0.327050 0.360320
Si Si3 0.770245 0.176715 0.721412
Si Si4 0.364053 0.168625 0.000000
Si Si5 0.635694 0.668680 0.907048
Si Si6 0.000000 0.824542 0.594339
Si Si7 0.000000 0.322086 0.696121
Si Si8 0.786764 0.670444 0.553365
O O1 0.500000 0.773099 0.803544
O O2 0.702651 0.773566 0.768026
O O3 0.681285 0.746581 0.859471
O O4 0.636384 0.000000 0.821524
O O5 0.500000 0.278512 0.360401
O O6 0.353674 0.500000 0.345330
O O7 0.301370 0.223230 0.324200
O O8 0.319949 0.298131 0.412582
O O9 0.889978 0.261181 0.723272
O O10 0.791124 0.000000 0.719422
O O11 0.315152 0.248815 0.046725
O O12 0.500000 0.174333 0.000000
O O13 0.318668 0.000000 0.000000
O O14 0.500000 0.676173 0.907781
O O15 0.680976 0.500000 0.908001
O O16 0.000000 0.732733 0.642556
O O17 0.889131 0.783099 0.564353
O O18 0.000000 0.000000 0.605879
O O19 0.000000 0.500000 0.696628
O O20 0.744451 0.698600 0.500000
O O21 0.830780 0.500000 0.559928
#
# Coordination Sequence:
#
# PCOD8199593 Si02
#       8
#     8   8   8   4   8   4   4   8
#     4   9  18  32  49  71 102 138 172 206 250 304
#     4  10  21  36  55  79 107 141 176 208 247 301
#     4  11  22  37  57  80 104 134 171 213 260 309
#     4   9  15  23  37  57  87 130 175 216 259 305
#     4   9  16  25  39  62  93 130 173 217 256 296
#     4  12  23  37  58  83 106 132 167 211 259 308
#     4  12  24  39  59  80 104 132 165 210 261 314
#     4  10  21  37  57  80 108 141 173 208 252 303
#
# _framework density 17.529987999999999
#
# number of rings (size 3 to 8) (size 9 to 14) (size 15 to 20)
#    0.000    1.923    1.538    3.231    0.000    6.462 
#    0.000    3.077    0.000    0.000    0.000    2.154 
#    0.000    0.615    0.000    6.462    0.000    4.923 
#
# Total GULP energy -644936.186566 kJ/mol
# GULP energy per Si atom -12402.618972 kJ/mol
# Density = 1.749009 g / cm^3
# Si number density = 17.529988 Si / 1000 Ang^3
#
#
#
# Elastic Constant Matrix: (Units=GPa)
#
#
# Indices 1 2 3 4 5 6 
#
# 1 91.8510 41.8400 49.5455 0.0000 0.0000 0.0000
# 2 41.8400 96.2395 62.8859 0.0000 0.0000 0.0000
# 3 49.5455 62.8859 158.0126 0.0000 0.0000 0.0000
# 4 0.0000 0.0000 0.0000 31.6038 0.0000 0.0000
# 5 0.0000 0.0000 0.0000 0.0000 8.7101 0.0000
# 6 0.0000 0.0000 0.0000 0.0000 0.0000 19.4282
#
#
#
# Elastic Compliance Matrix: (Units=1/GPa)
#
#
# Indices 1 2 3 4 5 6 
#
# 1 0.014400 -0.004473 -0.002735 0.000000 0.000000 0.000000
# 2 -0.004473 0.015432 -0.004739 0.000000 0.000000 0.000000
# 3 -0.002735 -0.004739 0.009072 0.000000 0.000000 0.000000
# 4 0.000000 0.000000 0.000000 0.031642 0.000000 0.000000
# 5 0.000000 0.000000 0.000000 0.000000 0.114810 0.000000
# 6 0.000000 0.000000 0.000000 0.000000 0.000000 0.051472
#
#
# Mechanical properties :
#
#
# Convention : Reuss Voigt Hill
#
# Bulk Modulus (GPa) = 66.62291 72.73844 69.68067
# Shear Modulus (GPa) = 18.81641 24.73719 21.77680
#
# Velocity S-wave (km/s) = 3.27981 3.76058 3.52839
# Velocity P-wave (km/s) = 7.24089 7.77430 7.51233
#
# Compressibility (1/GPa) = 0.01500985
#
# Stress axis : x y z
#
# Youngs Moduli (GPa) = 69.44370 64.79956 110.22671
#
# Poissons Ratio (x) = 0.28987 0.30146
# Poissons Ratio (y) = 0.31065 0.52237
# Poissons Ratio (z) = 0.18992 0.30709
#
# Static dielectric constant tensor:
#      x y z
#    x 3.072530 0.000000 0.000000 
#    y 0.000000 3.314520 0.000000 
#    z 0.000000 0.000000 3.401100 
# 
# 
# High freq. dielectric constant tensor:
#      x y z
#    x 1.639210 0.000000 0.000000 
#    y 0.000000 1.684450 0.000000 
#    z 0.000000 0.000000 1.686800 
# 
# From -- ./inp_files/15500.got.cif
#   From: 2010.03.12/outbox.cif.g09.slc.cpg/sg47_8_cif.got.tgz:15500.got - 2010.04.14 03:12:58.
