data_PCOD8199010
_publ_section_title
;
Structure prediction by ZEFSAII (Michael W. Deem and Ramdas Pophale) SiO2 
 PCOD8199010
Probable space group: P M M M
;
_chemical_formula_sum "Si O2"
_cell_formula_units_Z 48
_cell_length_a 10.017530
_cell_length_b 9.015415
_cell_length_c 27.627707
_cell_angle_alpha 90.000000
_cell_angle_beta 90.000000
_cell_angle_gamma 90.000000
_cell_volume 2495.118730
_symmetry_space_group_name_H-M "P M M M"
_symmetry_group_IT_number 47
_symmetry_cell_setting 'orthorhombic'
loop_
_space_group_symop_operation_xyz
x,y,z
-x,-y,z
x,-y,-z
-x,y,-z
-x,-y,-z
x,y,-z
-x,y,z
x,-y,z
loop_
_atom_site_type_symbol
_atom_site_label
_atom_site_fract_x
_atom_site_fract_y
_atom_site_fract_z
Si Si1 0.000000 0.674665 0.053834
Si Si2 0.652744 0.673501 0.291360
Si Si3 0.743615 0.674492 0.399443
Si Si4 0.500000 0.175002 0.054690
Si Si5 0.000000 0.176410 0.443665
Si Si6 0.500000 0.836018 0.443996
Si Si7 0.765506 0.172693 0.107762
Si Si8 0.153786 0.826943 0.215605
O O1 0.128921 0.729761 0.080642
O O2 0.000000 0.500000 0.053379
O O3 0.000000 0.740721 0.000000
O O4 0.500000 0.734145 0.286351
O O5 0.653039 0.500000 0.281021
O O6 0.709016 0.709759 0.344123
O O7 0.754429 0.748339 0.254669
O O8 0.759698 0.500000 0.408779
O O9 0.875495 0.758794 0.415114
O O10 0.627101 0.738552 0.431835
O O11 0.625329 0.227442 0.086298
O O12 0.500000 0.000000 0.049612
O O13 0.500000 0.243795 0.000000
O O14 0.000000 0.225894 0.500000
O O15 0.000000 0.000000 0.439579
O O16 0.500000 0.866191 0.500000
O O17 0.500000 0.000000 0.418459
O O18 0.776284 0.206571 0.164483
O O19 0.792766 0.000000 0.097376
O O20 0.000000 0.767699 0.216402
O O21 0.153341 0.000000 0.227034
#
# Coordination Sequence:
#
# PCOD8199010 Si02
#       8
#     4   8   8   4   4   4   8   8
#     4  11  23  37  56  85 118 153 196 243 292 353
#     4  10  23  43  63  88 121 157 199 245 298 360
#     4  11  23  42  65  90 122 161 207 255 299 359
#     4   9  18  32  56  89 116 146 193 241 288 343
#     4  11  25  43  62  91 130 165 202 251 304 363
#     4  11  23  39  62  93 126 160 199 249 310 367
#     4  10  20  38  61  85 117 154 195 245 295 351
#     4  10  22  39  60  90 120 151 198 249 298 356
#
# _framework density 19.237560999999999
#
# number of rings (size 3 to 8) (size 9 to 14) (size 15 to 20)
#    0.000    1.667    1.667    2.250    2.333    7.333 
#    0.000    0.417    0.000    1.500    0.000    0.000 
#    0.000    0.000    0.000    0.000    0.000    0.000 
#
# Total GULP energy -595176.697971 kJ/mol
# GULP energy per Si atom -12399.514541 kJ/mol
# Density = 1.919378 g / cm^3
# Si number density = 19.237561 Si / 1000 Ang^3
#
#
#
# Elastic Constant Matrix: (Units=GPa)
#
#
# Indices 1 2 3 4 5 6 
#
# 1 187.1386 46.3061 78.7675 0.0000 0.0000 0.0000
# 2 46.3061 56.4028 51.3159 0.0000 0.0000 0.0000
# 3 78.7675 51.3159 127.9829 0.0000 0.0000 0.0000
# 4 0.0000 0.0000 0.0000 30.7959 0.0000 0.0000
# 5 0.0000 0.0000 0.0000 0.0000 68.4559 0.0000
# 6 0.0000 0.0000 0.0000 0.0000 0.0000 35.2711
#
#
#
# Elastic Compliance Matrix: (Units=1/GPa)
#
#
# Indices 1 2 3 4 5 6 
#
# 1 0.007541 -0.003099 -0.003398 0.000000 0.000000 0.000000
# 2 -0.003099 0.029185 -0.009795 0.000000 0.000000 0.000000
# 3 -0.003398 -0.009795 0.013832 0.000000 0.000000 0.000000
# 4 0.000000 0.000000 0.000000 0.032472 0.000000 0.000000
# 5 0.000000 0.000000 0.000000 0.000000 0.014608 0.000000
# 6 0.000000 0.000000 0.000000 0.000000 0.000000 0.028352
#
#
# Mechanical properties :
#
#
# Convention : Reuss Voigt Hill
#
# Bulk Modulus (GPa) = 55.63581 80.47815 68.05698
# Shear Modulus (GPa) = 30.38291 39.91358 35.14825
#
# Velocity S-wave (km/s) = 3.97842 4.55991 4.27905
# Velocity P-wave (km/s) = 7.07721 8.34556 7.73742
#
# Compressibility (1/GPa) = 0.01797404
#
# Stress axis : x y z
#
# Youngs Moduli (GPa) = 132.61009 34.26386 72.29368
#
# Poissons Ratio (x) = 0.10618 0.24569
# Poissons Ratio (y) = 0.41096 0.70810
# Poissons Ratio (z) = 0.45068 0.33561
#
# Static dielectric constant tensor:
#      x y z
#    x 3.137710 0.000000 0.000000 
#    y 0.000000 3.466110 0.000000 
#    z 0.000000 0.000000 3.810880 
# 
# 
# High freq. dielectric constant tensor:
#      x y z
#    x 1.766890 0.000000 0.000000 
#    y 0.000000 1.739980 0.000000 
#    z 0.000000 0.000000 1.761230 
# 
# From -- ./inp_files/34228.got.cif
#   From: 2010.03.12/outbox.cif.g09.slc.cpg/sg47_18_cif.got.tgz:34228.got - 2010.04.14 03:12:58.
