data_PCOD8199307
_publ_section_title
;
Structure prediction by ZEFSAII (Michael W. Deem and Ramdas Pophale) SiO2 
 PCOD8199307
Probable space group: P M M M
;
_chemical_formula_sum "Si O2"
_cell_formula_units_Z 56
_cell_length_a 13.810123
_cell_length_b 9.515160
_cell_length_c 23.143413
_cell_angle_alpha 90.000000
_cell_angle_beta 90.000000
_cell_angle_gamma 90.000000
_cell_volume 3041.172450
_symmetry_space_group_name_H-M "P M M M"
_symmetry_group_IT_number 47
_symmetry_cell_setting 'orthorhombic'
loop_
_space_group_symop_operation_xyz
x,y,z
-x,-y,z
x,-y,-z
-x,y,-z
-x,-y,-z
x,y,-z
-x,y,z
x,-y,z
loop_
_atom_site_type_symbol
_atom_site_label
_atom_site_fract_x
_atom_site_fract_y
_atom_site_fract_z
Si Si1 0.785091 0.162886 0.932066
Si Si2 0.110030 0.661345 0.156160
Si Si3 0.606679 0.343345 0.931453
Si Si4 0.389156 0.835178 0.674562
Si Si5 0.229984 0.662744 0.732426
Si Si6 0.110410 0.336782 0.380218
Si Si7 0.731297 0.161352 0.564570
O O1 0.872256 0.240145 0.899290
O O2 0.684739 0.231201 0.909319
O O3 0.783384 0.000000 0.915749
O O4 0.800586 0.186336 0.000000
O O5 0.128250 0.500000 0.138241
O O6 0.181639 0.707520 0.207367
O O7 0.000000 0.682443 0.177126
O O8 0.500000 0.300928 0.908000
O O9 0.634209 0.500000 0.909177
O O10 0.604594 0.343531 0.000000
O O11 0.500000 0.785743 0.679239
O O12 0.326753 0.753580 0.722650
O O13 0.351481 0.795159 0.610351
O O14 0.378772 0.000000 0.686530
O O15 0.259962 0.500000 0.732328
O O16 0.151053 0.694927 0.683390
O O17 0.118544 0.500000 0.395765
O O18 0.171860 0.251981 0.427241
O O19 0.000000 0.284843 0.382521
O O20 0.690439 0.187639 0.500000
O O21 0.760823 0.000000 0.573674
#
# Coordination Sequence:
#
# PCOD8199307 Si02
#       7
#     8   8   8   8   8   8   8
#     4  10  21  35  51  75 108 141 170 204 249 301
#     4  10  21  37  57  78  99 128 168 211 253 300
#     4   8  14  27  49  74  98 127 164 203 240 280
#     4   9  18  33  53  76 102 133 168 206 249 297
#     4   9  18  34  55  77  99 123 159 208 256 302
#     4   9  17  30  49  71  96 128 164 205 255 304
#     4   9  18  31  46  68 100 136 173 211 248 288
#
# _framework density 18.413951000000001
#
# number of rings (size 3 to 8) (size 9 to 14) (size 15 to 20)
#    0.000    2.857    0.000    1.286    0.000    5.429 
#    0.000    6.429    0.000    3.429    0.000    4.000 
#    0.000    0.000    0.000    0.000    0.000    0.000 
#
# Total GULP energy -694358.758688 kJ/mol
# GULP energy per Si atom -12399.263548 kJ/mol
# Density = 1.837204 g / cm^3
# Si number density = 18.413951 Si / 1000 Ang^3
#
#
#
# Elastic Constant Matrix: (Units=GPa)
#
#
# Indices 1 2 3 4 5 6 
#
# 1 139.3671 60.3664 48.3668 0.0000 0.0000 0.0000
# 2 60.3664 80.3384 46.9670 0.0000 0.0000 0.0000
# 3 48.3668 46.9670 74.9162 0.0000 0.0000 0.0000
# 4 0.0000 0.0000 0.0000 26.4763 0.0000 0.0000
# 5 0.0000 0.0000 0.0000 0.0000 21.3358 0.0000
# 6 0.0000 0.0000 0.0000 0.0000 0.0000 29.3287
#
#
#
# Elastic Compliance Matrix: (Units=1/GPa)
#
#
# Indices 1 2 3 4 5 6 
#
# 1 0.011061 -0.006530 -0.003048 0.000000 0.000000 0.000000
# 2 -0.006530 0.023504 -0.010519 0.000000 0.000000 0.000000
# 3 -0.003048 -0.010519 0.021911 0.000000 0.000000 0.000000
# 4 0.000000 0.000000 0.000000 0.037770 0.000000 0.000000
# 5 0.000000 0.000000 0.000000 0.000000 0.046870 0.000000
# 6 0.000000 0.000000 0.000000 0.000000 0.000000 0.034096
#
#
# Mechanical properties :
#
#
# Convention : Reuss Voigt Hill
#
# Bulk Modulus (GPa) = 61.41707 67.33579 64.37643
# Shear Modulus (GPa) = 22.64164 24.68958 23.66561
#
# Velocity S-wave (km/s) = 3.51036 3.66568 3.58886
# Velocity P-wave (km/s) = 7.06089 7.38671 7.22563
#
# Compressibility (1/GPa) = 0.01628212
#
# Stress axis : x y z
#
# Youngs Moduli (GPa) = 90.40500 42.54665 45.63988
#
# Poissons Ratio (x) = 0.27782 0.13909
# Poissons Ratio (y) = 0.59033 0.48010
# Poissons Ratio (z) = 0.27552 0.44756
#
# Static dielectric constant tensor:
#      x y z
#    x 3.491200 0.000000 0.000000 
#    y 0.000000 3.366370 0.000000 
#    z 0.000000 0.000000 3.238620 
# 
# 
# High freq. dielectric constant tensor:
#      x y z
#    x 1.713890 0.000000 0.000000 
#    y 0.000000 1.708200 0.000000 
#    z 0.000000 0.000000 1.698420 
# 
# From -- ./inp_files/29707.got.cif
#   From: 2010.03.12/outbox.cif.g09.slc.cpg/sg47_15_cif.got.tgz:29707.got - 2010.04.14 03:12:58.
