data_PCOD8199936
_publ_section_title
;
Structure prediction by ZEFSAII (Michael W. Deem and Ramdas Pophale) SiO2 
 PCOD8199936
Probable space group: P M M M
;
_chemical_formula_sum "Si O2"
_cell_formula_units_Z 48
_cell_length_a 15.946391
_cell_length_b 8.923784
_cell_length_c 17.176033
_cell_angle_alpha 90.000000
_cell_angle_beta 90.000000
_cell_angle_gamma 90.000000
_cell_volume 2444.186405
_symmetry_space_group_name_H-M "P M M M"
_symmetry_group_IT_number 47
_symmetry_cell_setting 'orthorhombic'
loop_
_space_group_symop_operation_xyz
x,y,z
-x,-y,z
x,-y,-z
-x,y,-z
-x,-y,-z
x,y,-z
-x,y,z
x,-y,z
loop_
_atom_site_type_symbol
_atom_site_label
_atom_site_fract_x
_atom_site_fract_y
_atom_site_fract_z
Si Si1 0.174083 0.824189 0.643388
Si Si2 0.500000 0.169384 0.908140
Si Si3 0.164479 0.177603 0.820798
Si Si4 0.656609 0.671327 0.655844
Si Si5 0.096780 0.663084 0.500000
Si Si6 0.000000 0.821898 0.088279
Si Si7 0.338563 0.327938 0.162463
Si Si8 0.500000 0.165358 0.590288
O O1 0.148942 0.773987 0.731029
O O2 0.267788 0.772666 0.626060
O O3 0.115596 0.751289 0.579035
O O4 0.166611 0.000000 0.633880
O O5 0.584881 0.250389 0.881601
O O6 0.500000 0.000000 0.875072
O O7 0.500000 0.169230 0.000000
O O8 0.083959 0.236600 0.868803
O O9 0.248814 0.251203 0.856039
O O10 0.175741 0.000000 0.827682
O O11 0.673069 0.500000 0.631914
O O12 0.641225 0.686698 0.747123
O O13 0.577864 0.734796 0.612316
O O14 0.142413 0.500000 0.500000
O O15 0.000000 0.634631 0.500000
O O16 0.000000 0.000000 0.090056
O O17 0.000000 0.760982 0.000000
O O18 0.333225 0.500000 0.135485
O O19 0.500000 0.137463 0.500000
O O20 0.500000 0.000000 0.631265
#
# Coordination Sequence:
#
# PCOD8199936 Si02
#       8
#     8   4   8   8   4   4   8   4
#     4  10  21  37  60  85 114 151 194 243 290 339
#     4  11  24  39  58  86 118 153 194 241 294 351
#     4   9  19  36  60  88 118 155 199 242 289 347
#     4  10  21  38  59  82 112 150 192 233 285 344
#     4  11  25  41  57  82 115 150 191 239 297 355
#     4   9  18  34  59  90 121 152 190 239 289 339
#     4  10  21  38  60  86 116 151 191 237 290 348
#     4  11  24  37  52  78 112 147 192 241 283 326
#
# _framework density 19.638435999999999
#
# number of rings (size 3 to 8) (size 9 to 14) (size 15 to 20)
#    0.000    2.000    0.000    2.750    2.333    7.333 
#    0.000    2.083    0.000    0.500    0.000    0.000 
#    0.000    0.000    0.000    0.000    0.000    0.000 
#
# Total GULP energy -595181.095288 kJ/mol
# GULP energy per Si atom -12399.606152 kJ/mol
# Density = 1.959374 g / cm^3
# Si number density = 19.638436 Si / 1000 Ang^3
#
#
#
# Elastic Constant Matrix: (Units=GPa)
#
#
# Indices 1 2 3 4 5 6 
#
# 1 152.5311 47.8447 70.7106 0.0000 0.0000 0.0000
# 2 47.8447 88.2260 44.9252 0.0000 0.0000 0.0000
# 3 70.7106 44.9252 87.7229 0.0000 0.0000 0.0000
# 4 0.0000 0.0000 0.0000 21.8932 0.0000 0.0000
# 5 0.0000 0.0000 0.0000 0.0000 20.1384 0.0000
# 6 0.0000 0.0000 0.0000 0.0000 0.0000 28.5384
#
#
#
# Elastic Compliance Matrix: (Units=1/GPa)
#
#
# Indices 1 2 3 4 5 6 
#
# 1 0.010700 -0.001908 -0.007648 0.000000 0.000000 0.000000
# 2 -0.001908 0.015673 -0.006488 0.000000 0.000000 0.000000
# 3 -0.007648 -0.006488 0.020887 0.000000 0.000000 0.000000
# 4 0.000000 0.000000 0.000000 0.045676 0.000000 0.000000
# 5 0.000000 0.000000 0.000000 0.000000 0.049656 0.000000
# 6 0.000000 0.000000 0.000000 0.000000 0.000000 0.035041
#
#
# Mechanical properties :
#
#
# Convention : Reuss Voigt Hill
#
# Bulk Modulus (GPa) = 65.91337 72.82677 69.37007
# Shear Modulus (GPa) = 23.27972 25.11397 24.19684
#
# Velocity S-wave (km/s) = 3.44672 3.57993 3.51396
# Velocity P-wave (km/s) = 7.03393 7.36561 7.20168
#
# Compressibility (1/GPa) = 0.01517143
#
# Stress axis : x y z
#
# Youngs Moduli (GPa) = 93.45902 63.80241 47.87701
#
# Poissons Ratio (x) = 0.12176 0.36614
# Poissons Ratio (y) = 0.17835 0.31065
# Poissons Ratio (z) = 0.71473 0.41398
#
# Static dielectric constant tensor:
#      x y z
#    x 3.521500 0.000000 0.000000 
#    y 0.000000 3.718610 0.000000 
#    z 0.000000 0.000000 3.662980 
# 
# 
# High freq. dielectric constant tensor:
#      x y z
#    x 1.774660 0.000000 0.000000 
#    y 0.000000 1.768780 0.000000 
#    z 0.000000 0.000000 1.762590 
# 
# From -- ./inp_files/21182.got.cif
#   From: 2010.03.12/outbox.cif.g09.slc.cpg/sg47_11_cif.got.tgz:21182.got - 2010.04.14 03:12:58.
