data_PCOD8199958
_publ_section_title
;
Structure prediction by ZEFSAII (Michael W. Deem and Ramdas Pophale) SiO2 
 PCOD8199958
Probable space group: P M M M
;
_chemical_formula_sum "Si O2"
_cell_formula_units_Z 56
_cell_length_a 8.543430
_cell_length_b 14.654785
_cell_length_c 23.378404
_cell_angle_alpha 90.000000
_cell_angle_beta 90.000000
_cell_angle_gamma 90.000000
_cell_volume 2927.025972
_symmetry_space_group_name_H-M "P M M M"
_symmetry_group_IT_number 47
_symmetry_cell_setting 'orthorhombic'
loop_
_space_group_symop_operation_xyz
x,y,z
-x,-y,z
x,-y,-z
-x,y,-z
-x,-y,-z
x,y,-z
-x,y,z
x,-y,z
loop_
_atom_site_type_symbol
_atom_site_label
_atom_site_fract_x
_atom_site_fract_y
_atom_site_fract_z
Si Si1 0.684193 0.347643 0.865390
Si Si2 0.815257 0.897508 0.726157
Si Si3 0.315436 0.000000 0.065204
Si Si4 0.313764 0.397652 0.564291
Si Si5 0.816143 0.848507 0.853067
Si Si6 0.821979 0.601359 0.749647
Si Si7 0.318299 0.266568 0.661893
Si Si8 0.173692 0.500000 0.066275
O O1 0.500000 0.330059 0.860961
O O2 0.775210 0.253265 0.870709
O O3 0.749844 0.404385 0.812162
O O4 0.726755 0.409692 0.919309
O O5 0.750566 0.868510 0.788891
O O6 0.757407 0.831601 0.675046
O O7 0.000000 0.892804 0.727191
O O8 0.756523 0.000000 0.712470
O O9 0.260643 0.911469 0.099265
O O10 0.500000 0.000000 0.062532
O O11 0.248052 0.000000 0.000000
O O12 0.258865 0.373662 0.500000
O O13 0.500000 0.397739 0.568499
O O14 0.253550 0.500000 0.580794
O O15 0.245271 0.319159 0.606460
O O16 0.000000 0.866089 0.854138
O O17 0.818836 0.500000 0.722897
O O18 0.710158 0.668121 0.715263
O O19 0.000000 0.639941 0.750358
O O20 0.500000 0.249612 0.652589
O O21 0.000000 0.500000 0.095851
O O22 0.147730 0.500000 0.000000
#
# Coordination Sequence:
#
# PCOD8199958 Si02
#       8
#     8   8   4   8   8   8   8   4
#     4  12  24  38  60  87 114 146 186 237 288 336
#     4  10  21  38  58  80 110 149 189 232 286 350
#     4  11  25  43  63  89 119 147 184 241 298 347
#     4   8  15  30  52  80 118 161 198 235 282 338
#     4  11  22  40  64  86 113 150 191 233 287 356
#     4  11  22  35  53  78 115 155 188 225 277 343
#     4  11  21  32  54  88 118 146 190 242 292 344
#     4  11  25  45  65  83 109 151 196 233 280 347
#
# _framework density 19.132048999999999
#
# number of rings (size 3 to 8) (size 9 to 14) (size 15 to 20)
#    0.000    1.429    2.857    3.857    0.000    4.000 
#    0.000    0.000    0.000    2.143    0.000    8.000 
#    0.000    0.000    0.000    0.000    0.000    0.000 
#
# Total GULP energy -694313.333629 kJ/mol
# GULP energy per Si atom -12398.452386 kJ/mol
# Density = 1.908850 g / cm^3
# Si number density = 19.132049 Si / 1000 Ang^3
#
#
#
# Elastic Constant Matrix: (Units=GPa)
#
#
# Indices 1 2 3 4 5 6 
#
# 1 46.1864 16.6104 19.8341 0.0000 0.0000 0.0000
# 2 16.6104 148.2134 66.4243 0.0000 0.0000 0.0000
# 3 19.8341 66.4243 109.6381 0.0000 0.0000 0.0000
# 4 0.0000 0.0000 0.0000 42.6698 0.0000 0.0000
# 5 0.0000 0.0000 0.0000 0.0000 16.4561 0.0000
# 6 0.0000 0.0000 0.0000 0.0000 0.0000 29.3768
#
#
#
# Elastic Compliance Matrix: (Units=1/GPa)
#
#
# Indices 1 2 3 4 5 6 
#
# 1 0.023583 -0.001003 -0.003658 0.000000 0.000000 0.000000
# 2 -0.001003 0.009305 -0.005456 0.000000 0.000000 0.000000
# 3 -0.003658 -0.005456 0.013088 0.000000 0.000000 0.000000
# 4 0.000000 0.000000 0.000000 0.023436 0.000000 0.000000
# 5 0.000000 0.000000 0.000000 0.000000 0.060768 0.000000
# 6 0.000000 0.000000 0.000000 0.000000 0.000000 0.034040
#
#
# Mechanical properties :
#
#
# Convention : Reuss Voigt Hill
#
# Bulk Modulus (GPa) = 38.84862 56.64173 47.74517
# Shear Modulus (GPa) = 25.90203 31.11182 28.50693
#
# Velocity S-wave (km/s) = 3.68347 4.03695 3.86425
# Velocity P-wave (km/s) = 6.20002 7.16932 6.70222
#
# Compressibility (1/GPa) = 0.02574094
#
# Stress axis : x y z
#
# Youngs Moduli (GPa) = 42.40285 107.47486 76.40574
#
# Poissons Ratio (x) = 0.10784 0.27952
# Poissons Ratio (y) = 0.04255 0.41684
# Poissons Ratio (z) = 0.15513 0.58634
#
# Static dielectric constant tensor:
#      x y z
#    x 3.402540 0.000000 0.000000 
#    y 0.000000 3.715210 0.000000 
#    z 0.000000 0.000000 3.616440 
# 
# 
# High freq. dielectric constant tensor:
#      x y z
#    x 1.735200 0.000000 0.000000 
#    y 0.000000 1.752230 0.000000 
#    z 0.000000 0.000000 1.728970 
# 
# From -- ./inp_files/29759.got.cif
#   From: 2010.03.12/outbox.cif.g09.slc.cpg/sg47_15_cif.got.tgz:29759.got - 2010.04.14 03:12:58.
