data_PCOD8199850
_publ_section_title
;
Structure prediction by ZEFSAII (Michael W. Deem and Ramdas Pophale) SiO2 
 PCOD8199850
Probable space group: P M M M
;
_chemical_formula_sum "Si O2"
_cell_formula_units_Z 48
_cell_length_a 9.103999
_cell_length_b 30.750216
_cell_length_c 8.672573
_cell_angle_alpha 90.000000
_cell_angle_beta 90.000000
_cell_angle_gamma 90.000000
_cell_volume 2427.886254
_symmetry_space_group_name_H-M "P M M M"
_symmetry_group_IT_number 47
_symmetry_cell_setting 'orthorhombic'
loop_
_space_group_symop_operation_xyz
x,y,z
-x,-y,z
x,-y,-z
-x,y,-z
-x,-y,-z
x,y,-z
-x,y,z
x,-y,z
loop_
_atom_site_type_symbol
_atom_site_label
_atom_site_fract_x
_atom_site_fract_y
_atom_site_fract_z
Si Si1 0.170172 0.260044 0.678902
Si Si2 0.670685 0.661057 0.179172
Si Si3 0.170167 0.830635 0.177354
Si Si4 0.334486 0.084225 0.183673
Si Si5 0.335149 0.500000 0.181653
Si Si6 0.168338 0.580888 0.319615
Si Si7 0.834248 0.000000 0.184059
O O1 0.202476 0.268423 0.500000
O O2 0.270203 0.291285 0.781449
O O3 0.213410 0.210905 0.720967
O O4 0.000000 0.268843 0.719065
O O5 0.500000 0.658230 0.222304
O O6 0.758735 0.626700 0.280994
O O7 0.696632 0.651009 0.000000
O O8 0.260551 0.871416 0.243411
O O9 0.000000 0.842543 0.194519
O O10 0.210161 0.820559 0.000000
O O11 0.500000 0.082077 0.246421
O O12 0.247025 0.042720 0.249202
O O13 0.330286 0.083439 0.000000
O O14 0.500000 0.500000 0.251187
O O15 0.251550 0.542777 0.233380
O O16 0.343065 0.500000 0.000000
O O17 0.179259 0.572087 0.500000
O O18 0.000000 0.581679 0.264242
O O19 0.000000 0.000000 0.246659
O O20 0.831678 0.000000 0.000000
#
# Coordination Sequence:
#
# PCOD8199850 Si02
#       7
#     8   8   8   8   4   8   4
#     4  10  21  37  57  81 108 140 180 224 270 323
#     4  11  24  40  59  85 115 147 185 228 275 328
#     4   9  17  30  48  70  98 133 171 211 258 312
#     4   9  16  25  39  62  93 127 164 208 256 306
#     4  11  24  41  62  90 122 155 194 237 280 328
#     4  11  24  41  62  89 119 152 192 234 277 329
#     4   9  15  23  37  59  90 127 164 203 252 310
#
# _framework density 19.770284
#
# number of rings (size 3 to 8) (size 9 to 14) (size 15 to 20)
#    0.000    2.000    0.000    3.750    0.000   13.000 
#    0.000    1.667    0.000    0.000    0.000    0.583 
#    0.000    4.667    0.000    0.000    0.000    0.000 
#
# Total GULP energy -595400.133460 kJ/mol
# GULP energy per Si atom -12404.169447 kJ/mol
# Density = 1.972529 g / cm^3
# Si number density = 19.770284 Si / 1000 Ang^3
#
#
#
# Elastic Constant Matrix: (Units=GPa)
#
#
# Indices 1 2 3 4 5 6 
#
# 1 147.3291 76.4583 32.4967 0.0000 0.0000 0.0000
# 2 76.4583 133.9127 19.5077 0.0000 0.0000 0.0000
# 3 32.4967 19.5077 38.6868 0.0000 0.0000 0.0000
# 4 0.0000 0.0000 0.0000 -52.4900 0.0000 0.0000
# 5 0.0000 0.0000 0.0000 0.0000 20.0678 0.0000
# 6 0.0000 0.0000 0.0000 0.0000 0.0000 78.0864
#
#
#
# Elastic Compliance Matrix: (Units=1/GPa)
#
#
# Indices 1 2 3 4 5 6 
#
# 1 0.010995 -0.005323 -0.006552 0.000000 0.000000 0.000000
# 2 -0.005323 0.010637 -0.000892 0.000000 0.000000 0.000000
# 3 -0.006552 -0.000892 0.031802 0.000000 0.000000 0.000000
# 4 0.000000 0.000000 0.000000 -0.019051 0.000000 0.000000
# 5 0.000000 0.000000 0.000000 0.000000 0.049831 0.000000
# 6 0.000000 0.000000 0.000000 0.000000 0.000000 0.012806
#
#
# Mechanical properties :
#
#
# Convention : Reuss Voigt Hill
#
# Bulk Modulus (GPa) = 35.84251 64.09490 49.96870
# Shear Modulus (GPa) = 37.92063 21.89723 29.90893
#
# Velocity S-wave (km/s) = 4.38432 3.33165 3.89372
# Velocity P-wave (km/s) = 6.61805 6.87677 6.74865
#
# Compressibility (1/GPa) = 0.02789983
#
# Stress axis : x y z
#
# Youngs Moduli (GPa) = 90.94785 94.01202 31.44477
#
# Poissons Ratio (x) = 0.50047 0.20602
# Poissons Ratio (y) = 0.48415 0.02805
# Poissons Ratio (z) = 0.59586 0.08386
#
# Static dielectric constant tensor:
#      x y z
#    x 3.781860 0.000000 0.000000 
#    y 0.000000 3.835800 0.000000 
#    z 0.000000 0.000000 3.293770 
# 
# 
# High freq. dielectric constant tensor:
#      x y z
#    x 1.779350 0.000000 0.000000 
#    y 0.000000 1.787190 0.000000 
#    z 0.000000 0.000000 1.742540 
# 
# From -- ./inp_files/2671.got.cif
#   From: 2010.03.12/outbox.cif.g09.slc.cpg/sg47_2_cif.got.tgz:2671.got - 2010.04.14 03:12:58.
