data_PCOD8199813
_publ_section_title
;
Structure prediction by ZEFSAII (Michael W. Deem and Ramdas Pophale) SiO2 
 PCOD8199813
Probable space group: P M M M
;
_chemical_formula_sum "Si O2"
_cell_formula_units_Z 44
_cell_length_a 9.164093
_cell_length_b 9.008476
_cell_length_c 28.805306
_cell_angle_alpha 90.000000
_cell_angle_beta 90.000000
_cell_angle_gamma 90.000000
_cell_volume 2378.007976
_symmetry_space_group_name_H-M "P M M M"
_symmetry_group_IT_number 47
_symmetry_cell_setting 'orthorhombic'
loop_
_space_group_symop_operation_xyz
x,y,z
-x,-y,z
x,-y,-z
-x,y,-z
-x,-y,-z
x,y,-z
-x,y,z
x,-y,z
loop_
_atom_site_type_symbol
_atom_site_label
_atom_site_fract_x
_atom_site_fract_y
_atom_site_fract_z
Si Si1 0.674125 0.170807 0.850570
Si Si2 0.336911 0.823968 0.950928
Si Si3 0.164740 0.676659 0.500000
Si Si4 0.330438 0.671693 0.590123
Si Si5 0.830368 0.672791 0.767626
Si Si6 0.667279 0.825046 0.315554
O O1 0.500000 0.188064 0.848062
O O2 0.734299 0.224542 0.901707
O O3 0.748628 0.277228 0.813860
O O4 0.717706 0.000000 0.840419
O O5 0.500000 0.758876 0.952592
O O6 0.345352 0.000000 0.949284
O O7 0.257448 0.774281 0.000000
O O8 0.173595 0.500000 0.500000
O O9 0.243854 0.737136 0.546078
O O10 0.000000 0.735478 0.500000
O O11 0.500000 0.695001 0.579550
O O12 0.292764 0.500000 0.598963
O O13 0.279799 0.761754 0.635212
O O14 0.801255 0.500000 0.759647
O O15 0.769509 0.760385 0.723878
O O16 0.000000 0.709552 0.773097
O O17 0.500000 0.777998 0.305666
O O18 0.684899 0.000000 0.316323
#
# Coordination Sequence:
#
# PCOD8199813 Si02
#       6
#     8   8   4   8   8   8
#     4   9  17  30  51  78 103 128 162 204 249 297
#     4   7  10  19  39  69 101 127 153 192 242 291
#     4   9  17  29  48  75 104 134 170 209 242 277
#     4   9  17  31  52  76 102 133 167 202 243 291
#     4  11  24  38  51  70  98 133 171 208 248 298
#     4  10  21  37  57  80 103 128 163 208 257 306
#
# _framework density 18.502880999999999
#
# number of rings (size 3 to 8) (size 9 to 14) (size 15 to 20)
#    0.000    2.818    0.000    3.545    0.000    6.909 
#    0.000    2.273    0.000    3.818    0.000    6.364 
#    0.000    0.000    0.000    0.000    0.000    0.000 
#
# Total GULP energy -545237.463966 kJ/mol
# GULP energy per Si atom -12391.760545 kJ/mol
# Density = 1.846077 g / cm^3
# Si number density = 18.502881 Si / 1000 Ang^3
#
#
#
# Elastic Constant Matrix: (Units=GPa)
#
#
# Indices 1 2 3 4 5 6 
#
# 1 55.4265 24.2212 54.6391 0.0000 0.0000 0.0000
# 2 24.2212 44.7033 41.8171 0.0000 0.0000 0.0000
# 3 54.6391 41.8171 179.3000 0.0000 0.0000 0.0000
# 4 0.0000 0.0000 0.0000 32.0637 0.0000 0.0000
# 5 0.0000 0.0000 0.0000 0.0000 -4.4746 0.0000
# 6 0.0000 0.0000 0.0000 0.0000 0.0000 19.7502
#
#
#
# Elastic Compliance Matrix: (Units=1/GPa)
#
#
# Indices 1 2 3 4 5 6 
#
# 1 0.028566 -0.009381 -0.006517 0.000000 0.000000 0.000000
# 2 -0.009381 0.031693 -0.004533 0.000000 0.000000 0.000000
# 3 -0.006517 -0.004533 0.008620 0.000000 0.000000 0.000000
# 4 0.000000 0.000000 0.000000 0.031188 0.000000 0.000000
# 5 0.000000 0.000000 0.000000 0.000000 -0.223486 0.000000
# 6 0.000000 0.000000 0.000000 0.000000 0.000000 0.050632
#
#
# Mechanical properties :
#
#
# Convention : Reuss Voigt Hill
#
# Bulk Modulus (GPa) = 35.69277 57.86496 46.77886
# Shear Modulus (GPa) = -221.38509 20.05137 -100.66686
#
# Velocity S-wave (km/s) = -10.95028 3.29551 -7.38405
# Velocity P-wave (km/s) = 11.85521 6.76919 6.88201
#
# Compressibility (1/GPa) = 0.02801688
#
# Stress axis : x y z
#
# Youngs Moduli (GPa) = 35.00658 31.55299 116.00402
#
# Poissons Ratio (x) = 0.29601 0.75602
# Poissons Ratio (y) = 0.32841 0.52581
# Poissons Ratio (z) = 0.22814 0.14302
#
# Static dielectric constant tensor:
#      x y z
#    x 3.188000 0.000000 0.000000 
#    y 0.000000 3.114920 0.000000 
#    z 0.000000 0.000000 3.953690 
# 
# 
# High freq. dielectric constant tensor:
#      x y z
#    x 1.686630 0.000000 0.000000 
#    y 0.000000 1.685630 0.000000 
#    z 0.000000 0.000000 1.747280 
# 
# From -- ./inp_files/2238.got.cif
#   From: 2010.03.12/outbox.cif.g09.slc.cpg/sg47_2_cif.got.tgz:2238.got - 2010.04.14 03:12:58.
