data_PCOD8199356
_publ_section_title
;
Structure prediction by ZEFSAII (Michael W. Deem and Ramdas Pophale) SiO2 
 PCOD8199356
Probable space group: P M M M
;
_chemical_formula_sum "Si O2"
_cell_formula_units_Z 52
_cell_length_a 9.261605
_cell_length_b 13.984018
_cell_length_c 21.226878
_cell_angle_alpha 90.000000
_cell_angle_beta 90.000000
_cell_angle_gamma 90.000000
_cell_volume 2749.187451
_symmetry_space_group_name_H-M "P M M M"
_symmetry_group_IT_number 47
_symmetry_cell_setting 'orthorhombic'
loop_
_space_group_symop_operation_xyz
x,y,z
-x,-y,z
x,-y,-z
-x,y,-z
-x,-y,-z
x,y,-z
-x,y,z
x,-y,z
loop_
_atom_site_type_symbol
_atom_site_label
_atom_site_fract_x
_atom_site_fract_y
_atom_site_fract_z
Si Si1 0.164946 0.286619 0.744265
Si Si2 0.671653 0.607212 0.500000
Si Si3 0.329154 0.721615 0.378139
Si Si4 0.666229 0.779034 0.072433
Si Si5 0.832808 0.390989 0.871983
Si Si6 0.164239 0.108391 0.427215
Si Si7 0.167783 0.891052 0.174225
O O1 0.265584 0.319625 0.686664
O O2 0.192671 0.362318 0.799539
O O3 0.206338 0.179582 0.767979
O O4 0.000000 0.288966 0.721228
O O5 0.733718 0.500000 0.500000
O O6 0.500000 0.607035 0.500000
O O7 0.728528 0.659720 0.562773
O O8 0.500000 0.720817 0.374170
O O9 0.272490 0.829379 0.385730
O O10 0.500000 0.771582 0.092911
O O11 0.738911 0.675744 0.082770
O O12 0.741717 0.861932 0.112875
O O13 0.682360 0.808654 0.000000
O O14 0.783184 0.500000 0.881761
O O15 0.000000 0.377047 0.889949
O O16 0.207648 0.117543 0.500000
O O17 0.000000 0.142954 0.416629
O O18 0.181475 0.000000 0.404141
O O19 0.000000 0.878589 0.156566
O O20 0.204460 0.000000 0.193641
#
# Coordination Sequence:
#
# PCOD8199356 Si02
#       7
#     8   4   8   8   8   8   8
#     4   9  19  35  54  78 108 139 172 218 271 321
#     4   9  20  38  54  71 102 140 173 209 258 315
#     4  11  21  34  54  79 105 137 175 217 263 312
#     4  10  21  35  52  80 117 150 179 217 267 320
#     4   9  19  37  59  80 104 138 181 228 274 318
#     4   9  18  33  53  75 100 132 166 203 255 314
#     4   9  19  37  59  80 105 143 188 228 265 309
#
# _framework density 18.914679
#
# number of rings (size 3 to 8) (size 9 to 14) (size 15 to 20)
#    0.000    2.538    0.769    2.308    0.000    6.462 
#    0.000    5.385    0.000    3.231    0.000    0.000 
#    0.000    0.000    0.000    0.000    0.000    0.000 
#
# Total GULP energy -644853.378227 kJ/mol
# GULP energy per Si atom -12401.026504 kJ/mol
# Density = 1.887163 g / cm^3
# Si number density = 18.914679 Si / 1000 Ang^3
#
#
#
# Elastic Constant Matrix: (Units=GPa)
#
#
# Indices 1 2 3 4 5 6 
#
# 1 71.9260 23.0305 40.1131 0.0000 0.0000 0.0000
# 2 23.0305 82.5853 16.1149 0.0000 0.0000 0.0000
# 3 40.1131 16.1149 84.7475 0.0000 0.0000 0.0000
# 4 0.0000 0.0000 0.0000 14.8166 0.0000 0.0000
# 5 0.0000 0.0000 0.0000 0.0000 35.4899 0.0000
# 6 0.0000 0.0000 0.0000 0.0000 0.0000 19.8361
#
#
#
# Elastic Compliance Matrix: (Units=1/GPa)
#
#
# Indices 1 2 3 4 5 6 
#
# 1 0.020018 -0.003877 -0.008738 0.000000 0.000000 0.000000
# 2 -0.003877 0.013326 -0.000699 0.000000 0.000000 0.000000
# 3 -0.008738 -0.000699 0.016068 0.000000 0.000000 0.000000
# 4 0.000000 0.000000 0.000000 0.067492 0.000000 0.000000
# 5 0.000000 0.000000 0.000000 0.000000 0.028177 0.000000
# 6 0.000000 0.000000 0.000000 0.000000 0.000000 0.050413
#
#
# Mechanical properties :
#
#
# Convention : Reuss Voigt Hill
#
# Bulk Modulus (GPa) = 43.88870 44.19733 44.04301
# Shear Modulus (GPa) = 21.76595 24.69520 23.23058
#
# Velocity S-wave (km/s) = 3.39594 3.61724 3.50834
# Velocity P-wave (km/s) = 6.21534 6.39244 6.30451
#
# Compressibility (1/GPa) = 0.02278491
#
# Stress axis : x y z
#
# Youngs Moduli (GPa) = 49.95604 75.03950 62.23425
#
# Poissons Ratio (x) = 0.29095 0.54377
# Poissons Ratio (y) = 0.19370 0.04349
# Poissons Ratio (z) = 0.43649 0.05244
#
# Static dielectric constant tensor:
#      x y z
#    x 3.342860 0.000000 0.000000 
#    y 0.000000 3.530470 0.000000 
#    z 0.000000 0.000000 3.364630 
# 
# 
# High freq. dielectric constant tensor:
#      x y z
#    x 1.723930 0.000000 0.000000 
#    y 0.000000 1.733130 0.000000 
#    z 0.000000 0.000000 1.731270 
# 
# From -- ./inp_files/11048.got.cif
#   From: 2010.03.12/outbox.cif.g09.slc.cpg/sg47_6_cif.got.tgz:11048.got - 2010.04.14 03:12:58.
