data_PCOD8199535
_publ_section_title
;
Structure prediction by ZEFSAII (Michael W. Deem and Ramdas Pophale) SiO2 
 PCOD8199535
Probable space group: P M M M
;
_chemical_formula_sum "Si O2"
_cell_formula_units_Z 52
_cell_length_a 21.602327
_cell_length_b 9.063211
_cell_length_c 14.002067
_cell_angle_alpha 90.000000
_cell_angle_beta 90.000000
_cell_angle_gamma 90.000000
_cell_volume 2741.414958
_symmetry_space_group_name_H-M "P M M M"
_symmetry_group_IT_number 47
_symmetry_cell_setting 'orthorhombic'
loop_
_space_group_symop_operation_xyz
x,y,z
-x,-y,z
x,-y,-z
-x,y,-z
-x,-y,-z
x,y,-z
-x,y,z
x,-y,z
loop_
_atom_site_type_symbol
_atom_site_label
_atom_site_fract_x
_atom_site_fract_y
_atom_site_fract_z
Si Si1 0.889692 0.670413 0.284131
Si Si2 0.000000 0.829746 0.388289
Si Si3 0.429876 0.674356 0.208819
Si Si4 0.750788 0.671930 0.727249
Si Si5 0.072016 0.834250 0.891959
Si Si6 0.681387 0.172983 0.889849
Si Si7 0.636564 0.326253 0.395197
O O1 0.906962 0.500000 0.294896
O O2 0.819129 0.703958 0.314304
O O3 0.893395 0.717269 0.173750
O O4 0.937161 0.761148 0.348005
O O5 0.000000 0.802593 0.500000
O O6 0.000000 0.000000 0.359668
O O7 0.500000 0.719911 0.184955
O O8 0.419302 0.500000 0.197901
O O9 0.384887 0.755374 0.135076
O O10 0.414826 0.724074 0.318015
O O11 0.742610 0.500000 0.752451
O O12 0.736120 0.760554 0.824475
O O13 0.703864 0.721924 0.644072
O O14 0.000000 0.831318 0.865928
O O15 0.097589 0.000000 0.875446
O O16 0.083591 0.784107 0.000000
O O17 0.676823 0.000000 0.870368
O O18 0.697305 0.206968 0.000000
O O19 0.625081 0.253168 0.500000
O O20 0.634026 0.500000 0.407438
#
# Coordination Sequence:
#
# PCOD8199535 Si02
#       7
#     8   4   8   8   8   8   8
#     4  11  22  36  57  84 111 139 175 226 279 322
#     4  11  25  43  60  79 108 147 185 220 266 329
#     4   9  18  32  51  78 110 142 177 219 269 321
#     4   9  20  36  54  79 108 138 174 217 267 320
#     4   9  18  33  53  76 104 139 173 207 255 318
#     4  10  21  36  54  77 106 143 185 225 263 306
#     4   8  14  28  51  76 102 133 170 213 259 309
#
# _framework density 18.968305999999998
#
# number of rings (size 3 to 8) (size 9 to 14) (size 15 to 20)
#    0.000    2.538    0.769    2.538    0.000    5.538 
#    0.000    8.462    0.000    7.385    0.000    4.308 
#    0.000    0.000    0.000    0.000    0.000    0.000 
#
# Total GULP energy -644655.163262 kJ/mol
# GULP energy per Si atom -12397.214678 kJ/mol
# Density = 1.892513 g / cm^3
# Si number density = 18.968306 Si / 1000 Ang^3
#
#
#
# Elastic Constant Matrix: (Units=GPa)
#
#
# Indices 1 2 3 4 5 6 
#
# 1 100.5245 43.8191 20.2651 0.0000 0.0000 0.0000
# 2 43.8191 73.3072 39.3896 0.0000 0.0000 0.0000
# 3 20.2651 39.3896 68.0465 0.0000 0.0000 0.0000
# 4 0.0000 0.0000 0.0000 18.9978 0.0000 0.0000
# 5 0.0000 0.0000 0.0000 0.0000 11.5621 0.0000
# 6 0.0000 0.0000 0.0000 0.0000 0.0000 15.4915
#
#
#
# Elastic Compliance Matrix: (Units=1/GPa)
#
#
# Indices 1 2 3 4 5 6 
#
# 1 0.013495 -0.008574 0.000944 0.000000 0.000000 0.000000
# 2 -0.008574 0.025247 -0.012061 0.000000 0.000000 0.000000
# 3 0.000944 -0.012061 0.021396 0.000000 0.000000 0.000000
# 4 0.000000 0.000000 0.000000 0.052638 0.000000 0.000000
# 5 0.000000 0.000000 0.000000 0.000000 0.086489 0.000000
# 6 0.000000 0.000000 0.000000 0.000000 0.000000 0.064551
#
#
# Mechanical properties :
#
#
# Convention : Reuss Voigt Hill
#
# Bulk Modulus (GPa) = 48.17752 49.86953 49.02353
# Shear Modulus (GPa) = 16.12296 18.43726 17.28011
#
# Velocity S-wave (km/s) = 2.91863 3.12108 3.02155
# Velocity P-wave (km/s) = 6.06729 6.27186 6.17042
#
# Compressibility (1/GPa) = 0.02075657
#
# Stress axis : x y z
#
# Youngs Moduli (GPa) = 74.10235 39.60890 46.73689
#
# Poissons Ratio (x) = 0.33960 -0.04412
# Poissons Ratio (y) = 0.63534 0.56370
# Poissons Ratio (z) = -0.06996 0.47773
#
# Static dielectric constant tensor:
#      x y z
#    x 3.533770 0.000000 0.000000 
#    y 0.000000 3.321350 0.000000 
#    z 0.000000 0.000000 3.621460 
# 
# 
# High freq. dielectric constant tensor:
#      x y z
#    x 1.737060 0.000000 0.000000 
#    y 0.000000 1.718050 0.000000 
#    z 0.000000 0.000000 1.738060 
# 
# From -- ./inp_files/25005.got.cif
#   From: 2010.03.12/outbox.cif.g09.slc.cpg/sg47_13_cif.got.tgz:25005.got - 2010.04.14 03:12:58.
