data_PCOD8199787
_publ_section_title
;
Structure prediction by ZEFSAII (Michael W. Deem and Ramdas Pophale) SiO2 
 PCOD8199787
Probable space group: P M M M
;
_chemical_formula_sum "Si O2"
_cell_formula_units_Z 40
_cell_length_a 9.190940
_cell_length_b 15.292138
_cell_length_c 13.731533
_cell_angle_alpha 90.000000
_cell_angle_beta 90.000000
_cell_angle_gamma 90.000000
_cell_volume 1929.954918
_symmetry_space_group_name_H-M "P M M M"
_symmetry_group_IT_number 47
_symmetry_cell_setting 'orthorhombic'
loop_
_space_group_symop_operation_xyz
x,y,z
-x,-y,z
x,-y,-z
-x,y,-z
-x,-y,-z
x,y,-z
-x,y,z
x,-y,z
loop_
_atom_site_type_symbol
_atom_site_label
_atom_site_fract_x
_atom_site_fract_y
_atom_site_fract_z
Si Si1 0.840754 0.158870 0.892781
Si Si2 0.836189 0.602636 0.000000
Si Si3 0.338712 0.000000 0.116346
Si Si4 0.163368 0.741569 0.292964
Si Si5 0.330436 0.601818 0.803002
Si Si6 0.665246 0.901701 0.384675
O O1 0.735534 0.087287 0.843813
O O2 0.843992 0.240511 0.822270
O O3 0.000000 0.115510 0.901537
O O4 0.786726 0.190383 0.000000
O O5 0.746353 0.629491 0.903952
O O6 0.858300 0.500000 0.000000
O O7 0.000000 0.646418 0.000000
O O8 0.500000 0.000000 0.156823
O O9 0.325962 0.000000 0.000000
O O10 0.262299 0.653930 0.291121
O O11 0.229678 0.824695 0.348200
O O12 0.000000 0.723788 0.334021
O O13 0.500000 0.625826 0.812077
O O14 0.307393 0.500000 0.780036
O O15 0.677510 0.902895 0.500000
O O16 0.500000 0.880671 0.352456
O O17 0.708687 0.000000 0.345629
#
# Coordination Sequence:
#
# PCOD8199787 Si02
#       6
#     8   4   4   8   8   8
#     4   9  19  34  48  67 104 150 188 223 269 329
#     4   9  17  31  53  79 110 151 198 247 297 345
#     4   9  17  29  45  65  90 129 180 227 267 310
#     4  11  23  35  56  87 115 149 192 241 294 345
#     4  10  21  37  56  80 113 154 200 247 293 344
#     4   9  20  41  66  89 116 151 189 234 291 353
#
# _framework density 20.725874000000001
#
# number of rings (size 3 to 8) (size 9 to 14) (size 15 to 20)
#    0.000    2.400    0.000    2.400    2.800    6.000 
#    0.000    1.000    0.000    0.600    0.000    4.200 
#    0.000    0.000    0.000    0.000    0.000    0.000 
#
# Total GULP energy -495650.015966 kJ/mol
# GULP energy per Si atom -12391.250399 kJ/mol
# Density = 2.067870 g / cm^3
# Si number density = 20.725874 Si / 1000 Ang^3
#
#
#
# Elastic Constant Matrix: (Units=GPa)
#
#
# Indices 1 2 3 4 5 6 
#
# 1 153.3483 61.3368 23.7803 0.0000 0.0000 0.0000
# 2 61.3368 92.7070 25.7440 0.0000 0.0000 0.0000
# 3 23.7803 25.7440 26.0051 0.0000 0.0000 0.0000
# 4 0.0000 0.0000 0.0000 30.0959 0.0000 0.0000
# 5 0.0000 0.0000 0.0000 0.0000 23.7250 0.0000
# 6 0.0000 0.0000 0.0000 0.0000 0.0000 34.0791
#
#
#
# Elastic Compliance Matrix: (Units=1/GPa)
#
#
# Indices 1 2 3 4 5 6 
#
# 1 0.009062 -0.005095 -0.003243 0.000000 0.000000 0.000000
# 2 -0.005095 0.017741 -0.012904 0.000000 0.000000 0.000000
# 3 -0.003243 -0.012904 0.054193 0.000000 0.000000 0.000000
# 4 0.000000 0.000000 0.000000 0.033227 0.000000 0.000000
# 5 0.000000 0.000000 0.000000 0.000000 0.042150 0.000000
# 6 0.000000 0.000000 0.000000 0.000000 0.000000 0.029343
#
#
# Mechanical properties :
#
#
# Convention : Reuss Voigt Hill
#
# Bulk Modulus (GPa) = 25.96498 54.86471 40.41484
# Shear Modulus (GPa) = 20.74370 28.32662 24.53516
#
# Velocity S-wave (km/s) = 3.16707 3.70094 3.44436
# Velocity P-wave (km/s) = 5.09203 6.69266 5.94645
#
# Compressibility (1/GPa) = 0.03851342
#
# Stress axis : x y z
#
# Youngs Moduli (GPa) = 110.35207 56.36702 18.45242
#
# Poissons Ratio (x) = 0.28719 0.05984
# Poissons Ratio (y) = 0.56225 0.23810
# Poissons Ratio (z) = 0.35785 0.72734
#
# Static dielectric constant tensor:
#      x y z
#    x 3.947450 0.000000 0.000000 
#    y 0.000000 3.727400 0.000000 
#    z 0.000000 0.000000 3.445720 
# 
# 
# High freq. dielectric constant tensor:
#      x y z
#    x 1.816520 0.000000 0.000000 
#    y 0.000000 1.813550 0.000000 
#    z 0.000000 0.000000 1.781020 
# 
# From -- ./inp_files/20735.got.cif
#   From: 2010.03.12/outbox.cif.g09.slc.cpg/sg47_11_cif.got.tgz:20735.got - 2010.04.14 03:12:58.
