data_PCOD8199475
_publ_section_title
;
Structure prediction by ZEFSAII (Michael W. Deem and Ramdas Pophale) SiO2 
 PCOD8199475
Probable space group: P M M M
;
_chemical_formula_sum "Si O2"
_cell_formula_units_Z 44
_cell_length_a 9.230798
_cell_length_b 14.292324
_cell_length_c 17.365861
_cell_angle_alpha 90.000000
_cell_angle_beta 90.000000
_cell_angle_gamma 90.000000
_cell_volume 2291.070328
_symmetry_space_group_name_H-M "P M M M"
_symmetry_group_IT_number 47
_symmetry_cell_setting 'orthorhombic'
loop_
_space_group_symop_operation_xyz
x,y,z
-x,-y,z
x,-y,-z
-x,y,-z
-x,-y,-z
x,y,-z
-x,y,z
x,-y,z
loop_
_atom_site_type_symbol
_atom_site_label
_atom_site_fract_x
_atom_site_fract_y
_atom_site_fract_z
Si Si1 0.330594 0.392939 0.500000
Si Si2 0.164850 0.268259 0.389373
Si Si3 0.162494 0.111269 0.000000
Si Si4 0.169290 0.105400 0.500000
Si Si5 0.331589 0.609709 0.912035
Si Si6 0.166314 0.263431 0.788921
Si Si7 0.331478 0.107780 0.851837
O O1 0.286074 0.500000 0.500000
O O2 0.500000 0.376828 0.500000
O O3 0.265945 0.347312 0.423927
O O4 0.214017 0.165565 0.422895
O O5 0.177560 0.290933 0.299495
O O6 0.000000 0.282674 0.416678
O O7 0.251894 0.147312 0.072562
O O8 0.000000 0.152712 0.000000
O O9 0.158418 0.000000 0.000000
O O10 0.000000 0.088220 0.500000
O O11 0.241974 0.000000 0.500000
O O12 0.500000 0.634031 0.898501
O O13 0.303732 0.500000 0.900176
O O14 0.237035 0.662997 0.847997
O O15 0.287233 0.637869 0.000000
O O16 0.256628 0.166567 0.785167
O O17 0.000000 0.247279 0.813918
O O18 0.500000 0.128877 0.860272
O O19 0.300196 0.000000 0.835894
#
# Coordination Sequence:
#
# PCOD8199475 Si02
#       7
#     4   8   4   4   8   8   8
#     4  10  21  37  60  87 112 143 181 224 278 336
#     4   9  20  37  55  82 117 149 184 225 275 337
#     4   9  17  31  51  73  98 131 178 235 283 323
#     4   8  14  30  58  83 104 139 185 226 264 316
#     4   9  20  40  62  81 105 143 191 241 294 350
#     4  11  23  36  55  84 117 152 188 234 289 340
#     4  10  21  36  53  75 107 149 192 232 279 335
#
# _framework density 19.204998
#
# number of rings (size 3 to 8) (size 9 to 14) (size 15 to 20)
#    0.000    2.455    0.000    2.727    1.273    6.545 
#    0.000    6.364    0.000    4.364    0.000    0.000 
#    0.000    0.000    0.000    0.000    0.000    0.000 
#
# Total GULP energy -545220.791456 kJ/mol
# GULP energy per Si atom -12391.381624 kJ/mol
# Density = 1.916129 g / cm^3
# Si number density = 19.204998 Si / 1000 Ang^3
#
#
#
# Elastic Constant Matrix: (Units=GPa)
#
#
# Indices 1 2 3 4 5 6 
#
# 1 77.6425 72.0997 34.5509 0.0000 0.0000 0.0000
# 2 72.0997 116.3554 57.6361 0.0000 0.0000 0.0000
# 3 34.5509 57.6361 98.0493 0.0000 0.0000 0.0000
# 4 0.0000 0.0000 0.0000 15.7506 0.0000 0.0000
# 5 0.0000 0.0000 0.0000 0.0000 140.6924 0.0000
# 6 0.0000 0.0000 0.0000 0.0000 0.0000 32.1169
#
#
#
# Elastic Compliance Matrix: (Units=1/GPa)
#
#
# Indices 1 2 3 4 5 6 
#
# 1 0.030352 -0.019060 0.000508 0.000000 0.000000 0.000000
# 2 -0.019060 0.024093 -0.007446 0.000000 0.000000 0.000000
# 3 0.000508 -0.007446 0.014397 0.000000 0.000000 0.000000
# 4 0.000000 0.000000 0.000000 0.063490 0.000000 0.000000
# 5 0.000000 0.000000 0.000000 0.000000 0.007108 0.000000
# 6 0.000000 0.000000 0.000000 0.000000 0.000000 0.031136
#
#
# Mechanical properties :
#
#
# Convention : Reuss Voigt Hill
#
# Bulk Modulus (GPa) = 59.35794 68.95783 64.15789
# Shear Modulus (GPa) = 21.91179 46.22933 34.07056
#
# Velocity S-wave (km/s) = 3.38145 4.91160 4.21651
# Velocity P-wave (km/s) = 6.79855 8.25525 7.56206
#
# Compressibility (1/GPa) = 0.01684694
#
# Stress axis : x y z
#
# Youngs Moduli (GPa) = 32.94640 41.50560 69.45845
#
# Poissons Ratio (x) = 0.79108 -0.03529
# Poissons Ratio (y) = 0.62794 0.51721
# Poissons Ratio (z) = -0.01674 0.30907
#
# Static dielectric constant tensor:
#      x y z
#    x 3.511870 0.000000 0.000000 
#    y 0.000000 3.535210 0.000000 
#    z 0.000000 0.000000 3.540360 
# 
# 
# High freq. dielectric constant tensor:
#      x y z
#    x 1.744030 0.000000 0.000000 
#    y 0.000000 1.749080 0.000000 
#    z 0.000000 0.000000 1.743990 
# 
# From -- ./inp_files/26395.got.cif
#   From: 2010.03.12/outbox.cif.g09.slc.cpg/sg47_14_cif.got.tgz:26395.got - 2010.04.14 03:12:58.
