data_PCOD8199617
_publ_section_title
;
Structure prediction by ZEFSAII (Michael W. Deem and Ramdas Pophale) SiO2 
 PCOD8199617
Probable space group: P M M M
;
_chemical_formula_sum "Si O2"
_cell_formula_units_Z 44
_cell_length_a 27.875721
_cell_length_b 9.507895
_cell_length_c 9.034259
_cell_angle_alpha 90.000000
_cell_angle_beta 90.000000
_cell_angle_gamma 90.000000
_cell_volume 2394.434841
_symmetry_space_group_name_H-M "P M M M"
_symmetry_group_IT_number 47
_symmetry_cell_setting 'orthorhombic'
loop_
_space_group_symop_operation_xyz
x,y,z
-x,-y,z
x,-y,-z
-x,y,-z
-x,-y,-z
x,y,-z
-x,y,z
x,-y,z
loop_
_atom_site_type_symbol
_atom_site_label
_atom_site_fract_x
_atom_site_fract_y
_atom_site_fract_z
Si Si1 0.500000 0.335254 0.174453
Si Si2 0.946347 0.834989 0.831495
Si Si3 0.582904 0.162444 0.326115
Si Si4 0.131883 0.655158 0.674585
Si Si5 0.760610 0.665606 0.668738
Si Si6 0.681342 0.838279 0.829524
O O1 0.500000 0.500000 0.213761
O O2 0.546674 0.264153 0.243110
O O3 0.500000 0.309480 0.000000
O O4 0.907384 0.762604 0.730232
O O5 0.000000 0.790747 0.781300
O O6 0.939790 0.000000 0.813546
O O7 0.937897 0.788636 0.000000
O O8 0.579935 0.191700 0.500000
O O9 0.635672 0.201095 0.269615
O O10 0.570303 0.000000 0.289908
O O11 0.128889 0.648091 0.500000
O O12 0.121505 0.500000 0.740639
O O13 0.185351 0.704154 0.719696
O O14 0.751412 0.715270 0.500000
O O15 0.751873 0.500000 0.681930
O O16 0.725668 0.744461 0.779816
O O17 0.695785 0.000000 0.806316
O O18 0.668996 0.806258 0.000000
#
# Coordination Sequence:
#
# PCOD8199617 Si02
#       6
#     4   8   8   8   8   8
#     4  11  24  39  56  82 114 145 178 217 262 312
#     4   9  19  35  52  72 101 135 170 210 257 309
#     4  10  21  38  60  83 107 140 181 220 261 311
#     4   9  19  35  53  75 103 134 171 214 258 307
#     4   9  19  36  55  75 103 139 175 212 258 310
#     4  10  21  36  55  81 110 139 174 216 261 309
#
# _framework density 18.375942999999999
#
# number of rings (size 3 to 8) (size 9 to 14) (size 15 to 20)
#    0.000    2.455    0.000    3.273    0.000    8.000 
#    0.000    8.182    0.000    0.000    0.000    0.000 
#    0.000    0.000    0.000    0.000    0.000    0.000 
#
# Total GULP energy -545631.447411 kJ/mol
# GULP energy per Si atom -12400.714714 kJ/mol
# Density = 1.833412 g / cm^3
# Si number density = 18.375943 Si / 1000 Ang^3
#
#
#
# Elastic Constant Matrix: (Units=GPa)
#
#
# Indices 1 2 3 4 5 6 
#
# 1 132.5752 67.2522 53.3276 0.0000 0.0000 0.0000
# 2 67.2522 70.6854 43.7905 0.0000 0.0000 0.0000
# 3 53.3276 43.7905 70.8704 0.0000 0.0000 0.0000
# 4 0.0000 0.0000 0.0000 31.4446 0.0000 0.0000
# 5 0.0000 0.0000 0.0000 0.0000 55.7109 0.0000
# 6 0.0000 0.0000 0.0000 0.0000 0.0000 35.6438
#
#
#
# Elastic Compliance Matrix: (Units=1/GPa)
#
#
# Indices 1 2 3 4 5 6 
#
# 1 0.015272 -0.012007 -0.004072 0.000000 0.000000 0.000000
# 2 -0.012007 0.032362 -0.010961 0.000000 0.000000 0.000000
# 3 -0.004072 -0.010961 0.023947 0.000000 0.000000 0.000000
# 4 0.000000 0.000000 0.000000 0.031802 0.000000 0.000000
# 5 0.000000 0.000000 0.000000 0.000000 0.017950 0.000000
# 6 0.000000 0.000000 0.000000 0.000000 0.000000 0.028055
#
#
# Mechanical properties :
#
#
# Convention : Reuss Voigt Hill
#
# Bulk Modulus (GPa) = 57.14418 66.98572 62.06495
# Shear Modulus (GPa) = 23.88874 31.87724 27.88299
#
# Velocity S-wave (km/s) = 3.60946 4.16952 3.89956
# Velocity P-wave (km/s) = 6.96676 7.72735 7.35689
#
# Compressibility (1/GPa) = 0.01749960
#
# Stress axis : x y z
#
# Youngs Moduli (GPa) = 65.47909 30.90048 41.75814
#
# Poissons Ratio (x) = 0.37103 0.17006
# Poissons Ratio (y) = 0.78623 0.45772
# Poissons Ratio (z) = 0.26666 0.33870
#
# Static dielectric constant tensor:
#      x y z
#    x 3.476360 0.000000 0.000000 
#    y 0.000000 3.470340 0.000000 
#    z 0.000000 0.000000 3.379560 
# 
# 
# High freq. dielectric constant tensor:
#      x y z
#    x 1.723270 0.000000 0.000000 
#    y 0.000000 1.708230 0.000000 
#    z 0.000000 0.000000 1.714130 
# 
# From -- ./inp_files/13546.got.cif
#   From: 2010.03.12/outbox.cif.g09.slc.cpg/sg47_7_cif.got.tgz:13546.got - 2010.04.14 03:12:58.
