data_PCOD8199094
_publ_section_title
;
Structure prediction by ZEFSAII (Michael W. Deem and Ramdas Pophale) SiO2 
 PCOD8199094
Probable space group: P M M M
;
_chemical_formula_sum "Si O2"
_cell_formula_units_Z 48
_cell_length_a 7.882615
_cell_length_b 9.807912
_cell_length_c 34.271740
_cell_angle_alpha 90.000000
_cell_angle_beta 90.000000
_cell_angle_gamma 90.000000
_cell_volume 2649.616566
_symmetry_space_group_name_H-M "P M M M"
_symmetry_group_IT_number 47
_symmetry_cell_setting 'orthorhombic'
loop_
_space_group_symop_operation_xyz
x,y,z
-x,-y,z
x,-y,-z
-x,y,-z
-x,-y,-z
x,y,-z
-x,y,z
x,-y,z
loop_
_atom_site_type_symbol
_atom_site_label
_atom_site_fract_x
_atom_site_fract_y
_atom_site_fract_z
Si Si1 0.000000 0.336760 0.094467
Si Si2 0.302397 0.340626 0.762692
Si Si3 0.688343 0.662040 0.043869
Si Si4 0.193833 0.849381 0.389044
Si Si5 0.000000 0.339291 0.181741
Si Si6 0.694553 0.151011 0.306449
Si Si7 0.699502 0.346005 0.543847
O O1 0.831954 0.279566 0.072798
O O2 0.000000 0.500000 0.094322
O O3 0.000000 0.276738 0.138281
O O4 0.500000 0.309096 0.773817
O O5 0.280907 0.500000 0.753181
O O6 0.234479 0.258664 0.724807
O O7 0.174874 0.293528 0.797070
O O8 0.500000 0.710551 0.057403
O O9 0.695189 0.500000 0.044122
O O10 0.725206 0.714740 0.000000
O O11 0.285000 0.790585 0.350406
O O12 0.211901 0.752976 0.426003
O O13 0.000000 0.860197 0.377591
O O14 0.267000 0.000000 0.399402
O O15 0.000000 0.500000 0.178530
O O16 0.500000 0.134039 0.296674
O O17 0.781562 0.000000 0.303045
O O18 0.752418 0.303090 0.500000
O O19 0.500000 0.334691 0.549074
O O20 0.760273 0.500000 0.552079
#
# Coordination Sequence:
#
# PCOD8199094 Si02
#       7
#     4   8   8   8   4   8   8
#     4   9  15  22  33  49  71 103 142 185 233 276
#     4   9  18  32  48  66  90 120 153 191 235 282
#     4   8  13  20  30  46  69  99 139 187 233 274
#     4  10  21  34  49  74 103 126 151 187 232 280
#     4   9  18  29  41  60  85 115 153 195 236 282
#     4   9  18  33  52  72  93 118 151 191 231 273
#     4   9  19  36  55  73  95 126 163 197 227 267
#
# _framework density 18.115829000000002
#
# number of rings (size 3 to 8) (size 9 to 14) (size 15 to 20)
#    0.000    3.000    0.000    1.750    1.167    4.333 
#    0.000    7.500    0.000    0.000    0.000    0.000 
#    0.000    0.000    0.000    0.000    0.000    6.667 
#
# Total GULP energy -594814.589101 kJ/mol
# GULP energy per Si atom -12391.970606 kJ/mol
# Density = 1.807460 g / cm^3
# Si number density = 18.115829 Si / 1000 Ang^3
#
#
#
# Elastic Constant Matrix: (Units=GPa)
#
#
# Indices 1 2 3 4 5 6 
#
# 1 91.4991 27.8348 64.8672 0.0000 0.0000 0.0000
# 2 27.8348 43.0192 49.2898 0.0000 0.0000 0.0000
# 3 64.8672 49.2898 151.6725 0.0000 0.0000 0.0000
# 4 0.0000 0.0000 0.0000 1.7920 0.0000 0.0000
# 5 0.0000 0.0000 0.0000 0.0000 27.5753 0.0000
# 6 0.0000 0.0000 0.0000 0.0000 0.0000 12.4169
#
#
#
# Elastic Compliance Matrix: (Units=1/GPa)
#
#
# Indices 1 2 3 4 5 6 
#
# 1 0.016112 -0.004030 -0.005581 0.000000 0.000000 0.000000
# 2 -0.004030 0.038044 -0.010640 0.000000 0.000000 0.000000
# 3 -0.005581 -0.010640 0.012438 0.000000 0.000000 0.000000
# 4 0.000000 0.000000 0.000000 0.558037 0.000000 0.000000
# 5 0.000000 0.000000 0.000000 0.000000 0.036264 0.000000
# 6 0.000000 0.000000 0.000000 0.000000 0.000000 0.080536
#
#
# Mechanical properties :
#
#
# Convention : Reuss Voigt Hill
#
# Bulk Modulus (GPa) = 38.32702 63.35272 50.83987
# Shear Modulus (GPa) = 6.32409 17.97009 12.14709
#
# Velocity S-wave (km/s) = 1.87043 3.15295 2.59226
# Velocity P-wave (km/s) = 5.08598 6.94994 6.08970
#
# Compressibility (1/GPa) = 0.02609126
#
# Stress axis : x y z
#
# Youngs Moduli (GPa) = 62.06703 26.28558 80.40189
#
# Poissons Ratio (x) = 0.10594 0.44871
# Poissons Ratio (y) = 0.25016 0.85544
# Poissons Ratio (z) = 0.34638 0.27967
#
# Static dielectric constant tensor:
#      x y z
#    x 3.446380 0.000000 0.000000 
#    y 0.000000 3.212470 0.000000 
#    z 0.000000 0.000000 3.494800 
# 
# 
# High freq. dielectric constant tensor:
#      x y z
#    x 1.708760 0.000000 0.000000 
#    y 0.000000 1.652600 0.000000 
#    z 0.000000 0.000000 1.699480 
# 
# From -- ./inp_files/34049.got.cif
#   From: 2010.03.12/outbox.cif.g09.slc.cpg/sg47_18_cif.got.tgz:34049.got - 2010.04.14 03:12:58.
