data_PCOD8199803
_publ_section_title
;
Structure prediction by ZEFSAII (Michael W. Deem and Ramdas Pophale) SiO2 
 PCOD8199803
Probable space group: P M M M
;
_chemical_formula_sum "Si O2"
_cell_formula_units_Z 44
_cell_length_a 9.089580
_cell_length_b 9.192045
_cell_length_c 28.121845
_cell_angle_alpha 90.000000
_cell_angle_beta 90.000000
_cell_angle_gamma 90.000000
_cell_volume 2349.631567
_symmetry_space_group_name_H-M "P M M M"
_symmetry_group_IT_number 47
_symmetry_cell_setting 'orthorhombic'
loop_
_space_group_symop_operation_xyz
x,y,z
-x,-y,z
x,-y,-z
-x,y,-z
-x,-y,-z
x,y,-z
-x,y,z
x,-y,z
loop_
_atom_site_type_symbol
_atom_site_label
_atom_site_fract_x
_atom_site_fract_y
_atom_site_fract_z
Si Si1 0.328939 0.831480 0.815743
Si Si2 0.168690 0.832258 0.445025
Si Si3 0.172578 0.832181 0.719923
Si Si4 0.330669 0.328943 0.364532
Si Si5 0.675217 0.335677 0.908390
Si Si6 0.324425 0.835352 0.000000
O O1 0.500000 0.800847 0.806513
O O2 0.241966 0.778740 0.769378
O O3 0.268121 0.739926 0.860241
O O4 0.299540 0.000000 0.827056
O O5 0.203319 0.802393 0.500000
O O6 0.276483 0.732291 0.414800
O O7 0.000000 0.792568 0.433278
O O8 0.197949 0.000000 0.432174
O O9 0.236354 0.737608 0.677674
O O10 0.000000 0.807026 0.722597
O O11 0.212944 0.000000 0.710445
O O12 0.500000 0.285996 0.357258
O O13 0.306955 0.500000 0.364678
O O14 0.500000 0.333848 0.909447
O O15 0.735680 0.500000 0.910531
O O16 0.736914 0.247136 0.953534
O O17 0.500000 0.835070 0.000000
O O18 0.264274 0.000000 0.000000
#
# Coordination Sequence:
#
# PCOD8199803 Si02
#       6
#     8   8   8   8   8   4
#     4   9  17  30  48  70  97 129 164 203 250 302
#     4   9  19  37  60  84 109 139 177 218 258 304
#     4  10  21  37  57  79 102 132 173 218 261 309
#     4  11  24  38  53  78 111 143 175 214 260 309
#     4   9  16  25  39  62  93 127 162 202 247 295
#     4   9  15  23  37  59  90 127 164 201 244 296
#
# _framework density 18.726341000000001
#
# number of rings (size 3 to 8) (size 9 to 14) (size 15 to 20)
#    0.000    2.455    0.000    3.000    0.000    9.818 
#    0.000    4.545    0.000    0.000    0.000    0.636 
#    0.000    5.091    0.000    0.000    0.000    0.000 
#
# Total GULP energy -545710.233728 kJ/mol
# GULP energy per Si atom -12402.505312 kJ/mol
# Density = 1.868372 g / cm^3
# Si number density = 18.726341 Si / 1000 Ang^3
#
#
#
# Elastic Constant Matrix: (Units=GPa)
#
#
# Indices 1 2 3 4 5 6 
#
# 1 48.2744 33.5522 42.1746 0.0000 0.0000 0.0000
# 2 33.5522 98.0395 66.9508 0.0000 0.0000 0.0000
# 3 42.1746 66.9508 141.4980 0.0000 0.0000 0.0000
# 4 0.0000 0.0000 0.0000 13.7098 0.0000 0.0000
# 5 0.0000 0.0000 0.0000 0.0000 -1.7677 0.0000
# 6 0.0000 0.0000 0.0000 0.0000 0.0000 20.8396
#
#
#
# Elastic Compliance Matrix: (Units=1/GPa)
#
#
# Indices 1 2 3 4 5 6 
#
# 1 0.030379 -0.006224 -0.006109 0.000000 0.000000 0.000000
# 2 -0.006224 0.016344 -0.005878 0.000000 0.000000 0.000000
# 3 -0.006109 -0.005878 0.011670 0.000000 0.000000 0.000000
# 4 0.000000 0.000000 0.000000 0.072941 0.000000 0.000000
# 5 0.000000 0.000000 0.000000 0.000000 -0.565709 0.000000
# 6 0.000000 0.000000 0.000000 0.000000 0.000000 0.047986
#
#
# Mechanical properties :
#
#
# Convention : Reuss Voigt Hill
#
# Bulk Modulus (GPa) = 45.52006 63.68523 54.60265
# Shear Modulus (GPa) = -14.59245 16.23195 0.81975
#
# Velocity S-wave (km/s) = -2.79453 2.94734 0.66235
# Velocity P-wave (km/s) = 3.73474 6.75756 5.45953
#
# Compressibility (1/GPa) = 0.02196833
#
# Stress axis : x y z
#
# Youngs Moduli (GPa) = 32.91792 61.18319 85.69317
#
# Poissons Ratio (x) = 0.38083 0.52354
# Poissons Ratio (y) = 0.20489 0.50372
# Poissons Ratio (z) = 0.20111 0.35965
#
# Static dielectric constant tensor:
#      x y z
#    x 3.142110 0.000000 0.000000 
#    y 0.000000 3.481730 0.000000 
#    z 0.000000 0.000000 3.597870 
# 
# 
# High freq. dielectric constant tensor:
#      x y z
#    x 1.693870 0.000000 0.000000 
#    y 0.000000 1.728040 0.000000 
#    z 0.000000 0.000000 1.743830 
# 
# From -- ./inp_files/33911.got.cif
#   From: 2010.03.12/outbox.cif.g09.slc.cpg/sg47_17_cif.got.tgz:33911.got - 2010.04.14 03:12:58.
