data_PCOD8199983
_publ_section_title
;
Structure prediction by ZEFSAII (Michael W. Deem and Ramdas Pophale) SiO2 
 PCOD8199983
Probable space group: P M M M
;
_chemical_formula_sum "Si O2"
_cell_formula_units_Z 48
_cell_length_a 31.977454
_cell_length_b 9.434721
_cell_length_c 8.252553
_cell_angle_alpha 90.000000
_cell_angle_beta 90.000000
_cell_angle_gamma 90.000000
_cell_volume 2489.781679
_symmetry_space_group_name_H-M "P M M M"
_symmetry_group_IT_number 47
_symmetry_cell_setting 'orthorhombic'
loop_
_space_group_symop_operation_xyz
x,y,z
-x,-y,z
x,-y,-z
-x,y,-z
-x,-y,-z
x,y,-z
-x,y,z
x,-y,z
loop_
_atom_site_type_symbol
_atom_site_label
_atom_site_fract_x
_atom_site_fract_y
_atom_site_fract_z
Si Si1 0.452316 0.668738 0.500000
Si Si2 0.161649 0.659475 0.186141
Si Si3 0.404839 0.331819 0.819442
Si Si4 0.000000 0.845249 0.187165
Si Si5 0.763843 0.838922 0.686353
Si Si6 0.074060 0.659464 0.312972
Si Si7 0.309547 0.338848 0.813239
O O1 0.448609 0.500000 0.500000
O O2 0.500000 0.720177 0.500000
O O3 0.431479 0.728972 0.333108
O O4 0.174206 0.500000 0.241062
O O5 0.200658 0.761388 0.211745
O O6 0.121397 0.713975 0.285742
O O7 0.148630 0.662298 0.000000
O O8 0.408266 0.500000 0.822359
O O9 0.357017 0.286096 0.790625
O O10 0.419698 0.276615 0.000000
O O11 0.041774 0.761421 0.227502
O O12 0.000000 0.000000 0.274669
O O13 0.000000 0.872566 0.000000
O O14 0.776850 0.832816 0.500000
O O15 0.719385 0.763250 0.708406
O O16 0.760035 0.000000 0.748216
O O17 0.062960 0.660129 0.500000
O O18 0.069736 0.500000 0.241804
O O19 0.304659 0.500000 0.750372
O O20 0.295900 0.329913 0.000000
#
# Coordination Sequence:
#
# PCOD8199983 Si02
#       7
#     4   8   8   4   8   8   8
#     4   9  16  24  38  64  97 135 175 211 261 324
#     4  10  21  38  60  83 106 137 178 219 261 314
#     4   8  15  27  42  64  95 129 170 218 263 314
#     4  11  24  39  56  82 114 147 182 217 260 314
#     4  11  24  37  50  75 109 141 174 214 263 318
#     4  10  21  38  61  86 110 138 175 219 265 312
#     4   9  18  33  53  75  98 131 177 222 263 312
#
# _framework density 19.2788
#
# number of rings (size 3 to 8) (size 9 to 14) (size 15 to 20)
#    0.000    2.333    0.000    3.500    1.167    8.333 
#    0.000    1.667    0.000    0.000    0.000    0.000 
#    0.000    1.333    0.000    3.667    0.000    3.667 
#
# Total GULP energy -595099.625636 kJ/mol
# GULP energy per Si atom -12397.908867 kJ/mol
# Density = 1.923492 g / cm^3
# Si number density = 19.278800 Si / 1000 Ang^3
#
#
#
# Elastic Constant Matrix: (Units=GPa)
#
#
# Indices 1 2 3 4 5 6 
#
# 1 122.1236 53.3630 46.6201 0.0000 0.0000 0.0000
# 2 53.3630 80.2776 29.9462 0.0000 0.0000 0.0000
# 3 46.6201 29.9462 89.1437 0.0000 0.0000 0.0000
# 4 0.0000 0.0000 0.0000 19.4702 0.0000 0.0000
# 5 0.0000 0.0000 0.0000 0.0000 39.1067 0.0000
# 6 0.0000 0.0000 0.0000 0.0000 0.0000 -4.1789
#
#
#
# Elastic Compliance Matrix: (Units=1/GPa)
#
#
# Indices 1 2 3 4 5 6 
#
# 1 0.012903 -0.006928 -0.004421 0.000000 0.000000 0.000000
# 2 -0.006928 0.017961 -0.002411 0.000000 0.000000 0.000000
# 3 -0.004421 -0.002411 0.014340 0.000000 0.000000 0.000000
# 4 0.000000 0.000000 0.000000 0.051360 0.000000 0.000000
# 5 0.000000 0.000000 0.000000 0.000000 0.025571 0.000000
# 6 0.000000 0.000000 0.000000 0.000000 0.000000 -0.239296
#
#
# Mechanical properties :
#
#
# Convention : Reuss Voigt Hill
#
# Bulk Modulus (GPa) = 56.54389 61.26704 58.90547
# Shear Modulus (GPa) = -59.70401 21.65399 -19.02501
#
# Velocity S-wave (km/s) = -5.57099 3.35506 -3.14480
# Velocity P-wave (km/s) = 3.46238 6.84522 4.17546
#
# Compressibility (1/GPa) = 0.01768538
#
# Stress axis : x y z
#
# Youngs Moduli (GPa) = 77.49929 55.67515 69.73715
#
# Poissons Ratio (x) = 0.38573 0.30829
# Poissons Ratio (y) = 0.53693 0.16810
# Poissons Ratio (z) = 0.34261 0.13421
#
# Static dielectric constant tensor:
#      x y z
#    x 3.503710 0.000000 0.000000 
#    y 0.000000 3.323360 0.000000 
#    z 0.000000 0.000000 3.693500 
# 
# 
# High freq. dielectric constant tensor:
#      x y z
#    x 1.752450 0.000000 0.000000 
#    y 0.000000 1.711750 0.000000 
#    z 0.000000 0.000000 1.759310 
# 
# From -- ./inp_files/13984.got.cif
#   From: 2010.03.12/outbox.cif.g09.slc.cpg/sg47_7_cif.got.tgz:13984.got - 2010.04.14 03:12:58.
