data_PCOD8199168
_publ_section_title
;
Structure prediction by ZEFSAII (Michael W. Deem and Ramdas Pophale) SiO2 
 PCOD8199168
Probable space group: P M M M
;
_chemical_formula_sum "Si O2"
_cell_formula_units_Z 44
_cell_length_a 9.993644
_cell_length_b 8.056825
_cell_length_c 29.709247
_cell_angle_alpha 90.000000
_cell_angle_beta 90.000000
_cell_angle_gamma 90.000000
_cell_volume 2392.100653
_symmetry_space_group_name_H-M "P M M M"
_symmetry_group_IT_number 47
_symmetry_cell_setting 'orthorhombic'
loop_
_space_group_symop_operation_xyz
x,y,z
-x,-y,z
x,-y,-z
-x,y,-z
-x,-y,-z
x,y,-z
-x,y,z
x,-y,z
loop_
_atom_site_type_symbol
_atom_site_label
_atom_site_fract_x
_atom_site_fract_y
_atom_site_fract_z
Si Si1 0.659163 0.314541 0.393259
Si Si2 0.149204 0.809714 0.125162
Si Si3 0.351949 0.304628 0.707614
Si Si4 0.348518 0.694720 0.948909
Si Si5 0.340444 0.000000 0.551062
Si Si6 0.851422 0.307776 0.220224
O O1 0.500000 0.319958 0.395323
O O2 0.712977 0.500000 0.407013
O O3 0.703755 0.269023 0.342497
O O4 0.715373 0.168749 0.425578
O O5 0.246833 0.787288 0.083368
O O6 0.202764 0.713991 0.169307
O O7 0.000000 0.745945 0.112008
O O8 0.144729 0.000000 0.138699
O O9 0.500000 0.225115 0.714007
O O10 0.364020 0.500000 0.715324
O O11 0.250380 0.223974 0.744020
O O12 0.500000 0.746502 0.936556
O O13 0.329576 0.500000 0.942980
O O14 0.316360 0.748175 0.000000
O O15 0.500000 0.000000 0.553473
O O16 0.288571 0.000000 0.500000
O O17 0.861218 0.500000 0.231800
O O18 0.000000 0.226784 0.224482
#
# Coordination Sequence:
#
# PCOD8199168 Si02
#       6
#     8   8   8   8   4   8
#     4   8  14  25  39  56  83 117 151 191 236 280
#     4  10  21  35  49  69 100 132 159 191 234 285
#     4   8  14  26  44  64  87 117 151 187 232 283
#     4   9  19  36  56  76  96 120 155 199 242 283
#     4   9  16  24  36  58  87 119 155 191 232 285
#     4   9  17  30  48  68  91 121 157 197 237 276
#
# _framework density 18.393874
#
# number of rings (size 3 to 8) (size 9 to 14) (size 15 to 20)
#    0.000    3.182    0.000    2.182    0.000    3.273 
#    1.636    6.364    0.000    0.000    0.000    0.000 
#    0.000    1.455    0.000    7.091    0.000    7.273 
#
# Total GULP energy -545289.289361 kJ/mol
# GULP energy per Si atom -12392.938395 kJ/mol
# Density = 1.835201 g / cm^3
# Si number density = 18.393874 Si / 1000 Ang^3
#
#
#
# Elastic Constant Matrix: (Units=GPa)
#
#
# Indices 1 2 3 4 5 6 
#
# 1 66.8708 25.2125 64.5213 0.0000 0.0000 0.0000
# 2 25.2125 61.8917 43.9738 0.0000 0.0000 0.0000
# 3 64.5213 43.9738 138.0746 0.0000 0.0000 0.0000
# 4 0.0000 0.0000 0.0000 16.3254 0.0000 0.0000
# 5 0.0000 0.0000 0.0000 0.0000 7.2429 0.0000
# 6 0.0000 0.0000 0.0000 0.0000 0.0000 13.1126
#
#
#
# Elastic Compliance Matrix: (Units=1/GPa)
#
#
# Indices 1 2 3 4 5 6 
#
# 1 0.027574 -0.002686 -0.012030 0.000000 0.000000 0.000000
# 2 -0.002686 0.021144 -0.005479 0.000000 0.000000 0.000000
# 3 -0.012030 -0.005479 0.014609 0.000000 0.000000 0.000000
# 4 0.000000 0.000000 0.000000 0.061254 0.000000 0.000000
# 5 0.000000 0.000000 0.000000 0.000000 0.138066 0.000000
# 6 0.000000 0.000000 0.000000 0.000000 0.000000 0.076262
#
#
# Mechanical properties :
#
#
# Convention : Reuss Voigt Hill
#
# Bulk Modulus (GPa) = 43.59551 59.36137 51.47844
# Shear Modulus (GPa) = 12.92178 16.21150 14.56664
#
# Velocity S-wave (km/s) = 2.65336 2.97198 2.81718
# Velocity P-wave (km/s) = 5.75670 6.64224 6.21526
#
# Compressibility (1/GPa) = 0.02293814
#
# Stress axis : x y z
#
# Youngs Moduli (GPa) = 36.26619 47.29463 68.45158
#
# Poissons Ratio (x) = 0.12701 0.82346
# Poissons Ratio (y) = 0.09739 0.37505
# Poissons Ratio (z) = 0.43628 0.25913
#
# Static dielectric constant tensor:
#      x y z
#    x 3.411260 0.000000 0.000000 
#    y 0.000000 3.307730 0.000000 
#    z 0.000000 0.000000 3.472690 
# 
# 
# High freq. dielectric constant tensor:
#      x y z
#    x 1.674630 0.000000 0.000000 
#    y 0.000000 1.700350 0.000000 
#    z 0.000000 0.000000 1.712830 
# 
# From -- ./inp_files/1956.got.cif
#   From: 2010.03.12/outbox.cif.g09.slc.cpg/sg47_1_cif.got.tgz:1956.got - 2010.04.14 03:12:58.
