data_PCOD8199044
_publ_section_title
;
Structure prediction by ZEFSAII (Michael W. Deem and Ramdas Pophale) SiO2 
 PCOD8199044
Probable space group: P M M M
;
_chemical_formula_sum "Si O2"
_cell_formula_units_Z 48
_cell_length_a 9.123935
_cell_length_b 20.261961
_cell_length_c 15.160145
_cell_angle_alpha 90.000000
_cell_angle_beta 90.000000
_cell_angle_gamma 90.000000
_cell_volume 2802.638043
_symmetry_space_group_name_H-M "P M M M"
_symmetry_group_IT_number 47
_symmetry_cell_setting 'orthorhombic'
loop_
_space_group_symop_operation_xyz
x,y,z
-x,-y,z
x,-y,-z
-x,y,-z
-x,-y,-z
x,y,-z
-x,y,z
x,-y,z
loop_
_atom_site_type_symbol
_atom_site_label
_atom_site_fract_x
_atom_site_fract_y
_atom_site_fract_z
Si Si1 0.158580 0.500000 0.103558
Si Si2 0.168040 0.071909 0.331068
Si Si3 0.828883 0.788140 0.400930
Si Si4 0.172355 0.075769 0.000000
Si Si5 0.665155 0.737448 0.762284
Si Si6 0.664053 0.115542 0.168957
Si Si7 0.824531 0.643008 0.101104
O O1 0.237617 0.430533 0.127309
O O2 0.000000 0.500000 0.150918
O O3 0.132186 0.500000 0.000000
O O4 0.212630 0.133813 0.392372
O O5 0.267271 0.069992 0.244265
O O6 0.000000 0.080238 0.300928
O O7 0.189613 0.000000 0.378731
O O8 0.786946 0.766556 0.500000
O O9 0.741490 0.741056 0.333748
O O10 0.000000 0.777865 0.382274
O O11 0.236245 0.112336 0.083775
O O12 0.000000 0.084510 0.000000
O O13 0.221227 0.000000 0.000000
O O14 0.500000 0.710167 0.750770
O O15 0.663344 0.809503 0.801887
O O16 0.754035 0.692398 0.829689
O O17 0.500000 0.090417 0.148737
O O18 0.000000 0.644959 0.109466
O O19 0.779077 0.660968 0.000000
#
# Coordination Sequence:
#
# PCOD8199044 Si02
#       7
#     4   8   8   4   8   8   8
#     4   7  12  26  47  73 104 133 164 199 231 270
#     4   9  17  30  48  69  92 116 146 191 246 298
#     4   9  18  33  52  72  94 122 159 202 246 297
#     4  11  23  35  47  63  83 112 155 204 249 289
#     4  10  21  34  48  70 100 131 162 199 240 285
#     4  10  21  34  46  62  88 122 158 196 237 283
#     4   9  17  30  51  77 104 136 169 199 233 274
#
# _framework density 17.126721
#
# number of rings (size 3 to 8) (size 9 to 14) (size 15 to 20)
#    0.000    2.667    0.000    2.750    1.167    6.000 
#    0.000    2.083    0.000    1.500    0.000    5.250 
#    0.000    4.667    0.000    0.000    0.000    0.000 
#
# Total GULP energy -594798.701674 kJ/mol
# GULP energy per Si atom -12391.639618 kJ/mol
# Density = 1.708774 g / cm^3
# Si number density = 17.126721 Si / 1000 Ang^3
#
#
#
# Elastic Constant Matrix: (Units=GPa)
#
#
# Indices 1 2 3 4 5 6 
#
# 1 66.3572 27.9926 44.5827 0.0000 0.0000 0.0000
# 2 27.9926 67.6184 35.9371 0.0000 0.0000 0.0000
# 3 44.5827 35.9371 108.8873 0.0000 0.0000 0.0000
# 4 0.0000 0.0000 0.0000 20.3503 0.0000 0.0000
# 5 0.0000 0.0000 0.0000 0.0000 22.2288 0.0000
# 6 0.0000 0.0000 0.0000 0.0000 0.0000 10.9417
#
#
#
# Elastic Compliance Matrix: (Units=1/GPa)
#
#
# Indices 1 2 3 4 5 6 
#
# 1 0.022251 -0.005299 -0.007362 0.000000 0.000000 0.000000
# 2 -0.005299 0.019197 -0.004166 0.000000 0.000000 0.000000
# 3 -0.007362 -0.004166 0.013573 0.000000 0.000000 0.000000
# 4 0.000000 0.000000 0.000000 0.049139 0.000000 0.000000
# 5 0.000000 0.000000 0.000000 0.000000 0.044987 0.000000
# 6 0.000000 0.000000 0.000000 0.000000 0.000000 0.091394
#
#
# Mechanical properties :
#
#
# Convention : Reuss Voigt Hill
#
# Bulk Modulus (GPa) = 46.80019 51.09861 48.94940
# Shear Modulus (GPa) = 17.77357 19.66086 18.71721
#
# Velocity S-wave (km/s) = 3.22494 3.39184 3.30944
# Velocity P-wave (km/s) = 6.42278 6.72605 6.57617
#
# Compressibility (1/GPa) = 0.02136743
#
# Stress axis : x y z
#
# Youngs Moduli (GPa) = 44.94103 52.09226 73.67623
#
# Poissons Ratio (x) = 0.27604 0.54238
# Poissons Ratio (y) = 0.23815 0.30694
# Poissons Ratio (z) = 0.33084 0.21702
#
# Static dielectric constant tensor:
#      x y z
#    x 3.272430 0.000000 0.000000 
#    y 0.000000 3.362620 0.000000 
#    z 0.000000 0.000000 2.979400 
# 
# 
# High freq. dielectric constant tensor:
#      x y z
#    x 1.655540 0.000000 0.000000 
#    y 0.000000 1.648170 0.000000 
#    z 0.000000 0.000000 1.643090 
# 
# From -- ./inp_files/21053.got.cif
#   From: 2010.03.12/outbox.cif.g09.slc.cpg/sg47_11_cif.got.tgz:21053.got - 2010.04.14 03:12:58.
