data_PCOD8199712
_publ_section_title
;
Structure prediction by ZEFSAII (Michael W. Deem and Ramdas Pophale) SiO2 
 PCOD8199712
Probable space group: P M M M
;
_chemical_formula_sum "Si O2"
_cell_formula_units_Z 64
_cell_length_a 9.003561
_cell_length_b 19.916638
_cell_length_c 19.884588
_cell_angle_alpha 90.000000
_cell_angle_beta 90.000000
_cell_angle_gamma 90.000000
_cell_volume 3565.717546
_symmetry_space_group_name_H-M "P M M M"
_symmetry_group_IT_number 47
_symmetry_cell_setting 'orthorhombic'
loop_
_space_group_symop_operation_xyz
x,y,z
-x,-y,z
x,-y,-z
-x,y,-z
-x,-y,-z
x,y,-z
-x,y,z
x,-y,z
loop_
_atom_site_type_symbol
_atom_site_label
_atom_site_fract_x
_atom_site_fract_y
_atom_site_fract_z
Si Si1 0.169251 0.422624 0.922084
Si Si2 0.670257 0.077358 0.078137
Si Si3 0.323534 0.924872 0.574466
Si Si4 0.673036 0.175062 0.686716
Si Si5 0.325761 0.318927 0.830323
Si Si6 0.824445 0.424861 0.575067
Si Si7 0.824439 0.180418 0.173038
Si Si8 0.330399 0.328289 0.677997
O O1 0.205170 0.500000 0.907050
O O2 0.282957 0.378513 0.879905
O O3 0.000000 0.406052 0.901459
O O4 0.194377 0.406324 0.000000
O O5 0.500000 0.094726 0.096199
O O6 0.780593 0.123271 0.120449
O O7 0.703873 0.000000 0.095581
O O8 0.700489 0.091294 0.000000
O O9 0.263726 0.905765 0.500000
O O10 0.500000 0.920886 0.573997
O O11 0.260036 0.873401 0.629377
O O12 0.271330 0.000000 0.593507
O O13 0.500000 0.161102 0.701780
O O14 0.762466 0.160299 0.754248
O O15 0.695988 0.250505 0.660409
O O16 0.500000 0.303730 0.834602
O O17 0.241285 0.251365 0.851632
O O18 0.281569 0.341038 0.754941
O O19 0.768361 0.405434 0.500000
O O20 0.768492 0.500000 0.593063
O O21 0.767241 0.372688 0.629225
O O22 0.000000 0.422949 0.576855
O O23 0.000000 0.186568 0.176551
O O24 0.500000 0.349200 0.666883
#
# Coordination Sequence:
#
# PCOD8199712 Si02
#       8
#     8   8   8   8   8   8   8   8
#     4   9  19  36  56  79 108 139 171 209 254 305
#     4   9  19  37  59  80 103 134 172 212 255 306
#     4   8  14  26  47  75 102 129 166 209 249 292
#     4   9  18  33  51  73 103 135 168 209 253 299
#     4  10  21  37  55  76 104 137 175 217 257 303
#     4   9  19  35  52  71  97 129 165 204 247 301
#     4  11  22  35  53  77 106 138 172 213 259 308
#     4   9  19  33  49  72 100 129 164 208 254 297
#
# _framework density 17.948702000000001
#
# number of rings (size 3 to 8) (size 9 to 14) (size 15 to 20)
#    0.000    2.750    0.000    3.750    0.000    6.000 
#    0.000    6.875    0.000    0.375    0.000    0.875 
#    0.000    0.000    0.000    0.000    0.000    0.000 
#
# Total GULP energy -793569.406049 kJ/mol
# GULP energy per Si atom -12399.521970 kJ/mol
# Density = 1.790785 g / cm^3
# Si number density = 17.948702 Si / 1000 Ang^3
#
#
#
# Elastic Constant Matrix: (Units=GPa)
#
#
# Indices 1 2 3 4 5 6 
#
# 1 74.1067 46.2612 46.2110 0.0000 0.0000 0.0000
# 2 46.2612 106.4403 78.5932 0.0000 0.0000 0.0000
# 3 46.2110 78.5932 101.0282 0.0000 0.0000 0.0000
# 4 0.0000 0.0000 0.0000 40.6343 0.0000 0.0000
# 5 0.0000 0.0000 0.0000 0.0000 27.3670 0.0000
# 6 0.0000 0.0000 0.0000 0.0000 0.0000 24.3363
#
#
#
# Elastic Compliance Matrix: (Units=1/GPa)
#
#
# Indices 1 2 3 4 5 6 
#
# 1 0.019754 -0.004497 -0.005537 0.000000 0.000000 0.000000
# 2 -0.004497 0.023099 -0.015912 0.000000 0.000000 0.000000
# 3 -0.005537 -0.015912 0.024810 0.000000 0.000000 0.000000
# 4 0.000000 0.000000 0.000000 0.024610 0.000000 0.000000
# 5 0.000000 0.000000 0.000000 0.000000 0.036540 0.000000
# 6 0.000000 0.000000 0.000000 0.000000 0.000000 0.041091
#
#
# Mechanical properties :
#
#
# Convention : Reuss Voigt Hill
#
# Bulk Modulus (GPa) = 63.41383 69.30065 66.35724
# Shear Modulus (GPa) = 22.02124 25.83485 23.92805
#
# Velocity S-wave (km/s) = 3.50651 3.79802 3.65517
# Velocity P-wave (km/s) = 7.19732 7.61101 7.40706
#
# Compressibility (1/GPa) = 0.01576943
#
# Stress axis : x y z
#
# Youngs Moduli (GPa) = 50.62201 43.29251 40.30656
#
# Poissons Ratio (x) = 0.19468 0.22320
# Poissons Ratio (y) = 0.22764 0.64137
# Poissons Ratio (z) = 0.28032 0.68889
#
# Static dielectric constant tensor:
#      x y z
#    x 3.081640 0.000000 0.000000 
#    y 0.000000 3.385830 0.000000 
#    z 0.000000 0.000000 3.411830 
# 
# 
# High freq. dielectric constant tensor:
#      x y z
#    x 1.676350 0.000000 0.000000 
#    y 0.000000 1.698840 0.000000 
#    z 0.000000 0.000000 1.698480 
# 
# From -- ./inp_files/29962.got.cif
#   From: 2010.03.12/outbox.cif.g09.slc.cpg/sg47_15_cif.got.tgz:29962.got - 2010.04.14 03:12:58.
