data_PCOD8199607
_publ_section_title
;
Structure prediction by ZEFSAII (Michael W. Deem and Ramdas Pophale) SiO2 
 PCOD8199607
Probable space group: P M M M
;
_chemical_formula_sum "Si O2"
_cell_formula_units_Z 48
_cell_length_a 9.445257
_cell_length_b 15.239368
_cell_length_c 17.406823
_cell_angle_alpha 90.000000
_cell_angle_beta 90.000000
_cell_angle_gamma 90.000000
_cell_volume 2505.533704
_symmetry_space_group_name_H-M "P M M M"
_symmetry_group_IT_number 47
_symmetry_cell_setting 'orthorhombic'
loop_
_space_group_symop_operation_xyz
x,y,z
-x,-y,z
x,-y,-z
-x,y,-z
-x,-y,-z
x,y,-z
-x,y,z
x,-y,z
loop_
_atom_site_type_symbol
_atom_site_label
_atom_site_fract_x
_atom_site_fract_y
_atom_site_fract_z
Si Si1 0.831659 0.000000 0.412477
Si Si2 0.331487 0.767137 0.821446
Si Si3 0.845984 0.652451 0.410236
Si Si4 0.655610 0.500000 0.407975
Si Si5 0.157273 0.902276 0.909497
Si Si6 0.332149 0.401991 0.086418
Si Si7 0.164840 0.824854 0.328668
O O1 0.777988 0.084457 0.364727
O O2 0.770593 0.000000 0.500000
O O3 0.000000 0.000000 0.417741
O O4 0.500000 0.771258 0.811315
O O5 0.281984 0.839078 0.882513
O O6 0.279962 0.671498 0.852603
O O7 0.256119 0.792093 0.742561
O O8 0.848962 0.636971 0.500000
O O9 0.731965 0.586231 0.374154
O O10 0.809247 0.753065 0.394532
O O11 0.000000 0.629286 0.375099
O O12 0.500000 0.500000 0.372229
O O13 0.650775 0.500000 0.500000
O O14 0.000000 0.870540 0.882519
O O15 0.184339 0.000000 0.875929
O O16 0.162812 0.905703 0.000000
O O17 0.500000 0.399606 0.083633
O O18 0.280799 0.500000 0.111708
O O19 0.274760 0.381232 0.000000
O O20 0.000000 0.833269 0.304956
#
# Coordination Sequence:
#
# PCOD8199607 Si02
#       7
#     4   8   8   4   8   8   8
#     4   9  18  36  63  87 102 131 188 241 275 322
#     4  11  22  34  52  81 116 147 179 222 273 331
#     4   9  17  32  54  77 102 135 179 227 270 317
#     4   9  17  29  49  77 105 133 166 209 264 325
#     4   9  19  36  57  79 105 142 185 225 268 320
#     4   8  15  31  55  79 104 140 187 231 267 309
#     4  10  21  36  55  80 109 142 178 225 280 329
#
# _framework density 19.157595000000001
#
# number of rings (size 3 to 8) (size 9 to 14) (size 15 to 20)
#    0.000    2.667    0.000    2.750    1.167    5.000 
#    1.500    0.833    0.000    3.500    0.000    5.833 
#    0.000    0.000    0.000    0.000    0.000    0.000 
#
# Total GULP energy -594831.108627 kJ/mol
# GULP energy per Si atom -12392.314763 kJ/mol
# Density = 1.911399 g / cm^3
# Si number density = 19.157595 Si / 1000 Ang^3
#
#
#
# Elastic Constant Matrix: (Units=GPa)
#
#
# Indices 1 2 3 4 5 6 
#
# 1 81.1264 64.6132 31.3785 0.0000 0.0000 0.0000
# 2 64.6132 165.8648 55.3228 0.0000 0.0000 0.0000
# 3 31.3785 55.3228 73.9917 0.0000 0.0000 0.0000
# 4 0.0000 0.0000 0.0000 26.3599 0.0000 0.0000
# 5 0.0000 0.0000 0.0000 0.0000 25.3305 0.0000
# 6 0.0000 0.0000 0.0000 0.0000 0.0000 20.4342
#
#
#
# Elastic Compliance Matrix: (Units=1/GPa)
#
#
# Indices 1 2 3 4 5 6 
#
# 1 0.018444 -0.006097 -0.003264 0.000000 0.000000 0.000000
# 2 -0.006097 0.010047 -0.004927 0.000000 0.000000 0.000000
# 3 -0.003264 -0.004927 0.018583 0.000000 0.000000 0.000000
# 4 0.000000 0.000000 0.000000 0.037936 0.000000 0.000000
# 5 0.000000 0.000000 0.000000 0.000000 0.039478 0.000000
# 6 0.000000 0.000000 0.000000 0.000000 0.000000 0.048938
#
#
# Mechanical properties :
#
#
# Convention : Reuss Voigt Hill
#
# Bulk Modulus (GPa) = 54.05250 69.29020 61.67135
# Shear Modulus (GPa) = 24.01918 25.73614 24.87766
#
# Velocity S-wave (km/s) = 3.54470 3.66921 3.60749
# Velocity P-wave (km/s) = 6.71037 7.36192 7.04368
#
# Compressibility (1/GPa) = 0.01850053
#
# Stress axis : x y z
#
# Youngs Moduli (GPa) = 54.21725 99.53013 53.81332
#
# Poissons Ratio (x) = 0.60679 0.17562
# Poissons Ratio (y) = 0.33054 0.26513
# Poissons Ratio (z) = 0.17694 0.49036
#
# Static dielectric constant tensor:
#      x y z
#    x 3.589360 0.000000 0.000000 
#    y 0.000000 4.137970 0.000000 
#    z 0.000000 0.000000 3.417470 
# 
# 
# High freq. dielectric constant tensor:
#      x y z
#    x 1.714600 0.000000 0.000000 
#    y 0.000000 1.761000 0.000000 
#    z 0.000000 0.000000 1.729570 
# 
# From -- ./inp_files/26520.got.cif
#   From: 2010.03.12/outbox.cif.g09.slc.cpg/sg47_14_cif.got.tgz:26520.got - 2010.04.14 03:12:58.
