data_PCOD8199133
_publ_section_title
;
Structure prediction by ZEFSAII (Michael W. Deem and Ramdas Pophale) SiO2 
 PCOD8199133
Probable space group: P M M M
;
_chemical_formula_sum "Si O2"
_cell_formula_units_Z 53
_cell_length_a 14.472717
_cell_length_b 21.628046
_cell_length_c 9.118239
_cell_angle_alpha 90.000000
_cell_angle_beta 90.000000
_cell_angle_gamma 90.000000
_cell_volume 2854.160070
_symmetry_space_group_name_H-M "P M M M"
_symmetry_group_IT_number 47
_symmetry_cell_setting 'orthorhombic'
loop_
_space_group_symop_operation_xyz
x,y,z
-x,-y,z
x,-y,-z
-x,y,-z
-x,-y,-z
x,y,-z
-x,y,z
x,-y,z
loop_
_atom_site_type_symbol
_atom_site_label
_atom_site_fract_x
_atom_site_fract_y
_atom_site_fract_z
Si Si1 0.895358 0.344894 0.668034
Si Si2 0.813552 0.000000 0.159017
Si Si3 0.391438 0.668014 0.831783
Si Si4 0.228557 0.123641 0.671892
Si Si5 0.395299 0.790599 0.330455
Si Si6 0.728924 0.570216 0.670364
Si Si7 0.109138 0.222623 0.167094
Si Si8 0.000000 0.000000 0.000000
O O1 0.886941 0.322537 0.500000
O O2 0.831603 0.403816 0.699656
O O3 0.861035 0.289037 0.770172
O O4 0.000000 0.364506 0.705949
O O5 0.779700 0.058737 0.249265
O O6 0.924317 0.000000 0.132696
O O7 0.762685 0.000000 0.000000
O O8 0.500000 0.660696 0.809987
O O9 0.357039 0.731520 0.757818
O O10 0.346140 0.608601 0.758649
O O11 0.361849 0.670655 0.000000
O O12 0.210521 0.115308 0.500000
O O13 0.330598 0.150921 0.703535
O O14 0.151687 0.168987 0.735736
O O15 0.390540 0.771864 0.500000
O O16 0.500000 0.807846 0.283367
O O17 0.703169 0.574280 0.500000
O O18 0.726917 0.500000 0.727081
O O19 0.000000 0.214042 0.176098
O O20 0.144029 0.216843 0.000000
#
# Coordination Sequence:
#
# PCOD8199133 Si02
#       8
#     8   4   8   8   8   8   8   1
#     4   9  18  34  53  75 103 134 173 222 271 319
#     4  10  23  41  60  78 112 151 188 220 259 312
#     4  10  21  36  55  80 109 139 176 222 272 321
#     4  11  22  36  57  85 112 141 183 226 266 312
#     4   9  19  37  60  84 111 143 177 218 269 323
#     4  10  21  35  52  75 103 138 179 220 267 325
#     4  10  21  34  52  77 108 142 176 216 269 326
#     4   8  24  44  62  76 110 160 198 216 254 324
#
# _framework density 18.569386000000002
#
# number of rings (size 3 to 8) (size 9 to 14) (size 15 to 20)
#    0.226    1.962    0.000    2.491    1.057    8.151 
#    0.000    3.774    0.000    2.264    0.000    3.170 
#    0.000    0.000    0.000    0.000    0.000    0.000 
#
# Total GULP energy -656786.990318 kJ/mol
# GULP energy per Si atom -12392.207364 kJ/mol
# Density = 1.852712 g / cm^3
# Si number density = 18.569386 Si / 1000 Ang^3
#
#
#
# Elastic Constant Matrix: (Units=GPa)
#
#
# Indices 1 2 3 4 5 6 
#
# 1 64.4562 65.0429 51.4540 0.0000 0.0000 0.0000
# 2 65.0429 159.6654 82.9943 0.0000 0.0000 0.0000
# 3 51.4540 82.9943 115.9320 0.0000 0.0000 0.0000
# 4 0.0000 0.0000 0.0000 -76.0327 0.0000 0.0000
# 5 0.0000 0.0000 0.0000 0.0000 26.8645 0.0000
# 6 0.0000 0.0000 0.0000 0.0000 0.0000 14.3993
#
#
#
# Elastic Compliance Matrix: (Units=1/GPa)
#
#
# Indices 1 2 3 4 5 6 
#
# 1 0.029689 -0.008354 -0.007197 0.000000 0.000000 0.000000
# 2 -0.008354 0.012325 -0.005116 0.000000 0.000000 0.000000
# 3 -0.007197 -0.005116 0.015482 0.000000 0.000000 0.000000
# 4 0.000000 0.000000 0.000000 -0.013152 0.000000 0.000000
# 5 0.000000 0.000000 0.000000 0.000000 0.037224 0.000000
# 6 0.000000 0.000000 0.000000 0.000000 0.000000 0.069448
#
#
# Mechanical properties :
#
#
# Convention : Reuss Voigt Hill
#
# Bulk Modulus (GPa) = 61.86506 82.11511 71.99009
# Shear Modulus (GPa) = 25.28620 2.41706 13.85163
#
# Velocity S-wave (km/s) = 3.69414 1.14213 2.73415
# Velocity P-wave (km/s) = 7.18217 6.78646 6.98711
#
# Compressibility (1/GPa) = 0.01616421
#
# Stress axis : x y z
#
# Youngs Moduli (GPa) = 33.68264 81.13312 64.58974
#
# Poissons Ratio (x) = 0.67775 0.46483
# Poissons Ratio (y) = 0.28137 0.33045
# Poissons Ratio (z) = 0.24240 0.41508
#
# Static dielectric constant tensor:
#      x y z
#    x 3.516800 0.000000 0.000000 
#    y 0.000000 3.545870 0.000000 
#    z 0.000000 0.000000 3.589970 
# 
# 
# High freq. dielectric constant tensor:
#      x y z
#    x 1.727430 0.000000 0.000000 
#    y 0.000000 1.708710 0.000000 
#    z 0.000000 0.000000 1.728260 
# 
# From -- ./inp_files/7123.got.cif
#   From: 2010.03.12/outbox.cif.g09.slc.cpg/sg47_4_cif.got.tgz:7123.got - 2010.04.14 03:12:58.
