data_PCOD8199331
_publ_section_title
;
Structure prediction by ZEFSAII (Michael W. Deem and Ramdas Pophale) SiO2 
 PCOD8199331
Probable space group: P M M M
;
_chemical_formula_sum "Si O2"
_cell_formula_units_Z 48
_cell_length_a 9.110446
_cell_length_b 7.716739
_cell_length_c 32.603344
_cell_angle_alpha 90.000000
_cell_angle_beta 90.000000
_cell_angle_gamma 90.000000
_cell_volume 2292.110740
_symmetry_space_group_name_H-M "P M M M"
_symmetry_group_IT_number 47
_symmetry_cell_setting 'orthorhombic'
loop_
_space_group_symop_operation_xyz
x,y,z
-x,-y,z
x,-y,-z
-x,y,-z
-x,-y,-z
x,y,-z
-x,y,z
x,-y,z
loop_
_atom_site_type_symbol
_atom_site_label
_atom_site_fract_x
_atom_site_fract_y
_atom_site_fract_z
Si Si1 0.334859 0.294707 0.658162
Si Si2 0.334840 0.800439 0.253052
Si Si3 0.165021 0.293292 0.420547
Si Si4 0.839500 0.697439 0.175952
Si Si5 0.168805 0.000000 0.048476
Si Si6 0.327223 0.703971 0.096551
Si Si7 0.665372 0.293393 0.500000
O O1 0.500000 0.223431 0.652574
O O2 0.332905 0.500000 0.657501
O O3 0.269601 0.228758 0.701411
O O4 0.237668 0.219924 0.621052
O O5 0.500000 0.722354 0.251086
O O6 0.232488 0.706531 0.220580
O O7 0.336433 0.000000 0.241467
O O8 0.167586 0.500000 0.420494
O O9 0.253398 0.221422 0.459671
O O10 0.000000 0.222254 0.423111
O O11 0.865422 0.500000 0.165052
O O12 0.732694 0.771134 0.140711
O O13 0.000000 0.791029 0.175766
O O14 0.248461 0.823706 0.063007
O O15 0.000000 0.000000 0.063808
O O16 0.177168 0.000000 0.000000
O O17 0.500000 0.739231 0.095669
O O18 0.293975 0.500000 0.088005
O O19 0.666611 0.500000 0.500000
O O20 0.500000 0.221951 0.500000
#
# Coordination Sequence:
#
# PCOD8199331 Si02
#       7
#     8   8   8   8   4   8   4
#     4   9  17  30  47  66  92 129 170 210 255 311
#     4  10  21  35  52  76 106 141 181 225 273 327
#     4   9  16  25  39  61  89 120 155 199 251 305
#     4  10  21  37  58  84 114 149 189 235 288 344
#     4  11  25  43  65  95 131 171 211 255 311 370
#     4  10  22  41  66  94 125 164 210 259 309 363
#     4   9  15  23  37  59  88 119 152 193 244 304
#
# _framework density 20.941398
#
# number of rings (size 3 to 8) (size 9 to 14) (size 15 to 20)
#    0.000    2.333    0.000    2.500    1.167    7.667 
#    0.000    3.333    0.000    0.000    0.000    0.583 
#    0.000    4.667    0.000    0.000    0.000    0.000 
#
# Total GULP energy -595101.632765 kJ/mol
# GULP energy per Si atom -12397.950683 kJ/mol
# Density = 2.089373 g / cm^3
# Si number density = 20.941398 Si / 1000 Ang^3
#
#
#
# Elastic Constant Matrix: (Units=GPa)
#
#
# Indices 1 2 3 4 5 6 
#
# 1 167.7319 32.0129 87.4523 0.0000 0.0000 0.0000
# 2 32.0129 46.1988 27.0596 0.0000 0.0000 0.0000
# 3 87.4523 27.0596 151.3837 0.0000 0.0000 0.0000
# 4 0.0000 0.0000 0.0000 -1.5788 0.0000 0.0000
# 5 0.0000 0.0000 0.0000 0.0000 36.6879 0.0000
# 6 0.0000 0.0000 0.0000 0.0000 0.0000 13.2938
#
#
#
# Elastic Compliance Matrix: (Units=1/GPa)
#
#
# Indices 1 2 3 4 5 6 
#
# 1 0.009031 -0.003577 -0.004578 0.000000 0.000000 0.000000
# 2 -0.003577 0.025593 -0.002509 0.000000 0.000000 0.000000
# 3 -0.004578 -0.002509 0.009699 0.000000 0.000000 0.000000
# 4 0.000000 0.000000 0.000000 -0.633406 0.000000 0.000000
# 5 0.000000 0.000000 0.000000 0.000000 0.027257 0.000000
# 6 0.000000 0.000000 0.000000 0.000000 0.000000 0.075223
#
#
# Mechanical properties :
#
#
# Convention : Reuss Voigt Hill
#
# Bulk Modulus (GPa) = 43.48399 73.15156 58.31777
# Shear Modulus (GPa) = -10.92633 24.26656 6.67011
#
# Velocity S-wave (km/s) = -2.28668 3.40778 1.78663
# Velocity P-wave (km/s) = 3.71992 7.10573 5.67138
#
# Compressibility (1/GPa) = 0.02299697
#
# Stress axis : x y z
#
# Youngs Moduli (GPa) = 110.72436 39.07264 103.10581
#
# Poissons Ratio (x) = 0.13975 0.47202
# Poissons Ratio (y) = 0.39604 0.25864
# Poissons Ratio (z) = 0.50690 0.09801
#
# Static dielectric constant tensor:
#      x y z
#    x 4.013770 0.000000 0.000000 
#    y 0.000000 3.403680 0.000000 
#    z 0.000000 0.000000 3.823020 
# 
# 
# High freq. dielectric constant tensor:
#      x y z
#    x 1.823600 0.000000 0.000000 
#    y 0.000000 1.795200 0.000000 
#    z 0.000000 0.000000 1.825830 
# 
# From -- ./inp_files/34145.got.cif
#   From: 2010.03.12/outbox.cif.g09.slc.cpg/sg47_18_cif.got.tgz:34145.got - 2010.04.14 03:12:58.
