data_PCOD8199783
_publ_section_title
;
Structure prediction by ZEFSAII (Michael W. Deem and Ramdas Pophale) SiO2 
 PCOD8199783
Probable space group: P M M M
;
_chemical_formula_sum "Si O2"
_cell_formula_units_Z 48
_cell_length_a 9.173044
_cell_length_b 32.754091
_cell_length_c 7.971465
_cell_angle_alpha 90.000000
_cell_angle_beta 90.000000
_cell_angle_gamma 90.000000
_cell_volume 2395.064268
_symmetry_space_group_name_H-M "P M M M"
_symmetry_group_IT_number 47
_symmetry_cell_setting 'orthorhombic'
loop_
_space_group_symop_operation_xyz
x,y,z
-x,-y,z
x,-y,-z
-x,y,-z
-x,-y,-z
x,y,-z
-x,y,z
x,-y,z
loop_
_atom_site_type_symbol
_atom_site_label
_atom_site_fract_x
_atom_site_fract_y
_atom_site_fract_z
Si Si1 0.673243 0.545788 0.500000
Si Si2 0.669042 0.000000 0.302056
Si Si3 0.834537 0.080108 0.194377
Si Si4 0.837839 0.768068 0.695710
Si Si5 0.163651 0.681425 0.802814
Si Si6 0.339660 0.843036 0.694089
Si Si7 0.327636 0.399420 0.191629
O O1 0.737093 0.500000 0.500000
O O2 0.500000 0.545136 0.500000
O O3 0.727848 0.567400 0.327782
O O4 0.745805 0.960847 0.225140
O O5 0.500000 0.000000 0.249431
O O6 0.687940 0.000000 0.500000
O O7 0.757648 0.116870 0.289781
O O8 0.000000 0.075025 0.261239
O O9 0.834326 0.090806 0.000000
O O10 0.849665 0.776371 0.500000
O O11 0.769226 0.723333 0.728888
O O12 0.739078 0.803694 0.778463
O O13 0.000000 0.769938 0.776883
O O14 0.262650 0.643581 0.747460
O O15 0.000000 0.674460 0.732587
O O16 0.162260 0.685540 0.000000
O O17 0.361563 0.833903 0.500000
O O18 0.500000 0.849214 0.777312
O O19 0.500000 0.395347 0.196824
O O20 0.277212 0.410897 0.000000
#
# Coordination Sequence:
#
# PCOD8199783 Si02
#       7
#     4   4   8   8   8   8   8
#     4   9  18  32  51  77 105 135 175 221 269 322
#     4  11  24  41  62  88 114 141 176 219 268 322
#     4  11  24  40  59  84 112 143 181 223 267 318
#     4   9  18  32  50  73 102 138 178 218 261 311
#     4   9  18  32  50  73 102 137 175 216 264 316
#     4  10  21  37  56  80 110 144 182 222 268 321
#     4   9  18  32  50  74 103 135 173 219 270 322
#
# _framework density 20.041218000000001
#
# number of rings (size 3 to 8) (size 9 to 14) (size 15 to 20)
#    0.000    2.333    0.000    2.000    1.167    7.667 
#    0.000    3.333    0.000    1.000    0.000    2.333 
#    0.000    0.000    0.000    0.000    0.000    0.000 
#
# Total GULP energy -595066.235945 kJ/mol
# GULP energy per Si atom -12397.213249 kJ/mol
# Density = 1.999560 g / cm^3
# Si number density = 20.041218 Si / 1000 Ang^3
#
#
#
# Elastic Constant Matrix: (Units=GPa)
#
#
# Indices 1 2 3 4 5 6 
#
# 1 96.0627 58.5935 24.2179 0.0000 0.0000 0.0000
# 2 58.5935 175.0941 39.9911 0.0000 0.0000 0.0000
# 3 24.2179 39.9911 51.2271 0.0000 0.0000 0.0000
# 4 0.0000 0.0000 0.0000 -4.5522 0.0000 0.0000
# 5 0.0000 0.0000 0.0000 0.0000 18.7198 0.0000
# 6 0.0000 0.0000 0.0000 0.0000 0.0000 -22.3922
#
#
#
# Elastic Compliance Matrix: (Units=1/GPa)
#
#
# Indices 1 2 3 4 5 6 
#
# 1 0.013575 -0.003745 -0.003494 0.000000 0.000000 0.000000
# 2 -0.003745 0.007983 -0.004462 0.000000 0.000000 0.000000
# 3 -0.003494 -0.004462 0.024656 0.000000 0.000000 0.000000
# 4 0.000000 0.000000 0.000000 -0.219674 0.000000 0.000000
# 5 0.000000 0.000000 0.000000 0.000000 0.053419 0.000000
# 6 0.000000 0.000000 0.000000 0.000000 0.000000 -0.044658
#
#
# Mechanical properties :
#
#
# Convention : Reuss Voigt Hill
#
# Bulk Modulus (GPa) = 43.83556 63.10986 53.47271
# Shear Modulus (GPa) = -37.39923 11.66051 -12.86936
#
# Velocity S-wave (km/s) = -4.32454 2.41472 -2.53681
# Velocity P-wave (km/s) = 1.73648 6.27160 4.26131
#
# Compressibility (1/GPa) = 0.02281253
#
# Stress axis : x y z
#
# Youngs Moduli (GPa) = 73.66586 125.25942 40.55769
#
# Poissons Ratio (x) = 0.46904 0.14172
# Poissons Ratio (y) = 0.27585 0.18097
# Poissons Ratio (z) = 0.25741 0.55892
#
# Static dielectric constant tensor:
#      x y z
#    x 3.879080 0.000000 0.000000 
#    y 0.000000 3.773030 0.000000 
#    z 0.000000 0.000000 3.592490 
# 
# 
# High freq. dielectric constant tensor:
#      x y z
#    x 1.771970 0.000000 0.000000 
#    y 0.000000 1.787380 0.000000 
#    z 0.000000 0.000000 1.774290 
# 
# From -- ./inp_files/2744.got.cif
#   From: 2010.03.12/outbox.cif.g09.slc.cpg/sg47_2_cif.got.tgz:2744.got - 2010.04.14 03:12:58.
