data_PCOD8199418
_publ_section_title
;
Structure prediction by ZEFSAII (Michael W. Deem and Ramdas Pophale) SiO2 
 PCOD8199418
Probable space group: P M M M
;
_chemical_formula_sum "Si O2"
_cell_formula_units_Z 64
_cell_length_a 14.330140
_cell_length_b 8.913173
_cell_length_c 26.112620
_cell_angle_alpha 90.000000
_cell_angle_beta 90.000000
_cell_angle_gamma 90.000000
_cell_volume 3335.287057
_symmetry_space_group_name_H-M "P M M M"
_symmetry_group_IT_number 47
_symmetry_cell_setting 'orthorhombic'
loop_
_space_group_symop_operation_xyz
x,y,z
-x,-y,z
x,-y,-z
-x,y,-z
-x,-y,-z
x,y,-z
-x,y,z
x,-y,z
loop_
_atom_site_type_symbol
_atom_site_label
_atom_site_fract_x
_atom_site_fract_y
_atom_site_fract_z
Si Si1 0.895744 0.828636 0.108530
Si Si2 0.609319 0.824221 0.254143
Si Si3 0.289009 0.172531 0.942657
Si Si4 0.280967 0.321603 0.652501
Si Si5 0.391551 0.673938 0.850482
Si Si6 0.110456 0.666822 0.208789
Si Si7 0.604397 0.321853 0.556394
Si Si8 0.893314 0.823598 0.688784
O O1 0.823411 0.808278 0.062120
O O2 0.853067 0.732532 0.155347
O O3 0.000000 0.775319 0.091783
O O4 0.900374 0.000000 0.127277
O O5 0.500000 0.787828 0.260771
O O6 0.664318 0.742037 0.298983
O O7 0.645827 0.762535 0.199422
O O8 0.630160 0.000000 0.256815
O O9 0.341586 0.274485 0.902124
O O10 0.317383 0.000000 0.933146
O O11 0.316728 0.223068 0.000000
O O12 0.281034 0.500000 0.655413
O O13 0.328616 0.259438 0.600674
O O14 0.174806 0.260921 0.649448
O O15 0.500000 0.707796 0.858322
O O16 0.371066 0.500000 0.841276
O O17 0.151969 0.500000 0.217379
O O18 0.141126 0.774584 0.254855
O O19 0.000000 0.661448 0.205973
O O20 0.639303 0.268662 0.500000
O O21 0.500000 0.260254 0.566265
O O22 0.602841 0.500000 0.558428
O O23 0.000000 0.773603 0.678042
O O24 0.881557 0.000000 0.683302
#
# Coordination Sequence:
#
# PCOD8199418 Si02
#       8
#     8   8   8   8   8   8   8   8
#     4   9  18  33  53  76 104 138 173 211 259 318
#     4  10  21  37  57  82 114 148 179 216 267 330
#     4  10  22  38  56  79 105 136 176 221 269 326
#     4  11  21  32  54  86 116 148 186 231 279 325
#     4  10  22  40  60  80 104 136 175 222 275 328
#     4   9  17  30  49  73 100 131 171 218 267 319
#     4   8  15  30  53  82 116 151 186 226 273 326
#     4  10  21  36  52  72 105 149 192 231 274 326
#
# _framework density 19.188752999999998
#
# number of rings (size 3 to 8) (size 9 to 14) (size 15 to 20)
#    0.000    2.375    0.000    2.625    1.750    5.500 
#    0.000    2.500    0.000    1.875    0.000    9.625 
#    0.000    0.000    0.000    0.000    0.000    0.000 
#
# Total GULP energy -793504.520946 kJ/mol
# GULP energy per Si atom -12398.508140 kJ/mol
# Density = 1.914508 g / cm^3
# Si number density = 19.188753 Si / 1000 Ang^3
#
#
#
# Elastic Constant Matrix: (Units=GPa)
#
#
# Indices 1 2 3 4 5 6 
#
# 1 78.1204 39.1088 66.0227 0.0000 0.0000 0.0000
# 2 39.1088 76.2414 40.6114 0.0000 0.0000 0.0000
# 3 66.0227 40.6114 131.8982 0.0000 0.0000 0.0000
# 4 0.0000 0.0000 0.0000 13.1462 0.0000 0.0000
# 5 0.0000 0.0000 0.0000 0.0000 30.8779 0.0000
# 6 0.0000 0.0000 0.0000 0.0000 0.0000 27.9046
#
#
#
# Elastic Compliance Matrix: (Units=1/GPa)
#
#
# Indices 1 2 3 4 5 6 
#
# 1 0.025292 -0.007452 -0.010365 0.000000 0.000000 0.000000
# 2 -0.007452 0.017885 -0.001777 0.000000 0.000000 0.000000
# 3 -0.010365 -0.001777 0.013317 0.000000 0.000000 0.000000
# 4 0.000000 0.000000 0.000000 0.076067 0.000000 0.000000
# 5 0.000000 0.000000 0.000000 0.000000 0.032386 0.000000
# 6 0.000000 0.000000 0.000000 0.000000 0.000000 0.035836
#
#
# Mechanical properties :
#
#
# Convention : Reuss Voigt Hill
#
# Bulk Modulus (GPa) = 57.78492 64.19399 60.98946
# Shear Modulus (GPa) = 20.34665 23.75355 22.05010
#
# Velocity S-wave (km/s) = 3.25982 3.52218 3.39354
# Velocity P-wave (km/s) = 6.65942 7.07585 6.87079
#
# Compressibility (1/GPa) = 0.01730555
#
# Stress axis : x y z
#
# Youngs Moduli (GPa) = 39.53852 55.91192 75.09135
#
# Poissons Ratio (x) = 0.41667 0.77836
# Poissons Ratio (y) = 0.29465 0.13340
# Poissons Ratio (z) = 0.40983 0.09933
#
# Static dielectric constant tensor:
#      x y z
#    x 3.663990 0.000000 0.000000 
#    y 0.000000 3.462630 0.000000 
#    z 0.000000 0.000000 3.554350 
# 
# 
# High freq. dielectric constant tensor:
#      x y z
#    x 1.750660 0.000000 0.000000 
#    y 0.000000 1.738070 0.000000 
#    z 0.000000 0.000000 1.730110 
# 
# From -- ./inp_files/7837.got.cif
#   From: 2010.03.12/outbox.cif.g09.slc.cpg/sg47_4_cif.got.tgz:7837.got - 2010.04.14 03:12:58.
