data_PCOD8199944
_publ_section_title
;
Structure prediction by ZEFSAII (Michael W. Deem and Ramdas Pophale) SiO2 
 PCOD8199944
Probable space group: P M M M
;
_chemical_formula_sum "Si O2"
_cell_formula_units_Z 52
_cell_length_a 15.064471
_cell_length_b 8.748061
_cell_length_c 20.223694
_cell_angle_alpha 90.000000
_cell_angle_beta 90.000000
_cell_angle_gamma 90.000000
_cell_volume 2665.177719
_symmetry_space_group_name_H-M "P M M M"
_symmetry_group_IT_number 47
_symmetry_cell_setting 'orthorhombic'
loop_
_space_group_symop_operation_xyz
x,y,z
-x,-y,z
x,-y,-z
-x,y,-z
-x,-y,-z
x,y,-z
-x,y,z
x,-y,z
loop_
_atom_site_type_symbol
_atom_site_label
_atom_site_fract_x
_atom_site_fract_y
_atom_site_fract_z
Si Si1 0.400668 0.318327 0.573447
Si Si2 0.101156 0.822480 0.275440
Si Si3 0.662328 0.679620 0.075629
Si Si4 0.000000 0.335396 0.926655
Si Si5 0.837424 0.823940 0.127144
Si Si6 0.401510 0.176872 0.799037
Si Si7 0.722393 0.680992 0.690156
O O1 0.372786 0.261803 0.500000
O O2 0.500000 0.258977 0.590171
O O3 0.400162 0.500000 0.575545
O O4 0.331726 0.253133 0.627185
O O5 0.130447 0.792172 0.201026
O O6 0.175547 0.735620 0.318873
O O7 0.000000 0.760370 0.287079
O O8 0.103789 0.000000 0.293709
O O9 0.645384 0.500000 0.076782
O O10 0.758063 0.715374 0.105672
O O11 0.593961 0.760649 0.125686
O O12 0.651640 0.740635 0.000000
O O13 0.082343 0.224882 0.917767
O O14 0.000000 0.500000 0.885970
O O15 0.000000 0.392763 0.000000
O O16 0.811029 0.000000 0.115800
O O17 0.500000 0.202020 0.768346
O O18 0.325360 0.258958 0.756485
O O19 0.375091 0.000000 0.800934
O O20 0.720549 0.500000 0.692787
#
# Coordination Sequence:
#
# PCOD8199944 Si02
#       7
#     8   8   8   4   8   8   8
#     4   8  15  30  54  87 126 161 189 221 269 330
#     4  10  21  38  57  78 109 148 189 232 280 337
#     4  11  24  40  57  78 105 138 180 234 293 346
#     4  11  23  35  49  73 105 137 174 229 292 347
#     4  11  21  36  56  76 101 138 183 229 283 348
#     4  11  24  40  58  81 111 149 191 232 279 341
#     4  11  21  34  59  91 119 148 187 236 285 332
#
# _framework density 19.510894
#
# number of rings (size 3 to 8) (size 9 to 14) (size 15 to 20)
#    0.000    1.615    2.308    3.462    0.000    6.769 
#    0.000    1.538    0.000    2.308    0.000    8.615 
#    0.000    0.000    0.000    0.000    0.000    0.000 
#
# Total GULP energy -644454.480369 kJ/mol
# GULP energy per Si atom -12393.355392 kJ/mol
# Density = 1.946649 g / cm^3
# Si number density = 19.510894 Si / 1000 Ang^3
#
#
#
# Elastic Constant Matrix: (Units=GPa)
#
#
# Indices 1 2 3 4 5 6 
#
# 1 134.2900 33.1288 53.0654 0.0000 0.0000 0.0000
# 2 33.1288 46.1623 31.7541 0.0000 0.0000 0.0000
# 3 53.0654 31.7541 107.6203 0.0000 0.0000 0.0000
# 4 0.0000 0.0000 0.0000 8.4876 0.0000 0.0000
# 5 0.0000 0.0000 0.0000 0.0000 29.3607 0.0000
# 6 0.0000 0.0000 0.0000 0.0000 0.0000 30.1393
#
#
#
# Elastic Compliance Matrix: (Units=1/GPa)
#
#
# Indices 1 2 3 4 5 6 
#
# 1 0.010017 -0.004757 -0.003536 0.000000 0.000000 0.000000
# 2 -0.004757 0.029438 -0.006340 0.000000 0.000000 0.000000
# 3 -0.003536 -0.006340 0.012906 0.000000 0.000000 0.000000
# 4 0.000000 0.000000 0.000000 0.117819 0.000000 0.000000
# 5 0.000000 0.000000 0.000000 0.000000 0.034059 0.000000
# 6 0.000000 0.000000 0.000000 0.000000 0.000000 0.033179
#
#
# Mechanical properties :
#
#
# Convention : Reuss Voigt Hill
#
# Bulk Modulus (GPa) = 43.29873 58.21881 50.75877
# Shear Modulus (GPa) = 18.22268 24.93914 21.58091
#
# Velocity S-wave (km/s) = 3.05942 3.57909 3.32941
# Velocity P-wave (km/s) = 5.89239 6.85447 6.39156
#
# Compressibility (1/GPa) = 0.02309536
#
# Stress axis : x y z
#
# Youngs Moduli (GPa) = 99.82799 33.96985 77.48262
#
# Poissons Ratio (x) = 0.16159 0.27396
# Poissons Ratio (y) = 0.47486 0.49127
# Poissons Ratio (z) = 0.35297 0.21538
#
# Static dielectric constant tensor:
#      x y z
#    x 3.877230 0.000000 0.000000 
#    y 0.000000 3.393430 0.000000 
#    z 0.000000 0.000000 3.655800 
# 
# 
# High freq. dielectric constant tensor:
#      x y z
#    x 1.769720 0.000000 0.000000 
#    y 0.000000 1.751680 0.000000 
#    z 0.000000 0.000000 1.738000 
# 
# From -- ./inp_files/25019.got.cif
#   From: 2010.03.12/outbox.cif.g09.slc.cpg/sg47_13_cif.got.tgz:25019.got - 2010.04.14 03:12:58.
