data_PCOD8199382
_publ_section_title
;
Structure prediction by ZEFSAII (Michael W. Deem and Ramdas Pophale) SiO2 
 PCOD8199382
Probable space group: P M M M
;
_chemical_formula_sum "Si O2"
_cell_formula_units_Z 44
_cell_length_a 9.370045
_cell_length_b 14.898292
_cell_length_c 16.901925
_cell_angle_alpha 90.000000
_cell_angle_beta 90.000000
_cell_angle_gamma 90.000000
_cell_volume 2359.469289
_symmetry_space_group_name_H-M "P M M M"
_symmetry_group_IT_number 47
_symmetry_cell_setting 'orthorhombic'
loop_
_space_group_symop_operation_xyz
x,y,z
-x,-y,z
x,-y,-z
-x,y,-z
-x,-y,-z
x,y,-z
-x,y,z
x,-y,z
loop_
_atom_site_type_symbol
_atom_site_label
_atom_site_fract_x
_atom_site_fract_y
_atom_site_fract_z
Si Si1 0.664143 0.653343 0.318994
Si Si2 0.330416 0.901619 0.909918
Si Si3 0.660993 0.835851 0.410446
Si Si4 0.669891 0.713914 0.850917
Si Si5 0.830775 0.500000 0.407543
Si Si6 0.670106 0.601577 0.000000
Si Si7 0.160101 0.000000 0.405554
O O1 0.500000 0.618829 0.321373
O O2 0.678970 0.748624 0.359100
O O3 0.720916 0.665994 0.229595
O O4 0.765704 0.586461 0.365502
O O5 0.500000 0.900774 0.907718
O O6 0.271747 0.816965 0.858643
O O7 0.276333 0.000000 0.878372
O O8 0.278409 0.888175 0.000000
O O9 0.705941 0.812304 0.500000
O O10 0.500000 0.872657 0.407439
O O11 0.761747 0.911749 0.372910
O O12 0.500000 0.717457 0.851779
O O13 0.728086 0.653406 0.922846
O O14 0.788506 0.500000 0.500000
O O15 0.000000 0.500000 0.396448
O O16 0.729669 0.500000 0.000000
O O17 0.500000 0.601016 0.000000
O O18 0.168906 0.000000 0.500000
O O19 0.000000 0.000000 0.373458
#
# Coordination Sequence:
#
# PCOD8199382 Si02
#       7
#     8   8   8   8   4   4   4
#     4  10  21  35  55  83 110 137 173 221 271 318
#     4   8  12  20  36  59  95 143 181 210 253 308
#     4   9  17  31  49  70 101 138 170 206 261 319
#     4   9  16  27  42  69 106 139 175 214 257 312
#     4  11  25  43  61  80 103 136 176 217 269 333
#     4   9  16  24  39  63  99 143 175 208 257 311
#     4   9  17  29  49  75  99 130 175 218 252 301
#
# _framework density 18.648261000000002
#
# number of rings (size 3 to 8) (size 9 to 14) (size 15 to 20)
#    0.000    2.818    0.909    1.636    1.273    3.273 
#    1.636    1.818    0.000    0.000    0.000    1.273 
#    0.000    0.000    0.000    2.818    0.000    2.727 
#
# Total GULP energy -545329.911870 kJ/mol
# GULP energy per Si atom -12393.861633 kJ/mol
# Density = 1.860582 g / cm^3
# Si number density = 18.648261 Si / 1000 Ang^3
#
#
#
# Elastic Constant Matrix: (Units=GPa)
#
#
# Indices 1 2 3 4 5 6 
#
# 1 54.6283 41.4086 34.2931 0.0000 0.0000 0.0000
# 2 41.4086 132.6461 67.7222 0.0000 0.0000 0.0000
# 3 34.2931 67.7222 125.8083 0.0000 0.0000 0.0000
# 4 0.0000 0.0000 0.0000 22.7206 0.0000 0.0000
# 5 0.0000 0.0000 0.0000 0.0000 6.3494 0.0000
# 6 0.0000 0.0000 0.0000 0.0000 0.0000 3.7228
#
#
#
# Elastic Compliance Matrix: (Units=1/GPa)
#
#
# Indices 1 2 3 4 5 6 
#
# 1 0.025122 -0.005993 -0.003622 0.000000 0.000000 0.000000
# 2 -0.005993 0.011826 -0.004732 0.000000 0.000000 0.000000
# 3 -0.003622 -0.004732 0.011483 0.000000 0.000000 0.000000
# 4 0.000000 0.000000 0.000000 0.044013 0.000000 0.000000
# 5 0.000000 0.000000 0.000000 0.000000 0.157496 0.000000
# 6 0.000000 0.000000 0.000000 0.000000 0.000000 0.268617
#
#
# Mechanical properties :
#
#
# Convention : Reuss Voigt Hill
#
# Bulk Modulus (GPa) = 50.66701 66.65893 58.66297
# Shear Modulus (GPa) = 9.02804 17.86913 13.44859
#
# Velocity S-wave (km/s) = 2.20266 3.09887 2.68838
# Velocity P-wave (km/s) = 5.80498 6.97331 6.41579
#
# Compressibility (1/GPa) = 0.01973671
#
# Stress axis : x y z
#
# Youngs Moduli (GPa) = 39.80559 84.56068 87.08496
#
# Poissons Ratio (x) = 0.50681 0.31538
# Poissons Ratio (y) = 0.23857 0.41209
# Poissons Ratio (z) = 0.14416 0.40015
#
# Static dielectric constant tensor:
#      x y z
#    x 2.952180 0.000000 0.000000 
#    y 0.000000 4.574570 0.000000 
#    z 0.000000 0.000000 3.548590 
# 
# 
# High freq. dielectric constant tensor:
#      x y z
#    x 1.658270 0.000000 0.000000 
#    y 0.000000 1.742510 0.000000 
#    z 0.000000 0.000000 1.717370 
# 
# From -- ./inp_files/26439.got.cif
#   From: 2010.03.12/outbox.cif.g09.slc.cpg/sg47_14_cif.got.tgz:26439.got - 2010.04.14 03:12:58.
