data_PCOD8199916
_publ_section_title
;
Structure prediction by ZEFSAII (Michael W. Deem and Ramdas Pophale) SiO2 
 PCOD8199916
Probable space group: P M M M
;
_chemical_formula_sum "Si O2"
_cell_formula_units_Z 40
_cell_length_a 7.844951
_cell_length_b 20.885161
_cell_length_c 12.594112
_cell_angle_alpha 90.000000
_cell_angle_beta 90.000000
_cell_angle_gamma 90.000000
_cell_volume 2063.457907
_symmetry_space_group_name_H-M "P M M M"
_symmetry_group_IT_number 47
_symmetry_cell_setting 'orthorhombic'
loop_
_space_group_symop_operation_xyz
x,y,z
-x,-y,z
x,-y,-z
-x,y,-z
-x,-y,-z
x,y,-z
-x,y,z
x,-y,z
loop_
_atom_site_type_symbol
_atom_site_label
_atom_site_fract_x
_atom_site_fract_y
_atom_site_fract_z
Si Si1 0.691626 0.924536 0.500000
Si Si2 0.000000 0.427466 0.718202
Si Si3 0.690401 0.637401 0.621562
Si Si4 0.797646 0.000000 0.122735
Si Si5 0.000000 0.684749 0.116870
Si Si6 0.310360 0.746758 0.216013
Si Si7 0.196434 0.116135 0.270459
O O1 0.500000 0.896863 0.500000
O O2 0.786949 0.902257 0.393793
O O3 0.690476 0.000000 0.500000
O O4 0.171236 0.416584 0.649913
O O5 0.000000 0.379264 0.815374
O O6 0.000000 0.500000 0.759939
O O7 0.708669 0.655738 0.500000
O O8 0.500000 0.611120 0.647866
O O9 0.728091 0.703685 0.681096
O O10 0.733064 0.938294 0.189440
O O11 0.000000 0.000000 0.120610
O O12 0.727946 0.000000 0.000000
O O13 0.167363 0.728787 0.130473
O O14 0.000000 0.657307 0.000000
O O15 0.500000 0.732534 0.170650
O O16 0.303676 0.820559 0.248238
O O17 0.000000 0.129916 0.245891
#
# Coordination Sequence:
#
# PCOD8199916 Si02
#       7
#     4   4   8   4   4   8   8
#     4  11  23  37  55  79 117 159 197 249 301 360
#     4  10  21  37  58  87 118 150 191 238 279 327
#     4   9  19  35  55  82 119 158 191 227 277 339
#     4   9  20  37  57  78 108 148 192 249 305 358
#     4  10  22  42  63  85 115 152 194 237 287 343
#     4  10  21  38  59  86 118 150 190 241 291 346
#     4  11  21  37  58  86 114 149 198 245 301 365
#
# _framework density 19.384937000000001
#
# number of rings (size 3 to 8) (size 9 to 14) (size 15 to 20)
#    0.000    2.000    2.000    1.200    1.400    3.000 
#    0.000    1.000    0.000    4.200    0.000    5.600 
#    0.000    0.000    0.000    0.000    0.000    0.000 
#
# Total GULP energy -495923.345379 kJ/mol
# GULP energy per Si atom -12398.083634 kJ/mol
# Density = 1.934082 g / cm^3
# Si number density = 19.384937 Si / 1000 Ang^3
#
#
#
# Elastic Constant Matrix: (Units=GPa)
#
#
# Indices 1 2 3 4 5 6 
#
# 1 119.7237 39.5524 33.3601 0.0000 0.0000 0.0000
# 2 39.5524 115.3908 35.2462 0.0000 0.0000 0.0000
# 3 33.3601 35.2462 116.0223 0.0000 0.0000 0.0000
# 4 0.0000 0.0000 0.0000 8.0018 0.0000 0.0000
# 5 0.0000 0.0000 0.0000 0.0000 -8.7896 0.0000
# 6 0.0000 0.0000 0.0000 0.0000 0.0000 -1.2170
#
#
#
# Elastic Compliance Matrix: (Units=1/GPa)
#
#
# Indices 1 2 3 4 5 6 
#
# 1 0.009817 -0.002759 -0.001985 0.000000 0.000000 0.000000
# 2 -0.002759 0.010328 -0.002344 0.000000 0.000000 0.000000
# 3 -0.001985 -0.002344 0.009902 0.000000 0.000000 0.000000
# 4 0.000000 0.000000 0.000000 0.124972 0.000000 0.000000
# 5 0.000000 0.000000 0.000000 0.000000 -0.113771 0.000000
# 6 0.000000 0.000000 0.000000 0.000000 0.000000 -0.821713
#
#
# Mechanical properties :
#
#
# Convention : Reuss Voigt Hill
#
# Bulk Modulus (GPa) = 63.00631 63.05045 63.02838
# Shear Modulus (GPa) = -6.57030 15.79759 4.61364
#
# Velocity S-wave (km/s) = -1.84303 2.85781 1.54440
# Velocity P-wave (km/s) = 5.29569 6.59436 5.98038
#
# Compressibility (1/GPa) = 0.01587143
#
# Stress axis : x y z
#
# Youngs Moduli (GPa) = 101.86466 96.82533 100.99139
#
# Poissons Ratio (x) = 0.26712 0.20043
# Poissons Ratio (y) = 0.28102 0.23675
# Poissons Ratio (z) = 0.20216 0.22698
#
# Static dielectric constant tensor:
#      x y z
#    x 3.826730 0.000000 0.000000 
#    y 0.000000 3.353870 0.000000 
#    z 0.000000 0.000000 2.003620 
# 
# 
# High freq. dielectric constant tensor:
#      x y z
#    x 1.765860 0.000000 0.000000 
#    y 0.000000 1.744550 0.000000 
#    z 0.000000 0.000000 1.744500 
# 
# From -- ./inp_files/15172.got.cif
#   From: 2010.03.12/outbox.cif.g09.slc.cpg/sg47_8_cif.got.tgz:15172.got - 2010.04.14 03:12:58.
