data_PCOD8199081
_publ_section_title
;
Structure prediction by ZEFSAII (Michael W. Deem and Ramdas Pophale) SiO2 
 PCOD8199081
Probable space group: P M M M
;
_chemical_formula_sum "Si O2"
_cell_formula_units_Z 64
_cell_length_a 14.884728
_cell_length_b 24.345229
_cell_length_c 9.104293
_cell_angle_alpha 90.000000
_cell_angle_beta 90.000000
_cell_angle_gamma 90.000000
_cell_volume 3299.141881
_symmetry_space_group_name_H-M "P M M M"
_symmetry_group_IT_number 47
_symmetry_cell_setting 'orthorhombic'
loop_
_space_group_symop_operation_xyz
x,y,z
-x,-y,z
x,-y,-z
-x,y,-z
-x,-y,-z
x,y,-z
-x,y,z
x,-y,z
loop_
_atom_site_type_symbol
_atom_site_label
_atom_site_fract_x
_atom_site_fract_y
_atom_site_fract_z
Si Si1 0.744703 0.062587 0.328297
Si Si2 0.606596 0.268461 0.337073
Si Si3 0.604613 0.375353 0.171368
Si Si4 0.893721 0.758845 0.160306
Si Si5 0.896626 0.359943 0.824988
Si Si6 0.102195 0.122679 0.825056
Si Si7 0.755102 0.563965 0.330287
Si Si8 0.599886 0.851749 0.325259
O O1 0.759317 0.072986 0.500000
O O2 0.837074 0.075993 0.246437
O O3 0.665580 0.101138 0.264349
O O4 0.717590 0.000000 0.295468
O O5 0.645712 0.280727 0.500000
O O6 0.500000 0.266678 0.346252
O O7 0.638822 0.315631 0.225786
O O8 0.638244 0.208494 0.278688
O O9 0.500000 0.384584 0.207712
O O10 0.660045 0.421950 0.255220
O O11 0.624583 0.379530 0.000000
O O12 0.867129 0.700916 0.237605
O O13 0.867975 0.816671 0.239148
O O14 0.000000 0.758551 0.139705
O O15 0.848269 0.759016 0.000000
O O16 0.836524 0.405012 0.747156
O O17 0.000000 0.372408 0.785008
O O18 0.882398 0.362157 0.000000
O O19 0.000000 0.109457 0.780090
O O20 0.112722 0.122269 0.000000
O O21 0.750443 0.580836 0.500000
O O22 0.773546 0.500000 0.309703
O O23 0.594279 0.853977 0.500000
O O24 0.500000 0.861819 0.259563
#
# Coordination Sequence:
#
# PCOD8199081 Si02
#       8
#     8   8   8   8   8   8   8   8
#     4  10  21  34  48  71 102 134 172 218 261 298
#     4   8  14  28  52  79 106 135 166 203 252 312
#     4  10  21  37  58  83 109 136 169 215 268 318
#     4   7  12  27  52  80 105 128 160 204 255 309
#     4   9  18  35  60  86 111 139 171 213 265 316
#     4   9  18  34  55  75  98 132 170 207 251 307
#     4  11  25  41  55  75 106 145 186 222 256 302
#     4   8  15  30  52  76 102 134 171 209 251 304
#
# _framework density 19.398983999999999
#
# number of rings (size 3 to 8) (size 9 to 14) (size 15 to 20)
#    0.000    3.000    0.000    3.000    0.000    4.500 
#    0.000    8.750    0.000    3.375    0.000    0.875 
#    0.000    0.000    0.000    0.000    0.000    0.000 
#
# Total GULP energy -793088.185825 kJ/mol
# GULP energy per Si atom -12392.002904 kJ/mol
# Density = 1.935483 g / cm^3
# Si number density = 19.398984 Si / 1000 Ang^3
#
#
#
# Elastic Constant Matrix: (Units=GPa)
#
#
# Indices 1 2 3 4 5 6 
#
# 1 60.2419 20.4739 23.6933 0.0000 0.0000 0.0000
# 2 20.4739 78.6421 26.1146 0.0000 0.0000 0.0000
# 3 23.6933 26.1146 51.4226 0.0000 0.0000 0.0000
# 4 0.0000 0.0000 0.0000 24.4485 0.0000 0.0000
# 5 0.0000 0.0000 0.0000 0.0000 23.5720 0.0000
# 6 0.0000 0.0000 0.0000 0.0000 0.0000 35.0657
#
#
#
# Elastic Compliance Matrix: (Units=1/GPa)
#
#
# Indices 1 2 3 4 5 6 
#
# 1 0.020732 -0.002677 -0.008193 0.000000 0.000000 0.000000
# 2 -0.002677 0.015641 -0.006710 0.000000 0.000000 0.000000
# 3 -0.008193 -0.006710 0.026629 0.000000 0.000000 0.000000
# 4 0.000000 0.000000 0.000000 0.040902 0.000000 0.000000
# 5 0.000000 0.000000 0.000000 0.000000 0.042423 0.000000
# 6 0.000000 0.000000 0.000000 0.000000 0.000000 0.028518
#
#
# Mechanical properties :
#
#
# Convention : Reuss Voigt Hill
#
# Bulk Modulus (GPa) = 35.91584 36.76336 36.33960
# Shear Modulus (GPa) = 22.80139 24.61890 23.71015
#
# Velocity S-wave (km/s) = 3.43212 3.56628 3.49984
# Velocity P-wave (km/s) = 5.85324 5.99584 5.92497
#
# Compressibility (1/GPa) = 0.02784287
#
# Stress axis : x y z
#
# Youngs Moduli (GPa) = 48.23515 63.93538 37.55285
#
# Poissons Ratio (x) = 0.17114 0.30767
# Poissons Ratio (y) = 0.12911 0.25197
# Poissons Ratio (z) = 0.39519 0.42899
#
# Static dielectric constant tensor:
#      x y z
#    x 3.435320 0.000000 0.000000 
#    y 0.000000 3.821670 0.000000 
#    z 0.000000 0.000000 3.227100 
# 
# 
# High freq. dielectric constant tensor:
#      x y z
#    x 1.746090 0.000000 0.000000 
#    y 0.000000 1.764250 0.000000 
#    z 0.000000 0.000000 1.720740 
# 
# From -- ./inp_files/7869.got.cif
#   From: 2010.03.12/outbox.cif.g09.slc.cpg/sg47_4_cif.got.tgz:7869.got - 2010.04.14 03:12:58.
