data_PCOD8199731
_publ_section_title
;
Structure prediction by ZEFSAII (Michael W. Deem and Ramdas Pophale) SiO2 
 PCOD8199731
Probable space group: P M M M
;
_chemical_formula_sum "Si O2"
_cell_formula_units_Z 44
_cell_length_a 14.030722
_cell_length_b 18.106343
_cell_length_c 9.020633
_cell_angle_alpha 90.000000
_cell_angle_beta 90.000000
_cell_angle_gamma 90.000000
_cell_volume 2291.647297
_symmetry_space_group_name_H-M "P M M M"
_symmetry_group_IT_number 47
_symmetry_cell_setting 'orthorhombic'
loop_
_space_group_symop_operation_xyz
x,y,z
-x,-y,z
x,-y,-z
-x,y,-z
-x,-y,-z
x,y,-z
-x,y,z
x,-y,z
loop_
_atom_site_type_symbol
_atom_site_label
_atom_site_fract_x
_atom_site_fract_y
_atom_site_fract_z
Si Si1 0.777045 0.290981 0.825181
Si Si2 0.609711 0.225569 0.326637
Si Si3 0.386815 0.080842 0.167112
Si Si4 0.109662 0.414846 0.330152
Si Si5 0.113359 0.000000 0.335619
Si Si6 0.888297 0.159787 0.326084
O O1 0.670498 0.287839 0.757629
O O2 0.824443 0.367420 0.776930
O O3 0.836017 0.221741 0.766617
O O4 0.771167 0.288250 0.000000
O O5 0.625281 0.233913 0.500000
O O6 0.500000 0.236432 0.280715
O O7 0.648908 0.144633 0.277929
O O8 0.500000 0.076630 0.173603
O O9 0.345506 0.000000 0.215002
O O10 0.353723 0.100110 0.000000
O O11 0.126689 0.390794 0.500000
O O12 0.137163 0.500000 0.307578
O O13 0.000000 0.401364 0.286931
O O14 0.144196 0.078417 0.261367
O O15 0.156309 0.000000 0.500000
O O16 0.000000 0.000000 0.346804
O O17 0.862739 0.166943 0.500000
O O18 0.000000 0.171655 0.302086
#
# Coordination Sequence:
#
# PCOD8199731 Si02
#       6
#     8   8   8   8   4   8
#     4  12  24  35  52  81 115 149 181 219 274 335
#     4  10  21  37  56  76 100 137 189 241 282 324
#     4   8  14  27  48  72  99 131 167 216 282 343
#     4   9  19  38  64  91 118 148 180 217 264 318
#     4   7  12  26  49  73  96 131 180 229 273 310
#     4   9  17  32  54  77 104 140 183 230 274 319
#
# _framework density 19.200163
#
# number of rings (size 3 to 8) (size 9 to 14) (size 15 to 20)
#    0.000    2.636    0.000    4.909    0.000    4.727 
#    1.636    3.182    0.000    2.182    0.000    3.818 
#    0.000    0.000    0.000    0.000    0.000    0.000 
#
# Total GULP energy -545369.316044 kJ/mol
# GULP energy per Si atom -12394.757183 kJ/mol
# Density = 1.915646 g / cm^3
# Si number density = 19.200163 Si / 1000 Ang^3
#
#
#
# Elastic Constant Matrix: (Units=GPa)
#
#
# Indices 1 2 3 4 5 6 
#
# 1 63.5136 52.3451 46.3590 0.0000 0.0000 0.0000
# 2 52.3451 104.9148 53.8615 0.0000 0.0000 0.0000
# 3 46.3590 53.8615 106.8832 0.0000 0.0000 0.0000
# 4 0.0000 0.0000 0.0000 20.6902 0.0000 0.0000
# 5 0.0000 0.0000 0.0000 0.0000 18.7357 0.0000
# 6 0.0000 0.0000 0.0000 0.0000 0.0000 28.8749
#
#
#
# Elastic Compliance Matrix: (Units=1/GPa)
#
#
# Indices 1 2 3 4 5 6 
#
# 1 0.030670 -0.011430 -0.007543 0.000000 0.000000 0.000000
# 2 -0.011430 0.017118 -0.003669 0.000000 0.000000 0.000000
# 3 -0.007543 -0.003669 0.014476 0.000000 0.000000 0.000000
# 4 0.000000 0.000000 0.000000 0.048332 0.000000 0.000000
# 5 0.000000 0.000000 0.000000 0.000000 0.053374 0.000000
# 6 0.000000 0.000000 0.000000 0.000000 0.000000 0.034632
#
#
# Mechanical properties :
#
#
# Convention : Reuss Voigt Hill
#
# Bulk Modulus (GPa) = 58.88744 64.49364 61.69054
# Shear Modulus (GPa) = 20.03640 21.84322 20.93981
#
# Velocity S-wave (km/s) = 3.23391 3.37658 3.30601
# Velocity P-wave (km/s) = 6.68439 6.99033 6.83907
#
# Compressibility (1/GPa) = 0.01698155
#
# Stress axis : x y z
#
# Youngs Moduli (GPa) = 32.60478 58.41928 69.07840
#
# Poissons Ratio (x) = 0.66773 0.52105
# Poissons Ratio (y) = 0.37267 0.25341
# Poissons Ratio (z) = 0.24594 0.21431
#
# Static dielectric constant tensor:
#      x y z
#    x 3.487990 0.000000 0.000000 
#    y 0.000000 3.655580 0.000000 
#    z 0.000000 0.000000 3.319220 
# 
# 
# High freq. dielectric constant tensor:
#      x y z
#    x 1.740600 0.000000 0.000000 
#    y 0.000000 1.739010 0.000000 
#    z 0.000000 0.000000 1.730450 
# 
# From -- ./inp_files/6086.got.cif
#   From: 2010.03.12/outbox.cif.g09.slc.cpg/sg47_4_cif.got.tgz:6086.got - 2010.04.14 03:12:58.
