data_PCOD8199908
_publ_section_title
;
Structure prediction by ZEFSAII (Michael W. Deem and Ramdas Pophale) SiO2 
 PCOD8199908
Probable space group: P M M M
;
_chemical_formula_sum "Si O2"
_cell_formula_units_Z 36
_cell_length_a 9.044787
_cell_length_b 13.172501
_cell_length_c 13.087100
_cell_angle_alpha 90.000000
_cell_angle_beta 90.000000
_cell_angle_gamma 90.000000
_cell_volume 1559.229364
_symmetry_space_group_name_H-M "P M M M"
_symmetry_group_IT_number 47
_symmetry_cell_setting 'orthorhombic'
loop_
_space_group_symop_operation_xyz
x,y,z
-x,-y,z
x,-y,-z
-x,y,-z
-x,-y,-z
x,y,-z
-x,y,z
x,-y,z
loop_
_atom_site_type_symbol
_atom_site_label
_atom_site_fract_x
_atom_site_fract_y
_atom_site_fract_z
Si Si1 0.164963 0.802935 0.619249
Si Si2 0.332504 0.888247 0.120877
Si Si3 0.667330 0.000000 0.622296
Si Si4 0.670970 0.387130 0.701886
Si Si5 0.173251 0.309097 0.116549
O O1 0.152920 0.823902 0.500000
O O2 0.255776 0.897811 0.667470
O O3 0.244864 0.695208 0.633890
O O4 0.000000 0.798276 0.667260
O O5 0.500000 0.854745 0.146616
O O6 0.219138 0.802192 0.161787
O O7 0.298522 0.000000 0.169621
O O8 0.311265 0.897474 0.000000
O O9 0.500000 0.000000 0.662300
O O10 0.672620 0.000000 0.500000
O O11 0.500000 0.357064 0.707224
O O12 0.691016 0.500000 0.654497
O O13 0.739979 0.390839 0.815986
O O14 0.000000 0.325211 0.127585
O O15 0.225447 0.321679 0.000000
#
# Coordination Sequence:
#
# PCOD8199908 Si02
#       5
#     8   8   4   8   8
#     4  10  21  39  65  96 129 163 199 244 301 362
#     4   8  14  27  49  76 107 144 185 231 285 347
#     4   9  17  33  61  95 130 165 200 241 291 353
#     4  11  25  43  62  86 118 158 207 260 308 361
#     4  10  21  37  58  84 115 153 198 251 309 365
#
# _framework density 23.088329999999999
#
# number of rings (size 3 to 8) (size 9 to 14) (size 15 to 20)
#    0.000    2.333    0.000    3.000    0.000    7.111 
#    2.000    6.667    0.000    0.000    0.000    0.000 
#    0.000    0.000    0.000    0.000    0.000    0.000 
#
# Total GULP energy -446410.983245 kJ/mol
# GULP energy per Si atom -12400.305090 kJ/mol
# Density = 2.303578 g / cm^3
# Si number density = 23.088330 Si / 1000 Ang^3
#
#
#
# Elastic Constant Matrix: (Units=GPa)
#
#
# Indices 1 2 3 4 5 6 
#
# 1 165.6154 76.1202 7.2639 0.0000 0.0000 0.0000
# 2 76.1202 146.2413 13.9562 0.0000 0.0000 0.0000
# 3 7.2639 13.9562 17.1159 0.0000 0.0000 0.0000
# 4 0.0000 0.0000 0.0000 31.6311 0.0000 0.0000
# 5 0.0000 0.0000 0.0000 0.0000 28.8023 0.0000
# 6 0.0000 0.0000 0.0000 0.0000 0.0000 27.8373
#
#
#
# Elastic Compliance Matrix: (Units=1/GPa)
#
#
# Indices 1 2 3 4 5 6 
#
# 1 0.007937 -0.004131 0.000000 0.000000 0.000000 0.000000
# 2 -0.004131 0.009565 -0.006046 0.000000 0.000000 0.000000
# 3 0.000000 -0.006046 0.063355 0.000000 0.000000 0.000000
# 4 0.000000 0.000000 0.000000 0.031614 0.000000 0.000000
# 5 0.000000 0.000000 0.000000 0.000000 0.034719 0.000000
# 6 0.000000 0.000000 0.000000 0.000000 0.000000 0.035923
#
#
# Mechanical properties :
#
#
# Convention : Reuss Voigt Hill
#
# Bulk Modulus (GPa) = 16.52818 58.18369 37.35594
# Shear Modulus (GPa) = 22.35772 33.09630 27.72701
#
# Velocity S-wave (km/s) = 3.11522 3.79022 3.46917
# Velocity P-wave (km/s) = 4.48482 6.66405 5.67993
#
# Compressibility (1/GPa) = 0.06050273
#
# Stress axis : x y z
#
# Youngs Moduli (GPa) = 125.99395 104.54347 15.78406
#
# Poissons Ratio (x) = 0.43190 0.00000
# Poissons Ratio (y) = 0.52051 0.09544
# Poissons Ratio (z) = -0.00003 0.63210
#
# Static dielectric constant tensor:
#      x y z
#    x 4.164520 0.000000 0.000000 
#    y 0.000000 4.328870 0.000000 
#    z 0.000000 0.000000 4.126420 
# 
# 
# High freq. dielectric constant tensor:
#      x y z
#    x 1.910520 0.000000 0.000000 
#    y 0.000000 1.911940 0.000000 
#    z 0.000000 0.000000 1.926600 
# 
# From -- ./inp_files/26151.got.cif
#   From: 2010.03.12/outbox.cif.g09.slc.cpg/sg47_14_cif.got.tgz:26151.got - 2010.04.14 03:12:58.
