data_PCOD8199814
_publ_section_title
;
Structure prediction by ZEFSAII (Michael W. Deem and Ramdas Pophale) SiO2 
 PCOD8199814
Probable space group: P M M M
;
_chemical_formula_sum "Si O2"
_cell_formula_units_Z 40
_cell_length_a 25.926040
_cell_length_b 9.262051
_cell_length_c 8.970329
_cell_angle_alpha 90.000000
_cell_angle_beta 90.000000
_cell_angle_gamma 90.000000
_cell_volume 2154.029895
_symmetry_space_group_name_H-M "P M M M"
_symmetry_group_IT_number 47
_symmetry_cell_setting 'orthorhombic'
loop_
_space_group_symop_operation_xyz
x,y,z
-x,-y,z
x,-y,-z
-x,y,-z
-x,-y,-z
x,y,-z
-x,y,z
x,-y,z
loop_
_atom_site_type_symbol
_atom_site_label
_atom_site_fract_x
_atom_site_fract_y
_atom_site_fract_z
Si Si1 0.795251 0.667935 0.826449
Si Si2 0.297162 0.830900 0.673015
Si Si3 0.500000 0.670393 0.162242
Si Si4 0.000000 0.162929 0.677327
Si Si5 0.900704 0.332556 0.327639
Si Si6 0.611374 0.664539 0.821908
O O1 0.784767 0.500000 0.794460
O O2 0.753370 0.759414 0.739986
O O3 0.851263 0.713800 0.767568
O O4 0.791645 0.704045 0.000000
O O5 0.300147 0.792497 0.500000
O O6 0.347919 0.771908 0.751900
O O7 0.293945 0.000000 0.702673
O O8 0.500000 0.500000 0.139201
O O9 0.445675 0.711227 0.242061
O O10 0.500000 0.745351 0.000000
O O11 0.051038 0.242965 0.736482
O O12 0.000000 0.168631 0.500000
O O13 0.000000 0.000000 0.738111
O O14 0.889451 0.296093 0.500000
O O15 0.914085 0.500000 0.306544
O O16 0.624599 0.500000 0.775233
O O17 0.612230 0.678101 0.000000
#
# Coordination Sequence:
#
# PCOD8199814 Si02
#       6
#     8   8   4   4   8   8
#     4  10  21  37  57  80 103 130 169 216 264 311
#     4  11  24  38  51  72 104 140 175 211 255 307
#     4   7  12  26  50  79 106 130 162 207 254 299
#     4   9  17  29  48  75 104 134 170 209 246 289
#     4   9  17  31  52  76 102 133 168 206 250 300
#     4   9  17  32  56  82 105 132 169 212 256 303
#
# _framework density 18.569845999999998
#
# number of rings (size 3 to 8) (size 9 to 14) (size 15 to 20)
#    0.000    2.600    0.000    3.300    0.000    7.600 
#    0.000    3.500    0.000    7.800    0.000    0.000 
#    0.000    0.000    0.000    0.000    0.000    0.000 
#
# Total GULP energy -495865.006945 kJ/mol
# GULP energy per Si atom -12396.625174 kJ/mol
# Density = 1.852758 g / cm^3
# Si number density = 18.569846 Si / 1000 Ang^3
#
#
#
# Elastic Constant Matrix: (Units=GPa)
#
#
# Indices 1 2 3 4 5 6 
#
# 1 150.0609 66.3452 29.6655 0.0000 0.0000 0.0000
# 2 66.3452 72.8572 32.8805 0.0000 0.0000 0.0000
# 3 29.6655 32.8805 37.1684 0.0000 0.0000 0.0000
# 4 0.0000 0.0000 0.0000 22.8181 0.0000 0.0000
# 5 0.0000 0.0000 0.0000 0.0000 26.5783 0.0000
# 6 0.0000 0.0000 0.0000 0.0000 0.0000 -4.7125
#
#
#
# Elastic Compliance Matrix: (Units=1/GPa)
#
#
# Indices 1 2 3 4 5 6 
#
# 1 0.011155 -0.010221 0.000138 0.000000 0.000000 0.000000
# 2 -0.010221 0.032211 -0.020338 0.000000 0.000000 0.000000
# 3 0.000138 -0.020338 0.044786 0.000000 0.000000 0.000000
# 4 0.000000 0.000000 0.000000 0.043825 0.000000 0.000000
# 5 0.000000 0.000000 0.000000 0.000000 0.037625 0.000000
# 6 0.000000 0.000000 0.000000 0.000000 0.000000 -0.212203
#
#
# Mechanical properties :
#
#
# Convention : Reuss Voigt Hill
#
# Bulk Modulus (GPa) = 36.61422 57.54100 47.07761
# Shear Modulus (GPa) = 182.86313 17.68313 100.27313
#
# Velocity S-wave (km/s) = 9.93413 3.08920 7.35629
# Velocity P-wave (km/s) = 12.30213 6.61648 9.87725
#
# Compressibility (1/GPa) = 0.02731179
#
# Stress axis : x y z
#
# Youngs Moduli (GPa) = 89.64219 31.04534 22.32853
#
# Poissons Ratio (x) = 0.31730 -0.00308
# Poissons Ratio (y) = 0.91620 0.45411
# Poissons Ratio (z) = -0.01237 0.63138
#
# Static dielectric constant tensor:
#      x y z
#    x 3.779050 0.000000 0.000000 
#    y 0.000000 3.329780 0.000000 
#    z 0.000000 0.000000 3.219660 
# 
# 
# High freq. dielectric constant tensor:
#      x y z
#    x 1.743970 0.000000 0.000000 
#    y 0.000000 1.705200 0.000000 
#    z 0.000000 0.000000 1.695880 
# 
# From -- ./inp_files/13066.got.cif
#   From: 2010.03.12/outbox.cif.g09.slc.cpg/sg47_7_cif.got.tgz:13066.got - 2010.04.14 03:12:58.
