data_PCOD8199938
_publ_section_title
;
Structure prediction by ZEFSAII (Michael W. Deem and Ramdas Pophale) SiO2 
 PCOD8199938
Probable space group: P M M M
;
_chemical_formula_sum "Si O2"
_cell_formula_units_Z 56
_cell_length_a 15.450962
_cell_length_b 19.896066
_cell_length_c 8.936384
_cell_angle_alpha 90.000000
_cell_angle_beta 90.000000
_cell_angle_gamma 90.000000
_cell_volume 2747.163829
_symmetry_space_group_name_H-M "P M M M"
_symmetry_group_IT_number 47
_symmetry_cell_setting 'orthorhombic'
loop_
_space_group_symop_operation_xyz
x,y,z
-x,-y,z
x,-y,-z
-x,y,-z
-x,-y,-z
x,y,-z
-x,y,z
x,-y,z
loop_
_atom_site_type_symbol
_atom_site_label
_atom_site_fract_x
_atom_site_fract_y
_atom_site_fract_z
Si Si1 0.902820 0.144239 0.827321
Si Si2 0.142705 0.429343 0.167649
Si Si3 0.654941 0.293144 0.323289
Si Si4 0.742674 0.078409 0.326312
Si Si5 0.838788 0.287882 0.176120
Si Si6 0.651407 0.426511 0.168211
Si Si7 0.596490 0.164710 0.828459
O O1 0.836286 0.104016 0.725581
O O2 0.899296 0.224112 0.794799
O O3 0.000000 0.119974 0.789201
O O4 0.880055 0.129901 0.000000
O O5 0.113086 0.500000 0.250192
O O6 0.112730 0.356962 0.235394
O O7 0.245643 0.425932 0.169082
O O8 0.106866 0.434588 0.000000
O O9 0.654129 0.290499 0.500000
O O10 0.750618 0.276589 0.264945
O O11 0.618072 0.365891 0.272260
O O12 0.594018 0.235243 0.258395
O O13 0.732263 0.095332 0.500000
O O14 0.664965 0.113250 0.239237
O O15 0.736919 0.000000 0.292756
O O16 0.816979 0.296772 0.000000
O O17 0.618670 0.500000 0.226128
O O18 0.617082 0.414655 0.000000
O O19 0.500000 0.133421 0.816101
O O20 0.622703 0.177930 0.000000
#
# Coordination Sequence:
#
# PCOD8199938 Si02
#       7
#     8   8   8   8   8   8   8
#     4  10  21  37  60  89 120 159 206 252 293 339
#     4   7  10  18  36  64  96 135 185 236 284 333
#     4  11  20  30  51  82 117 154 194 243 299 354
#     4  11  25  44  66  93 124 155 187 233 297 361
#     4   9  16  29  50  74 107 151 199 246 291 344
#     4   8  14  26  45  70 104 149 199 247 295 348
#     4  11  24  42  65  91 119 155 199 242 286 345
#
# _framework density 20.384658999999999
#
# number of rings (size 3 to 8) (size 9 to 14) (size 15 to 20)
#    0.000    2.429    1.429    3.857    0.000    3.429 
#    0.000    2.857    0.000    0.857    0.000    6.000 
#    0.000    0.000    0.000    8.429    0.000    9.429 
#
# Total GULP energy -693814.202317 kJ/mol
# GULP energy per Si atom -12389.539327 kJ/mol
# Density = 2.033826 g / cm^3
# Si number density = 20.384659 Si / 1000 Ang^3
#
#
#
# Elastic Constant Matrix: (Units=GPa)
#
#
# Indices 1 2 3 4 5 6 
#
# 1 80.6841 44.5111 38.4191 0.0000 0.0000 0.0000
# 2 44.5111 120.0281 66.5345 0.0000 0.0000 0.0000
# 3 38.4191 66.5345 108.7408 0.0000 0.0000 0.0000
# 4 0.0000 0.0000 0.0000 27.3100 0.0000 0.0000
# 5 0.0000 0.0000 0.0000 0.0000 8.4712 0.0000
# 6 0.0000 0.0000 0.0000 0.0000 0.0000 1.6290
#
#
#
# Elastic Compliance Matrix: (Units=1/GPa)
#
#
# Indices 1 2 3 4 5 6 
#
# 1 0.016247 -0.004302 -0.003108 0.000000 0.000000 0.000000
# 2 -0.004302 0.013747 -0.006891 0.000000 0.000000 0.000000
# 3 -0.003108 -0.006891 0.014511 0.000000 0.000000 0.000000
# 4 0.000000 0.000000 0.000000 0.036617 0.000000 0.000000
# 5 0.000000 0.000000 0.000000 0.000000 0.118047 0.000000
# 6 0.000000 0.000000 0.000000 0.000000 0.000000 0.613860
#
#
# Mechanical properties :
#
#
# Convention : Reuss Voigt Hill
#
# Bulk Modulus (GPa) = 62.88479 67.59805 65.24142
# Shear Modulus (GPa) = 5.90366 18.14792 12.02579
#
# Velocity S-wave (km/s) = 1.70365 2.98698 2.43151
# Velocity P-wave (km/s) = 5.89796 6.71784 6.32120
#
# Compressibility (1/GPa) = 0.01590210
#
# Stress axis : x y z
#
# Youngs Moduli (GPa) = 61.54833 72.74444 68.91512
#
# Poissons Ratio (x) = 0.31297 0.21418
# Poissons Ratio (y) = 0.26480 0.47490
# Poissons Ratio (z) = 0.19129 0.50129
#
# Static dielectric constant tensor:
#      x y z
#    x 3.352590 0.000000 0.000000 
#    y 0.000000 4.256450 0.000000 
#    z 0.000000 0.000000 3.457900 
# 
# 
# High freq. dielectric constant tensor:
#      x y z
#    x 1.770020 0.000000 0.000000 
#    y 0.000000 1.817540 0.000000 
#    z 0.000000 0.000000 1.764130 
# 
# From -- ./inp_files/7273.got.cif
#   From: 2010.03.12/outbox.cif.g09.slc.cpg/sg47_4_cif.got.tgz:7273.got - 2010.04.14 03:12:58.
