data_PCOD8199639
_publ_section_title
;
Structure prediction by ZEFSAII (Michael W. Deem and Ramdas Pophale) SiO2 
 PCOD8199639
Probable space group: P M M M
;
_chemical_formula_sum "Si O2"
_cell_formula_units_Z 64
_cell_length_a 9.524702
_cell_length_b 13.987205
_cell_length_c 23.557523
_cell_angle_alpha 90.000000
_cell_angle_beta 90.000000
_cell_angle_gamma 90.000000
_cell_volume 3138.426489
_symmetry_space_group_name_H-M "P M M M"
_symmetry_group_IT_number 47
_symmetry_cell_setting 'orthorhombic'
loop_
_space_group_symop_operation_xyz
x,y,z
-x,-y,z
x,-y,-z
-x,y,-z
-x,-y,-z
x,y,-z
-x,y,z
x,-y,z
loop_
_atom_site_type_symbol
_atom_site_label
_atom_site_fract_x
_atom_site_fract_y
_atom_site_fract_z
Si Si1 0.156720 0.394449 0.932646
Si Si2 0.657336 0.111528 0.652578
Si Si3 0.254908 0.605627 0.562488
Si Si4 0.662208 0.218038 0.066910
Si Si5 0.835350 0.221802 0.737368
Si Si6 0.160312 0.108493 0.849469
Si Si7 0.656827 0.392098 0.312910
Si Si8 0.850125 0.195589 0.436624
O O1 0.199928 0.500000 0.909939
O O2 0.267484 0.316524 0.910805
O O3 0.000000 0.368171 0.910582
O O4 0.156224 0.396086 0.000000
O O5 0.500000 0.150727 0.664887
O O6 0.763560 0.136987 0.702443
O O7 0.713944 0.158997 0.595513
O O8 0.654348 0.000000 0.643745
O O9 0.333815 0.613174 0.500000
O O10 0.184574 0.500000 0.566657
O O11 0.350591 0.621545 0.618518
O O12 0.139706 0.688990 0.564645
O O13 0.500000 0.220917 0.084155
O O14 0.737639 0.129592 0.097680
O O15 0.682468 0.204008 0.000000
O O16 0.811025 0.189397 0.802024
O O17 0.762804 0.321783 0.720279
O O18 0.000000 0.229143 0.722850
O O19 0.000000 0.116001 0.870450
O O20 0.190868 0.000000 0.827737
O O21 0.500000 0.372346 0.290173
O O22 0.704559 0.500000 0.297925
O O23 0.834541 0.156455 0.500000
O O24 0.000000 0.159359 0.411055
#
# Coordination Sequence:
#
# PCOD8199639 Si02
#       8
#     8   8   8   8   8   8   8   8
#     4   8  14  27  50  80 115 158 204 242 275 319
#     4  11  24  40  59  83 110 146 192 239 294 358
#     4   9  18  32  53  85 123 159 196 238 287 349
#     4  10  21  36  57  90 129 163 195 237 293 356
#     4  11  23  41  65  90 115 147 192 246 297 347
#     4  10  23  43  65  88 114 150 199 250 298 352
#     4  10  21  37  59  89 125 162 199 241 293 355
#     4  10  21  36  55  82 115 151 191 239 295 349
#
# _framework density 20.392384
#
# number of rings (size 3 to 8) (size 9 to 14) (size 15 to 20)
#    0.000    2.125    1.250    1.875    0.000    5.250 
#    0.000    9.375    0.000    0.750    0.000    0.000 
#    0.000    0.000    0.000    0.000    0.000    0.000 
#
# Total GULP energy -792904.995978 kJ/mol
# GULP energy per Si atom -12389.140562 kJ/mol
# Density = 2.034597 g / cm^3
# Si number density = 20.392384 Si / 1000 Ang^3
#
#
#
# Elastic Constant Matrix: (Units=GPa)
#
#
# Indices 1 2 3 4 5 6 
#
# 1 141.6958 66.2749 56.2488 0.0000 0.0000 0.0000
# 2 66.2749 117.4924 43.5310 0.0000 0.0000 0.0000
# 3 56.2488 43.5310 70.9367 0.0000 0.0000 0.0000
# 4 0.0000 0.0000 0.0000 21.8215 0.0000 0.0000
# 5 0.0000 0.0000 0.0000 0.0000 22.3657 0.0000
# 6 0.0000 0.0000 0.0000 0.0000 0.0000 28.4458
#
#
#
# Elastic Compliance Matrix: (Units=1/GPa)
#
#
# Indices 1 2 3 4 5 6 
#
# 1 0.011630 -0.004069 -0.006725 0.000000 0.000000 0.000000
# 2 -0.004069 0.012439 -0.004407 0.000000 0.000000 0.000000
# 3 -0.006725 -0.004407 0.022134 0.000000 0.000000 0.000000
# 4 0.000000 0.000000 0.000000 0.045826 0.000000 0.000000
# 5 0.000000 0.000000 0.000000 0.000000 0.044711 0.000000
# 6 0.000000 0.000000 0.000000 0.000000 0.000000 0.035155
#
#
# Mechanical properties :
#
#
# Convention : Reuss Voigt Hill
#
# Bulk Modulus (GPa) = 63.28554 73.58161 68.43358
# Shear Modulus (GPa) = 24.08884 25.46461 24.77672
#
# Velocity S-wave (km/s) = 3.44068 3.53757 3.48946
# Velocity P-wave (km/s) = 6.84731 7.26960 7.06161
#
# Compressibility (1/GPa) = 0.01580140
#
# Stress axis : x y z
#
# Youngs Moduli (GPa) = 85.98398 80.39198 45.17855
#
# Poissons Ratio (x) = 0.32708 0.30384
# Poissons Ratio (y) = 0.34983 0.19911
# Poissons Ratio (z) = 0.57827 0.35431
#
# Static dielectric constant tensor:
#      x y z
#    x 3.675790 0.000000 0.000000 
#    y 0.000000 3.844060 0.000000 
#    z 0.000000 0.000000 3.490670 
# 
# 
# High freq. dielectric constant tensor:
#      x y z
#    x 1.789140 0.000000 0.000000 
#    y 0.000000 1.805440 0.000000 
#    z 0.000000 0.000000 1.775650 
# 
# From -- ./inp_files/32111.got.cif
#   From: 2010.03.12/outbox.cif.g09.slc.cpg/sg47_17_cif.got.tgz:32111.got - 2010.04.14 03:12:58.
