data_PCOD8199873
_publ_section_title
;
Structure prediction by ZEFSAII (Michael W. Deem and Ramdas Pophale) SiO2 
 PCOD8199873
Probable space group: P M M M
;
_chemical_formula_sum "Si O2"
_cell_formula_units_Z 40
_cell_length_a 8.076769
_cell_length_b 27.091386
_cell_length_c 9.075418
_cell_angle_alpha 90.000000
_cell_angle_beta 90.000000
_cell_angle_gamma 90.000000
_cell_volume 1985.800077
_symmetry_space_group_name_H-M "P M M M"
_symmetry_group_IT_number 47
_symmetry_cell_setting 'orthorhombic'
loop_
_space_group_symop_operation_xyz
x,y,z
-x,-y,z
x,-y,-z
-x,y,-z
-x,-y,-z
x,y,-z
-x,y,z
x,-y,z
loop_
_atom_site_type_symbol
_atom_site_label
_atom_site_fract_x
_atom_site_fract_y
_atom_site_fract_z
Si Si1 0.500000 0.055089 0.325486
Si Si2 0.191357 0.222315 0.168944
Si Si3 0.811323 0.880137 0.327397
Si Si4 0.310606 0.315279 0.333077
Si Si5 0.189647 0.592636 0.163844
Si Si6 0.310631 0.500000 0.340299
O O1 0.500000 0.052641 0.500000
O O2 0.329246 0.081378 0.273187
O O3 0.500000 0.000000 0.258008
O O4 0.225589 0.169474 0.239623
O O5 0.297163 0.262372 0.256147
O O6 0.000000 0.237095 0.181727
O O7 0.249860 0.220877 0.000000
O O8 0.791963 0.868932 0.500000
O O9 0.000000 0.899391 0.294191
O O10 0.243777 0.311368 0.500000
O O11 0.500000 0.332489 0.331250
O O12 0.204986 0.355487 0.246317
O O13 0.275638 0.549065 0.250504
O O14 0.000000 0.578247 0.151395
O O15 0.267528 0.597208 0.000000
O O16 0.500000 0.500000 0.377078
O O17 0.216633 0.500000 0.500000
#
# Coordination Sequence:
#
# PCOD8199873 Si02
#       6
#     4   8   8   8   8   4
#     4   9  18  32  53  83 115 147 191 244 291 342
#     4  10  21  37  57  82 112 147 188 234 285 342
#     4   9  18  33  54  80 112 150 191 238 292 346
#     4  11  24  39  57  84 116 149 187 232 282 338
#     4  11  24  41  61  86 115 148 189 234 281 337
#     4  11  24  41  62  88 116 147 188 235 282 336
#
# _framework density 20.143013
#
# number of rings (size 3 to 8) (size 9 to 14) (size 15 to 20)
#    0.000    1.800    0.000    3.600    1.400   11.600 
#    0.000    2.000    0.000    1.200    0.000    2.800 
#    0.000    0.000    0.000    0.000    0.000    0.000 
#
# Total GULP energy -496016.821622 kJ/mol
# GULP energy per Si atom -12400.420541 kJ/mol
# Density = 2.009717 g / cm^3
# Si number density = 20.143013 Si / 1000 Ang^3
#
#
#
# Elastic Constant Matrix: (Units=GPa)
#
#
# Indices 1 2 3 4 5 6 
#
# 1 86.2543 48.8446 36.7235 0.0000 0.0000 0.0000
# 2 48.8446 137.2344 68.1989 0.0000 0.0000 0.0000
# 3 36.7235 68.1989 142.4336 0.0000 0.0000 0.0000
# 4 0.0000 0.0000 0.0000 55.4514 0.0000 0.0000
# 5 0.0000 0.0000 0.0000 0.0000 21.1611 0.0000
# 6 0.0000 0.0000 0.0000 0.0000 0.0000 37.7608
#
#
#
# Elastic Compliance Matrix: (Units=1/GPa)
#
#
# Indices 1 2 3 4 5 6 
#
# 1 0.014828 -0.004432 -0.001701 0.000000 0.000000 0.000000
# 2 -0.004432 0.010887 -0.004070 0.000000 0.000000 0.000000
# 3 -0.001701 -0.004070 0.009408 0.000000 0.000000 0.000000
# 4 0.000000 0.000000 0.000000 0.018034 0.000000 0.000000
# 5 0.000000 0.000000 0.000000 0.000000 0.047257 0.000000
# 6 0.000000 0.000000 0.000000 0.000000 0.000000 0.026482
#
#
# Mechanical properties :
#
#
# Convention : Reuss Voigt Hill
#
# Bulk Modulus (GPa) = 67.95067 74.82848 71.38958
# Shear Modulus (GPa) = 32.84994 37.01835 34.93414
#
# Velocity S-wave (km/s) = 4.04274 4.29158 4.16902
# Velocity P-wave (km/s) = 7.45648 7.86042 7.66111
#
# Compressibility (1/GPa) = 0.01471656
#
# Stress axis : x y z
#
# Youngs Moduli (GPa) = 67.44144 91.85306 106.29130
#
# Poissons Ratio (x) = 0.40712 0.18078
# Poissons Ratio (y) = 0.29892 0.43261
# Poissons Ratio (z) = 0.11470 0.37384
#
# Static dielectric constant tensor:
#      x y z
#    x 3.729420 0.000000 0.000000 
#    y 0.000000 3.815540 0.000000 
#    z 0.000000 0.000000 3.853650 
# 
# 
# High freq. dielectric constant tensor:
#      x y z
#    x 1.790420 0.000000 0.000000 
#    y 0.000000 1.784820 0.000000 
#    z 0.000000 0.000000 1.788260 
# 
# From -- ./inp_files/1873.got.cif
#   From: 2010.03.12/outbox.cif.g09.slc.cpg/sg47_1_cif.got.tgz:1873.got - 2010.04.14 03:12:58.
