data_PCOD8199717
_publ_section_title
;
Structure prediction by ZEFSAII (Michael W. Deem and Ramdas Pophale) SiO2 
 PCOD8199717
Probable space group: P M M M
;
_chemical_formula_sum "Si O2"
_cell_formula_units_Z 48
_cell_length_a 17.314398
_cell_length_b 15.238573
_cell_length_c 9.165718
_cell_angle_alpha 90.000000
_cell_angle_beta 90.000000
_cell_angle_gamma 90.000000
_cell_volume 2418.344611
_symmetry_space_group_name_H-M "P M M M"
_symmetry_group_IT_number 47
_symmetry_cell_setting 'orthorhombic'
loop_
_space_group_symop_operation_xyz
x,y,z
-x,-y,z
x,-y,-z
-x,y,-z
-x,-y,-z
x,y,-z
-x,y,z
x,-y,z
loop_
_atom_site_type_symbol
_atom_site_label
_atom_site_fract_x
_atom_site_fract_y
_atom_site_fract_z
Si Si1 0.312512 0.102403 0.328551
Si Si2 0.152194 0.399358 0.339830
Si Si3 0.299809 0.399143 0.830157
Si Si4 0.410773 0.756921 0.169210
Si Si5 0.000000 0.361543 0.836844
Si Si6 0.000000 0.843816 0.837789
Si Si7 0.837881 0.102490 0.836957
O O1 0.308960 0.117206 0.500000
O O2 0.380660 0.160558 0.261736
O O3 0.231767 0.138148 0.261780
O O4 0.327525 0.000000 0.290590
O O5 0.143145 0.354292 0.500000
O O6 0.171424 0.500000 0.362910
O O7 0.225122 0.359770 0.253401
O O8 0.074769 0.392492 0.248130
O O9 0.320711 0.500000 0.786685
O O10 0.370382 0.335209 0.788541
O O11 0.279782 0.394382 0.000000
O O12 0.500000 0.744065 0.206868
O O13 0.397142 0.779352 0.000000
O O14 0.000000 0.258766 0.845791
O O15 0.000000 0.402135 0.000000
O O16 0.920513 0.874922 0.760209
O O17 0.000000 0.886314 0.000000
O O18 0.828840 0.000000 0.849860
O O19 0.833314 0.145118 0.000000
#
# Coordination Sequence:
#
# PCOD8199717 Si02
#       7
#     8   8   8   8   4   4   8
#     4  10  22  39  58  83 116 153 192 234 282 334
#     4  10  21  37  55  76 106 145 189 234 277 325
#     4   9  19  37  61  87 115 148 185 228 282 341
#     4  10  22  39  61  89 117 146 183 229 281 340
#     4  11  22  33  49  77 112 147 186 233 279 326
#     4   9  19  32  49  78 110 141 180 227 274 321
#     4   9  17  33  57  80 105 142 186 230 276 327
#
# _framework density 19.848288
#
# number of rings (size 3 to 8) (size 9 to 14) (size 15 to 20)
#    0.000    2.333    0.000    1.750    2.333    5.667 
#    0.000    4.583    0.000    2.000    0.000    3.500 
#    0.000    0.000    0.000    0.000    0.000    0.000 
#
# Total GULP energy -595033.145573 kJ/mol
# GULP energy per Si atom -12396.523866 kJ/mol
# Density = 1.980311 g / cm^3
# Si number density = 19.848288 Si / 1000 Ang^3
#
#
#
# Elastic Constant Matrix: (Units=GPa)
#
#
# Indices 1 2 3 4 5 6 
#
# 1 179.9679 55.8351 75.0748 0.0000 0.0000 0.0000
# 2 55.8351 69.3001 44.3838 0.0000 0.0000 0.0000
# 3 75.0748 44.3838 104.9225 0.0000 0.0000 0.0000
# 4 0.0000 0.0000 0.0000 20.8418 0.0000 0.0000
# 5 0.0000 0.0000 0.0000 0.0000 4.3333 0.0000
# 6 0.0000 0.0000 0.0000 0.0000 0.0000 35.8590
#
#
#
# Elastic Compliance Matrix: (Units=1/GPa)
#
#
# Indices 1 2 3 4 5 6 
#
# 1 0.008713 -0.004152 -0.004478 0.000000 0.000000 0.000000
# 2 -0.004152 0.021771 -0.006239 0.000000 0.000000 0.000000
# 3 -0.004478 -0.006239 0.015374 0.000000 0.000000 0.000000
# 4 0.000000 0.000000 0.000000 0.047980 0.000000 0.000000
# 5 0.000000 0.000000 0.000000 0.000000 0.230770 0.000000
# 6 0.000000 0.000000 0.000000 0.000000 0.000000 0.027887
#
#
# Mechanical properties :
#
#
# Convention : Reuss Voigt Hill
#
# Bulk Modulus (GPa) = 62.03216 78.30864 70.17040
# Shear Modulus (GPa) = 12.89976 24.13329 18.51652
#
# Velocity S-wave (km/s) = 2.55211 3.49074 3.05766
# Velocity P-wave (km/s) = 6.32498 7.46902 6.92068
#
# Compressibility (1/GPa) = 0.01612067
#
# Stress axis : x y z
#
# Youngs Moduli (GPa) = 114.77611 45.93325 65.04568
#
# Poissons Ratio (x) = 0.19071 0.29126
# Poissons Ratio (y) = 0.47654 0.40579
# Poissons Ratio (z) = 0.51394 0.28656
#
# Static dielectric constant tensor:
#      x y z
#    x 3.610290 0.000000 0.000000 
#    y 0.000000 3.562590 0.000000 
#    z 0.000000 0.000000 3.831710 
# 
# 
# High freq. dielectric constant tensor:
#      x y z
#    x 1.777680 0.000000 0.000000 
#    y 0.000000 1.770100 0.000000 
#    z 0.000000 0.000000 1.761200 
# 
# From -- ./inp_files/9197.got.cif
#   From: 2010.03.12/outbox.cif.g09.slc.cpg/sg47_5_cif.got.tgz:9197.got - 2010.04.14 03:12:58.
