data_PCOD8199351
_publ_section_title
;
Structure prediction by ZEFSAII (Michael W. Deem and Ramdas Pophale) SiO2 
 PCOD8199351
Probable space group: P M M M
;
_chemical_formula_sum "Si O2"
_cell_formula_units_Z 48
_cell_length_a 9.192039
_cell_length_b 7.529430
_cell_length_c 34.316743
_cell_angle_alpha 90.000000
_cell_angle_beta 90.000000
_cell_angle_gamma 90.000000
_cell_volume 2375.089724
_symmetry_space_group_name_H-M "P M M M"
_symmetry_group_IT_number 47
_symmetry_cell_setting 'orthorhombic'
loop_
_space_group_symop_operation_xyz
x,y,z
-x,-y,z
x,-y,-z
-x,y,-z
-x,-y,-z
x,y,-z
-x,y,z
x,-y,z
loop_
_atom_site_type_symbol
_atom_site_label
_atom_site_fract_x
_atom_site_fract_y
_atom_site_fract_z
Si Si1 0.825853 0.000000 0.668005
Si Si2 0.842083 0.297314 0.117055
Si Si3 0.162401 0.289827 0.457160
Si Si4 0.337192 0.790576 0.043271
Si Si5 0.667934 0.296371 0.190016
Si Si6 0.669085 0.000000 0.251612
Si Si7 0.670200 0.290995 0.381931
O O1 0.779037 0.000000 0.712696
O O2 0.760240 0.821144 0.649327
O O3 0.000000 0.000000 0.664159
O O4 0.862241 0.500000 0.128350
O O5 0.768152 0.289898 0.075114
O O6 0.749114 0.213683 0.152255
O O7 0.000000 0.202880 0.114908
O O8 0.208784 0.216944 0.500000
O O9 0.159937 0.500000 0.458564
O O10 0.276974 0.226589 0.424693
O O11 0.000000 0.219931 0.446668
O O12 0.500000 0.717981 0.050395
O O13 0.336068 0.000000 0.047118
O O14 0.284252 0.733289 0.000000
O O15 0.500000 0.281694 0.179075
O O16 0.711105 0.500000 0.199823
O O17 0.705278 0.176806 0.227199
O O18 0.500000 0.000000 0.265120
O O19 0.500000 0.248101 0.378005
O O20 0.701454 0.500000 0.375058
#
# Coordination Sequence:
#
# PCOD8199351 Si02
#       7
#     4   8   8   8   8   4   8
#     4  12  26  42  61  87 120 155 195 241 290 358
#     4  10  21  35  52  78 111 143 175 217 269 323
#     4   8  14  27  50  81 117 156 197 241 292 351
#     4   9  19  35  53  74 102 139 184 228 267 313
#     4   9  19  37  60  85 113 145 182 226 276 331
#     4  10  22  40  62  87 112 143 186 232 282 342
#     4  10  21  38  61  87 118 158 201 248 298 345
#
# _framework density 20.209762999999999
#
# number of rings (size 3 to 8) (size 9 to 14) (size 15 to 20)
#    0.000    2.500    0.000    2.750    1.167    4.667 
#    0.000    6.250    0.000    2.500    0.000    0.000 
#    0.000    0.000    0.000    0.000    0.000    0.000 
#
# Total GULP energy -594967.825367 kJ/mol
# GULP energy per Si atom -12395.163028 kJ/mol
# Density = 2.016376 g / cm^3
# Si number density = 20.209763 Si / 1000 Ang^3
#
#
#
# Elastic Constant Matrix: (Units=GPa)
#
#
# Indices 1 2 3 4 5 6 
#
# 1 139.7700 42.7390 90.6707 0.0000 0.0000 0.0000
# 2 42.7390 71.4142 45.0600 0.0000 0.0000 0.0000
# 3 90.6707 45.0600 157.7204 0.0000 0.0000 0.0000
# 4 0.0000 0.0000 0.0000 2240.6569 0.0000 0.0000
# 5 0.0000 0.0000 0.0000 0.0000 27.5083 0.0000
# 6 0.0000 0.0000 0.0000 0.0000 0.0000 14.7998
#
#
#
# Elastic Compliance Matrix: (Units=1/GPa)
#
#
# Indices 1 2 3 4 5 6 
#
# 1 0.012077 -0.003473 -0.005951 0.000000 0.000000 0.000000
# 2 -0.003473 0.018081 -0.003169 0.000000 0.000000 0.000000
# 3 -0.005951 -0.003169 0.010667 0.000000 0.000000 0.000000
# 4 0.000000 0.000000 0.000000 0.000446 0.000000 0.000000
# 5 0.000000 0.000000 0.000000 0.000000 0.036353 0.000000
# 6 0.000000 0.000000 0.000000 0.000000 0.000000 0.067568
#
#
# Mechanical properties :
#
#
# Convention : Reuss Voigt Hill
#
# Bulk Modulus (GPa) = 63.94236 80.64935 72.29585
# Shear Modulus (GPa) = 28.47549 469.28867 248.88208
#
# Velocity S-wave (km/s) = 3.75773 15.25493 11.10931
# Velocity P-wave (km/s) = 7.10883 18.71568 14.15649
#
# Compressibility (1/GPa) = 0.01563908
#
# Stress axis : x y z
#
# Youngs Moduli (GPa) = 82.80379 55.30719 93.75084
#
# Poissons Ratio (x) = 0.19208 0.55786
# Poissons Ratio (y) = 0.28757 0.29710
# Poissons Ratio (z) = 0.49272 0.17527
#
# Static dielectric constant tensor:
#      x y z
#    x 3.908670 0.000000 0.000000 
#    y 0.000000 3.637150 0.000000 
#    z 0.000000 0.000000 3.863380 
# 
# 
# High freq. dielectric constant tensor:
#      x y z
#    x 1.784040 0.000000 0.000000 
#    y 0.000000 1.782680 0.000000 
#    z 0.000000 0.000000 1.789770 
# 
# From -- ./inp_files/34068.got.cif
#   From: 2010.03.12/outbox.cif.g09.slc.cpg/sg47_18_cif.got.tgz:34068.got - 2010.04.14 03:12:58.
