data_PCOD8199985
_publ_section_title
;
Structure prediction by ZEFSAII (Michael W. Deem and Ramdas Pophale) SiO2 
 PCOD8199985
Probable space group: P M M M
;
_chemical_formula_sum "Si O2"
_cell_formula_units_Z 52
_cell_length_a 26.018463
_cell_length_b 8.548402
_cell_length_c 12.541759
_cell_angle_alpha 90.000000
_cell_angle_beta 90.000000
_cell_angle_gamma 90.000000
_cell_volume 2789.491396
_symmetry_space_group_name_H-M "P M M M"
_symmetry_group_IT_number 47
_symmetry_cell_setting 'orthorhombic'
loop_
_space_group_symop_operation_xyz
x,y,z
-x,-y,z
x,-y,-z
-x,y,-z
-x,-y,-z
x,y,-z
-x,y,z
x,-y,z
loop_
_atom_site_type_symbol
_atom_site_label
_atom_site_fract_x
_atom_site_fract_y
_atom_site_fract_z
Si Si1 0.220561 0.319236 0.500000
Si Si2 0.668721 0.816968 0.500000
Si Si3 0.158680 0.819941 0.308682
Si Si4 0.780695 0.682301 0.877439
Si Si5 0.671939 0.818416 0.122954
Si Si6 0.606576 0.684890 0.696373
Si Si7 0.500000 0.815138 0.377029
Si Si8 0.942366 0.681378 0.375674
O O1 0.237225 0.500000 0.500000
O O2 0.270612 0.211036 0.500000
O O3 0.187138 0.286518 0.604584
O O4 0.644369 0.742176 0.604376
O O5 0.656516 0.000000 0.500000
O O6 0.179140 0.780748 0.191391
O O7 0.097871 0.784632 0.309491
O O8 0.168722 0.000000 0.336005
O O9 0.789532 0.500000 0.857185
O O10 0.723006 0.725682 0.842938
O O11 0.789976 0.729081 0.000000
O O12 0.624802 0.753288 0.190993
O O13 0.681298 0.000000 0.147383
O O14 0.658060 0.788812 0.000000
O O15 0.607109 0.500000 0.699644
O O16 0.549338 0.744672 0.679597
O O17 0.500000 0.763918 0.500000
O O18 0.500000 0.000000 0.364584
O O19 0.934853 0.716673 0.500000
O O20 0.932254 0.500000 0.351684
O O21 0.000000 0.728232 0.340091
#
# Coordination Sequence:
#
# PCOD8199985 Si02
#       8
#     4   4   8   8   8   8   4   8
#     4  12  24  38  54  78 114 152 188 230 281 337
#     4  12  24  39  57  81 115 150 189 231 280 340
#     4  12  23  35  54  83 117 149 185 233 288 340
#     4  10  21  38  60  84 112 151 196 236 279 336
#     4  10  21  39  62  87 117 152 190 234 284 338
#     4  12  24  39  61  88 117 150 189 234 282 337
#     4  11  23  41  64  87 115 152 192 236 282 335
#     4   9  18  34  56  80 109 149 192 233 280 337
#
# _framework density 18.641390000000001
#
# number of rings (size 3 to 8) (size 9 to 14) (size 15 to 20)
#    0.000    1.154    1.538    6.692    0.000    2.462 
#    0.000    1.154    0.000    2.769    0.000    3.231 
#    0.000    0.000    0.000    0.000    0.000    0.000 
#
# Total GULP energy -645147.353662 kJ/mol
# GULP energy per Si atom -12406.679878 kJ/mol
# Density = 1.859896 g / cm^3
# Si number density = 18.641390 Si / 1000 Ang^3
#
#
#
# Elastic Constant Matrix: (Units=GPa)
#
#
# Indices 1 2 3 4 5 6 
#
# 1 118.6709 22.4172 60.0422 0.0000 0.0000 0.0000
# 2 22.4172 75.9260 39.3465 0.0000 0.0000 0.0000
# 3 60.0422 39.3465 92.2645 0.0000 0.0000 0.0000
# 4 0.0000 0.0000 0.0000 27.8183 0.0000 0.0000
# 5 0.0000 0.0000 0.0000 0.0000 134.1945 0.0000
# 6 0.0000 0.0000 0.0000 0.0000 0.0000 25.9773
#
#
#
# Elastic Compliance Matrix: (Units=1/GPa)
#
#
# Indices 1 2 3 4 5 6 
#
# 1 0.012590 0.000679 -0.008483 0.000000 0.000000 0.000000
# 2 0.000679 0.016944 -0.007667 0.000000 0.000000 0.000000
# 3 -0.008483 -0.007667 0.019628 0.000000 0.000000 0.000000
# 4 0.000000 0.000000 0.000000 0.035948 0.000000 0.000000
# 5 0.000000 0.000000 0.000000 0.000000 0.007452 0.000000
# 6 0.000000 0.000000 0.000000 0.000000 0.000000 0.038495
#
#
# Mechanical properties :
#
#
# Convention : Reuss Voigt Hill
#
# Bulk Modulus (GPa) = 54.88591 58.94147 56.91369
# Shear Modulus (GPa) = 29.74897 48.60172 39.17534
#
# Velocity S-wave (km/s) = 3.99915 5.11161 4.58921
# Velocity P-wave (km/s) = 7.12960 8.15630 7.66017
#
# Compressibility (1/GPa) = 0.01821961
#
# Stress axis : x y z
#
# Youngs Moduli (GPa) = 79.42590 59.01888 50.94661
#
# Poissons Ratio (x) = -0.04005 0.43217
# Poissons Ratio (y) = -0.05390 0.39062
# Poissons Ratio (z) = 0.67375 0.45252
#
# Static dielectric constant tensor:
#      x y z
#    x 3.507480 0.000000 0.000000 
#    y 0.000000 3.497510 0.000000 
#    z 0.000000 0.000000 3.395120 
# 
# 
# High freq. dielectric constant tensor:
#      x y z
#    x 1.726540 0.000000 0.000000 
#    y 0.000000 1.738200 0.000000 
#    z 0.000000 0.000000 1.713250 
# 
# From -- ./inp_files/19888.got.cif
#   From: 2010.03.12/outbox.cif.g09.slc.cpg/sg47_10_cif.got.tgz:19888.got - 2010.04.14 03:12:58.
