data_PCOD8199640
_publ_section_title
;
Structure prediction by ZEFSAII (Michael W. Deem and Ramdas Pophale) SiO2 
 PCOD8199640
Probable space group: P M M M
;
_chemical_formula_sum "Si O2"
_cell_formula_units_Z 56
_cell_length_a 23.531385
_cell_length_b 8.895440
_cell_length_c 13.880612
_cell_angle_alpha 90.000000
_cell_angle_beta 90.000000
_cell_angle_gamma 90.000000
_cell_volume 2905.517790
_symmetry_space_group_name_H-M "P M M M"
_symmetry_group_IT_number 47
_symmetry_cell_setting 'orthorhombic'
loop_
_space_group_symop_operation_xyz
x,y,z
-x,-y,z
x,-y,-z
-x,y,-z
-x,-y,-z
x,y,-z
-x,y,z
x,-y,z
loop_
_atom_site_type_symbol
_atom_site_label
_atom_site_fract_x
_atom_site_fract_y
_atom_site_fract_z
Si Si1 0.173420 0.821612 0.609490
Si Si2 0.062061 0.823846 0.287403
Si Si3 0.665600 0.825203 0.889709
Si Si4 0.432645 0.168319 0.394691
Si Si5 0.866542 0.174172 0.108724
Si Si6 0.565907 0.674817 0.795467
Si Si7 0.233410 0.677446 0.782916
O O1 0.185381 0.772859 0.500000
O O2 0.110369 0.762612 0.639785
O O3 0.220286 0.746958 0.677989
O O4 0.176851 0.000000 0.623194
O O5 0.080351 0.787615 0.177534
O O6 0.000000 0.748857 0.307001
O O7 0.056175 0.000000 0.303048
O O8 0.601242 0.768505 0.873816
O O9 0.705432 0.732599 0.817780
O O10 0.670151 0.000000 0.864764
O O11 0.683068 0.794566 0.000000
O O12 0.409217 0.220044 0.500000
O O13 0.500000 0.167535 0.398679
O O14 0.412029 0.281529 0.311744
O O15 0.410442 0.000000 0.371305
O O16 0.812480 0.272121 0.138099
O O17 0.848715 0.000000 0.119865
O O18 0.884712 0.213068 0.000000
O O19 0.500000 0.717706 0.809374
O O20 0.576592 0.500000 0.811731
O O21 0.233498 0.500000 0.773603
#
# Coordination Sequence:
#
# PCOD8199640 Si02
#       7
#     8   8   8   8   8   8   8
#     4   9  18  34  56  80 108 143 180 220 268 320
#     4   8  14  25  44  75 111 142 178 225 271 314
#     4  11  24  41  61  82 105 137 177 220 265 316
#     4   8  14  27  49  75 103 138 178 215 250 292
#     4   9  17  30  49  73 103 140 181 224 270 320
#     4  10  21  36  55  82 116 149 179 216 262 312
#     4  11  22  36  56  80 106 134 170 220 273 325
#
# _framework density 19.273672999999999
#
# number of rings (size 3 to 8) (size 9 to 14) (size 15 to 20)
#    0.000    2.571    0.000    3.857    0.000    5.429 
#    0.000    6.429    0.000   11.143    0.000    8.000 
#    0.000    0.000    0.000    0.000    0.000    0.000 
#
# Total GULP energy -694230.546021 kJ/mol
# GULP energy per Si atom -12396.974036 kJ/mol
# Density = 1.922981 g / cm^3
# Si number density = 19.273673 Si / 1000 Ang^3
#
#
#
# Elastic Constant Matrix: (Units=GPa)
#
#
# Indices 1 2 3 4 5 6 
#
# 1 88.3892 35.0673 46.8099 0.0000 0.0000 0.0000
# 2 35.0673 73.2231 47.4193 0.0000 0.0000 0.0000
# 3 46.8099 47.4193 128.0966 0.0000 0.0000 0.0000
# 4 0.0000 0.0000 0.0000 16.2167 0.0000 0.0000
# 5 0.0000 0.0000 0.0000 0.0000 20.9338 0.0000
# 6 0.0000 0.0000 0.0000 0.0000 0.0000 13.9899
#
#
#
# Elastic Compliance Matrix: (Units=1/GPa)
#
#
# Indices 1 2 3 4 5 6 
#
# 1 0.015237 -0.004855 -0.003771 0.000000 0.000000 0.000000
# 2 -0.004855 0.019510 -0.005448 0.000000 0.000000 0.000000
# 3 -0.003771 -0.005448 0.011201 0.000000 0.000000 0.000000
# 4 0.000000 0.000000 0.000000 0.061665 0.000000 0.000000
# 5 0.000000 0.000000 0.000000 0.000000 0.047770 0.000000
# 6 0.000000 0.000000 0.000000 0.000000 0.000000 0.071480
#
#
# Mechanical properties :
#
#
# Convention : Reuss Voigt Hill
#
# Bulk Modulus (GPa) = 56.17845 60.92243 58.55044
# Shear Modulus (GPa) = 19.16117 20.92224 20.04171
#
# Velocity S-wave (km/s) = 3.15646 3.29832 3.22817
# Velocity P-wave (km/s) = 6.51884 6.79581 6.65877
#
# Compressibility (1/GPa) = 0.01780042
#
# Stress axis : x y z
#
# Youngs Moduli (GPa) = 65.63103 51.25492 89.27519
#
# Poissons Ratio (x) = 0.24885 0.33662
# Poissons Ratio (y) = 0.31865 0.48639
# Poissons Ratio (z) = 0.24747 0.27925
#
# Static dielectric constant tensor:
#      x y z
#    x 3.488180 0.000000 0.000000 
#    y 0.000000 3.293070 0.000000 
#    z 0.000000 0.000000 3.715870 
# 
# 
# High freq. dielectric constant tensor:
#      x y z
#    x 1.735010 0.000000 0.000000 
#    y 0.000000 1.726070 0.000000 
#    z 0.000000 0.000000 1.755140 
# 
# From -- ./inp_files/25143.got.cif
#   From: 2010.03.12/outbox.cif.g09.slc.cpg/sg47_13_cif.got.tgz:25143.got - 2010.04.14 03:12:58.
