data_PCOD8199799
_publ_section_title
;
Structure prediction by ZEFSAII (Michael W. Deem and Ramdas Pophale) SiO2 
 PCOD8199799
Probable space group: P M M M
;
_chemical_formula_sum "Si O2"
_cell_formula_units_Z 48
_cell_length_a 34.265581
_cell_length_b 9.263856
_cell_length_c 7.948110
_cell_angle_alpha 90.000000
_cell_angle_beta 90.000000
_cell_angle_gamma 90.000000
_cell_volume 2522.979749
_symmetry_space_group_name_H-M "P M M M"
_symmetry_group_IT_number 47
_symmetry_cell_setting 'orthorhombic'
loop_
_space_group_symop_operation_xyz
x,y,z
-x,-y,z
x,-y,-z
-x,y,-z
-x,-y,-z
x,y,-z
-x,y,z
x,-y,z
loop_
_atom_site_type_symbol
_atom_site_label
_atom_site_fract_x
_atom_site_fract_y
_atom_site_fract_z
Si Si1 0.956039 0.828448 0.813206
Si Si2 0.906505 0.172744 0.500000
Si Si3 0.234365 0.169455 0.192520
Si Si4 0.542717 0.658232 0.196483
Si Si5 0.687161 0.663598 0.803558
Si Si6 0.385802 0.841540 0.693134
Si Si7 0.181078 0.170768 0.500000
O O1 0.927866 0.766622 0.667647
O O2 0.000000 0.772720 0.779326
O O3 0.955636 0.000000 0.806497
O O4 0.942071 0.777433 0.000000
O O5 0.862594 0.234659 0.500000
O O6 0.906976 0.000000 0.500000
O O7 0.273556 0.252098 0.241736
O O8 0.202162 0.222268 0.327690
O O9 0.242657 0.000000 0.211168
O O10 0.220978 0.205761 0.000000
O O11 0.500000 0.705274 0.268724
O O12 0.554257 0.500000 0.271781
O O13 0.575192 0.775906 0.231564
O O14 0.539040 0.641748 0.000000
O O15 0.691034 0.500000 0.737150
O O16 0.651163 0.739273 0.715087
O O17 0.678819 0.666558 0.000000
O O18 0.394043 0.861464 0.500000
O O19 0.378118 0.000000 0.775227
O O20 0.179075 0.000000 0.500000
#
# Coordination Sequence:
#
# PCOD8199799 Si02
#       7
#     8   4   8   8   8   8   4
#     4   8  13  20  30  46  71 106 149 198 249 295
#     4   9  15  22  33  51  75 107 150 201 249 290
#     4   9  18  33  51  70  96 129 161 200 253 306
#     4   9  19  37  59  80 103 134 172 211 248 289
#     4  10  21  37  57  79 100 124 161 208 252 298
#     4  11  24  37  51  77 110 139 166 201 246 296
#     4   9  18  29  43  64  89 121 163 207 250 304
#
# _framework density 19.025123000000001
#
# number of rings (size 3 to 8) (size 9 to 14) (size 15 to 20)
#    0.000    2.667    0.000    2.750    1.167    7.000 
#    0.000    5.833    0.000    0.000    0.000    0.000 
#    0.000    0.000    0.000    0.000    0.000    6.667 
#
# Total GULP energy -594887.783725 kJ/mol
# GULP energy per Si atom -12393.495494 kJ/mol
# Density = 1.898182 g / cm^3
# Si number density = 19.025123 Si / 1000 Ang^3
#
#
#
# Elastic Constant Matrix: (Units=GPa)
#
#
# Indices 1 2 3 4 5 6 
#
# 1 137.8579 39.1720 71.3798 0.0000 0.0000 0.0000
# 2 39.1720 62.6280 25.6141 0.0000 0.0000 0.0000
# 3 71.3798 25.6141 105.0291 0.0000 0.0000 0.0000
# 4 0.0000 0.0000 0.0000 38.8914 0.0000 0.0000
# 5 0.0000 0.0000 0.0000 0.0000 36.9424 0.0000
# 6 0.0000 0.0000 0.0000 0.0000 0.0000 -1.8862
#
#
#
# Elastic Compliance Matrix: (Units=1/GPa)
#
#
# Indices 1 2 3 4 5 6 
#
# 1 0.012354 -0.004769 -0.007233 0.000000 0.000000 0.000000
# 2 -0.004769 0.019577 -0.001533 0.000000 0.000000 0.000000
# 3 -0.007233 -0.001533 0.014811 0.000000 0.000000 0.000000
# 4 0.000000 0.000000 0.000000 0.025713 0.000000 0.000000
# 5 0.000000 0.000000 0.000000 0.000000 0.027069 0.000000
# 6 0.000000 0.000000 0.000000 0.000000 0.000000 -0.530169
#
#
# Mechanical properties :
#
#
# Convention : Reuss Voigt Hill
#
# Bulk Modulus (GPa) = 50.83493 64.20519 57.52006
# Shear Modulus (GPa) = -12.59390 26.07945 6.74277
#
# Velocity S-wave (km/s) = -2.57565 3.70644 1.88463
# Velocity P-wave (km/s) = 4.23469 7.22065 5.91905
#
# Compressibility (1/GPa) = 0.01967151
#
# Stress axis : x y z
#
# Youngs Moduli (GPa) = 80.94538 51.07970 67.51820
#
# Poissons Ratio (x) = 0.24359 0.48836
# Poissons Ratio (y) = 0.38602 0.10353
# Poissons Ratio (z) = 0.58548 0.07833
#
# Static dielectric constant tensor:
#      x y z
#    x 3.502390 0.000000 0.000000 
#    y 0.000000 5.653310 0.000000 
#    z 0.000000 0.000000 3.639050 
# 
# 
# High freq. dielectric constant tensor:
#      x y z
#    x 1.739100 0.000000 0.000000 
#    y 0.000000 1.698820 0.000000 
#    z 0.000000 0.000000 1.745600 
# 
# From -- ./inp_files/13911.got.cif
#   From: 2010.03.12/outbox.cif.g09.slc.cpg/sg47_7_cif.got.tgz:13911.got - 2010.04.14 03:12:58.
