data_PCOD8199776
_publ_section_title
;
Structure prediction by ZEFSAII (Michael W. Deem and Ramdas Pophale) SiO2 
 PCOD8199776
Probable space group: P M M M
;
_chemical_formula_sum "Si O2"
_cell_formula_units_Z 44
_cell_length_a 26.756891
_cell_length_b 9.799684
_cell_length_c 8.933116
_cell_angle_alpha 90.000000
_cell_angle_beta 90.000000
_cell_angle_gamma 90.000000
_cell_volume 2342.344098
_symmetry_space_group_name_H-M "P M M M"
_symmetry_group_IT_number 47
_symmetry_cell_setting 'orthorhombic'
loop_
_space_group_symop_operation_xyz
x,y,z
-x,-y,z
x,-y,-z
-x,y,-z
-x,-y,-z
x,y,-z
-x,y,z
x,-y,z
loop_
_atom_site_type_symbol
_atom_site_label
_atom_site_fract_x
_atom_site_fract_y
_atom_site_fract_z
Si Si1 0.807823 0.344881 0.825825
Si Si2 0.383581 0.743389 0.677455
Si Si3 0.554854 0.000000 0.676838
Si Si4 0.910963 0.654333 0.322825
Si Si5 0.000000 0.844364 0.321622
Si Si6 0.442474 0.500000 0.177432
Si Si7 0.284983 0.159033 0.175608
O O1 0.791382 0.500000 0.783701
O O2 0.857350 0.300768 0.738619
O O3 0.765562 0.236914 0.779383
O O4 0.819845 0.334498 0.000000
O O5 0.384000 0.720131 0.500000
O O6 0.414501 0.872227 0.733055
O O7 0.411993 0.625033 0.759973
O O8 0.327212 0.762101 0.732034
O O9 0.500000 0.000000 0.751222
O O10 0.549814 0.000000 0.500000
O O11 0.908945 0.659643 0.500000
O O12 0.924523 0.500000 0.269605
O O13 0.951662 0.762068 0.261606
O O14 0.000000 0.846511 0.500000
O O15 0.000000 0.000000 0.259255
O O16 0.500000 0.500000 0.235263
O O17 0.441150 0.500000 0.000000
O O18 0.281051 0.000000 0.222895
O O19 0.296317 0.173398 0.000000
#
# Coordination Sequence:
#
# PCOD8199776 Si02
#       7
#     8   8   4   8   4   4   8
#     4   9  19  35  54  76 104 142 184 226 274 326
#     4  11  22  38  60  87 116 147 186 232 281 333
#     4   9  18  34  57  83 113 145 177 220 275 330
#     4   9  17  31  51  75 102 135 175 221 268 319
#     4   9  17  29  48  75 106 138 174 215 266 322
#     4  11  25  43  61  85 117 151 187 228 277 334
#     4  10  21  37  56  79 111 149 185 225 277 336
#
# _framework density 18.784600000000001
#
# number of rings (size 3 to 8) (size 9 to 14) (size 15 to 20)
#    0.000    2.273    0.909    1.636    1.273    4.000 
#    0.000    0.455    0.000    4.909    0.000    0.000 
#    0.000    0.000    0.000    0.000    0.000    0.000 
#
# Total GULP energy -545526.265279 kJ/mol
# GULP energy per Si atom -12398.324211 kJ/mol
# Density = 1.874185 g / cm^3
# Si number density = 18.784600 Si / 1000 Ang^3
#
#
#
# Elastic Constant Matrix: (Units=GPa)
#
#
# Indices 1 2 3 4 5 6 
#
# 1 157.6953 91.9887 37.9121 0.0000 0.0000 0.0000
# 2 91.9887 151.2884 35.8904 0.0000 0.0000 0.0000
# 3 37.9121 35.8904 36.8687 0.0000 0.0000 0.0000
# 4 0.0000 0.0000 0.0000 16.4677 0.0000 0.0000
# 5 0.0000 0.0000 0.0000 0.0000 28.4595 0.0000
# 6 0.0000 0.0000 0.0000 0.0000 0.0000 40.6559
#
#
#
# Elastic Compliance Matrix: (Units=1/GPa)
#
#
# Indices 1 2 3 4 5 6 
#
# 1 0.010795 -0.005111 -0.006126 0.000000 0.000000 0.000000
# 2 -0.005111 0.011014 -0.005467 0.000000 0.000000 0.000000
# 3 -0.006126 -0.005467 0.038744 0.000000 0.000000 0.000000
# 4 0.000000 0.000000 0.000000 0.060725 0.000000 0.000000
# 5 0.000000 0.000000 0.000000 0.000000 0.035138 0.000000
# 6 0.000000 0.000000 0.000000 0.000000 0.000000 0.024597
#
#
# Mechanical properties :
#
#
# Convention : Reuss Voigt Hill
#
# Bulk Modulus (GPa) = 36.83600 75.27054 56.05327
# Shear Modulus (GPa) = 22.37457 29.12069 25.74763
#
# Velocity S-wave (km/s) = 3.45499 3.94158 3.70628
# Velocity P-wave (km/s) = 5.96391 7.80206 6.94407
#
# Compressibility (1/GPa) = 0.02714735
#
# Stress axis : x y z
#
# Youngs Moduli (GPa) = 92.63303 90.79157 25.81048
#
# Poissons Ratio (x) = 0.46401 0.15811
# Poissons Ratio (y) = 0.47342 0.14110
# Poissons Ratio (z) = 0.56744 0.49633
#
# Static dielectric constant tensor:
#      x y z
#    x 3.592350 0.000000 0.000000 
#    y 0.000000 3.592350 0.000000 
#    z 0.000000 0.000000 3.214420 
# 
# 
# High freq. dielectric constant tensor:
#      x y z
#    x 1.740910 0.000000 0.000000 
#    y 0.000000 1.739980 0.000000 
#    z 0.000000 0.000000 1.707740 
# 
# From -- ./inp_files/13708.got.cif
#   From: 2010.03.12/outbox.cif.g09.slc.cpg/sg47_7_cif.got.tgz:13708.got - 2010.04.14 03:12:58.
