data_PCOD8199920
_publ_section_title
;
Structure prediction by ZEFSAII (Michael W. Deem and Ramdas Pophale) SiO2 
 PCOD8199920
Probable space group: P M M M
;
_chemical_formula_sum "Si O2"
_cell_formula_units_Z 56
_cell_length_a 20.707386
_cell_length_b 15.514426
_cell_length_c 8.519232
_cell_angle_alpha 90.000000
_cell_angle_beta 90.000000
_cell_angle_gamma 90.000000
_cell_volume 2736.915800
_symmetry_space_group_name_H-M "P M M M"
_symmetry_group_IT_number 47
_symmetry_cell_setting 'orthorhombic'
loop_
_space_group_symop_operation_xyz
x,y,z
-x,-y,z
x,-y,-z
-x,y,-z
-x,-y,-z
x,y,-z
-x,y,z
x,-y,z
loop_
_atom_site_type_symbol
_atom_site_label
_atom_site_fract_x
_atom_site_fract_y
_atom_site_fract_z
Si Si1 0.612315 0.331255 0.180903
Si Si2 0.427195 0.842625 0.682752
Si Si3 0.429918 0.500000 0.667329
Si Si4 0.925743 0.822860 0.317617
Si Si5 0.739048 0.400097 0.682794
Si Si6 0.802942 0.750788 0.817731
Si Si7 0.074982 0.000000 0.826726
Si Si8 0.293001 0.903417 0.185130
O O1 0.579420 0.259010 0.287191
O O2 0.579144 0.420276 0.220129
O O3 0.686877 0.345085 0.219839
O O4 0.603354 0.305584 0.000000
O O5 0.419928 0.861983 0.500000
O O6 0.500000 0.871918 0.738059
O O7 0.368275 0.890274 0.769227
O O8 0.500000 0.500000 0.599420
O O9 0.387874 0.500000 0.500000
O O10 0.913521 0.804100 0.500000
O O11 0.878348 0.768668 0.208501
O O12 0.000000 0.802965 0.271473
O O13 0.905498 0.920089 0.279618
O O14 0.723552 0.398383 0.500000
O O15 0.744835 0.500000 0.740501
O O16 0.799791 0.340767 0.724440
O O17 0.755382 0.827949 0.749942
O O18 0.788635 0.736936 0.000000
O O19 0.000000 0.000000 0.861054
O O20 0.109869 0.000000 0.000000
O O21 0.271922 0.000000 0.243192
O O22 0.289095 0.899363 0.000000
#
# Coordination Sequence:
#
# PCOD8199920 Si02
#       8
#     8   8   4   8   8   8   4   8
#     4  12  23  36  57  84 114 149 192 244 303 366
#     4  11  24  41  61  84 114 155 204 257 311 368
#     4  11  23  37  53  77 111 149 188 233 294 365
#     4  10  21  37  58  88 127 169 212 254 303 368
#     4  11  23  40  64  90 121 159 199 247 306 371
#     4  11  23  39  64  94 125 162 205 255 306 363
#     4   9  17  31  53  83 121 163 206 251 298 351
#     4  10  23  42  62  88 122 159 204 256 309 366
#
# _framework density 20.460986999999999
#
# number of rings (size 3 to 8) (size 9 to 14) (size 15 to 20)
#    0.000    1.286    2.143    3.857    1.000    7.143 
#    0.000    1.429    0.000    0.429    0.000    3.000 
#    0.000    0.000    0.000    0.000    0.000    0.000 
#
# Total GULP energy -693764.889069 kJ/mol
# GULP energy per Si atom -12388.658733 kJ/mol
# Density = 2.041442 g / cm^3
# Si number density = 20.460987 Si / 1000 Ang^3
#
#
#
# Elastic Constant Matrix: (Units=GPa)
#
#
# Indices 1 2 3 4 5 6 
#
# 1 97.3061 32.7121 17.9530 0.0000 0.0000 0.0000
# 2 32.7121 92.9612 19.9843 0.0000 0.0000 0.0000
# 3 17.9530 19.9843 47.2665 0.0000 0.0000 0.0000
# 4 0.0000 0.0000 0.0000 38.1868 0.0000 0.0000
# 5 0.0000 0.0000 0.0000 0.0000 29.6846 0.0000
# 6 0.0000 0.0000 0.0000 0.0000 0.0000 16.0033
#
#
#
# Elastic Compliance Matrix: (Units=1/GPa)
#
#
# Indices 1 2 3 4 5 6 
#
# 1 0.012045 -0.003581 -0.003061 0.000000 0.000000 0.000000
# 2 -0.003581 0.012897 -0.004093 0.000000 0.000000 0.000000
# 3 -0.003061 -0.004093 0.024050 0.000000 0.000000 0.000000
# 4 0.000000 0.000000 0.000000 0.026187 0.000000 0.000000
# 5 0.000000 0.000000 0.000000 0.000000 0.033688 0.000000
# 6 0.000000 0.000000 0.000000 0.000000 0.000000 0.062487
#
#
# Mechanical properties :
#
#
# Convention : Reuss Voigt Hill
#
# Bulk Modulus (GPa) = 36.33346 42.09249 39.21298
# Shear Modulus (GPa) = 24.75276 27.90055 26.32665
#
# Velocity S-wave (km/s) = 3.48192 3.69670 3.59092
# Velocity P-wave (km/s) = 5.82761 6.23197 6.03318
#
# Compressibility (1/GPa) = 0.02752284
#
# Stress axis : x y z
#
# Youngs Moduli (GPa) = 83.01965 77.53739 41.58027
#
# Poissons Ratio (x) = 0.27763 0.12729
# Poissons Ratio (y) = 0.29726 0.17018
# Poissons Ratio (z) = 0.25414 0.31735
#
# Static dielectric constant tensor:
#      x y z
#    x 3.848580 0.000000 0.000000 
#    y 0.000000 2.927210 0.000000 
#    z 0.000000 0.000000 3.581480 
# 
# 
# High freq. dielectric constant tensor:
#      x y z
#    x 1.792880 0.000000 0.000000 
#    y 0.000000 1.795400 0.000000 
#    z 0.000000 0.000000 1.800890 
# 
# From -- ./inp_files/11293.got.cif
#   From: 2010.03.12/outbox.cif.g09.slc.cpg/sg47_6_cif.got.tgz:11293.got - 2010.04.14 03:12:58.
