data_PCOD8199540
_publ_section_title
;
Structure prediction by ZEFSAII (Michael W. Deem and Ramdas Pophale) SiO2 
 PCOD8199540
Probable space group: P M M M
;
_chemical_formula_sum "Si O2"
_cell_formula_units_Z 52
_cell_length_a 10.250905
_cell_length_b 9.312292
_cell_length_c 30.199624
_cell_angle_alpha 90.000000
_cell_angle_beta 90.000000
_cell_angle_gamma 90.000000
_cell_volume 2882.838610
_symmetry_space_group_name_H-M "P M M M"
_symmetry_group_IT_number 47
_symmetry_cell_setting 'orthorhombic'
loop_
_space_group_symop_operation_xyz
x,y,z
-x,-y,z
x,-y,-z
-x,y,-z
-x,-y,-z
x,y,-z
-x,y,z
x,-y,z
loop_
_atom_site_type_symbol
_atom_site_label
_atom_site_fract_x
_atom_site_fract_y
_atom_site_fract_z
Si Si1 0.649662 0.168522 0.301000
Si Si2 0.646261 0.328523 0.880803
Si Si3 0.143988 0.836097 0.373386
Si Si4 0.654432 0.341584 0.216494
Si Si5 0.854227 0.670818 0.950364
Si Si6 0.246215 0.668565 0.551121
Si Si7 0.500000 0.840296 0.552063
O O1 0.500000 0.213573 0.312288
O O2 0.745993 0.221853 0.339720
O O3 0.701837 0.238001 0.255581
O O4 0.661189 0.000000 0.294350
O O5 0.500000 0.270252 0.891023
O O6 0.643943 0.500000 0.882226
O O7 0.695050 0.280028 0.831821
O O8 0.747385 0.263897 0.916644
O O9 0.136985 0.735468 0.417094
O O10 0.000000 0.826871 0.351409
O O11 0.175306 0.000000 0.387510
O O12 0.500000 0.353629 0.216937
O O13 0.715248 0.500000 0.224294
O O14 0.849225 0.500000 0.948719
O O15 0.000000 0.722967 0.937090
O O16 0.820393 0.723891 0.000000
O O17 0.210716 0.700062 0.500000
O O18 0.263680 0.500000 0.558991
O O19 0.375966 0.749977 0.567126
O O20 0.500000 0.858424 0.500000
O O21 0.500000 0.000000 0.574317
#
# Coordination Sequence:
#
# PCOD8199540 Si02
#       7
#     8   8   8   8   8   8   4
#     4   9  18  33  53  74  94 120 157 199 239 284
#     4   8  13  21  34  52  75 105 141 179 218 265
#     4  10  22  38  54  74 101 132 165 202 245 292
#     4   8  14  26  44  66  91 117 146 184 232 283
#     4   8  13  20  29  44  72 110 146 179 218 263
#     4  10  21  36  54  78 107 135 165 203 246 288
#     4   9  17  31  53  79 105 133 165 201 239 279
#
# _framework density 18.037779
#
# number of rings (size 3 to 8) (size 9 to 14) (size 15 to 20)
#    0.000    3.154    0.000    2.077    1.077    3.385 
#    0.000    3.846    0.000    0.923    0.000    0.000 
#    0.000    0.615    0.000    7.692    0.000    8.923 
#
# Total GULP energy -644417.490165 kJ/mol
# GULP energy per Si atom -12392.644042 kJ/mol
# Density = 1.799672 g / cm^3
# Si number density = 18.037779 Si / 1000 Ang^3
#
#
#
# Elastic Constant Matrix: (Units=GPa)
#
#
# Indices 1 2 3 4 5 6 
#
# 1 96.5473 27.4595 71.1797 0.0000 0.0000 0.0000
# 2 27.4595 47.9422 41.7571 0.0000 0.0000 0.0000
# 3 71.1797 41.7571 137.3825 0.0000 0.0000 0.0000
# 4 0.0000 0.0000 0.0000 12.1160 0.0000 0.0000
# 5 0.0000 0.0000 0.0000 0.0000 17.7693 0.0000
# 6 0.0000 0.0000 0.0000 0.0000 0.0000 12.0465
#
#
#
# Elastic Compliance Matrix: (Units=1/GPa)
#
#
# Indices 1 2 3 4 5 6 
#
# 1 0.017034 -0.002815 -0.007970 0.000000 0.000000 0.000000
# 2 -0.002815 0.028834 -0.007306 0.000000 0.000000 0.000000
# 3 -0.007970 -0.007306 0.013629 0.000000 0.000000 0.000000
# 4 0.000000 0.000000 0.000000 0.082536 0.000000 0.000000
# 5 0.000000 0.000000 0.000000 0.000000 0.056277 0.000000
# 6 0.000000 0.000000 0.000000 0.000000 0.000000 0.083012
#
#
# Mechanical properties :
#
#
# Convention : Reuss Voigt Hill
#
# Bulk Modulus (GPa) = 42.88907 62.51830 52.70368
# Shear Modulus (GPa) = 15.37167 17.81806 16.59487
#
# Velocity S-wave (km/s) = 2.92240 3.14637 3.03645
# Velocity P-wave (km/s) = 5.93433 6.92347 6.44789
#
# Compressibility (1/GPa) = 0.02331596
#
# Stress axis : x y z
#
# Youngs Moduli (GPa) = 58.70576 34.68164 73.37353
#
# Poissons Ratio (x) = 0.09762 0.58479
# Poissons Ratio (y) = 0.16523 0.53604
# Poissons Ratio (z) = 0.46789 0.25337
#
# Static dielectric constant tensor:
#      x y z
#    x 3.374410 0.000000 0.000000 
#    y 0.000000 3.061310 0.000000 
#    z 0.000000 0.000000 3.568180 
# 
# 
# High freq. dielectric constant tensor:
#      x y z
#    x 1.683910 0.000000 0.000000 
#    y 0.000000 1.659160 0.000000 
#    z 0.000000 0.000000 1.698220 
# 
# From -- ./inp_files/33582.got.cif
#   From: 2010.03.12/outbox.cif.g09.slc.cpg/sg47_17_cif.got.tgz:33582.got - 2010.04.14 03:12:58.
