data_PCOD8199647
_publ_section_title
;
Structure prediction by ZEFSAII (Michael W. Deem and Ramdas Pophale) SiO2 
 PCOD8199647
Probable space group: P M M M
;
_chemical_formula_sum "Si O2"
_cell_formula_units_Z 56
_cell_length_a 9.424714
_cell_length_b 15.609965
_cell_length_c 19.912868
_cell_angle_alpha 90.000000
_cell_angle_beta 90.000000
_cell_angle_gamma 90.000000
_cell_volume 2929.570301
_symmetry_space_group_name_H-M "P M M M"
_symmetry_group_IT_number 47
_symmetry_cell_setting 'orthorhombic'
loop_
_space_group_symop_operation_xyz
x,y,z
-x,-y,z
x,-y,-z
-x,y,-z
-x,-y,-z
x,y,-z
-x,y,z
x,-y,z
loop_
_atom_site_type_symbol
_atom_site_label
_atom_site_fract_x
_atom_site_fract_y
_atom_site_fract_z
Si Si1 0.660071 0.736836 0.187369
Si Si2 0.649903 0.095263 0.500000
Si Si3 0.839328 0.840454 0.613973
Si Si4 0.838273 0.643436 0.576902
Si Si5 0.165766 0.663931 0.077909
Si Si6 0.341412 0.500000 0.079306
Si Si7 0.336906 0.595970 0.703143
Si Si8 0.342001 0.098225 0.732184
O O1 0.500000 0.708279 0.166925
O O2 0.767953 0.737452 0.124352
O O3 0.715811 0.670926 0.245884
O O4 0.658630 0.837148 0.205383
O O5 0.500000 0.149456 0.500000
O O6 0.742770 0.106738 0.434995
O O7 0.597815 0.000000 0.500000
O O8 0.827755 0.742684 0.593655
O O9 0.779735 0.861243 0.686766
O O10 0.000000 0.873163 0.609705
O O11 0.784625 0.627137 0.500000
O O12 0.745120 0.594942 0.632049
O O13 0.000000 0.611372 0.583293
O O14 0.252035 0.581207 0.102905
O O15 0.000000 0.650118 0.092074
O O16 0.192503 0.685725 0.000000
O O17 0.500000 0.500000 0.111577
O O18 0.354692 0.500000 0.000000
O O19 0.500000 0.614409 0.685711
O O20 0.317303 0.500000 0.734808
O O21 0.500000 0.100921 0.698701
O O22 0.305905 0.000000 0.753396
#
# Coordination Sequence:
#
# PCOD8199647 Si02
#       8
#     8   4   8   8   8   4   8   8
#     4  10  21  37  59  85 114 151 190 234 286 340
#     4  11  23  35  49  73 104 139 178 221 279 346
#     4  11  21  35  54  78 107 140 179 227 283 342
#     4  10  21  38  57  78 107 145 189 235 284 338
#     4  10  21  36  55  84 121 157 194 237 285 339
#     4   9  17  31  53  81 115 155 194 229 270 327
#     4  10  22  39  58  83 112 144 188 237 283 334
#     4  10  21  38  59  83 111 144 185 232 285 344
#
# _framework density 19.115431000000001
#
# number of rings (size 3 to 8) (size 9 to 14) (size 15 to 20)
#    0.000    1.857    2.143    1.714    1.000    6.857 
#    0.000    1.429    0.000    0.429    0.000    3.000 
#    0.000    0.000    0.000    0.000    0.000    0.000 
#
# Total GULP energy -693977.575342 kJ/mol
# GULP energy per Si atom -12392.456703 kJ/mol
# Density = 1.907192 g / cm^3
# Si number density = 19.115431 Si / 1000 Ang^3
#
#
#
# Elastic Constant Matrix: (Units=GPa)
#
#
# Indices 1 2 3 4 5 6 
#
# 1 120.3643 25.0584 52.2429 0.0000 0.0000 0.0000
# 2 25.0584 68.6978 29.5535 0.0000 0.0000 0.0000
# 3 52.2429 29.5535 82.1681 0.0000 0.0000 0.0000
# 4 0.0000 0.0000 0.0000 25.6409 0.0000 0.0000
# 5 0.0000 0.0000 0.0000 0.0000 38.2723 0.0000
# 6 0.0000 0.0000 0.0000 0.0000 0.0000 16.9894
#
#
#
# Elastic Compliance Matrix: (Units=1/GPa)
#
#
# Indices 1 2 3 4 5 6 
#
# 1 0.011565 -0.001248 -0.006904 0.000000 0.000000 0.000000
# 2 -0.001248 0.017356 -0.005449 0.000000 0.000000 0.000000
# 3 -0.006904 -0.005449 0.018519 0.000000 0.000000 0.000000
# 4 0.000000 0.000000 0.000000 0.039000 0.000000 0.000000
# 5 0.000000 0.000000 0.000000 0.000000 0.026129 0.000000
# 6 0.000000 0.000000 0.000000 0.000000 0.000000 0.058860
#
#
# Mechanical properties :
#
#
# Convention : Reuss Voigt Hill
#
# Bulk Modulus (GPa) = 49.41175 53.88221 51.64698
# Shear Modulus (GPa) = 24.34553 27.13887 25.74220
#
# Velocity S-wave (km/s) = 3.57263 3.77203 3.67368
# Velocity P-wave (km/s) = 6.55161 6.87167 6.71355
#
# Compressibility (1/GPa) = 0.02023810
#
# Stress axis : x y z
#
# Youngs Moduli (GPa) = 86.47133 57.61743 53.99746
#
# Poissons Ratio (x) = 0.07193 0.37279
# Poissons Ratio (y) = 0.10794 0.29422
# Poissons Ratio (z) = 0.59698 0.31394
#
# Static dielectric constant tensor:
#      x y z
#    x 3.639530 0.000000 0.000000 
#    y 0.000000 3.499070 0.000000 
#    z 0.000000 0.000000 3.404290 
# 
# 
# High freq. dielectric constant tensor:
#      x y z
#    x 1.752560 0.000000 0.000000 
#    y 0.000000 1.735390 0.000000 
#    z 0.000000 0.000000 1.725010 
# 
# From -- ./inp_files/7374.got.cif
#   From: 2010.03.12/outbox.cif.g09.slc.cpg/sg47_4_cif.got.tgz:7374.got - 2010.04.14 03:12:58.
