data_PCOD8199407
_publ_section_title
;
Structure prediction by ZEFSAII (Michael W. Deem and Ramdas Pophale) SiO2 
 PCOD8199407
Probable space group: P M M M
;
_chemical_formula_sum "Si O2"
_cell_formula_units_Z 52
_cell_length_a 9.169834
_cell_length_b 12.486508
_cell_length_c 28.271995
_cell_angle_alpha 90.000000
_cell_angle_beta 90.000000
_cell_angle_gamma 90.000000
_cell_volume 3237.120968
_symmetry_space_group_name_H-M "P M M M"
_symmetry_group_IT_number 47
_symmetry_cell_setting 'orthorhombic'
loop_
_space_group_symop_operation_xyz
x,y,z
-x,-y,z
x,-y,-z
-x,y,-z
-x,-y,-z
x,y,-z
-x,y,z
x,-y,z
loop_
_atom_site_type_symbol
_atom_site_label
_atom_site_fract_x
_atom_site_fract_y
_atom_site_fract_z
Si Si1 0.172659 0.000000 0.054627
Si Si2 0.671749 0.622863 0.092783
Si Si3 0.838748 0.374371 0.000000
Si Si4 0.340411 0.123341 0.216408
Si Si5 0.835651 0.872077 0.408784
Si Si6 0.171934 0.183009 0.127426
Si Si7 0.335476 0.872340 0.500000
Si Si8 0.666978 0.874403 0.319453
O O1 0.223931 0.105524 0.084066
O O2 0.000000 0.000000 0.052795
O O3 0.234054 0.000000 0.000000
O O4 0.500000 0.637825 0.088100
O O5 0.710765 0.500000 0.105740
O O6 0.741870 0.704002 0.129931
O O7 0.746907 0.662103 0.044667
O O8 0.859479 0.500000 0.000000
O O9 0.000000 0.319335 0.000000
O O10 0.500000 0.170056 0.199915
O O11 0.213804 0.132992 0.177589
O O12 0.293421 0.174209 0.267225
O O13 0.364815 0.000000 0.227061
O O14 0.745724 0.827935 0.453522
O O15 0.767207 0.823304 0.360445
O O16 0.000000 0.829745 0.412923
O O17 0.830450 0.000000 0.408416
O O18 0.000000 0.203165 0.124710
O O19 0.500000 0.828303 0.500000
O O20 0.334237 0.000000 0.500000
O O21 0.500000 0.848079 0.331636
O O22 0.696325 0.000000 0.319884
#
# Coordination Sequence:
#
# PCOD8199407 Si02
#       8
#     4   8   4   8   8   8   4   8
#     4   9  20  36  49  67  95 123 148 177 216 261
#     4  10  21  36  52  71  95 120 146 179 218 259
#     4   9  17  31  51  72  91 112 139 169 205 248
#     4   9  17  30  46  62  84 112 141 177 217 261
#     4   9  15  21  29  44  64  87 117 160 208 248
#     4  11  21  33  52  72  92 119 150 185 222 265
#     4   9  15  21  29  39  57  87 121 157 198 251
#     4   8  14  24  37  51  68  95 129 163 204 251
#
# _framework density 16.063656000000002
#
# number of rings (size 3 to 8) (size 9 to 14) (size 15 to 20)
#    0.000    2.692    0.769    2.769    1.077    5.231 
#    0.000    1.538    0.000    1.846    0.000    0.000 
#    0.000    0.000    0.000    0.000    0.000    0.000 
#
# Total GULP energy -644266.873819 kJ/mol
# GULP energy per Si atom -12389.747573 kJ/mol
# Density = 1.602709 g / cm^3
# Si number density = 16.063656 Si / 1000 Ang^3
#
#
#
# Elastic Constant Matrix: (Units=GPa)
#
#
# Indices 1 2 3 4 5 6 
#
# 1 94.7844 23.4679 54.1509 0.0000 0.0000 0.0000
# 2 23.4679 41.7181 19.1316 0.0000 0.0000 0.0000
# 3 54.1509 19.1316 123.0119 0.0000 0.0000 0.0000
# 4 0.0000 0.0000 0.0000 3.3183 0.0000 0.0000
# 5 0.0000 0.0000 0.0000 0.0000 28.4551 0.0000
# 6 0.0000 0.0000 0.0000 0.0000 0.0000 15.0581
#
#
#
# Elastic Compliance Matrix: (Units=1/GPa)
#
#
# Indices 1 2 3 4 5 6 
#
# 1 0.015360 -0.005965 -0.005834 0.000000 0.000000 0.000000
# 2 -0.005965 0.028128 -0.001749 0.000000 0.000000 0.000000
# 3 -0.005834 -0.001749 0.010969 0.000000 0.000000 0.000000
# 4 0.000000 0.000000 0.000000 0.301361 0.000000 0.000000
# 5 0.000000 0.000000 0.000000 0.000000 0.035143 0.000000
# 6 0.000000 0.000000 0.000000 0.000000 0.000000 0.066409
#
#
# Mechanical properties :
#
#
# Convention : Reuss Voigt Hill
#
# Bulk Modulus (GPa) = 36.54722 50.33501 43.44112
# Shear Modulus (GPa) = 10.12992 20.21723 15.17357
#
# Velocity S-wave (km/s) = 2.51392 3.55148 3.07675
# Velocity P-wave (km/s) = 5.58814 6.94407 6.30267
#
# Compressibility (1/GPa) = 0.02736186
#
# Stress axis : x y z
#
# Youngs Moduli (GPa) = 65.10348 35.55178 91.16266
#
# Poissons Ratio (x) = 0.21207 0.53184
# Poissons Ratio (y) = 0.38836 0.15942
# Poissons Ratio (z) = 0.37981 0.06217
#
# Static dielectric constant tensor:
#      x y z
#    x 3.091410 0.000000 0.000000 
#    y 0.000000 2.539830 0.000000 
#    z 0.000000 0.000000 3.345050 
# 
# 
# High freq. dielectric constant tensor:
#      x y z
#    x 1.624170 0.000000 0.000000 
#    y 0.000000 1.542660 0.000000 
#    z 0.000000 0.000000 1.623320 
# 
# From -- ./inp_files/34343.got.cif
#   From: 2010.03.12/outbox.cif.g09.slc.cpg/sg47_18_cif.got.tgz:34343.got - 2010.04.14 03:12:58.
