data_PCOD8199833
_publ_section_title
;
Structure prediction by ZEFSAII (Michael W. Deem and Ramdas Pophale) SiO2 
 PCOD8199833
Probable space group: P M M M
;
_chemical_formula_sum "Si O2"
_cell_formula_units_Z 56
_cell_length_a 20.198296
_cell_length_b 14.482300
_cell_length_c 9.368929
_cell_angle_alpha 90.000000
_cell_angle_beta 90.000000
_cell_angle_gamma 90.000000
_cell_volume 2740.578332
_symmetry_space_group_name_H-M "P M M M"
_symmetry_group_IT_number 47
_symmetry_cell_setting 'orthorhombic'
loop_
_space_group_symop_operation_xyz
x,y,z
-x,-y,z
x,-y,-z
-x,y,-z
-x,-y,-z
x,y,-z
-x,y,z
x,-y,z
loop_
_atom_site_type_symbol
_atom_site_label
_atom_site_fract_x
_atom_site_fract_y
_atom_site_fract_z
Si Si1 0.426505 0.890643 0.659359
Si Si2 0.710779 0.389534 0.659943
Si Si3 0.430055 0.602986 0.330497
Si Si4 0.923403 0.772195 0.165259
Si Si5 0.304334 0.110041 0.160917
Si Si6 0.823055 0.109106 0.664761
Si Si7 0.165387 0.396275 0.835108
O O1 0.414571 0.849841 0.500000
O O2 0.500000 0.862662 0.713415
O O3 0.371480 0.850706 0.766937
O O4 0.420201 0.000000 0.650945
O O5 0.724841 0.354447 0.500000
O O6 0.706872 0.500000 0.664425
O O7 0.639465 0.349924 0.719466
O O8 0.770538 0.353379 0.757020
O O9 0.425409 0.596960 0.500000
O O10 0.500000 0.654362 0.286452
O O11 0.433803 0.500000 0.267002
O O12 0.887519 0.846392 0.264349
O O13 0.896943 0.669029 0.196789
O O14 0.000000 0.773254 0.206272
O O15 0.911833 0.798956 0.000000
O O16 0.242091 0.145389 0.253017
O O17 0.305799 0.000000 0.159218
O O18 0.298789 0.148834 0.000000
O O19 0.817432 0.138841 0.500000
O O20 0.830609 0.000000 0.680129
O O21 0.148270 0.500000 0.780610
O O22 0.183656 0.398270 0.000000
#
# Coordination Sequence:
#
# PCOD8199833 Si02
#       7
#     8   8   8   8   8   8   8
#     4   8  13  21  34  56  91 134 176 218 263 308
#     4   8  13  22  39  64  93 127 168 210 250 295
#     4   7   9  14  27  51  84 120 159 204 248 286
#     4  10  22  39  58  81 107 135 170 211 255 307
#     4   9  16  26  43  68  98 133 174 218 261 308
#     4  10  21  37  57  80 107 139 173 211 259 316
#     4   9  18  33  53  77 106 139 172 208 253 304
#
# _framework density 20.433643
#
# number of rings (size 3 to 8) (size 9 to 14) (size 15 to 20)
#    0.000    3.286    0.000    2.571    0.000    4.286 
#    0.000    4.286    0.000    0.429    0.000    7.000 
#    0.000    3.429    0.000    0.286    0.000    0.000 
#
# Total GULP energy -693852.388601 kJ/mol
# GULP energy per Si atom -12390.221225 kJ/mol
# Density = 2.038713 g / cm^3
# Si number density = 20.433643 Si / 1000 Ang^3
#
#
#
# Elastic Constant Matrix: (Units=GPa)
#
#
# Indices 1 2 3 4 5 6 
#
# 1 203.4414 31.6050 92.8633 0.0000 0.0000 0.0000
# 2 31.6050 34.7753 28.7842 0.0000 0.0000 0.0000
# 3 92.8633 28.7842 112.2803 0.0000 0.0000 0.0000
# 4 0.0000 0.0000 0.0000 12.4771 0.0000 0.0000
# 5 0.0000 0.0000 0.0000 0.0000 34.7509 0.0000
# 6 0.0000 0.0000 0.0000 0.0000 0.0000 -47.8940
#
#
#
# Elastic Compliance Matrix: (Units=1/GPa)
#
#
# Indices 1 2 3 4 5 6 
#
# 1 0.008037 -0.002288 -0.006061 0.000000 0.000000 0.000000
# 2 -0.002288 0.037153 -0.007632 0.000000 0.000000 0.000000
# 3 -0.006061 -0.007632 0.015876 0.000000 0.000000 0.000000
# 4 0.000000 0.000000 0.000000 0.080147 0.000000 0.000000
# 5 0.000000 0.000000 0.000000 0.000000 0.028776 0.000000
# 6 0.000000 0.000000 0.000000 0.000000 0.000000 -0.020879
#
#
# Mechanical properties :
#
#
# Convention : Reuss Voigt Hill
#
# Bulk Modulus (GPa) = 34.35997 73.00022 53.68010
# Shear Modulus (GPa) = 26.20915 13.01644 19.61279
#
# Velocity S-wave (km/s) = 3.58529 2.52664 3.10147
# Velocity P-wave (km/s) = 5.83018 6.65695 6.25723
#
# Compressibility (1/GPa) = 0.02910363
#
# Stress axis : x y z
#
# Youngs Moduli (GPa) = 124.41728 26.91598 62.98938
#
# Poissons Ratio (x) = 0.06158 0.38178
# Poissons Ratio (y) = 0.28466 0.48074
# Poissons Ratio (z) = 0.75409 0.20543
#
# Static dielectric constant tensor:
#      x y z
#    x 4.042560 0.000000 0.000000 
#    y 0.000000 3.347080 0.000000 
#    z 0.000000 0.000000 3.618110 
# 
# 
# High freq. dielectric constant tensor:
#      x y z
#    x 1.808760 0.000000 0.000000 
#    y 0.000000 1.772980 0.000000 
#    z 0.000000 0.000000 1.769770 
# 
# From -- ./inp_files/11476.got.cif
#   From: 2010.03.12/outbox.cif.g09.slc.cpg/sg47_6_cif.got.tgz:11476.got - 2010.04.14 03:12:58.
