data_PCOD8199819
_publ_section_title
;
Structure prediction by ZEFSAII (Michael W. Deem and Ramdas Pophale) SiO2 
 PCOD8199819
Probable space group: P M M M
;
_chemical_formula_sum "Si O2"
_cell_formula_units_Z 36
_cell_length_a 8.891159
_cell_length_b 9.414463
_cell_length_c 23.161188
_cell_angle_alpha 90.000000
_cell_angle_beta 90.000000
_cell_angle_gamma 90.000000
_cell_volume 1938.718531
_symmetry_space_group_name_H-M "P M M M"
_symmetry_group_IT_number 47
_symmetry_cell_setting 'orthorhombic'
loop_
_space_group_symop_operation_xyz
x,y,z
-x,-y,z
x,-y,-z
-x,y,-z
-x,-y,-z
x,y,-z
-x,y,z
x,-y,z
loop_
_atom_site_type_symbol
_atom_site_label
_atom_site_fract_x
_atom_site_fract_y
_atom_site_fract_z
Si Si1 0.177318 0.663675 0.000000
Si Si2 0.178911 0.840583 0.436095
Si Si3 0.323696 0.836607 0.898402
Si Si4 0.179266 0.340202 0.330376
Si Si5 0.826172 0.836042 0.779187
O O1 0.240681 0.736873 0.056806
O O2 0.227244 0.500000 0.000000
O O3 0.000000 0.680699 0.000000
O O4 0.231375 0.790205 0.500000
O O5 0.245659 0.735446 0.387650
O O6 0.000000 0.840156 0.433049
O O7 0.237863 0.000000 0.423996
O O8 0.500000 0.811447 0.903937
O O9 0.270936 0.793445 0.834641
O O10 0.280929 0.000000 0.911485
O O11 0.242204 0.500000 0.328243
O O12 0.235386 0.256978 0.273843
O O13 0.000000 0.338587 0.332331
O O14 0.000000 0.802853 0.792854
O O15 0.803839 0.000000 0.762292
#
# Coordination Sequence:
#
# PCOD8199819 Si02
#       5
#     4   8   8   8   8
#     4  11  24  39  56  80 108 137 168 201 240 290
#     4   8  13  21  33  50  76 113 154 193 236 288
#     4  10  21  37  57  80 104 131 166 207 249 293
#     4   9  16  24  36  57  85 117 154 197 241 284
#     4   9  17  30  48  68  92 125 162 198 239 288
#
# _framework density 18.568967000000001
#
# number of rings (size 3 to 8) (size 9 to 14) (size 15 to 20)
#    0.000    2.778    0.000    2.667    0.000    7.556 
#    0.000    4.444    0.000    0.000    0.000    0.000 
#    0.000    0.889    0.000   10.222    0.000   13.111 
#
# Total GULP energy -446363.257217 kJ/mol
# GULP energy per Si atom -12398.979367 kJ/mol
# Density = 1.852670 g / cm^3
# Si number density = 18.568967 Si / 1000 Ang^3
#
#
#
# Elastic Constant Matrix: (Units=GPa)
#
#
# Indices 1 2 3 4 5 6 
#
# 1 31.7758 33.6069 34.2601 0.0000 0.0000 0.0000
# 2 33.6069 139.2925 110.3679 0.0000 0.0000 0.0000
# 3 34.2601 110.3679 172.0966 0.0000 0.0000 0.0000
# 4 0.0000 0.0000 0.0000 13.2627 0.0000 0.0000
# 5 0.0000 0.0000 0.0000 0.0000 -7.0049 0.0000
# 6 0.0000 0.0000 0.0000 0.0000 0.0000 13.2916
#
#
#
# Elastic Compliance Matrix: (Units=1/GPa)
#
#
# Indices 1 2 3 4 5 6 
#
# 1 0.043517 -0.007391 -0.003923 0.000000 0.000000 0.000000
# 2 -0.007391 0.015851 -0.008694 0.000000 0.000000 0.000000
# 3 -0.003923 -0.008694 0.012168 0.000000 0.000000 0.000000
# 4 0.000000 0.000000 0.000000 0.075400 0.000000 0.000000
# 5 0.000000 0.000000 0.000000 0.000000 -0.142758 0.000000
# 6 0.000000 0.000000 0.000000 0.000000 0.000000 0.075235
#
#
# Mechanical properties :
#
#
# Convention : Reuss Voigt Hill
#
# Bulk Modulus (GPa) = 31.72675 77.73718 54.73197
# Shear Modulus (GPa) = 38.48040 14.90521 26.69281
#
# Velocity S-wave (km/s) = 4.55719 2.83626 3.79555
# Velocity P-wave (km/s) = 6.69430 7.25815 6.98192
#
# Compressibility (1/GPa) = 0.03151914
#
# Stress axis : x y z
#
# Youngs Moduli (GPa) = 22.97944 63.08703 82.18613
#
# Poissons Ratio (x) = 0.46625 0.32246
# Poissons Ratio (y) = 0.16983 0.71455
# Poissons Ratio (z) = 0.09016 0.54849
#
# Static dielectric constant tensor:
#      x y z
#    x 2.930820 0.000000 0.000000 
#    y 0.000000 3.557790 0.000000 
#    z 0.000000 0.000000 3.666830 
# 
# 
# High freq. dielectric constant tensor:
#      x y z
#    x 1.668730 0.000000 0.000000 
#    y 0.000000 1.719670 0.000000 
#    z 0.000000 0.000000 1.737870 
# 
# From -- ./inp_files/1461.got.cif
#   From: 2010.03.12/outbox.cif.g09.slc.cpg/sg47_1_cif.got.tgz:1461.got - 2010.04.14 03:12:58.
