data_PCOD8199430
_publ_section_title
;
Structure prediction by ZEFSAII (Michael W. Deem and Ramdas Pophale) SiO2 
 PCOD8199430
Probable space group: P M M M
;
_chemical_formula_sum "Si O2"
_cell_formula_units_Z 64
_cell_length_a 20.398407
_cell_length_b 18.691268
_cell_length_c 9.130393
_cell_angle_alpha 90.000000
_cell_angle_beta 90.000000
_cell_angle_gamma 90.000000
_cell_volume 3481.164040
_symmetry_space_group_name_H-M "P M M M"
_symmetry_group_IT_number 47
_symmetry_cell_setting 'orthorhombic'
loop_
_space_group_symop_operation_xyz
x,y,z
-x,-y,z
x,-y,-z
-x,y,-z
-x,-y,-z
x,y,-z
-x,y,z
x,-y,z
loop_
_atom_site_type_symbol
_atom_site_label
_atom_site_fract_x
_atom_site_fract_y
_atom_site_fract_z
Si Si1 0.188546 0.836579 0.673963
Si Si2 0.694661 0.082554 0.170597
Si Si3 0.310308 0.420051 0.325894
Si Si4 0.924494 0.917364 0.169114
Si Si5 0.072627 0.419923 0.325751
Si Si6 0.190401 0.325973 0.325550
Si Si7 0.573847 0.177983 0.829668
Si Si8 0.573888 0.677954 0.328098
O O1 0.190123 0.840924 0.500000
O O2 0.249281 0.880169 0.736329
O O3 0.120015 0.868444 0.728630
O O4 0.193953 0.755156 0.731119
O O5 0.623613 0.114625 0.211267
O O6 0.692486 0.000000 0.214393
O O7 0.710967 0.093215 0.000000
O O8 0.306072 0.423651 0.500000
O O9 0.304772 0.500000 0.260048
O O10 0.252101 0.370498 0.263858
O O11 0.379349 0.386178 0.275373
O O12 0.000000 0.899516 0.204107
O O13 0.909423 0.000000 0.204106
O O14 0.908456 0.901298 0.000000
O O15 0.074073 0.418733 0.500000
O O16 0.090775 0.500000 0.271762
O O17 0.124719 0.363317 0.262374
O O18 0.000000 0.398626 0.269492
O O19 0.190302 0.327338 0.500000
O O20 0.500000 0.155005 0.782894
O O21 0.596838 0.248722 0.745801
O O22 0.576475 0.196120 0.000000
O O23 0.580308 0.690500 0.500000
O O24 0.500000 0.657437 0.281944
#
# Coordination Sequence:
#
# PCOD8199430 Si02
#       8
#     8   8   8   8   8   8   8   8
#     4  11  22  33  49  75 105 134 163 200 246 294
#     4  10  21  36  53  72  96 128 164 203 247 293
#     4   9  16  26  42  63  88 122 163 201 234 275
#     4   9  19  37  58  76  97 129 167 205 245 290
#     4   8  13  22  37  56  81 117 155 185 219 269
#     4   9  17  27  39  60  92 125 154 189 235 280
#     4   9  18  33  53  75  97 124 161 203 246 295
#     4   9  17  29  46  69  97 126 154 190 240 293
#
# _framework density 18.384654000000001
#
# number of rings (size 3 to 8) (size 9 to 14) (size 15 to 20)
#    0.000    2.750    0.000    2.625    0.000    6.250 
#    0.000    4.375    0.000    0.375    0.000    4.375 
#    0.000    6.000    0.000   11.000    0.000    9.000 
#
# Total GULP energy -793508.619870 kJ/mol
# GULP energy per Si atom -12398.572185 kJ/mol
# Density = 1.834281 g / cm^3
# Si number density = 18.384654 Si / 1000 Ang^3
#
#
#
# Elastic Constant Matrix: (Units=GPa)
#
#
# Indices 1 2 3 4 5 6 
#
# 1 141.8032 101.1364 34.4094 0.0000 0.0000 0.0000
# 2 101.1364 170.8028 38.8267 0.0000 0.0000 0.0000
# 3 34.4094 38.8267 30.1108 0.0000 0.0000 0.0000
# 4 0.0000 0.0000 0.0000 8.9516 0.0000 0.0000
# 5 0.0000 0.0000 0.0000 0.0000 18.2449 0.0000
# 6 0.0000 0.0000 0.0000 0.0000 0.0000 40.4530
#
#
#
# Elastic Compliance Matrix: (Units=1/GPa)
#
#
# Indices 1 2 3 4 5 6 
#
# 1 0.013194 -0.006203 -0.007079 0.000000 0.000000 0.000000
# 2 -0.006203 0.011199 -0.007352 0.000000 0.000000 0.000000
# 3 -0.007079 -0.007352 0.050780 0.000000 0.000000 0.000000
# 4 0.000000 0.000000 0.000000 0.111712 0.000000 0.000000
# 5 0.000000 0.000000 0.000000 0.000000 0.054810 0.000000
# 6 0.000000 0.000000 0.000000 0.000000 0.000000 0.024720
#
#
# Mechanical properties :
#
#
# Convention : Reuss Voigt Hill
#
# Bulk Modulus (GPa) = 29.49396 76.82908 53.16152
# Shear Modulus (GPa) = 15.67475 24.75284 20.21379
#
# Velocity S-wave (km/s) = 2.92310 3.67329 3.31946
# Velocity P-wave (km/s) = 5.24120 7.73765 6.60838
#
# Compressibility (1/GPa) = 0.03390524
#
# Stress axis : x y z
#
# Youngs Moduli (GPa) = 75.79167 89.29277 19.69294
#
# Poissons Ratio (x) = 0.55392 0.13940
# Poissons Ratio (y) = 0.47017 0.14478
# Poissons Ratio (z) = 0.53649 0.65646
#
# Static dielectric constant tensor:
#      x y z
#    x 3.668930 0.000000 0.000000 
#    y 0.000000 3.557570 0.000000 
#    z 0.000000 0.000000 2.952930 
# 
# 
# High freq. dielectric constant tensor:
#      x y z
#    x 1.730300 0.000000 0.000000 
#    y 0.000000 1.716640 0.000000 
#    z 0.000000 0.000000 1.664920 
# 
# From -- ./inp_files/11567.got.cif
#   From: 2010.03.12/outbox.cif.g09.slc.cpg/sg47_6_cif.got.tgz:11567.got - 2010.04.14 03:12:58.
