data_PCOD8199298
_publ_section_title
;
Structure prediction by ZEFSAII (Michael W. Deem and Ramdas Pophale) SiO2 
 PCOD8199298
Probable space group: P M M M
;
_chemical_formula_sum "Si O2"
_cell_formula_units_Z 44
_cell_length_a 27.905439
_cell_length_b 9.462318
_cell_length_c 9.369453
_cell_angle_alpha 90.000000
_cell_angle_beta 90.000000
_cell_angle_gamma 90.000000
_cell_volume 2474.005355
_symmetry_space_group_name_H-M "P M M M"
_symmetry_group_IT_number 47
_symmetry_cell_setting 'orthorhombic'
loop_
_space_group_symop_operation_xyz
x,y,z
-x,-y,z
x,-y,-z
-x,y,-z
-x,-y,-z
x,y,-z
-x,y,z
x,-y,z
loop_
_atom_site_type_symbol
_atom_site_label
_atom_site_fract_x
_atom_site_fract_y
_atom_site_fract_z
Si Si1 0.500000 0.839922 0.669769
Si Si2 0.684077 0.663484 0.165134
Si Si3 0.224031 0.835815 0.165085
Si Si4 0.130976 0.834688 0.334720
Si Si5 0.409579 0.336949 0.332922
Si Si6 0.944461 0.336874 0.162379
O O1 0.500000 0.838357 0.500000
O O2 0.453104 0.758113 0.725788
O O3 0.500000 0.000000 0.729040
O O4 0.695277 0.500000 0.193760
O O5 0.729646 0.751369 0.219275
O O6 0.638107 0.714301 0.253400
O O7 0.673438 0.694092 0.000000
O O8 0.178799 0.782123 0.255357
O O9 0.234250 0.000000 0.191815
O O10 0.213149 0.803106 0.000000
O O11 0.136134 0.796280 0.500000
O O12 0.085208 0.756469 0.271775
O O13 0.123137 0.000000 0.309420
O O14 0.401313 0.314056 0.500000
O O15 0.421482 0.500000 0.298056
O O16 0.931278 0.500000 0.185996
O O17 0.000000 0.310115 0.195387
O O18 0.932543 0.292200 0.000000
#
# Coordination Sequence:
#
# PCOD8199298 Si02
#       6
#     4   8   8   8   8   8
#     4   9  17  29  46  69  94 120 154 193 230 272
#     4   9  18  32  49  70  95 122 155 196 240 285
#     4   9  18  33  51  69  93 128 165 199 239 288
#     4  10  21  35  51  75 106 136 167 205 249 297
#     4   9  17  30  48  68  91 121 155 190 230 278
#     4   9  19  36  56  77 101 131 169 210 250 295
#
# _framework density 17.784925000000001
#
# number of rings (size 3 to 8) (size 9 to 14) (size 15 to 20)
#    0.000    2.818    0.000    1.364    0.000    5.455 
#    0.000    5.000    0.000    2.727    0.000    0.000 
#    0.000    0.000    0.000    0.000    0.000    0.000 
#
# Total GULP energy -545702.894523 kJ/mol
# GULP energy per Si atom -12402.338512 kJ/mol
# Density = 1.774445 g / cm^3
# Si number density = 17.784925 Si / 1000 Ang^3
#
#
#
# Elastic Constant Matrix: (Units=GPa)
#
#
# Indices 1 2 3 4 5 6 
#
# 1 148.4790 70.5732 70.1584 0.0000 0.0000 0.0000
# 2 70.5732 69.9257 43.2513 0.0000 0.0000 0.0000
# 3 70.1584 43.2513 74.0494 0.0000 0.0000 0.0000
# 4 0.0000 0.0000 0.0000 22.9797 0.0000 0.0000
# 5 0.0000 0.0000 0.0000 0.0000 34.1211 0.0000
# 6 0.0000 0.0000 0.0000 0.0000 0.0000 35.1881
#
#
#
# Elastic Compliance Matrix: (Units=1/GPa)
#
#
# Indices 1 2 3 4 5 6 
#
# 1 0.016026 -0.010619 -0.008982 0.000000 0.000000 0.000000
# 2 -0.010619 0.029426 -0.007126 0.000000 0.000000 0.000000
# 3 -0.008982 -0.007126 0.026177 0.000000 0.000000 0.000000
# 4 0.000000 0.000000 0.000000 0.043517 0.000000 0.000000
# 5 0.000000 0.000000 0.000000 0.000000 0.029307 0.000000
# 6 0.000000 0.000000 0.000000 0.000000 0.000000 0.028419
#
#
# Mechanical properties :
#
#
# Convention : Reuss Voigt Hill
#
# Bulk Modulus (GPa) = 55.02104 73.37998 64.20051
# Shear Modulus (GPa) = 21.51605 25.68920 23.60262
#
# Velocity S-wave (km/s) = 3.48198 3.80470 3.64691
# Velocity P-wave (km/s) = 6.86801 7.78782 7.34234
#
# Compressibility (1/GPa) = 0.01817487
#
# Stress axis : x y z
#
# Youngs Moduli (GPa) = 62.39727 33.98312 38.20212
#
# Poissons Ratio (x) = 0.36088 0.34312
# Poissons Ratio (y) = 0.66262 0.27224
# Poissons Ratio (z) = 0.56043 0.24217
#
# Static dielectric constant tensor:
#      x y z
#    x 3.372800 0.000000 0.000000 
#    y 0.000000 3.263200 0.000000 
#    z 0.000000 0.000000 3.171950 
# 
# 
# High freq. dielectric constant tensor:
#      x y z
#    x 1.696370 0.000000 0.000000 
#    y 0.000000 1.683530 0.000000 
#    z 0.000000 0.000000 1.674500 
# 
# From -- ./inp_files/2222.got.cif
#   From: 2010.03.12/outbox.cif.g09.slc.cpg/sg47_2_cif.got.tgz:2222.got - 2010.04.14 03:12:58.
