data_PCOD8199828
_publ_section_title
;
Structure prediction by ZEFSAII (Michael W. Deem and Ramdas Pophale) SiO2 
 PCOD8199828
Probable space group: P M M M
;
_chemical_formula_sum "Si O2"
_cell_formula_units_Z 64
_cell_length_a 9.235099
_cell_length_b 14.848141
_cell_length_c 24.472565
_cell_angle_alpha 90.000000
_cell_angle_beta 90.000000
_cell_angle_gamma 90.000000
_cell_volume 3355.777278
_symmetry_space_group_name_H-M "P M M M"
_symmetry_group_IT_number 47
_symmetry_cell_setting 'orthorhombic'
loop_
_space_group_symop_operation_xyz
x,y,z
-x,-y,z
x,-y,-z
-x,y,-z
-x,-y,-z
x,y,-z
-x,y,z
x,-y,z
loop_
_atom_site_type_symbol
_atom_site_label
_atom_site_fract_x
_atom_site_fract_y
_atom_site_fract_z
Si Si1 0.672044 0.261735 0.560724
Si Si2 0.660037 0.893015 0.248239
Si Si3 0.167912 0.257309 0.936813
Si Si4 0.669409 0.394728 0.866407
Si Si5 0.830683 0.101850 0.144284
Si Si6 0.163638 0.607016 0.759122
Si Si7 0.327110 0.099811 0.632176
Si Si8 0.331435 0.395629 0.346847
O O1 0.738124 0.273880 0.500000
O O2 0.500000 0.258545 0.557378
O O3 0.731264 0.168474 0.586447
O O4 0.721346 0.344525 0.598722
O O5 0.500000 0.851996 0.239265
O O6 0.761160 0.857524 0.199544
O O7 0.723248 0.865150 0.307773
O O8 0.652270 0.000000 0.247127
O O9 0.264761 0.341014 0.917413
O O10 0.213532 0.165681 0.905909
O O11 0.000000 0.280931 0.926211
O O12 0.200014 0.240029 0.000000
O O13 0.500000 0.374837 0.860607
O O14 0.699261 0.500000 0.876531
O O15 0.748575 0.359016 0.811835
O O16 0.000000 0.101662 0.154271
O O17 0.775756 0.000000 0.131602
O O18 0.164797 0.500000 0.758034
O O19 0.242775 0.642900 0.704739
O O20 0.000000 0.644659 0.761599
O O21 0.500000 0.096566 0.632853
O O22 0.265467 0.000000 0.619063
O O23 0.500000 0.377900 0.334619
O O24 0.299238 0.500000 0.357200
#
# Coordination Sequence:
#
# PCOD8199828 Si02
#       8
#     8   8   8   8   8   8   8   8
#     4   9  17  27  40  62  90 122 165 208 242 285
#     4   8  14  26  45  69  96 125 157 194 244 307
#     4  10  22  38  54  75 104 139 179 216 250 295
#     4  10  21  37  57  80 106 135 167 208 258 307
#     4   9  18  33  53  77 104 132 165 209 256 299
#     4   9  17  31  53  79 104 129 160 200 248 303
#     4   8  14  25  41  62  89 119 151 193 245 295
#     4   9  17  29  45  67  98 132 162 196 240 289
#
# _framework density 19.071587999999998
#
# number of rings (size 3 to 8) (size 9 to 14) (size 15 to 20)
#    0.000    3.000    0.000    1.500    0.000    5.000 
#    0.000    6.250    0.000    0.375    0.000    4.375 
#    0.000    0.000    0.000    6.000    0.000    6.250 
#
# Total GULP energy -793424.716975 kJ/mol
# GULP energy per Si atom -12397.261203 kJ/mol
# Density = 1.902818 g / cm^3
# Si number density = 19.071588 Si / 1000 Ang^3
#
#
#
# Elastic Constant Matrix: (Units=GPa)
#
#
# Indices 1 2 3 4 5 6 
#
# 1 53.7701 25.3136 37.0670 0.0000 0.0000 0.0000
# 2 25.3136 62.7371 40.2356 0.0000 0.0000 0.0000
# 3 37.0670 40.2356 136.8879 0.0000 0.0000 0.0000
# 4 0.0000 0.0000 0.0000 34.5296 0.0000 0.0000
# 5 0.0000 0.0000 0.0000 0.0000 14.7824 0.0000
# 6 0.0000 0.0000 0.0000 0.0000 0.0000 15.1569
#
#
#
# Elastic Compliance Matrix: (Units=1/GPa)
#
#
# Indices 1 2 3 4 5 6 
#
# 1 0.025221 -0.007143 -0.004730 0.000000 0.000000 0.000000
# 2 -0.007143 0.021665 -0.004434 0.000000 0.000000 0.000000
# 3 -0.004730 -0.004434 0.009889 0.000000 0.000000 0.000000
# 4 0.000000 0.000000 0.000000 0.028961 0.000000 0.000000
# 5 0.000000 0.000000 0.000000 0.000000 0.067648 0.000000
# 6 0.000000 0.000000 0.000000 0.000000 0.000000 0.065977
#
#
# Mechanical properties :
#
#
# Convention : Reuss Voigt Hill
#
# Bulk Modulus (GPa) = 41.38710 50.95862 46.17286
# Shear Modulus (GPa) = 19.22869 22.94571 21.08720
#
# Velocity S-wave (km/s) = 3.17872 3.47239 3.32879
# Velocity P-wave (km/s) = 5.93468 6.54632 6.24799
#
# Compressibility (1/GPa) = 0.02416212
#
# Stress axis : x y z
#
# Youngs Moduli (GPa) = 39.64945 46.15693 101.11942
#
# Poissons Ratio (x) = 0.32969 0.47829
# Poissons Ratio (y) = 0.28321 0.44835
# Poissons Ratio (z) = 0.18754 0.20466
#
# Static dielectric constant tensor:
#      x y z
#    x 3.278740 0.000000 0.000000 
#    y 0.000000 3.501070 0.000000 
#    z 0.000000 0.000000 3.701450 
# 
# 
# High freq. dielectric constant tensor:
#      x y z
#    x 1.704660 0.000000 0.000000 
#    y 0.000000 1.738140 0.000000 
#    z 0.000000 0.000000 1.742870 
# 
# From -- ./inp_files/25578.got.cif
#   From: 2010.03.12/outbox.cif.g09.slc.cpg/sg47_13_cif.got.tgz:25578.got - 2010.04.14 03:12:58.
