data_PCOD8199926
_publ_section_title
;
Structure prediction by ZEFSAII (Michael W. Deem and Ramdas Pophale) SiO2 
 PCOD8199926
Probable space group: P M M M
;
_chemical_formula_sum "Si O2"
_cell_formula_units_Z 40
_cell_length_a 9.184954
_cell_length_b 14.613551
_cell_length_c 14.894927
_cell_angle_alpha 90.000000
_cell_angle_beta 90.000000
_cell_angle_gamma 90.000000
_cell_volume 1999.268504
_symmetry_space_group_name_H-M "P M M M"
_symmetry_group_IT_number 47
_symmetry_cell_setting 'orthorhombic'
loop_
_space_group_symop_operation_xyz
x,y,z
-x,-y,z
x,-y,-z
-x,y,-z
-x,-y,-z
x,y,-z
-x,y,z
x,-y,z
loop_
_atom_site_type_symbol
_atom_site_label
_atom_site_fract_x
_atom_site_fract_y
_atom_site_fract_z
Si Si1 0.331215 0.756596 0.105190
Si Si2 0.337179 0.108585 0.598706
Si Si3 0.172538 0.602749 0.405226
Si Si4 0.168101 0.892237 0.229447
Si Si5 0.169962 0.607744 0.210712
O O1 0.500000 0.758366 0.131047
O O2 0.252982 0.843128 0.149787
O O3 0.262835 0.660899 0.137086
O O4 0.306070 0.765265 0.000000
O O5 0.284719 0.142476 0.500000
O O6 0.500000 0.145525 0.618585
O O7 0.227012 0.144458 0.674595
O O8 0.339361 0.000000 0.599912
O O9 0.224165 0.651711 0.500000
O O10 0.233887 0.500000 0.407612
O O11 0.221940 0.645956 0.309768
O O12 0.000000 0.598948 0.402931
O O13 0.000000 0.865115 0.224346
O O14 0.193238 0.000000 0.218031
O O15 0.201276 0.500000 0.201515
O O16 0.000000 0.628361 0.194993
#
# Coordination Sequence:
#
# PCOD8199926 Si02
#       5
#     8   8   8   8   8
#     4  11  25  42  58  77 104 142 187 233 282 339
#     4   8  14  27  50  80 114 151 185 216 257 314
#     4   7  10  20  43  76 110 140 170 206 251 306
#     4  10  21  37  59  86 113 142 179 227 281 333
#     4   9  18  34  58  86 113 143 180 223 273 326
#
# _framework density 20.007318000000001
#
# number of rings (size 3 to 8) (size 9 to 14) (size 15 to 20)
#    0.000    3.000    0.000    3.600    0.000    4.400 
#    0.000    7.000    0.000    4.200    0.000    2.800 
#    0.000    0.000    0.000    0.000    0.000    0.000 
#
# Total GULP energy -495527.418968 kJ/mol
# GULP energy per Si atom -12388.185474 kJ/mol
# Density = 1.996178 g / cm^3
# Si number density = 20.007318 Si / 1000 Ang^3
#
#
#
# Elastic Constant Matrix: (Units=GPa)
#
#
# Indices 1 2 3 4 5 6 
#
# 1 118.3395 46.9274 89.4021 0.0000 0.0000 0.0000
# 2 46.9274 64.5761 47.1941 0.0000 0.0000 0.0000
# 3 89.4021 47.1941 147.0820 0.0000 0.0000 0.0000
# 4 0.0000 0.0000 0.0000 164.1840 0.0000 0.0000
# 5 0.0000 0.0000 0.0000 0.0000 30.7754 0.0000
# 6 0.0000 0.0000 0.0000 0.0000 0.0000 22.4496
#
#
#
# Elastic Compliance Matrix: (Units=1/GPa)
#
#
# Indices 1 2 3 4 5 6 
#
# 1 0.017462 -0.006444 -0.008547 0.000000 0.000000 0.000000
# 2 -0.006444 0.022607 -0.003337 0.000000 0.000000 0.000000
# 3 -0.008547 -0.003337 0.013065 0.000000 0.000000 0.000000
# 4 0.000000 0.000000 0.000000 0.006091 0.000000 0.000000
# 5 0.000000 0.000000 0.000000 0.000000 0.032493 0.000000
# 6 0.000000 0.000000 0.000000 0.000000 0.000000 0.044544
#
#
# Mechanical properties :
#
#
# Convention : Reuss Voigt Hill
#
# Bulk Modulus (GPa) = 60.68317 77.44943 69.06630
# Shear Modulus (GPa) = 28.02522 53.24673 40.63598
#
# Velocity S-wave (km/s) = 3.74672 5.16444 4.51161
# Velocity P-wave (km/s) = 7.00810 8.62302 7.85716
#
# Compressibility (1/GPa) = 0.01647903
#
# Stress axis : x y z
#
# Youngs Moduli (GPa) = 57.26644 44.23375 76.54204
#
# Poissons Ratio (x) = 0.28503 0.65418
# Poissons Ratio (y) = 0.36901 0.25544
# Poissons Ratio (z) = 0.48944 0.14762
#
# Static dielectric constant tensor:
#      x y z
#    x 3.459460 0.000000 0.000000 
#    y 0.000000 3.302050 0.000000 
#    z 0.000000 0.000000 4.058010 
# 
# 
# High freq. dielectric constant tensor:
#      x y z
#    x 1.756760 0.000000 0.000000 
#    y 0.000000 1.760960 0.000000 
#    z 0.000000 0.000000 1.794890 
# 
# From -- ./inp_files/5689.got.cif
#   From: 2010.03.12/outbox.cif.g09.slc.cpg/sg47_3_cif.got.tgz:5689.got - 2010.04.14 03:12:58.
