data_PCOD8199271
_publ_section_title
;
Structure prediction by ZEFSAII (Michael W. Deem and Ramdas Pophale) SiO2 
 PCOD8199271
Probable space group: P M M M
;
_chemical_formula_sum "Si O2"
_cell_formula_units_Z 52
_cell_length_a 33.296063
_cell_length_b 9.172186
_cell_length_c 9.601511
_cell_angle_alpha 90.000000
_cell_angle_beta 90.000000
_cell_angle_gamma 90.000000
_cell_volume 2932.279212
_symmetry_space_group_name_H-M "P M M M"
_symmetry_group_IT_number 47
_symmetry_cell_setting 'orthorhombic'
loop_
_space_group_symop_operation_xyz
x,y,z
-x,-y,z
x,-y,-z
-x,y,-z
-x,-y,-z
x,y,-z
-x,y,z
x,-y,z
loop_
_atom_site_type_symbol
_atom_site_label
_atom_site_fract_x
_atom_site_fract_y
_atom_site_fract_z
Si Si1 0.000000 0.834854 0.165985
Si Si2 0.234405 0.330307 0.838561
Si Si3 0.610028 0.170197 0.339339
Si Si4 0.546384 0.333415 0.839322
Si Si5 0.844494 0.164591 0.834266
Si Si6 0.078017 0.665117 0.166125
Si Si7 0.689839 0.330099 0.660396
O O1 0.960836 0.750996 0.222550
O O2 0.000000 0.000000 0.223538
O O3 0.000000 0.836317 0.000000
O O4 0.225400 0.500000 0.813333
O O5 0.196168 0.241369 0.782523
O O6 0.272661 0.276391 0.751492
O O7 0.243085 0.297655 0.000000
O O8 0.602418 0.209494 0.500000
O O9 0.572183 0.225715 0.253709
O O10 0.650608 0.246257 0.285595
O O11 0.614984 0.000000 0.314705
O O12 0.500000 0.297800 0.810701
O O13 0.555946 0.500000 0.798496
O O14 0.556997 0.306126 0.000000
O O15 0.882498 0.253883 0.775419
O O16 0.846048 0.000000 0.776211
O O17 0.845904 0.164949 0.000000
O O18 0.077212 0.500000 0.223323
O O19 0.078235 0.664355 0.000000
O O20 0.699155 0.292976 0.500000
O O21 0.681690 0.500000 0.683303
#
# Coordination Sequence:
#
# PCOD8199271 Si02
#       7
#     4   8   8   8   8   8   8
#     4   9  15  21  29  43  65  95 134 177 218 263
#     4   9  17  29  45  65  87 112 146 187 228 271
#     4  10  21  35  51  74 103 132 162 197 238 285
#     4   9  19  36  56  77 101 130 165 203 241 282
#     4   9  16  25  37  54  77 105 137 175 220 268
#     4   9  15  22  32  46  67  98 136 176 217 262
#     4   9  18  33  51  69  92 124 159 194 234 279
#
# _framework density 17.733644999999999
#
# number of rings (size 3 to 8) (size 9 to 14) (size 15 to 20)
#    0.000    2.846    0.000    2.077    0.000    7.692 
#    0.000    3.846    0.000    0.000    0.000    0.000 
#    0.000    0.000    0.000    0.692    0.000   15.077 
#
# Total GULP energy -644843.599037 kJ/mol
# GULP energy per Si atom -12400.838443 kJ/mol
# Density = 1.769328 g / cm^3
# Si number density = 17.733645 Si / 1000 Ang^3
#
#
#
# Elastic Constant Matrix: (Units=GPa)
#
#
# Indices 1 2 3 4 5 6 
#
# 1 157.1849 80.3618 47.0908 0.0000 0.0000 0.0000
# 2 80.3618 113.9033 30.1255 0.0000 0.0000 0.0000
# 3 47.0908 30.1255 34.0056 0.0000 0.0000 0.0000
# 4 0.0000 0.0000 0.0000 16.1142 0.0000 0.0000
# 5 0.0000 0.0000 0.0000 0.0000 -0.3619 0.0000
# 6 0.0000 0.0000 0.0000 0.0000 0.0000 25.0244
#
#
#
# Elastic Compliance Matrix: (Units=1/GPa)
#
#
# Indices 1 2 3 4 5 6 
#
# 1 0.013360 -0.005920 -0.013257 0.000000 0.000000 0.000000
# 2 -0.005920 0.014089 -0.004284 0.000000 0.000000 0.000000
# 3 -0.013257 -0.004284 0.051560 0.000000 0.000000 0.000000
# 4 0.000000 0.000000 0.000000 0.062057 0.000000 0.000000
# 5 0.000000 0.000000 0.000000 0.000000 -2.763023 0.000000
# 6 0.000000 0.000000 0.000000 0.000000 0.000000 0.039961
#
#
# Mechanical properties :
#
#
# Convention : Reuss Voigt Hill
#
# Bulk Modulus (GPa) = 31.16394 68.91666 50.04030
# Shear Modulus (GPa) = -1.98068 17.98971 8.00451
#
# Velocity S-wave (km/s) = -1.05798 3.18848 2.12686
# Velocity P-wave (km/s) = 4.01485 7.24580 5.85751
#
# Compressibility (1/GPa) = 0.03208837
#
# Stress axis : x y z
#
# Youngs Moduli (GPa) = 74.85096 70.97828 19.39502
#
# Poissons Ratio (x) = 0.42016 0.25711
# Poissons Ratio (y) = 0.44309 0.08308
# Poissons Ratio (z) = 0.99226 0.30406
#
# Static dielectric constant tensor:
#      x y z
#    x 3.429230 0.000000 0.000000 
#    y 0.000000 3.366490 0.000000 
#    z 0.000000 0.000000 2.825040 
# 
# 
# High freq. dielectric constant tensor:
#      x y z
#    x 1.699840 0.000000 0.000000 
#    y 0.000000 1.693100 0.000000 
#    z 0.000000 0.000000 1.630800 
# 
# From -- ./inp_files/4776.got.cif
#   From: 2010.03.12/outbox.cif.g09.slc.cpg/sg47_3_cif.got.tgz:4776.got - 2010.04.14 03:12:58.
