data_PCOD8199713
_publ_section_title
;
Structure prediction by ZEFSAII (Michael W. Deem and Ramdas Pophale) SiO2 
 PCOD8199713
Probable space group: P M M M
;
_chemical_formula_sum "Si O2"
_cell_formula_units_Z 56
_cell_length_a 9.017238
_cell_length_b 21.088349
_cell_length_c 15.477899
_cell_angle_alpha 90.000000
_cell_angle_beta 90.000000
_cell_angle_gamma 90.000000
_cell_volume 2943.256564
_symmetry_space_group_name_H-M "P M M M"
_symmetry_group_IT_number 47
_symmetry_cell_setting 'orthorhombic'
loop_
_space_group_symop_operation_xyz
x,y,z
-x,-y,z
x,-y,-z
-x,y,-z
-x,-y,-z
x,y,-z
-x,y,z
x,-y,z
loop_
_atom_site_type_symbol
_atom_site_label
_atom_site_fract_x
_atom_site_fract_y
_atom_site_fract_z
Si Si1 0.324288 0.926569 0.500000
Si Si2 0.170454 0.740183 0.238107
Si Si3 0.676380 0.500000 0.101291
Si Si4 0.325418 0.606871 0.764070
Si Si5 0.664936 0.191630 0.097090
Si Si6 0.837514 0.573351 0.405896
Si Si7 0.173137 0.862323 0.660283
Si Si8 0.666837 0.070396 0.189707
O O1 0.500000 0.926692 0.500000
O O2 0.267703 0.886603 0.580686
O O3 0.266387 0.000000 0.500000
O O4 0.268634 0.678000 0.232163
O O5 0.203750 0.777105 0.150441
O O6 0.209703 0.788013 0.317702
O O7 0.000000 0.720190 0.241515
O O8 0.500000 0.500000 0.098028
O O9 0.733010 0.561980 0.156293
O O10 0.735306 0.500000 0.000000
O O11 0.500000 0.606687 0.769229
O O12 0.279805 0.582811 0.669773
O O13 0.500000 0.214087 0.127907
O O14 0.675532 0.115533 0.106156
O O15 0.691695 0.212299 0.000000
O O16 0.784444 0.601399 0.500000
O O17 0.859967 0.500000 0.418513
O O18 0.000000 0.603288 0.382102
O O19 0.215522 0.906630 0.740053
O O20 0.000000 0.870310 0.640135
O O21 0.500000 0.072285 0.229694
O O22 0.709439 0.000000 0.159515
#
# Coordination Sequence:
#
# PCOD8199713 Si02
#       8
#     4   8   4   8   8   8   8   8
#     4  11  23  37  57  85 115 146 183 234 291 341
#     4  10  22  39  57  78 108 148 189 231 281 336
#     4   9  20  38  58  85 120 152 185 233 290 345
#     4  11  21  36  60  87 114 148 191 239 290 343
#     4   9  18  33  53  77 105 139 180 224 270 324
#     4   9  18  34  57  84 115 151 184 219 272 333
#     4  10  21  37  55  76 105 143 187 230 273 330
#     4   9  17  30  50  76 106 138 172 216 271 327
#
# _framework density 19.026543
#
# number of rings (size 3 to 8) (size 9 to 14) (size 15 to 20)
#    0.000    2.286    0.714    2.357    0.000    5.714 
#    1.286    3.571    0.000    3.000    0.000    4.000 
#    0.000    0.000    0.000    0.000    0.000    0.000 
#
# Total GULP energy -693751.157729 kJ/mol
# GULP energy per Si atom -12388.413531 kJ/mol
# Density = 1.898324 g / cm^3
# Si number density = 19.026543 Si / 1000 Ang^3
#
#
#
# Elastic Constant Matrix: (Units=GPa)
#
#
# Indices 1 2 3 4 5 6 
#
# 1 61.3606 37.8442 36.6834 0.0000 0.0000 0.0000
# 2 37.8442 110.4657 45.5270 0.0000 0.0000 0.0000
# 3 36.6834 45.5270 112.1429 0.0000 0.0000 0.0000
# 4 0.0000 0.0000 0.0000 14.9525 0.0000 0.0000
# 5 0.0000 0.0000 0.0000 0.0000 25.1116 0.0000
# 6 0.0000 0.0000 0.0000 0.0000 0.0000 41.2653
#
#
#
# Elastic Compliance Matrix: (Units=1/GPa)
#
#
# Indices 1 2 3 4 5 6 
#
# 1 0.022918 -0.005719 -0.005175 0.000000 0.000000 0.000000
# 2 -0.005719 0.012298 -0.003122 0.000000 0.000000 0.000000
# 3 -0.005175 -0.003122 0.011878 0.000000 0.000000 0.000000
# 4 0.000000 0.000000 0.000000 0.066878 0.000000 0.000000
# 5 0.000000 0.000000 0.000000 0.000000 0.039822 0.000000
# 6 0.000000 0.000000 0.000000 0.000000 0.000000 0.024233
#
#
# Mechanical properties :
#
#
# Convention : Reuss Voigt Hill
#
# Bulk Modulus (GPa) = 52.46015 58.23095 55.34555
# Shear Modulus (GPa) = 23.53896 27.19354 25.36625
#
# Velocity S-wave (km/s) = 3.52115 3.78463 3.65527
# Velocity P-wave (km/s) = 6.64555 7.05475 6.85320
#
# Compressibility (1/GPa) = 0.01906209
#
# Stress axis : x y z
#
# Youngs Moduli (GPa) = 43.63404 81.31097 84.19204
#
# Poissons Ratio (x) = 0.46498 0.43571
# Poissons Ratio (y) = 0.24952 0.26287
# Poissons Ratio (z) = 0.22581 0.25387
#
# Static dielectric constant tensor:
#      x y z
#    x 3.553390 0.000000 0.000000 
#    y 0.000000 3.702070 0.000000 
#    z 0.000000 0.000000 3.835530 
# 
# 
# High freq. dielectric constant tensor:
#      x y z
#    x 1.731430 0.000000 0.000000 
#    y 0.000000 1.739910 0.000000 
#    z 0.000000 0.000000 1.735270 
# 
# From -- ./inp_files/21624.got.cif
#   From: 2010.03.12/outbox.cif.g09.slc.cpg/sg47_11_cif.got.tgz:21624.got - 2010.04.14 03:12:58.
