data_PCOD8199868
_publ_section_title
;
Structure prediction by ZEFSAII (Michael W. Deem and Ramdas Pophale) SiO2 
 PCOD8199868
Probable space group: P M M M
;
_chemical_formula_sum "Si O2"
_cell_formula_units_Z 48
_cell_length_a 30.917792
_cell_length_b 8.902893
_cell_length_c 9.173437
_cell_angle_alpha 90.000000
_cell_angle_beta 90.000000
_cell_angle_gamma 90.000000
_cell_volume 2525.060032
_symmetry_space_group_name_H-M "P M M M"
_symmetry_group_IT_number 47
_symmetry_cell_setting 'orthorhombic'
loop_
_space_group_symop_operation_xyz
x,y,z
-x,-y,z
x,-y,-z
-x,y,-z
-x,-y,-z
x,y,-z
-x,y,z
x,-y,z
loop_
_atom_site_type_symbol
_atom_site_label
_atom_site_fract_x
_atom_site_fract_y
_atom_site_fract_z
Si Si1 0.000000 0.330214 0.826632
Si Si2 0.500000 0.677763 0.167525
Si Si3 0.746124 0.172205 0.168842
Si Si4 0.913665 0.176793 0.167825
Si Si5 0.169890 0.178776 0.664268
Si Si6 0.657035 0.324963 0.831039
Si Si7 0.579617 0.176164 0.330300
O O1 0.957009 0.250080 0.765767
O O2 0.000000 0.500000 0.770928
O O3 0.000000 0.317788 0.000000
O O4 0.500000 0.500000 0.179493
O O5 0.457683 0.738972 0.244983
O O6 0.500000 0.730590 0.000000
O O7 0.786747 0.237350 0.257782
O O8 0.705364 0.274847 0.208751
O O9 0.735522 0.000000 0.211415
O O10 0.758332 0.184260 0.000000
O O11 0.872502 0.241703 0.254618
O O12 0.918361 0.000000 0.187436
O O13 0.907058 0.221722 0.000000
O O14 0.169623 0.239531 0.500000
O O15 0.169328 0.000000 0.671052
O O16 0.651468 0.500000 0.796245
O O17 0.625454 0.229486 0.730257
O O18 0.646695 0.290316 0.000000
O O19 0.576354 0.217050 0.500000
O O20 0.574362 0.000000 0.303967
#
# Coordination Sequence:
#
# PCOD8199868 Si02
#       7
#     4   4   8   8   8   8   8
#     4   9  17  29  46  69  94 120 154 197 242 288
#     4  11  24  41  62  88 116 147 184 225 270 320
#     4   9  17  31  52  76 102 134 171 211 256 305
#     4   9  16  28  48  71  93 120 157 199 242 291
#     4   9  17  29  47  72  99 126 161 206 251 296
#     4  10  21  37  57  82 111 143 181 223 267 317
#     4  11  24  40  59  85 115 147 185 226 268 317
#
# _framework density 19.009449
#
# number of rings (size 3 to 8) (size 9 to 14) (size 15 to 20)
#    0.000    2.333    0.000    2.750    0.000    9.667 
#    0.000    2.917    0.000    8.000    0.000    0.000 
#    0.000    0.000    0.000    0.000    0.000    0.000 
#
# Total GULP energy -595315.616645 kJ/mol
# GULP energy per Si atom -12402.408680 kJ/mol
# Density = 1.896618 g / cm^3
# Si number density = 19.009449 Si / 1000 Ang^3
#
#
#
# Elastic Constant Matrix: (Units=GPa)
#
#
# Indices 1 2 3 4 5 6 
#
# 1 152.1673 36.9984 80.1362 0.0000 0.0000 0.0000
# 2 36.9984 48.4875 42.5267 0.0000 0.0000 0.0000
# 3 80.1362 42.5267 109.4195 0.0000 0.0000 0.0000
# 4 0.0000 0.0000 0.0000 18.6626 0.0000 0.0000
# 5 0.0000 0.0000 0.0000 0.0000 -0.0062 0.0000
# 6 0.0000 0.0000 0.0000 0.0000 0.0000 -20.9376
#
#
#
# Elastic Compliance Matrix: (Units=1/GPa)
#
#
# Indices 1 2 3 4 5 6 
#
# 1 0.010822 -0.001982 -0.007155 0.000000 0.000000 0.000000
# 2 -0.001982 0.031653 -0.010851 0.000000 0.000000 0.000000
# 3 -0.007155 -0.010851 0.018597 0.000000 0.000000 0.000000
# 4 0.000000 0.000000 0.000000 0.053583 0.000000 0.000000
# 5 0.000000 0.000000 0.000000 0.000000********** 0.000000
# 6 0.000000 0.000000 0.000000 0.000000 0.000000 -0.047761
#
#
# Mechanical properties :
#
#
# Convention : Reuss Voigt Hill
#
# Bulk Modulus (GPa) = 47.40311 69.93299 58.66805
# Shear Modulus (GPa) = -0.03122 9.57128 4.77003
#
# Velocity S-wave (km/s) = -0.12829 2.24632 1.58579
# Velocity P-wave (km/s) = 4.99688 6.60275 5.85513
#
# Compressibility (1/GPa) = 0.02109566
#
# Stress axis : x y z
#
# Youngs Moduli (GPa) = 92.40565 31.59267 53.77273
#
# Poissons Ratio (x) = 0.06261 0.38477
# Poissons Ratio (y) = 0.18313 0.58347
# Poissons Ratio (z) = 0.66120 0.34280
#
# Static dielectric constant tensor:
#      x y z
#    x 3.717100 0.000000 0.000000 
#    y 0.000000 3.302420 0.000000 
#    z 0.000000 0.000000 3.476610 
# 
# 
# High freq. dielectric constant tensor:
#      x y z
#    x 1.757130 0.000000 0.000000 
#    y 0.000000 1.720630 0.000000 
#    z 0.000000 0.000000 1.728430 
# 
# From -- ./inp_files/13818.got.cif
#   From: 2010.03.12/outbox.cif.g09.slc.cpg/sg47_7_cif.got.tgz:13818.got - 2010.04.14 03:12:58.
