data_PCOD8199581
_publ_section_title
;
Structure prediction by ZEFSAII (Michael W. Deem and Ramdas Pophale) SiO2 
 PCOD8199581
Probable space group: P M M M
;
_chemical_formula_sum "Si O2"
_cell_formula_units_Z 48
_cell_length_a 9.938882
_cell_length_b 9.093264
_cell_length_c 28.759175
_cell_angle_alpha 90.000000
_cell_angle_beta 90.000000
_cell_angle_gamma 90.000000
_cell_volume 2599.164447
_symmetry_space_group_name_H-M "P M M M"
_symmetry_group_IT_number 47
_symmetry_cell_setting 'orthorhombic'
loop_
_space_group_symop_operation_xyz
x,y,z
-x,-y,z
x,-y,-z
-x,y,-z
-x,-y,-z
x,y,-z
-x,y,z
x,-y,z
loop_
_atom_site_type_symbol
_atom_site_label
_atom_site_fract_x
_atom_site_fract_y
_atom_site_fract_z
Si Si1 0.653597 0.328509 0.782027
Si Si2 0.346382 0.827604 0.123532
Si Si3 0.156896 0.328378 0.302475
Si Si4 0.233551 0.825401 0.396210
Si Si5 0.000000 0.336229 0.445585
Si Si6 0.846244 0.669006 0.054033
Si Si7 0.500000 0.173751 0.447632
O O1 0.500000 0.287937 0.767686
O O2 0.667136 0.500000 0.792555
O O3 0.699015 0.244344 0.828157
O O4 0.756380 0.279413 0.741958
O O5 0.500000 0.784041 0.111787
O O6 0.252614 0.772750 0.082271
O O7 0.328677 0.000000 0.128824
O O8 0.177174 0.500000 0.313347
O O9 0.215429 0.234734 0.344598
O O10 0.000000 0.291422 0.293974
O O11 0.127485 0.755417 0.430575
O O12 0.374132 0.772712 0.417517
O O13 0.217145 0.000000 0.395420
O O14 0.000000 0.500000 0.422570
O O15 0.000000 0.352726 0.500000
O O16 0.813449 0.500000 0.065616
O O17 0.000000 0.705063 0.067618
O O18 0.822256 0.701357 0.000000
O O19 0.500000 0.242257 0.500000
O O20 0.500000 0.000000 0.452656
#
# Coordination Sequence:
#
# PCOD8199581 Si02
#       7
#     8   8   8   8   4   8   4
#     4   9  19  36  57  79 105 146 193 231 273 327
#     4  10  21  36  54  81 116 150 185 231 284 334
#     4  10  21  37  56  80 113 146 179 225 276 327
#     4  11  22  37  59  85 112 146 185 225 272 329
#     4  11  23  39  59  83 113 147 183 227 276 323
#     4   9  19  36  57  81 110 147 192 238 282 333
#     4   9  20  38  57  81 113 145 181 225 270 321
#
# _framework density 18.467472999999998
#
# number of rings (size 3 to 8) (size 9 to 14) (size 15 to 20)
#    0.000    2.167    0.833    2.250    1.167    4.667 
#    0.000    5.417    0.000    3.000    0.000    0.000 
#    0.000    0.000    0.000    0.000    0.000    0.000 
#
# Total GULP energy -595265.265524 kJ/mol
# GULP energy per Si atom -12401.359698 kJ/mol
# Density = 1.842544 g / cm^3
# Si number density = 18.467473 Si / 1000 Ang^3
#
#
#
# Elastic Constant Matrix: (Units=GPa)
#
#
# Indices 1 2 3 4 5 6 
#
# 1 139.0011 50.4223 78.1196 0.0000 0.0000 0.0000
# 2 50.4223 68.7001 53.6842 0.0000 0.0000 0.0000
# 3 78.1196 53.6842 121.4183 0.0000 0.0000 0.0000
# 4 0.0000 0.0000 0.0000 14.8336 0.0000 0.0000
# 5 0.0000 0.0000 0.0000 0.0000 54.5205 0.0000
# 6 0.0000 0.0000 0.0000 0.0000 0.0000 26.1204
#
#
#
# Elastic Compliance Matrix: (Units=1/GPa)
#
#
# Indices 1 2 3 4 5 6 
#
# 1 0.012029 -0.004249 -0.005861 0.000000 0.000000 0.000000
# 2 -0.004249 0.023741 -0.007763 0.000000 0.000000 0.000000
# 3 -0.005861 -0.007763 0.015439 0.000000 0.000000 0.000000
# 4 0.000000 0.000000 0.000000 0.067415 0.000000 0.000000
# 5 0.000000 0.000000 0.000000 0.000000 0.018342 0.000000
# 6 0.000000 0.000000 0.000000 0.000000 0.000000 0.038284
#
#
# Mechanical properties :
#
#
# Convention : Reuss Voigt Hill
#
# Bulk Modulus (GPa) = 64.66865 77.06355 70.86610
# Shear Modulus (GPa) = 23.13200 28.88779 26.00990
#
# Velocity S-wave (km/s) = 3.54302 3.95935 3.75696
# Velocity P-wave (km/s) = 7.19937 7.91972 7.56812
#
# Compressibility (1/GPa) = 0.01546344
#
# Stress axis : x y z
#
# Youngs Moduli (GPa) = 83.12952 42.12148 64.76999
#
# Poissons Ratio (x) = 0.17898 0.37961
# Poissons Ratio (y) = 0.35322 0.50281
# Poissons Ratio (z) = 0.48722 0.32699
#
# Static dielectric constant tensor:
#      x y z
#    x 3.201220 0.000000 0.000000 
#    y 0.000000 3.354220 0.000000 
#    z 0.000000 0.000000 3.410340 
# 
# 
# High freq. dielectric constant tensor:
#      x y z
#    x 1.725690 0.000000 0.000000 
#    y 0.000000 1.711400 0.000000 
#    z 0.000000 0.000000 1.722960 
# 
# From -- ./inp_files/2538.got.cif
#   From: 2010.03.12/outbox.cif.g09.slc.cpg/sg47_2_cif.got.tgz:2538.got - 2010.04.14 03:12:58.
