data_PCOD8199414
_publ_section_title
;
Structure prediction by ZEFSAII (Michael W. Deem and Ramdas Pophale) SiO2 
 PCOD8199414
Probable space group: P M M M
;
_chemical_formula_sum "Si O2"
_cell_formula_units_Z 52
_cell_length_a 8.133148
_cell_length_b 34.755731
_cell_length_c 9.875107
_cell_angle_alpha 90.000000
_cell_angle_beta 90.000000
_cell_angle_gamma 90.000000
_cell_volume 2791.431099
_symmetry_space_group_name_H-M "P M M M"
_symmetry_group_IT_number 47
_symmetry_cell_setting 'orthorhombic'
loop_
_space_group_symop_operation_xyz
x,y,z
-x,-y,z
x,-y,-z
-x,y,-z
-x,-y,-z
x,y,-z
-x,y,z
x,-y,z
loop_
_atom_site_type_symbol
_atom_site_label
_atom_site_fract_x
_atom_site_fract_y
_atom_site_fract_z
Si Si1 0.692141 0.457937 0.148535
Si Si2 0.806101 0.836988 0.851239
Si Si3 0.188988 0.394013 0.348554
Si Si4 0.311459 0.313338 0.348408
Si Si5 0.190751 0.094034 0.658973
Si Si6 0.500000 0.042850 0.339989
Si Si7 0.809449 0.248507 0.156639
O O1 0.500000 0.461513 0.133970
O O2 0.761888 0.500000 0.194861
O O3 0.726562 0.425003 0.255031
O O4 0.766459 0.447380 0.000000
O O5 0.755529 0.867440 0.737110
O O6 0.740326 0.794519 0.813066
O O7 0.000000 0.833847 0.861932
O O8 0.737616 0.849529 0.000000
O O9 0.264663 0.396629 0.500000
O O10 0.214249 0.350636 0.293014
O O11 0.000000 0.404329 0.350781
O O12 0.250276 0.302213 0.500000
O O13 0.500000 0.325221 0.350689
O O14 0.289501 0.277540 0.249680
O O15 0.204961 0.102534 0.500000
O O16 0.327819 0.062875 0.705757
O O17 0.000000 0.081455 0.693886
O O18 0.500000 0.040712 0.500000
O O19 0.500000 0.000000 0.276895
O O20 0.000000 0.251636 0.194785
O O21 0.779820 0.258937 0.000000
#
# Coordination Sequence:
#
# PCOD8199414 Si02
#       7
#     8   8   8   8   8   4   8
#     4   9  19  36  56  78 104 133 165 201 244 296
#     4   8  15  30  51  73  99 131 165 203 250 301
#     4  10  21  36  54  76 101 131 168 208 250 297
#     4  10  21  36  52  72 100 134 171 209 251 299
#     4   9  17  30  50  75 100 131 172 212 255 309
#     4   9  18  32  49  73 105 135 167 215 265 305
#     4   9  18  33  53  76 101 131 168 208 252 305
#
# _framework density 18.628436000000001
#
# number of rings (size 3 to 8) (size 9 to 14) (size 15 to 20)
#    0.000    2.846    0.000    2.308    0.000    4.615 
#    1.385    5.769    0.000    0.923    0.000    2.154 
#    0.000    0.000    0.000    0.000    0.000    0.000 
#
# Total GULP energy -644388.547374 kJ/mol
# GULP energy per Si atom -12392.087449 kJ/mol
# Density = 1.858604 g / cm^3
# Si number density = 18.628436 Si / 1000 Ang^3
#
#
#
# Elastic Constant Matrix: (Units=GPa)
#
#
# Indices 1 2 3 4 5 6 
#
# 1 57.7946 35.2980 26.5121 0.0000 0.0000 0.0000
# 2 35.2980 142.9533 71.3609 0.0000 0.0000 0.0000
# 3 26.5121 71.3609 75.9338 0.0000 0.0000 0.0000
# 4 0.0000 0.0000 0.0000 58.8752 0.0000 0.0000
# 5 0.0000 0.0000 0.0000 0.0000 18.2329 0.0000
# 6 0.0000 0.0000 0.0000 0.0000 0.0000 30.6611
#
#
#
# Elastic Compliance Matrix: (Units=1/GPa)
#
#
# Indices 1 2 3 4 5 6 
#
# 1 0.021224 -0.002904 -0.004681 0.000000 0.000000 0.000000
# 2 -0.002904 0.013574 -0.011743 0.000000 0.000000 0.000000
# 3 -0.004681 -0.011743 0.025840 0.000000 0.000000 0.000000
# 4 0.000000 0.000000 0.000000 0.016985 0.000000 0.000000
# 5 0.000000 0.000000 0.000000 0.000000 0.054846 0.000000
# 6 0.000000 0.000000 0.000000 0.000000 0.000000 0.032615
#
#
# Mechanical properties :
#
#
# Convention : Reuss Voigt Hill
#
# Bulk Modulus (GPa) = 45.49288 60.33596 52.91442
# Shear Modulus (GPa) = 23.68927 31.12121 27.40524
#
# Velocity S-wave (km/s) = 3.56992 4.09177 3.83972
# Velocity P-wave (km/s) = 6.43946 7.40155 6.93720
#
# Compressibility (1/GPa) = 0.02198146
#
# Stress axis : x y z
#
# Youngs Moduli (GPa) = 47.11756 73.66901 38.70028
#
# Poissons Ratio (x) = 0.21391 0.18117
# Poissons Ratio (y) = 0.13681 0.45446
# Poissons Ratio (z) = 0.22057 0.86509
#
# Static dielectric constant tensor:
#      x y z
#    x 3.319810 0.000000 0.000000 
#    y 0.000000 3.568740 0.000000 
#    z 0.000000 0.000000 3.533560 
# 
# 
# High freq. dielectric constant tensor:
#      x y z
#    x 1.714060 0.000000 0.000000 
#    y 0.000000 1.721880 0.000000 
#    z 0.000000 0.000000 1.711430 
# 
# From -- ./inp_files/15667.got.cif
#   From: 2010.03.12/outbox.cif.g09.slc.cpg/sg47_8_cif.got.tgz:15667.got - 2010.04.14 03:12:58.
