data_PCOD8199240
_publ_section_title
;
Structure prediction by ZEFSAII (Michael W. Deem and Ramdas Pophale) SiO2 
 PCOD8199240
Probable space group: P M M M
;
_chemical_formula_sum "Si O2"
_cell_formula_units_Z 48
_cell_length_a 14.794251
_cell_length_b 20.054446
_cell_length_c 8.998069
_cell_angle_alpha 90.000000
_cell_angle_beta 90.000000
_cell_angle_gamma 90.000000
_cell_volume 2669.641661
_symmetry_space_group_name_H-M "P M M M"
_symmetry_group_IT_number 47
_symmetry_cell_setting 'orthorhombic'
loop_
_space_group_symop_operation_xyz
x,y,z
-x,-y,z
x,-y,-z
-x,y,-z
-x,-y,-z
x,y,-z
-x,y,z
x,-y,z
loop_
_atom_site_type_symbol
_atom_site_label
_atom_site_fract_x
_atom_site_fract_y
_atom_site_fract_z
Si Si1 0.345849 0.372353 0.835887
Si Si2 0.857771 0.328315 0.833474
Si Si3 0.598615 0.753379 0.671572
Si Si4 0.000000 0.578623 0.323007
Si Si5 0.792881 0.799673 0.324121
Si Si6 0.601534 0.500000 0.325340
Si Si7 0.898582 0.073504 0.676540
O O1 0.243084 0.352450 0.845823
O O2 0.405542 0.314316 0.764450
O O3 0.347169 0.436064 0.732675
O O4 0.384447 0.387754 0.000000
O O5 0.855269 0.257284 0.749562
O O6 0.912904 0.383766 0.742552
O O7 0.898566 0.319554 0.000000
O O8 0.610348 0.733738 0.500000
O O9 0.500000 0.789495 0.696528
O O10 0.685965 0.796960 0.720953
O O11 0.000000 0.500000 0.276755
O O12 0.000000 0.585403 0.500000
O O13 0.805104 0.792447 0.500000
O O14 0.829399 0.870570 0.263682
O O15 0.500000 0.500000 0.263971
O O16 0.605257 0.500000 0.500000
O O17 0.898057 0.073889 0.500000
O O18 0.000000 0.089237 0.733635
O O19 0.868163 0.000000 0.733793
#
# Coordination Sequence:
#
# PCOD8199240 Si02
#       7
#     8   8   8   4   8   4   8
#     4  10  21  35  51  71  95 123 159 203 251 303
#     4  10  22  38  54  75 102 132 164 206 259 303
#     4   9  17  30  47  68  96 129 165 205 250 297
#     4  11  25  41  57  77  98 129 174 213 247 298
#     4   9  17  30  51  76 101 133 172 212 249 299
#     4  11  23  35  49  70  95 124 157 199 254 307
#     4   8  14  25  44  73 105 133 165 209 256 299
#
# _framework density 17.979941
#
# number of rings (size 3 to 8) (size 9 to 14) (size 15 to 20)
#    0.000    2.500    0.000    2.500    2.333    5.667 
#    0.000    0.000    0.000    1.000    0.000    4.667 
#    0.000    0.000    0.000    8.333    0.000    8.667 
#
# Total GULP energy -594851.676743 kJ/mol
# GULP energy per Si atom -12392.743265 kJ/mol
# Density = 1.793902 g / cm^3
# Si number density = 17.979941 Si / 1000 Ang^3
#
#
#
# Elastic Constant Matrix: (Units=GPa)
#
#
# Indices 1 2 3 4 5 6 
#
# 1 88.5437 63.8506 25.6169 0.0000 0.0000 0.0000
# 2 63.8506 145.2281 35.7008 0.0000 0.0000 0.0000
# 3 25.6169 35.7008 60.4676 0.0000 0.0000 0.0000
# 4 0.0000 0.0000 0.0000 12.6649 0.0000 0.0000
# 5 0.0000 0.0000 0.0000 0.0000 20.3317 0.0000
# 6 0.0000 0.0000 0.0000 0.0000 0.0000 19.8464
#
#
#
# Elastic Compliance Matrix: (Units=1/GPa)
#
#
# Indices 1 2 3 4 5 6 
#
# 1 0.017074 -0.006701 -0.003277 0.000000 0.000000 0.000000
# 2 -0.006701 0.010685 -0.003470 0.000000 0.000000 0.000000
# 3 -0.003277 -0.003470 0.019975 0.000000 0.000000 0.000000
# 4 0.000000 0.000000 0.000000 0.078959 0.000000 0.000000
# 5 0.000000 0.000000 0.000000 0.000000 0.049184 0.000000
# 6 0.000000 0.000000 0.000000 0.000000 0.000000 0.050387
#
#
# Mechanical properties :
#
#
# Convention : Reuss Voigt Hill
#
# Bulk Modulus (GPa) = 47.98876 60.50842 54.24859
# Shear Modulus (GPa) = 19.22299 21.84000 20.53149
#
# Velocity S-wave (km/s) = 3.27331 3.48902 3.38288
# Velocity P-wave (km/s) = 6.40579 7.06805 6.74505
#
# Compressibility (1/GPa) = 0.02083821
#
# Stress axis : x y z
#
# Youngs Moduli (GPa) = 58.56727 93.59006 50.06381
#
# Poissons Ratio (x) = 0.62718 0.16406
# Poissons Ratio (y) = 0.39248 0.17370
# Poissons Ratio (z) = 0.19192 0.32471
#
# Static dielectric constant tensor:
#      x y z
#    x 3.633800 0.000000 0.000000 
#    y 0.000000 3.454300 0.000000 
#    z 0.000000 0.000000 3.441940 
# 
# 
# High freq. dielectric constant tensor:
#      x y z
#    x 1.702870 0.000000 0.000000 
#    y 0.000000 1.678470 0.000000 
#    z 0.000000 0.000000 1.685970 
# 
# From -- ./inp_files/6534.got.cif
#   From: 2010.03.12/outbox.cif.g09.slc.cpg/sg47_4_cif.got.tgz:6534.got - 2010.04.14 03:12:58.
