data_PCOD8199392
_publ_section_title
;
Structure prediction by ZEFSAII (Michael W. Deem and Ramdas Pophale) SiO2 
 PCOD8199392
Probable space group: P M M M
;
_chemical_formula_sum "Si O2"
_cell_formula_units_Z 44
_cell_length_a 14.364251
_cell_length_b 8.876273
_cell_length_c 21.140483
_cell_angle_alpha 90.000000
_cell_angle_beta 90.000000
_cell_angle_gamma 90.000000
_cell_volume 2695.433005
_symmetry_space_group_name_H-M "P M M M"
_symmetry_group_IT_number 47
_symmetry_cell_setting 'orthorhombic'
loop_
_space_group_symop_operation_xyz
x,y,z
-x,-y,z
x,-y,-z
-x,y,-z
-x,-y,-z
x,y,-z
-x,y,z
x,-y,z
loop_
_atom_site_type_symbol
_atom_site_label
_atom_site_fract_x
_atom_site_fract_y
_atom_site_fract_z
Si Si1 0.391652 0.173778 0.927696
Si Si2 0.610607 0.668817 0.433049
Si Si3 0.889706 0.668781 0.000000
Si Si4 0.724238 0.677822 0.180393
Si Si5 0.894016 0.177873 0.128211
Si Si6 0.604712 0.680322 0.297595
O O1 0.500000 0.205769 0.915700
O O2 0.332627 0.279608 0.882122
O O3 0.367918 0.000000 0.913314
O O4 0.365572 0.213577 0.000000
O O5 0.641249 0.750591 0.500000
O O6 0.500000 0.662561 0.429805
O O7 0.650695 0.500000 0.435910
O O8 0.642629 0.743686 0.366151
O O9 0.856069 0.758010 0.938302
O O10 0.847698 0.500000 0.000000
O O11 0.000000 0.662520 0.000000
O O12 0.736578 0.500000 0.182929
O O13 0.826372 0.754078 0.181530
O O14 0.671124 0.740498 0.242215
O O15 0.000000 0.228930 0.142335
O O16 0.885959 0.000000 0.125998
O O17 0.500000 0.739055 0.283946
O O18 0.604285 0.500000 0.299816
#
# Coordination Sequence:
#
# PCOD8199392 Si02
#       6
#     8   8   4   8   8   8
#     4   9  19  35  50  62  81 113 152 190 222 254
#     4   7   9  15  30  52  80 116 151 176 201 241
#     4   9  17  31  51  71  86  99 124 169 223 273
#     4  11  21  30  45  67  91 117 145 182 227 270
#     4  10  21  36  51  65  84 112 144 180 224 273
#     4   8  14  24  37  58  90 122 149 177 211 253
#
# _framework density 16.323907999999999
#
# number of rings (size 3 to 8) (size 9 to 14) (size 15 to 20)
#    0.000    3.000    0.000    4.091    1.273    3.636 
#    0.000    0.909    0.000    0.000    0.000    0.000 
#    0.000    3.636    0.000   29.636    0.000   18.545 
#
# Total GULP energy -545109.266050 kJ/mol
# GULP energy per Si atom -12388.846956 kJ/mol
# Density = 1.628675 g / cm^3
# Si number density = 16.323908 Si / 1000 Ang^3
#
#
#
# Elastic Constant Matrix: (Units=GPa)
#
#
# Indices 1 2 3 4 5 6 
#
# 1 72.8201 22.1352 63.8659 0.0000 0.0000 0.0000
# 2 22.1352 43.2644 28.0563 0.0000 0.0000 0.0000
# 3 63.8659 28.0563 137.5678 0.0000 0.0000 0.0000
# 4 0.0000 0.0000 0.0000 1.1689 0.0000 0.0000
# 5 0.0000 0.0000 0.0000 0.0000 10.1228 0.0000
# 6 0.0000 0.0000 0.0000 0.0000 0.0000 21.4493
#
#
#
# Elastic Compliance Matrix: (Units=1/GPa)
#
#
# Indices 1 2 3 4 5 6 
#
# 1 0.024414 -0.005924 -0.010126 0.000000 0.000000 0.000000
# 2 -0.005924 0.028074 -0.002975 0.000000 0.000000 0.000000
# 3 -0.010126 -0.002975 0.012577 0.000000 0.000000 0.000000
# 4 0.000000 0.000000 0.000000 0.855473 0.000000 0.000000
# 5 0.000000 0.000000 0.000000 0.000000 0.098787 0.000000
# 6 0.000000 0.000000 0.000000 0.000000 0.000000 0.046622
#
#
# Mechanical properties :
#
#
# Convention : Reuss Voigt Hill
#
# Bulk Modulus (GPa) = 37.01777 53.52968 45.27372
# Shear Modulus (GPa) = 4.49235 15.85452 10.17344
#
# Velocity S-wave (km/s) = 1.66072 3.11986 2.49915
# Velocity P-wave (km/s) = 5.13844 6.77063 6.01020
#
# Compressibility (1/GPa) = 0.02701406
#
# Stress axis : x y z
#
# Youngs Moduli (GPa) = 40.95969 35.61999 79.51046
#
# Poissons Ratio (x) = 0.21103 0.80513
# Poissons Ratio (y) = 0.24266 0.23656
# Poissons Ratio (z) = 0.41476 0.10598
#
# Static dielectric constant tensor:
#      x y z
#    x 2.981810 0.000000 0.000000 
#    y 0.000000 2.786690 0.000000 
#    z 0.000000 0.000000 3.556690 
# 
# 
# High freq. dielectric constant tensor:
#      x y z
#    x 1.599060 0.000000 0.000000 
#    y 0.000000 1.598840 0.000000 
#    z 0.000000 0.000000 1.626580 
# 
# From -- ./inp_files/24906.got.cif
#   From: 2010.03.12/outbox.cif.g09.slc.cpg/sg47_13_cif.got.tgz:24906.got - 2010.04.14 03:12:58.
