data_PCOD8199925
_publ_section_title
;
Structure prediction by ZEFSAII (Michael W. Deem and Ramdas Pophale) SiO2 
 PCOD8199925
Probable space group: P M M M
;
_chemical_formula_sum "Si O2"
_cell_formula_units_Z 52
_cell_length_a 9.132292
_cell_length_b 20.603759
_cell_length_c 14.047654
_cell_angle_alpha 90.000000
_cell_angle_beta 90.000000
_cell_angle_gamma 90.000000
_cell_volume 2643.200164
_symmetry_space_group_name_H-M "P M M M"
_symmetry_group_IT_number 47
_symmetry_cell_setting 'orthorhombic'
loop_
_space_group_symop_operation_xyz
x,y,z
-x,-y,z
x,-y,-z
-x,y,-z
-x,-y,-z
x,y,-z
-x,y,z
x,-y,z
loop_
_atom_site_type_symbol
_atom_site_label
_atom_site_fract_x
_atom_site_fract_y
_atom_site_fract_z
Si Si1 0.826348 0.000000 0.889868
Si Si2 0.165426 0.316500 0.612446
Si Si3 0.331038 0.881151 0.792810
Si Si4 0.163411 0.769741 0.887496
Si Si5 0.831384 0.622263 0.108031
Si Si6 0.668929 0.811953 0.392646
Si Si7 0.332030 0.426624 0.720853
O O1 0.768276 0.062513 0.834959
O O2 0.000000 0.000000 0.885108
O O3 0.773433 0.000000 0.000000
O O4 0.171844 0.321019 0.500000
O O5 0.238993 0.249268 0.645552
O O6 0.246386 0.379435 0.650976
O O7 0.000000 0.316631 0.651362
O O8 0.500000 0.897011 0.814814
O O9 0.288359 0.813601 0.841567
O O10 0.304731 0.872624 0.678895
O O11 0.187767 0.695876 0.854049
O O12 0.000000 0.793201 0.857557
O O13 0.178664 0.773987 0.000000
O O14 0.732841 0.576199 0.172777
O O15 0.000000 0.600904 0.115324
O O16 0.775849 0.615650 0.000000
O O17 0.715767 0.832760 0.500000
O O18 0.500000 0.790682 0.390589
O O19 0.500000 0.405034 0.723673
O O20 0.315118 0.500000 0.682761
#
# Coordination Sequence:
#
# PCOD8199925 Si02
#       7
#     4   8   8   8   8   8   8
#     4  11  25  43  60  79 110 154 193 223 266 321
#     4  10  21  37  59  86 112 140 179 229 280 328
#     4  11  22  35  56  85 113 144 183 225 266 310
#     4   9  18  33  53  78 108 140 174 216 270 328
#     4   9  19  36  57  80 106 139 181 229 279 330
#     4   9  19  37  60  86 116 147 178 216 269 330
#     4  11  24  38  52  74 106 145 186 227 276 336
#
# _framework density 19.673123
#
# number of rings (size 3 to 8) (size 9 to 14) (size 15 to 20)
#    0.000    2.077    0.000    3.923    0.000   10.154 
#    0.000    5.000    0.000    2.308    0.000    0.000 
#    0.000    0.000    0.000    0.000    0.000    0.000 
#
# Total GULP energy -644871.069481 kJ/mol
# GULP energy per Si atom -12401.366721 kJ/mol
# Density = 1.962835 g / cm^3
# Si number density = 19.673123 Si / 1000 Ang^3
#
#
#
# Elastic Constant Matrix: (Units=GPa)
#
#
# Indices 1 2 3 4 5 6 
#
# 1 102.8740 49.8123 39.2399 0.0000 0.0000 0.0000
# 2 49.8123 82.4192 48.4513 0.0000 0.0000 0.0000
# 3 39.2399 48.4513 57.1148 0.0000 0.0000 0.0000
# 4 0.0000 0.0000 0.0000 28.0208 0.0000 0.0000
# 5 0.0000 0.0000 0.0000 0.0000 29.4156 0.0000
# 6 0.0000 0.0000 0.0000 0.0000 0.0000 30.8018
#
#
#
# Elastic Compliance Matrix: (Units=1/GPa)
#
#
# Indices 1 2 3 4 5 6 
#
# 1 0.014429 -0.005771 -0.005018 0.000000 0.000000 0.000000
# 2 -0.005771 0.026511 -0.018525 0.000000 0.000000 0.000000
# 3 -0.005018 -0.018525 0.036671 0.000000 0.000000 0.000000
# 4 0.000000 0.000000 0.000000 0.035688 0.000000 0.000000
# 5 0.000000 0.000000 0.000000 0.000000 0.033996 0.000000
# 6 0.000000 0.000000 0.000000 0.000000 0.000000 0.032466
#
#
# Mechanical properties :
#
#
# Convention : Reuss Voigt Hill
#
# Bulk Modulus (GPa) = 52.67613 57.49055 55.08334
# Shear Modulus (GPa) = 20.43201 24.64128 22.53664
#
# Velocity S-wave (km/s) = 3.22619 3.54296 3.38828
# Velocity P-wave (km/s) = 6.38056 6.78403 6.58538
#
# Compressibility (1/GPa) = 0.01898393
#
# Stress axis : x y z
#
# Youngs Moduli (GPa) = 69.30597 37.72036 27.26960
#
# Poissons Ratio (x) = 0.21767 0.13683
# Poissons Ratio (y) = 0.39994 0.50517
# Poissons Ratio (z) = 0.34776 0.69877
#
# Static dielectric constant tensor:
#      x y z
#    x 3.668770 0.000000 0.000000 
#    y 0.000000 3.463920 0.000000 
#    z 0.000000 0.000000 3.738240 
# 
# 
# High freq. dielectric constant tensor:
#      x y z
#    x 1.769600 0.000000 0.000000 
#    y 0.000000 1.751780 0.000000 
#    z 0.000000 0.000000 1.778640 
# 
# From -- ./inp_files/7089.got.cif
#   From: 2010.03.12/outbox.cif.g09.slc.cpg/sg47_4_cif.got.tgz:7089.got - 2010.04.14 03:12:58.
