data_PCOD8199151
_publ_section_title
;
Structure prediction by ZEFSAII (Michael W. Deem and Ramdas Pophale) SiO2 
 PCOD8199151
Probable space group: P M M M
;
_chemical_formula_sum "Si O2"
_cell_formula_units_Z 44
_cell_length_a 9.404221
_cell_length_b 9.247005
_cell_length_c 28.746266
_cell_angle_alpha 90.000000
_cell_angle_beta 90.000000
_cell_angle_gamma 90.000000
_cell_volume 2499.800548
_symmetry_space_group_name_H-M "P M M M"
_symmetry_group_IT_number 47
_symmetry_cell_setting 'orthorhombic'
loop_
_space_group_symop_operation_xyz
x,y,z
-x,-y,z
x,-y,-z
-x,y,-z
-x,-y,-z
x,y,-z
-x,y,z
x,-y,z
loop_
_atom_site_type_symbol
_atom_site_label
_atom_site_fract_x
_atom_site_fract_y
_atom_site_fract_z
Si Si1 0.665553 0.167783 0.089799
Si Si2 0.330804 0.336701 0.000000
Si Si3 0.658887 0.828512 0.549173
Si Si4 0.669682 0.833869 0.649726
Si Si5 0.164742 0.167049 0.179813
Si Si6 0.835829 0.330490 0.728056
O O1 0.500000 0.198317 0.098002
O O2 0.726219 0.256196 0.045912
O O3 0.747481 0.221909 0.135438
O O4 0.695406 0.000000 0.079795
O O5 0.273008 0.500000 0.000000
O O6 0.500000 0.331188 0.000000
O O7 0.736433 0.780195 0.500000
O O8 0.500000 0.765022 0.547426
O O9 0.728250 0.781085 0.598486
O O10 0.650579 0.000000 0.550853
O O11 0.500000 0.817378 0.651973
O O12 0.741504 0.730294 0.686667
O O13 0.713516 0.000000 0.659588
O O14 0.215647 0.258703 0.224000
O O15 0.000000 0.193282 0.168847
O O16 0.197622 0.000000 0.190625
O O17 0.810358 0.500000 0.732108
O O18 0.000000 0.292035 0.718314
#
# Coordination Sequence:
#
# PCOD8199151 Si02
#       6
#     8   4   8   8   8   8
#     4   9  17  30  49  71  93 118 149 185 224 267
#     4   9  17  29  46  69  96 124 152 181 216 262
#     4   7  10  19  38  65  94 119 144 181 231 280
#     4   9  17  29  48  74  98 120 152 195 238 280
#     4   9  18  33  51  69  90 118 153 193 236 279
#     4  10  21  35  49  66  92 128 164 195 233 283
#
# _framework density 17.601403999999999
#
# number of rings (size 3 to 8) (size 9 to 14) (size 15 to 20)
#    0.000    3.182    0.000    2.455    0.000    4.000 
#    0.000    2.273    0.000    3.818    0.000    6.364 
#    0.000    0.000    0.000    0.000    0.000    0.000 
#
# Total GULP energy -545199.043592 kJ/mol
# GULP energy per Si atom -12390.887354 kJ/mol
# Density = 1.756134 g / cm^3
# Si number density = 17.601404 Si / 1000 Ang^3
#
#
#
# Elastic Constant Matrix: (Units=GPa)
#
#
# Indices 1 2 3 4 5 6 
#
# 1 32.7491 25.9151 51.8602 0.0000 0.0000 0.0000
# 2 25.9151 68.1843 72.6010 0.0000 0.0000 0.0000
# 3 51.8602 72.6010 201.6903 0.0000 0.0000 0.0000
# 4 0.0000 0.0000 0.0000 2.5084 0.0000 0.0000
# 5 0.0000 0.0000 0.0000 0.0000 -5.8065 0.0000
# 6 0.0000 0.0000 0.0000 0.0000 0.0000 18.5729
#
#
#
# Elastic Compliance Matrix: (Units=1/GPa)
#
#
# Indices 1 2 3 4 5 6 
#
# 1 0.055050 -0.009488 -0.010740 0.000000 0.000000 0.000000
# 2 -0.009488 0.025416 -0.006709 0.000000 0.000000 0.000000
# 3 -0.010740 -0.006709 0.010135 0.000000 0.000000 0.000000
# 4 0.000000 0.000000 0.000000 0.398666 0.000000 0.000000
# 5 0.000000 0.000000 0.000000 0.000000 -0.172219 0.000000
# 6 0.000000 0.000000 0.000000 0.000000 0.000000 0.053842
#
#
# Mechanical properties :
#
#
# Convention : Reuss Voigt Hill
#
# Bulk Modulus (GPa) = 27.22768 67.04181 47.13475
# Shear Modulus (GPa) = 11.44151 13.20476 12.32314
#
# Velocity S-wave (km/s) = 2.55234 2.74197 2.64885
# Velocity P-wave (km/s) = 4.91819 6.94234 6.01601
#
# Compressibility (1/GPa) = 0.03672733
#
# Stress axis : x y z
#
# Youngs Moduli (GPa) = 18.16527 39.34518 98.67146
#
# Poissons Ratio (x) = 0.37330 1.05970
# Poissons Ratio (y) = 0.17235 0.66201
# Poissons Ratio (z) = 0.19509 0.26398
#
# Static dielectric constant tensor:
#      x y z
#    x 2.923260 0.000000 0.000000 
#    y 0.000000 3.064290 0.000000 
#    z 0.000000 0.000000 3.742230 
# 
# 
# High freq. dielectric constant tensor:
#      x y z
#    x 1.638780 0.000000 0.000000 
#    y 0.000000 1.656900 0.000000 
#    z 0.000000 0.000000 1.705530 
# 
# From -- ./inp_files/13574.got.cif
#   From: 2010.03.12/outbox.cif.g09.slc.cpg/sg47_7_cif.got.tgz:13574.got - 2010.04.14 03:12:58.
