data_PCOD8199435
_publ_section_title
;
Structure prediction by ZEFSAII (Michael W. Deem and Ramdas Pophale) SiO2 
 PCOD8199435
Probable space group: P M M M
;
_chemical_formula_sum "Si O2"
_cell_formula_units_Z 64
_cell_length_a 9.095132
_cell_length_b 28.909764
_cell_length_c 14.402500
_cell_angle_alpha 90.000000
_cell_angle_beta 90.000000
_cell_angle_gamma 90.000000
_cell_volume 3786.966269
_symmetry_space_group_name_H-M "P M M M"
_symmetry_group_IT_number 47
_symmetry_cell_setting 'orthorhombic'
loop_
_space_group_symop_operation_xyz
x,y,z
-x,-y,z
x,-y,-z
-x,y,-z
-x,-y,-z
x,y,-z
-x,y,z
x,-y,z
loop_
_atom_site_type_symbol
_atom_site_label
_atom_site_fract_x
_atom_site_fract_y
_atom_site_fract_z
Si Si1 0.665458 0.050507 0.110233
Si Si2 0.327277 0.589898 0.893586
Si Si3 0.169470 0.447813 0.272609
Si Si4 0.172697 0.228122 0.784230
Si Si5 0.669433 0.628697 0.391262
Si Si6 0.168050 0.316673 0.107854
Si Si7 0.173722 0.859460 0.893315
Si Si8 0.828068 0.277189 0.604400
O O1 0.500000 0.058684 0.145842
O O2 0.766062 0.092133 0.147589
O O3 0.722146 0.000000 0.145798
O O4 0.669714 0.050570 0.000000
O O5 0.500000 0.587133 0.875617
O O6 0.243456 0.553360 0.829227
O O7 0.270915 0.640604 0.864932
O O8 0.287515 0.578505 0.000000
O O9 0.184543 0.500000 0.310841
O O10 0.251983 0.413764 0.341853
O O11 0.000000 0.432986 0.264857
O O12 0.233626 0.272567 0.838821
O O13 0.240258 0.181208 0.827729
O O14 0.210668 0.234953 0.674737
O O15 0.000000 0.225645 0.801253
O O16 0.687951 0.620444 0.500000
O O17 0.500000 0.630053 0.360711
O O18 0.742906 0.677137 0.362432
O O19 0.000000 0.327830 0.137614
O O20 0.176945 0.305008 0.000000
O O21 0.000000 0.861924 0.887110
O O22 0.224027 0.850797 0.000000
O O23 0.781815 0.262234 0.500000
O O24 0.000000 0.289113 0.609514
#
# Coordination Sequence:
#
# PCOD8199435 Si02
#       8
#     8   8   8   8   8   8   8   8
#     4   8  14  25  39  54  77 112 150 185 221 261
#     4  10  21  36  53  73  97 124 155 192 231 269
#     4  11  24  39  55  75  97 122 153 188 225 269
#     4   9  16  26  41  62  89 118 147 182 222 260
#     4  10  21  37  57  79 101 123 147 181 228 278
#     4   9  16  27  45  66  88 118 153 183 215 261
#     4   9  16  25  38  58  85 116 150 186 222 261
#     4   9  17  30  49  70  91 119 154 185 214 257
#
# _framework density 16.900071000000001
#
# number of rings (size 3 to 8) (size 9 to 14) (size 15 to 20)
#    0.000    2.625    0.000    2.625    0.000    5.750 
#    0.000    5.000    0.000    3.000    0.000    0.000 
#    0.000    0.500    0.000    6.250    0.000    1.250 
#
# Total GULP energy -793381.877903 kJ/mol
# GULP energy per Si atom -12396.591842 kJ/mol
# Density = 1.686161 g / cm^3
# Si number density = 16.900071 Si / 1000 Ang^3
#
#
#
# Elastic Constant Matrix: (Units=GPa)
#
#
# Indices 1 2 3 4 5 6 
#
# 1 63.6777 41.8013 27.4708 0.0000 0.0000 0.0000
# 2 41.8013 114.8698 53.1386 0.0000 0.0000 0.0000
# 3 27.4708 53.1386 62.5209 0.0000 0.0000 0.0000
# 4 0.0000 0.0000 0.0000 19.0747 0.0000 0.0000
# 5 0.0000 0.0000 0.0000 0.0000 18.4945 0.0000
# 6 0.0000 0.0000 0.0000 0.0000 0.0000 6.7624
#
#
#
# Elastic Compliance Matrix: (Units=1/GPa)
#
#
# Indices 1 2 3 4 5 6 
#
# 1 0.021403 -0.005666 -0.004589 0.000000 0.000000 0.000000
# 2 -0.005666 0.015846 -0.010978 0.000000 0.000000 0.000000
# 3 -0.004589 -0.010978 0.027342 0.000000 0.000000 0.000000
# 4 0.000000 0.000000 0.000000 0.052425 0.000000 0.000000
# 5 0.000000 0.000000 0.000000 0.000000 0.054070 0.000000
# 6 0.000000 0.000000 0.000000 0.000000 0.000000 0.147877
#
#
# Mechanical properties :
#
#
# Convention : Reuss Voigt Hill
#
# Bulk Modulus (GPa) = 45.19803 53.98776 49.59290
# Shear Modulus (GPa) = 13.55732 16.77684 15.16708
#
# Velocity S-wave (km/s) = 2.83539 3.15415 2.99901
# Velocity P-wave (km/s) = 6.12549 6.72900 6.43433
#
# Compressibility (1/GPa) = 0.02212486
#
# Stress axis : x y z
#
# Youngs Moduli (GPa) = 46.72240 63.10749 36.57407
#
# Poissons Ratio (x) = 0.35756 0.16782
# Poissons Ratio (y) = 0.26473 0.40153
# Poissons Ratio (z) = 0.21439 0.69282
#
# Static dielectric constant tensor:
#      x y z
#    x 3.118210 0.000000 0.000000 
#    y 0.000000 3.333650 0.000000 
#    z 0.000000 0.000000 3.186450 
# 
# 
# High freq. dielectric constant tensor:
#      x y z
#    x 1.641690 0.000000 0.000000 
#    y 0.000000 1.641470 0.000000 
#    z 0.000000 0.000000 1.634530 
# 
# From -- ./inp_files/22171.got.cif
#   From: 2010.03.12/outbox.cif.g09.slc.cpg/sg47_12_cif.got.tgz:22171.got - 2010.04.14 03:12:58.
