data_PCOD8199612
_publ_section_title
;
Structure prediction by ZEFSAII (Michael W. Deem and Ramdas Pophale) SiO2 
 PCOD8199612
Probable space group: P M M M
;
_chemical_formula_sum "Si O2"
_cell_formula_units_Z 36
_cell_length_a 14.111214
_cell_length_b 9.032790
_cell_length_c 14.804886
_cell_angle_alpha 90.000000
_cell_angle_beta 90.000000
_cell_angle_gamma 90.000000
_cell_volume 1887.084551
_symmetry_space_group_name_H-M "P M M M"
_symmetry_group_IT_number 47
_symmetry_cell_setting 'orthorhombic'
loop_
_space_group_symop_operation_xyz
x,y,z
-x,-y,z
x,-y,-z
-x,y,-z
-x,-y,-z
x,y,-z
-x,y,z
x,-y,z
loop_
_atom_site_type_symbol
_atom_site_label
_atom_site_fract_x
_atom_site_fract_y
_atom_site_fract_z
Si Si1 0.211274 0.827373 0.895053
Si Si2 0.390499 0.324888 0.500000
Si Si3 0.603879 0.666354 0.892757
Si Si4 0.109238 0.328178 0.742971
Si Si5 0.760266 0.167309 0.599639
O O1 0.314294 0.775848 0.857506
O O2 0.130060 0.741554 0.840975
O O3 0.201098 0.000000 0.877086
O O4 0.198594 0.787192 0.000000
O O5 0.376059 0.500000 0.500000
O O6 0.500000 0.279681 0.500000
O O7 0.340273 0.254842 0.410404
O O8 0.500000 0.717289 0.856633
O O9 0.625939 0.500000 0.858675
O O10 0.602162 0.669336 0.000000
O O11 0.135163 0.500000 0.745414
O O12 0.171130 0.249434 0.667545
O O13 0.000000 0.301681 0.719362
O O14 0.809049 0.165227 0.500000
O O15 0.741588 0.000000 0.634063
#
# Coordination Sequence:
#
# PCOD8199612 Si02
#       5
#     8   4   8   8   8
#     4  10  21  36  55  80 112 150 191 239 292 344
#     4   9  17  33  60  91 124 159 189 222 268 327
#     4   8  14  27  49  75 103 137 176 220 272 329
#     4  11  24  40  59  82 110 147 192 243 292 341
#     4   9  20  37  60  89 119 151 184 227 280 336
#
# _framework density 19.077045999999999
#
# number of rings (size 3 to 8) (size 9 to 14) (size 15 to 20)
#    0.667    1.889    0.000    2.667    0.000    5.333 
#    0.000    7.778    0.000    6.667    0.000    0.000 
#    0.000    0.000    0.000    0.000    0.000    0.000 
#
# Total GULP energy -446183.012723 kJ/mol
# GULP energy per Si atom -12393.972576 kJ/mol
# Density = 1.903363 g / cm^3
# Si number density = 19.077046 Si / 1000 Ang^3
#
#
#
# Elastic Constant Matrix: (Units=GPa)
#
#
# Indices 1 2 3 4 5 6 
#
# 1 119.1732 80.9662 50.4522 0.0000 0.0000 0.0000
# 2 80.9662 145.2630 53.0091 0.0000 0.0000 0.0000
# 3 50.4522 53.0091 68.5477 0.0000 0.0000 0.0000
# 4 0.0000 0.0000 0.0000 30.2964 0.0000 0.0000
# 5 0.0000 0.0000 0.0000 0.0000 30.3912 0.0000
# 6 0.0000 0.0000 0.0000 0.0000 0.0000 15.8561
#
#
#
# Elastic Compliance Matrix: (Units=1/GPa)
#
#
# Indices 1 2 3 4 5 6 
#
# 1 0.015346 -0.006174 -0.006521 0.000000 0.000000 0.000000
# 2 -0.006174 0.012075 -0.004793 0.000000 0.000000 0.000000
# 3 -0.006521 -0.004793 0.023094 0.000000 0.000000 0.000000
# 4 0.000000 0.000000 0.000000 0.033007 0.000000 0.000000
# 5 0.000000 0.000000 0.000000 0.000000 0.032904 0.000000
# 6 0.000000 0.000000 0.000000 0.000000 0.000000 0.063067
#
#
# Mechanical properties :
#
#
# Convention : Reuss Voigt Hill
#
# Bulk Modulus (GPa) = 64.35277 77.98211 71.16744
# Shear Modulus (GPa) = 22.76357 25.21252 23.98804
#
# Velocity S-wave (km/s) = 3.45808 3.63935 3.54987
# Velocity P-wave (km/s) = 7.05342 7.65676 7.36128
#
# Compressibility (1/GPa) = 0.01553935
#
# Stress axis : x y z
#
# Youngs Moduli (GPa) = 65.16176 82.81887 43.30092
#
# Poissons Ratio (x) = 0.51135 0.28235
# Poissons Ratio (y) = 0.40233 0.20755
# Poissons Ratio (z) = 0.42489 0.39696
#
# Static dielectric constant tensor:
#      x y z
#    x 3.612680 0.000000 0.000000 
#    y 0.000000 3.583150 0.000000 
#    z 0.000000 0.000000 3.258660 
# 
# 
# High freq. dielectric constant tensor:
#      x y z
#    x 1.736790 0.000000 0.000000 
#    y 0.000000 1.753070 0.000000 
#    z 0.000000 0.000000 1.717590 
# 
# From -- ./inp_files/23271.got.cif
#   From: 2010.03.12/outbox.cif.g09.slc.cpg/sg47_12_cif.got.tgz:23271.got - 2010.04.14 03:12:58.
