data_PCOD8199779
_publ_section_title
;
Structure prediction by ZEFSAII (Michael W. Deem and Ramdas Pophale) SiO2 
 PCOD8199779
Probable space group: P M M M
;
_chemical_formula_sum "Si O2"
_cell_formula_units_Z 53
_cell_length_a 14.747256
_cell_length_b 21.199516
_cell_length_c 9.061168
_cell_angle_alpha 90.000000
_cell_angle_beta 90.000000
_cell_angle_gamma 90.000000
_cell_volume 2832.835444
_symmetry_space_group_name_H-M "P M M M"
_symmetry_group_IT_number 47
_symmetry_cell_setting 'orthorhombic'
loop_
_space_group_symop_operation_xyz
x,y,z
-x,-y,z
x,-y,-z
-x,y,-z
-x,-y,-z
x,y,-z
-x,y,z
x,-y,z
loop_
_atom_site_type_symbol
_atom_site_label
_atom_site_fract_x
_atom_site_fract_y
_atom_site_fract_z
Si Si1 0.896479 0.362582 0.826343
Si Si2 0.818193 0.000000 0.159607
Si Si3 0.394952 0.662097 0.831070
Si Si4 0.238615 0.124924 0.674006
Si Si5 0.395410 0.806667 0.170428
Si Si6 0.740697 0.571854 0.670639
Si Si7 0.103941 0.234890 0.329014
Si Si8 0.000000 0.000000 0.000000
O O1 0.834399 0.416537 0.756712
O O2 0.864724 0.294926 0.765287
O O3 0.000000 0.376672 0.780682
O O4 0.883359 0.362087 0.000000
O O5 0.788051 0.060470 0.250410
O O6 0.926383 0.000000 0.133774
O O7 0.767300 0.000000 0.000000
O O8 0.500000 0.645502 0.810514
O O9 0.376319 0.734228 0.785277
O O10 0.338859 0.616732 0.726084
O O11 0.365111 0.650944 0.000000
O O12 0.240675 0.114891 0.500000
O O13 0.336919 0.147597 0.727316
O O14 0.163902 0.176220 0.722242
O O15 0.500000 0.823476 0.198456
O O16 0.369816 0.817483 0.000000
O O17 0.758209 0.585942 0.500000
O O18 0.710662 0.500000 0.698067
O O19 0.118727 0.251390 0.500000
O O20 0.000000 0.217152 0.294802
#
# Coordination Sequence:
#
# PCOD8199779 Si02
#       8
#     8   4   8   8   8   8   8   1
#     4  10  21  37  56  80 106 137 181 234 285 333
#     4  10  23  41  60  82 114 154 197 233 270 322
#     4   9  19  37  61  87 114 144 183 230 280 330
#     4  11  22  36  57  87 119 150 188 233 281 330
#     4   9  19  37  60  86 115 149 187 230 279 333
#     4  11  24  38  53  76 108 147 187 227 277 338
#     4   9  19  34  54  81 113 146 178 219 277 341
#     4   8  24  44  62  84 110 160 210 232 266 328
#
# _framework density 18.709168999999999
#
# number of rings (size 3 to 8) (size 9 to 14) (size 15 to 20)
#    0.226    1.962    0.000    3.396    1.057    7.547 
#    0.000    5.283    0.000    2.264    0.000    0.000 
#    0.000    0.000    0.000    0.000    0.000    0.000 
#
# Total GULP energy -656829.362990 kJ/mol
# GULP energy per Si atom -12393.006849 kJ/mol
# Density = 1.866659 g / cm^3
# Si number density = 18.709169 Si / 1000 Ang^3
#
#
#
# Elastic Constant Matrix: (Units=GPa)
#
#
# Indices 1 2 3 4 5 6 
#
# 1 94.7665 56.5344 44.7356 0.0000 0.0000 0.0000
# 2 56.5344 100.6527 54.6719 0.0000 0.0000 0.0000
# 3 44.7356 54.6719 87.3622 0.0000 0.0000 0.0000
# 4 0.0000 0.0000 0.0000 31.0026 0.0000 0.0000
# 5 0.0000 0.0000 0.0000 0.0000 31.9931 0.0000
# 6 0.0000 0.0000 0.0000 0.0000 0.0000 16.4888
#
#
#
# Elastic Compliance Matrix: (Units=1/GPa)
#
#
# Indices 1 2 3 4 5 6 
#
# 1 0.016779 -0.007207 -0.004081 0.000000 0.000000 0.000000
# 2 -0.007207 0.018147 -0.007666 0.000000 0.000000 0.000000
# 3 -0.004081 -0.007666 0.018334 0.000000 0.000000 0.000000
# 4 0.000000 0.000000 0.000000 0.032255 0.000000 0.000000
# 5 0.000000 0.000000 0.000000 0.000000 0.031257 0.000000
# 6 0.000000 0.000000 0.000000 0.000000 0.000000 0.060647
#
#
# Mechanical properties :
#
#
# Convention : Reuss Voigt Hill
#
# Bulk Modulus (GPa) = 65.14503 66.07394 65.60948
# Shear Modulus (GPa) = 22.68134 24.35287 23.51711
#
# Velocity S-wave (km/s) = 3.48560 3.61176 3.54924
# Velocity P-wave (km/s) = 7.14805 7.26540 7.20697
#
# Compressibility (1/GPa) = 0.01535036
#
# Stress axis : x y z
#
# Youngs Moduli (GPa) = 59.59999 55.10459 54.54310
#
# Poissons Ratio (x) = 0.39715 0.22262
# Poissons Ratio (y) = 0.42955 0.41813
# Poissons Ratio (z) = 0.24326 0.42244
#
# Static dielectric constant tensor:
#      x y z
#    x 3.489450 0.000000 0.000000 
#    y 0.000000 3.338780 0.000000 
#    z 0.000000 0.000000 3.441010 
# 
# 
# High freq. dielectric constant tensor:
#      x y z
#    x 1.735380 0.000000 0.000000 
#    y 0.000000 1.714370 0.000000 
#    z 0.000000 0.000000 1.733130 
# 
# From -- ./inp_files/7121.got.cif
#   From: 2010.03.12/outbox.cif.g09.slc.cpg/sg47_4_cif.got.tgz:7121.got - 2010.04.14 03:12:58.
