data_PCOD8199421
_publ_section_title
;
Structure prediction by ZEFSAII (Michael W. Deem and Ramdas Pophale) SiO2 
 PCOD8199421
Probable space group: P M M M
;
_chemical_formula_sum "Si O2"
_cell_formula_units_Z 64
_cell_length_a 8.883109
_cell_length_b 14.386556
_cell_length_c 26.135181
_cell_angle_alpha 90.000000
_cell_angle_beta 90.000000
_cell_angle_gamma 90.000000
_cell_volume 3340.006745
_symmetry_space_group_name_H-M "P M M M"
_symmetry_group_IT_number 47
_symmetry_cell_setting 'orthorhombic'
loop_
_space_group_symop_operation_xyz
x,y,z
-x,-y,z
x,-y,-z
-x,y,-z
-x,-y,-z
x,y,-z
-x,y,z
x,-y,z
loop_
_atom_site_type_symbol
_atom_site_label
_atom_site_fract_x
_atom_site_fract_y
_atom_site_fract_z
Si Si1 0.177389 0.106062 0.811417
Si Si2 0.332089 0.890027 0.708109
Si Si3 0.674088 0.266871 0.556840
Si Si4 0.323629 0.393343 0.650186
Si Si5 0.176394 0.608775 0.244839
Si Si6 0.823642 0.106098 0.394144
Si Si7 0.321235 0.396021 0.056414
Si Si8 0.678969 0.719552 0.848074
O O1 0.228199 0.140040 0.755287
O O2 0.259027 0.174906 0.850953
O O3 0.000000 0.116463 0.815834
O O4 0.228450 0.000000 0.822588
O O5 0.500000 0.847972 0.714615
O O6 0.258753 0.852753 0.656115
O O7 0.339082 0.000000 0.705207
O O8 0.699671 0.308996 0.500000
O O9 0.500000 0.242398 0.565692
O O10 0.731221 0.339621 0.599368
O O11 0.769155 0.171290 0.559788
O O12 0.500000 0.380338 0.659874
O O13 0.280756 0.500000 0.640527
O O14 0.237441 0.355369 0.700323
O O15 0.213997 0.500000 0.237964
O O16 0.259288 0.664651 0.200543
O O17 0.000000 0.628945 0.241619
O O18 0.000000 0.113383 0.385126
O O19 0.776668 0.000000 0.406149
O O20 0.500000 0.397546 0.058457
O O21 0.259620 0.500000 0.066647
O O22 0.258517 0.328530 0.100316
O O23 0.267736 0.361858 0.000000
O O24 0.500000 0.720789 0.845657
#
# Coordination Sequence:
#
# PCOD8199421 Si02
#       8
#     8   8   8   8   8   8   8   8
#     4  10  21  36  52  73 107 149 189 228 272 323
#     4   9  17  31  52  76 101 131 171 218 265 316
#     4  10  22  38  56  79 104 132 172 223 274 324
#     4   9  19  37  59  80 104 135 172 217 269 326
#     4  10  21  36  54  79 113 148 179 216 267 328
#     4  10  21  36  54  76 104 139 175 213 262 322
#     4   8  15  30  53  82 115 148 184 229 278 326
#     4  11  21  32  54  85 114 147 186 230 278 327
#
# _framework density 19.161636999999999
#
# number of rings (size 3 to 8) (size 9 to 14) (size 15 to 20)
#    0.000    2.375    0.000    2.625    1.750    5.500 
#    0.000    2.500    0.000    1.875    0.000    9.625 
#    0.000    0.000    0.000    0.000    0.000    0.000 
#
# Total GULP energy -793572.312780 kJ/mol
# GULP energy per Si atom -12399.567387 kJ/mol
# Density = 1.911802 g / cm^3
# Si number density = 19.161637 Si / 1000 Ang^3
#
#
#
# Elastic Constant Matrix: (Units=GPa)
#
#
# Indices 1 2 3 4 5 6 
#
# 1 69.3651 36.0798 41.2580 0.0000 0.0000 0.0000
# 2 36.0798 89.5596 76.1336 0.0000 0.0000 0.0000
# 3 41.2580 76.1336 145.1053 0.0000 0.0000 0.0000
# 4 0.0000 0.0000 0.0000 32.5484 0.0000 0.0000
# 5 0.0000 0.0000 0.0000 0.0000 8.6876 0.0000
# 6 0.0000 0.0000 0.0000 0.0000 0.0000 27.5719
#
#
#
# Elastic Compliance Matrix: (Units=1/GPa)
#
#
# Indices 1 2 3 4 5 6 
#
# 1 0.018714 -0.005444 -0.002465 0.000000 0.000000 0.000000
# 2 -0.005444 0.021739 -0.009858 0.000000 0.000000 0.000000
# 3 -0.002465 -0.009858 0.012765 0.000000 0.000000 0.000000
# 4 0.000000 0.000000 0.000000 0.030723 0.000000 0.000000
# 5 0.000000 0.000000 0.000000 0.000000 0.115106 0.000000
# 6 0.000000 0.000000 0.000000 0.000000 0.000000 0.036269
#
#
# Mechanical properties :
#
#
# Convention : Reuss Voigt Hill
#
# Bulk Modulus (GPa) = 56.54705 67.88585 62.21645
# Shear Modulus (GPa) = 18.06717 23.79883 20.93300
#
# Velocity S-wave (km/s) = 3.07397 3.52803 3.30880
# Velocity P-wave (km/s) = 6.49413 7.21810 6.86566
#
# Compressibility (1/GPa) = 0.01768439
#
# Stress axis : x y z
#
# Youngs Moduli (GPa) = 53.43571 45.99970 78.34072
#
# Poissons Ratio (x) = 0.25042 0.19309
# Poissons Ratio (y) = 0.29090 0.77230
# Poissons Ratio (z) = 0.13170 0.45348
#
# Static dielectric constant tensor:
#      x y z
#    x 3.387440 0.000000 0.000000 
#    y 0.000000 3.628310 0.000000 
#    z 0.000000 0.000000 3.615490 
# 
# 
# High freq. dielectric constant tensor:
#      x y z
#    x 1.735530 0.000000 0.000000 
#    y 0.000000 1.746090 0.000000 
#    z 0.000000 0.000000 1.732650 
# 
# From -- ./inp_files/7838.got.cif
#   From: 2010.03.12/outbox.cif.g09.slc.cpg/sg47_4_cif.got.tgz:7838.got - 2010.04.14 03:12:58.
