data_PCOD8199419
_publ_section_title
;
Structure prediction by ZEFSAII (Michael W. Deem and Ramdas Pophale) SiO2 
 PCOD8199419
Probable space group: P M M M
;
_chemical_formula_sum "Si O2"
_cell_formula_units_Z 64
_cell_length_a 8.942374
_cell_length_b 25.883313
_cell_length_c 14.442548
_cell_angle_alpha 90.000000
_cell_angle_beta 90.000000
_cell_angle_gamma 90.000000
_cell_volume 3342.847105
_symmetry_space_group_name_H-M "P M M M"
_symmetry_group_IT_number 47
_symmetry_cell_setting 'orthorhombic'
loop_
_space_group_symop_operation_xyz
x,y,z
-x,-y,z
x,-y,-z
-x,y,-z
-x,-y,-z
x,y,-z
-x,y,z
x,-y,z
loop_
_atom_site_type_symbol
_atom_site_label
_atom_site_fract_x
_atom_site_fract_y
_atom_site_fract_z
Si Si1 0.329539 0.858615 0.108731
Si Si2 0.323415 0.310353 0.605571
Si Si3 0.167305 0.205989 0.390414
Si Si4 0.325594 0.741166 0.892521
Si Si5 0.822562 0.651882 0.222896
Si Si6 0.828218 0.942504 0.230853
Si Si7 0.676216 0.102727 0.394596
Si Si8 0.822440 0.442945 0.896515
O O1 0.500000 0.868453 0.139737
O O2 0.282464 0.800004 0.134693
O O3 0.225529 0.900051 0.158222
O O4 0.311836 0.866905 0.000000
O O5 0.274510 0.322537 0.500000
O O6 0.500000 0.311212 0.615875
O O7 0.264273 0.254953 0.640128
O O8 0.248293 0.351606 0.674296
O O9 0.159818 0.203404 0.500000
O O10 0.250365 0.155082 0.354240
O O11 0.000000 0.209805 0.348459
O O12 0.500000 0.731164 0.872944
O O13 0.227197 0.703058 0.831074
O O14 0.288634 0.731177 0.000000
O O15 0.759311 0.601223 0.170759
O O16 0.000000 0.651627 0.231306
O O17 0.735405 0.941732 0.327055
O O18 0.000000 0.931442 0.254558
O O19 0.806787 0.000000 0.188560
O O20 0.725578 0.090569 0.500000
O O21 0.500000 0.108660 0.388179
O O22 0.770858 0.500000 0.862275
O O23 0.000000 0.440181 0.898487
O O24 0.760452 0.432847 0.000000
#
# Coordination Sequence:
#
# PCOD8199419 Si02
#       8
#     8   8   8   8   8   8   8   8
#     4   9  20  40  63  83 105 139 181 223 270 327
#     4  10  21  36  52  72 105 150 193 229 271 325
#     4   9  17  31  52  77 104 134 172 219 268 318
#     4   9  19  36  56  80 113 148 178 214 267 331
#     4  11  21  31  52  85 115 146 185 232 283 329
#     4  11  25  41  57  80 109 141 179 227 280 329
#     4  10  21  37  58  82 108 141 179 220 269 327
#     4   8  15  30  52  79 113 150 187 229 276 328
#
# _framework density 19.145356
#
# number of rings (size 3 to 8) (size 9 to 14) (size 15 to 20)
#    0.000    2.375    0.000    3.375    1.750    6.000 
#    0.000    3.750    0.000    1.875    0.000    7.000 
#    0.000    0.000    0.000    0.000    0.000    0.000 
#
# Total GULP energy -793526.974043 kJ/mol
# GULP energy per Si atom -12398.858969 kJ/mol
# Density = 1.910178 g / cm^3
# Si number density = 19.145356 Si / 1000 Ang^3
#
#
#
# Elastic Constant Matrix: (Units=GPa)
#
#
# Indices 1 2 3 4 5 6 
#
# 1 79.7838 43.0942 36.5172 0.0000 0.0000 0.0000
# 2 43.0942 121.5710 63.5320 0.0000 0.0000 0.0000
# 3 36.5172 63.5320 83.5907 0.0000 0.0000 0.0000
# 4 0.0000 0.0000 0.0000 31.1245 0.0000 0.0000
# 5 0.0000 0.0000 0.0000 0.0000 30.3339 0.0000
# 6 0.0000 0.0000 0.0000 0.0000 0.0000 7.6803
#
#
#
# Elastic Compliance Matrix: (Units=1/GPa)
#
#
# Indices 1 2 3 4 5 6 
#
# 1 0.016496 -0.003453 -0.004582 0.000000 0.000000 0.000000
# 2 -0.003453 0.014368 -0.009412 0.000000 0.000000 0.000000
# 3 -0.004582 -0.009412 0.021118 0.000000 0.000000 0.000000
# 4 0.000000 0.000000 0.000000 0.032129 0.000000 0.000000
# 5 0.000000 0.000000 0.000000 0.000000 0.032966 0.000000
# 6 0.000000 0.000000 0.000000 0.000000 0.000000 0.130204
#
#
# Mechanical properties :
#
#
# Convention : Reuss Voigt Hill
#
# Bulk Modulus (GPa) = 58.51847 63.47026 60.99436
# Shear Modulus (GPa) = 17.36881 23.28119 20.32500
#
# Velocity S-wave (km/s) = 3.01526 3.49094 3.26178
# Velocity P-wave (km/s) = 6.53866 7.03368 6.79068
#
# Compressibility (1/GPa) = 0.01708862
#
# Stress axis : x y z
#
# Youngs Moduli (GPa) = 60.62011 69.59792 47.35252
#
# Poissons Ratio (x) = 0.24032 0.21697
# Poissons Ratio (y) = 0.20932 0.44568
# Poissons Ratio (z) = 0.27777 0.65505
#
# Static dielectric constant tensor:
#      x y z
#    x 3.397750 0.000000 0.000000 
#    y 0.000000 3.567250 0.000000 
#    z 0.000000 0.000000 3.569090 
# 
# 
# High freq. dielectric constant tensor:
#      x y z
#    x 1.737930 0.000000 0.000000 
#    y 0.000000 1.730970 0.000000 
#    z 0.000000 0.000000 1.745490 
# 
# From -- ./inp_files/12729.got.cif
#   From: 2010.03.12/outbox.cif.g09.slc.cpg/sg47_7_cif.got.tgz:12729.got - 2010.04.14 03:12:58.
