data_PCOD8199505
_publ_section_title
;
Structure prediction by ZEFSAII (Michael W. Deem and Ramdas Pophale) SiO2 
 PCOD8199505
Probable space group: P M M M
;
_chemical_formula_sum "Si O2"
_cell_formula_units_Z 64
_cell_length_a 9.067356
_cell_length_b 20.162422
_cell_length_c 18.461004
_cell_angle_alpha 90.000000
_cell_angle_beta 90.000000
_cell_angle_gamma 90.000000
_cell_volume 3375.038132
_symmetry_space_group_name_H-M "P M M M"
_symmetry_group_IT_number 47
_symmetry_cell_setting 'orthorhombic'
loop_
_space_group_symop_operation_xyz
x,y,z
-x,-y,z
x,-y,-z
-x,y,-z
-x,-y,-z
x,y,-z
-x,y,z
x,-y,z
loop_
_atom_site_type_symbol
_atom_site_label
_atom_site_fract_x
_atom_site_fract_y
_atom_site_fract_z
Si Si1 0.326392 0.809079 0.838189
Si Si2 0.328563 0.423106 0.660944
Si Si3 0.171622 0.311376 0.583345
Si Si4 0.172028 0.689166 0.082773
Si Si5 0.829471 0.424482 0.192028
Si Si6 0.169945 0.076329 0.916707
Si Si7 0.674756 0.196751 0.672043
Si Si8 0.324844 0.073304 0.581214
O O1 0.500000 0.805671 0.846247
O O2 0.257871 0.751263 0.885769
O O3 0.272768 0.880223 0.865632
O O4 0.276743 0.801408 0.755263
O O5 0.500000 0.404929 0.658545
O O6 0.299255 0.500000 0.644935
O O7 0.242961 0.382822 0.599326
O O8 0.268261 0.402888 0.739752
O O9 0.199194 0.293144 0.500000
O O10 0.249432 0.257689 0.633006
O O11 0.000000 0.314068 0.602371
O O12 0.214449 0.622199 0.125189
O O13 0.000000 0.705126 0.089579
O O14 0.219456 0.678051 0.000000
O O15 0.795353 0.500000 0.168628
O O16 0.000000 0.415866 0.213846
O O17 0.000000 0.093334 0.901114
O O18 0.203434 0.000000 0.898848
O O19 0.207565 0.092014 0.000000
O O20 0.500000 0.203297 0.662396
O O21 0.735208 0.128398 0.636765
O O22 0.268712 0.090085 0.500000
O O23 0.500000 0.073261 0.582012
O O24 0.267292 0.000000 0.604430
#
# Coordination Sequence:
#
# PCOD8199505 Si02
#       8
#     8   8   8   8   8   8   8   8
#     4  11  23  35  51  79 110 140 178 224 271 318
#     4  10  21  37  58  83 110 141 177 216 260 316
#     4  11  24  39  56  80 109 141 179 224 270 315
#     4  10  21  36  54  76 104 141 182 222 266 318
#     4   9  18  34  57  83 110 140 174 216 266 316
#     4   9  19  37  59  80 104 139 182 223 266 322
#     4  10  21  36  55  79 108 143 180 219 264 317
#     4   8  14  27  50  78 104 132 169 211 254 303
#
# _framework density 18.962748999999999
#
# number of rings (size 3 to 8) (size 9 to 14) (size 15 to 20)
#    0.000    2.250    0.000    3.375    0.000    9.000 
#    0.000    4.375    0.000    0.375    0.000    4.375 
#    0.000    0.000    0.000    0.000    0.000    0.000 
#
# Total GULP energy -793758.603109 kJ/mol
# GULP energy per Si atom -12402.478174 kJ/mol
# Density = 1.891959 g / cm^3
# Si number density = 18.962749 Si / 1000 Ang^3
#
#
#
# Elastic Constant Matrix: (Units=GPa)
#
#
# Indices 1 2 3 4 5 6 
#
# 1 45.1366 34.5935 41.0206 0.0000 0.0000 0.0000
# 2 34.5935 102.4098 53.3760 0.0000 0.0000 0.0000
# 3 41.0206 53.3760 100.8368 0.0000 0.0000 0.0000
# 4 0.0000 0.0000 0.0000 42.0150 0.0000 0.0000
# 5 0.0000 0.0000 0.0000 0.0000 23.0848 0.0000
# 6 0.0000 0.0000 0.0000 0.0000 0.0000 26.0509
#
#
#
# Elastic Compliance Matrix: (Units=1/GPa)
#
#
# Indices 1 2 3 4 5 6 
#
# 1 0.038150 -0.006626 -0.012012 0.000000 0.000000 0.000000
# 2 -0.006626 0.014636 -0.005052 0.000000 0.000000 0.000000
# 3 -0.012012 -0.005052 0.017478 0.000000 0.000000 0.000000
# 4 0.000000 0.000000 0.000000 0.023801 0.000000 0.000000
# 5 0.000000 0.000000 0.000000 0.000000 0.043319 0.000000
# 6 0.000000 0.000000 0.000000 0.000000 0.000000 0.038386
#
#
# Mechanical properties :
#
#
# Convention : Reuss Voigt Hill
#
# Bulk Modulus (GPa) = 43.69929 56.26257 49.98093
# Shear Modulus (GPa) = 21.66590 26.18969 23.92780
#
# Velocity S-wave (km/s) = 3.38383 3.72036 3.55608
# Velocity P-wave (km/s) = 6.19370 6.94185 6.57842
#
# Compressibility (1/GPa) = 0.02288367
#
# Stress axis : x y z
#
# Youngs Moduli (GPa) = 26.21221 68.32501 57.21626
#
# Poissons Ratio (x) = 0.45274 0.68729
# Poissons Ratio (y) = 0.17369 0.28904
# Poissons Ratio (z) = 0.31486 0.34516
#
# Static dielectric constant tensor:
#      x y z
#    x 3.332590 0.000000 0.000000 
#    y 0.000000 3.707900 0.000000 
#    z 0.000000 0.000000 3.560030 
# 
# 
# High freq. dielectric constant tensor:
#      x y z
#    x 1.721950 0.000000 0.000000 
#    y 0.000000 1.751520 0.000000 
#    z 0.000000 0.000000 1.738550 
# 
# From -- ./inp_files/27045.got.cif
#   From: 2010.03.12/outbox.cif.g09.slc.cpg/sg47_14_cif.got.tgz:27045.got - 2010.04.14 03:12:58.
