data_PCOD8199411
_publ_section_title
;
Structure prediction by ZEFSAII (Michael W. Deem and Ramdas Pophale) SiO2 
 PCOD8199411
Probable space group: P M M M
;
_chemical_formula_sum "Si O2"
_cell_formula_units_Z 36
_cell_length_a 9.626404
_cell_length_b 23.010649
_cell_length_c 9.065548
_cell_angle_alpha 90.000000
_cell_angle_beta 90.000000
_cell_angle_gamma 90.000000
_cell_volume 2008.107757
_symmetry_space_group_name_H-M "P M M M"
_symmetry_group_IT_number 47
_symmetry_cell_setting 'orthorhombic'
loop_
_space_group_symop_operation_xyz
x,y,z
-x,-y,z
x,-y,-z
-x,y,-z
-x,-y,-z
x,y,-z
-x,y,z
x,-y,z
loop_
_atom_site_type_symbol
_atom_site_label
_atom_site_fract_x
_atom_site_fract_y
_atom_site_fract_z
Si Si1 0.160216 0.932819 0.831501
Si Si2 0.163905 0.500000 0.339432
Si Si3 0.840774 0.374348 0.324252
Si Si4 0.339648 0.159629 0.328590
Si Si5 0.662188 0.276630 0.171464
O O1 0.253156 0.895921 0.721242
O O2 0.000000 0.917033 0.804732
O O3 0.187473 0.000000 0.795434
O O4 0.201948 0.919105 0.000000
O O5 0.235732 0.500000 0.500000
O O6 0.203529 0.561242 0.261092
O O7 0.000000 0.500000 0.362370
O O8 0.820999 0.372307 0.500000
O O9 0.742305 0.328736 0.247233
O O10 0.000000 0.360339 0.282463
O O11 0.314100 0.171246 0.500000
O O12 0.500000 0.146793 0.293338
O O13 0.287008 0.216136 0.241185
O O14 0.500000 0.286161 0.201679
O O15 0.698412 0.275239 0.000000
#
# Coordination Sequence:
#
# PCOD8199411 Si02
#       5
#     8   4   8   8   8
#     4   9  19  36  56  78 105 136 168 202 243 293
#     4   7  12  26  48  73 100 128 160 201 246 293
#     4   9  17  31  53  78 101 128 165 207 250 297
#     4  10  21  36  54  76 101 131 169 211 252 295
#     4  10  21  36  52  71  99 135 171 207 250 298
#
# _framework density 17.927326000000001
#
# number of rings (size 3 to 8) (size 9 to 14) (size 15 to 20)
#    0.000    2.778    0.000    3.333    0.000    5.333 
#    0.000    4.444    0.000    5.333    0.000    0.000 
#    0.000    0.000    0.000    0.000    0.000    0.000 
#
# Total GULP energy -446252.972570 kJ/mol
# GULP energy per Si atom -12395.915905 kJ/mol
# Density = 1.788652 g / cm^3
# Si number density = 17.927326 Si / 1000 Ang^3
#
#
#
# Elastic Constant Matrix: (Units=GPa)
#
#
# Indices 1 2 3 4 5 6 
#
# 1 54.5079 58.2262 37.9853 0.0000 0.0000 0.0000
# 2 58.2262 132.7893 53.4371 0.0000 0.0000 0.0000
# 3 37.9853 53.4371 67.8745 0.0000 0.0000 0.0000
# 4 0.0000 0.0000 0.0000 -21.0151 0.0000 0.0000
# 5 0.0000 0.0000 0.0000 0.0000 30.9904 0.0000
# 6 0.0000 0.0000 0.0000 0.0000 0.0000 47.9313
#
#
#
# Elastic Compliance Matrix: (Units=1/GPa)
#
#
# Indices 1 2 3 4 5 6 
#
# 1 0.040969 -0.012790 -0.012859 0.000000 0.000000 0.000000
# 2 -0.012790 0.015016 -0.004664 0.000000 0.000000 0.000000
# 3 -0.012859 -0.004664 0.025601 0.000000 0.000000 0.000000
# 4 0.000000 0.000000 0.000000 -0.047585 0.000000 0.000000
# 5 0.000000 0.000000 0.000000 0.000000 0.032268 0.000000
# 6 0.000000 0.000000 0.000000 0.000000 0.000000 0.020863
#
#
# Mechanical properties :
#
#
# Convention : Reuss Voigt Hill
#
# Bulk Modulus (GPa) = 47.70749 61.60766 54.65757
# Shear Modulus (GPa) = 32.31122 18.61619 25.46370
#
# Velocity S-wave (km/s) = 4.25001 3.22596 3.77289
# Velocity P-wave (km/s) = 7.12410 6.95094 7.03805
#
# Compressibility (1/GPa) = 0.02096107
#
# Stress axis : x y z
#
# Youngs Moduli (GPa) = 24.40864 66.59639 39.06042
#
# Poissons Ratio (x) = 0.85175 0.50226
# Poissons Ratio (y) = 0.31218 0.18218
# Poissons Ratio (z) = 0.31386 0.31062
#
# Static dielectric constant tensor:
#      x y z
#    x 3.133940 0.000000 0.000000 
#    y 0.000000 3.564120 0.000000 
#    z 0.000000 0.000000 3.182360 
# 
# 
# High freq. dielectric constant tensor:
#      x y z
#    x 1.677300 0.000000 0.000000 
#    y 0.000000 1.710250 0.000000 
#    z 0.000000 0.000000 1.682820 
# 
# From -- ./inp_files/1433.got.cif
#   From: 2010.03.12/outbox.cif.g09.slc.cpg/sg47_1_cif.got.tgz:1433.got - 2010.04.14 03:12:58.
