data_PCOD8199633
_publ_section_title
;
Structure prediction by ZEFSAII (Michael W. Deem and Ramdas Pophale) SiO2 
 PCOD8199633
Probable space group: P M M M
;
_chemical_formula_sum "Si O2"
_cell_formula_units_Z 48
_cell_length_a 8.977304
_cell_length_b 30.620347
_cell_length_c 9.191297
_cell_angle_alpha 90.000000
_cell_angle_beta 90.000000
_cell_angle_gamma 90.000000
_cell_volume 2526.578753
_symmetry_space_group_name_H-M "P M M M"
_symmetry_group_IT_number 47
_symmetry_cell_setting 'orthorhombic'
loop_
_space_group_symop_operation_xyz
x,y,z
-x,-y,z
x,-y,-z
-x,y,-z
-x,-y,-z
x,y,-z
-x,y,z
x,-y,z
loop_
_atom_site_type_symbol
_atom_site_label
_atom_site_fract_x
_atom_site_fract_y
_atom_site_fract_z
Si Si1 0.172458 0.500000 0.829245
Si Si2 0.825588 0.921148 0.331631
Si Si3 0.673388 0.831403 0.667103
Si Si4 0.828920 0.754306 0.171120
Si Si5 0.671980 0.000000 0.828516
Si Si6 0.674343 0.421322 0.668186
Si Si7 0.171786 0.332639 0.667764
O O1 0.245448 0.543000 0.764554
O O2 0.000000 0.500000 0.787944
O O3 0.199902 0.500000 0.000000
O O4 0.790155 0.930970 0.500000
O O5 0.762388 0.874337 0.284683
O O6 0.748059 0.957203 0.234460
O O7 0.000000 0.921813 0.299965
O O8 0.708358 0.819564 0.500000
O O9 0.500000 0.840395 0.692309
O O10 0.724865 0.791917 0.767098
O O11 0.775782 0.708434 0.237564
O O12 0.000000 0.763780 0.214913
O O13 0.807488 0.751918 0.000000
O O14 0.500000 0.000000 0.783129
O O15 0.694002 0.000000 0.000000
O O16 0.714506 0.429870 0.500000
O O17 0.500000 0.424429 0.696460
O O18 0.730445 0.373778 0.717150
O O19 0.200196 0.320799 0.500000
O O20 0.000000 0.344279 0.697116
#
# Coordination Sequence:
#
# PCOD8199633 Si02
#       7
#     4   8   8   8   4   8   8
#     4  11  24  39  56  80 110 145 184 225 270 322
#     4  10  21  38  61  86 110 141 184 230 275 325
#     4  10  21  37  58  83 110 143 184 229 276 325
#     4  10  21  36  55  81 113 148 184 224 272 325
#     4  11  24  39  56  82 116 151 184 221 270 326
#     4  10  21  37  58  84 112 142 179 224 273 325
#     4   9  18  34  56  80 108 145 187 228 269 317
#
# _framework density 18.998023
#
# number of rings (size 3 to 8) (size 9 to 14) (size 15 to 20)
#    0.000    2.000    0.000    3.000    0.000    9.333 
#    0.000    3.333    0.000    0.000    0.000    0.000 
#    0.000    0.000    0.000    0.000    0.000    0.000 
#
# Total GULP energy -595467.826290 kJ/mol
# GULP energy per Si atom -12405.579714 kJ/mol
# Density = 1.895478 g / cm^3
# Si number density = 18.998023 Si / 1000 Ang^3
#
#
#
# Elastic Constant Matrix: (Units=GPa)
#
#
# Indices 1 2 3 4 5 6 
#
# 1 107.2557 77.6007 57.5633 0.0000 0.0000 0.0000
# 2 77.6007 153.6802 73.1499 0.0000 0.0000 0.0000
# 3 57.5633 73.1499 76.1910 0.0000 0.0000 0.0000
# 4 0.0000 0.0000 0.0000 -86.5981 0.0000 0.0000
# 5 0.0000 0.0000 0.0000 0.0000 28.9718 0.0000
# 6 0.0000 0.0000 0.0000 0.0000 0.0000 53.9625
#
#
#
# Elastic Compliance Matrix: (Units=1/GPa)
#
#
# Indices 1 2 3 4 5 6 
#
# 1 0.017305 -0.004632 -0.008627 0.000000 0.000000 0.000000
# 2 -0.004632 0.013223 -0.009196 0.000000 0.000000 0.000000
# 3 -0.008627 -0.009196 0.028472 0.000000 0.000000 0.000000
# 4 0.000000 0.000000 0.000000 -0.011548 0.000000 0.000000
# 5 0.000000 0.000000 0.000000 0.000000 0.034516 0.000000
# 6 0.000000 0.000000 0.000000 0.000000 0.000000 0.018531
#
#
# Mechanical properties :
#
#
# Convention : Reuss Voigt Hill
#
# Bulk Modulus (GPa) = 70.97257 83.75054 77.36156
# Shear Modulus (GPa) = 33.30995 7.85476 20.58235
#
# Velocity S-wave (km/s) = 4.19183 2.03556 3.29507
# Velocity P-wave (km/s) = 7.80177 7.05012 7.43545
#
# Compressibility (1/GPa) = 0.01408995
#
# Stress axis : x y z
#
# Youngs Moduli (GPa) = 57.78798 75.62674 35.12252
#
# Poissons Ratio (x) = 0.35027 0.30301
# Poissons Ratio (y) = 0.26765 0.32298
# Poissons Ratio (z) = 0.49855 0.69546
#
# Static dielectric constant tensor:
#      x y z
#    x 3.575550 0.000000 0.000000 
#    y 0.000000 3.496190 0.000000 
#    z 0.000000 0.000000 3.437910 
# 
# 
# High freq. dielectric constant tensor:
#      x y z
#    x 1.746590 0.000000 0.000000 
#    y 0.000000 1.752120 0.000000 
#    z 0.000000 0.000000 1.733890 
# 
# From -- ./inp_files/2795.got.cif
#   From: 2010.03.12/outbox.cif.g09.slc.cpg/sg47_2_cif.got.tgz:2795.got - 2010.04.14 03:12:58.
