data_PCOD8199332
_publ_section_title
;
Structure prediction by ZEFSAII (Michael W. Deem and Ramdas Pophale) SiO2 
 PCOD8199332
Probable space group: P M M M
;
_chemical_formula_sum "Si O2"
_cell_formula_units_Z 48
_cell_length_a 32.658803
_cell_length_b 8.051462
_cell_length_c 9.043660
_cell_angle_alpha 90.000000
_cell_angle_beta 90.000000
_cell_angle_gamma 90.000000
_cell_volume 2378.040447
_symmetry_space_group_name_H-M "P M M M"
_symmetry_group_IT_number 47
_symmetry_cell_setting 'orthorhombic'
loop_
_space_group_symop_operation_xyz
x,y,z
-x,-y,z
x,-y,-z
-x,y,-z
-x,-y,-z
x,y,-z
-x,y,z
x,-y,z
loop_
_atom_site_type_symbol
_atom_site_label
_atom_site_fract_x
_atom_site_fract_y
_atom_site_fract_z
Si Si1 0.000000 0.694416 0.830999
Si Si2 0.246846 0.690783 0.335425
Si Si3 0.675840 0.807739 0.167513
Si Si4 0.914927 0.195007 0.163981
Si Si5 0.451624 0.500000 0.170229
Si Si6 0.161616 0.806497 0.336561
Si Si7 0.591712 0.192537 0.675390
O O1 0.041745 0.762995 0.755214
O O2 0.000000 0.500000 0.817064
O O3 0.000000 0.758795 0.000000
O O4 0.256293 0.765332 0.500000
O O5 0.236598 0.500000 0.349490
O O6 0.285125 0.712007 0.228162
O O7 0.206311 0.775132 0.264015
O O8 0.637269 0.766251 0.270235
O O9 0.686604 0.000000 0.172925
O O10 0.666343 0.749568 0.000000
O O11 0.876045 0.276233 0.247588
O O12 0.909123 0.000000 0.155258
O O13 0.915231 0.274148 0.000000
O O14 0.500000 0.500000 0.179273
O O15 0.437376 0.329081 0.248875
O O16 0.436445 0.500000 0.000000
O O17 0.162172 0.726405 0.500000
O O18 0.153144 0.000000 0.345798
O O19 0.589437 0.215946 0.500000
O O20 0.579775 0.000000 0.718055
#
# Coordination Sequence:
#
# PCOD8199332 Si02
#       7
#     4   8   8   8   4   8   8
#     4   9  17  29  46  69  94 120 152 193 246 306
#     4  10  21  35  52  76 107 144 183 223 271 330
#     4  10  21  37  58  84 114 149 190 238 290 342
#     4   9  17  30  49  70  91 119 158 203 249 302
#     4  11  25  43  65  95 131 171 211 257 315 372
#     4   9  18  33  51  70  96 132 171 212 260 314
#     4  10  22  41  66  94 125 165 212 260 310 367
#
# _framework density 20.184685999999999
#
# number of rings (size 3 to 8) (size 9 to 14) (size 15 to 20)
#    0.000    2.333    0.000    2.000    1.167    6.333 
#    0.000    3.750    0.000    2.500    0.000    0.000 
#    0.000    0.000    0.000    0.000    0.000    0.000 
#
# Total GULP energy -594930.820134 kJ/mol
# GULP energy per Si atom -12394.392086 kJ/mol
# Density = 2.013874 g / cm^3
# Si number density = 20.184686 Si / 1000 Ang^3
#
#
#
# Elastic Constant Matrix: (Units=GPa)
#
#
# Indices 1 2 3 4 5 6 
#
# 1 138.2517 42.0847 54.8209 0.0000 0.0000 0.0000
# 2 42.0847 61.3449 37.8338 0.0000 0.0000 0.0000
# 3 54.8209 37.8338 93.3193 0.0000 0.0000 0.0000
# 4 0.0000 0.0000 0.0000 22.4269 0.0000 0.0000
# 5 0.0000 0.0000 0.0000 0.0000 31.3819 0.0000
# 6 0.0000 0.0000 0.0000 0.0000 0.0000 10.7798
#
#
#
# Elastic Compliance Matrix: (Units=1/GPa)
#
#
# Indices 1 2 3 4 5 6 
#
# 1 0.010259 -0.004428 -0.004231 0.000000 0.000000 0.000000
# 2 -0.004428 0.023648 -0.006986 0.000000 0.000000 0.000000
# 3 -0.004231 -0.006986 0.016034 0.000000 0.000000 0.000000
# 4 0.000000 0.000000 0.000000 0.044589 0.000000 0.000000
# 5 0.000000 0.000000 0.000000 0.000000 0.031865 0.000000
# 6 0.000000 0.000000 0.000000 0.000000 0.000000 0.092766
#
#
# Mechanical properties :
#
#
# Convention : Reuss Voigt Hill
#
# Bulk Modulus (GPa) = 53.62093 62.48827 58.05460
# Shear Modulus (GPa) = 19.48034 23.46283 21.47158
#
# Velocity S-wave (km/s) = 3.10998 3.41311 3.26507
# Velocity P-wave (km/s) = 6.28640 6.82333 6.56036
#
# Compressibility (1/GPa) = 0.01864943
#
# Stress axis : x y z
#
# Youngs Moduli (GPa) = 97.47453 42.28730 62.36805
#
# Poissons Ratio (x) = 0.18727 0.26390
# Poissons Ratio (y) = 0.43166 0.43569
# Poissons Ratio (z) = 0.41245 0.29541
#
# Static dielectric constant tensor:
#      x y z
#    x 3.768970 0.000000 0.000000 
#    y 0.000000 3.518450 0.000000 
#    z 0.000000 0.000000 3.856300 
# 
# 
# High freq. dielectric constant tensor:
#      x y z
#    x 1.799710 0.000000 0.000000 
#    y 0.000000 1.780730 0.000000 
#    z 0.000000 0.000000 1.769400 
# 
# From -- ./inp_files/13882.got.cif
#   From: 2010.03.12/outbox.cif.g09.slc.cpg/sg47_7_cif.got.tgz:13882.got - 2010.04.14 03:12:58.
