data_PCOD8199865
_publ_section_title
;
Structure prediction by ZEFSAII (Michael W. Deem and Ramdas Pophale) SiO2 
 PCOD8199865
Probable space group: P M M M
;
_chemical_formula_sum "Si O2"
_cell_formula_units_Z 48
_cell_length_a 8.516018
_cell_length_b 15.520027
_cell_length_c 17.771152
_cell_angle_alpha 90.000000
_cell_angle_beta 90.000000
_cell_angle_gamma 90.000000
_cell_volume 2348.792355
_symmetry_space_group_name_H-M "P M M M"
_symmetry_group_IT_number 47
_symmetry_cell_setting 'orthorhombic'
loop_
_space_group_symop_operation_xyz
x,y,z
-x,-y,z
x,-y,-z
-x,y,-z
-x,-y,-z
x,y,-z
-x,y,z
x,-y,z
loop_
_atom_site_type_symbol
_atom_site_label
_atom_site_fract_x
_atom_site_fract_y
_atom_site_fract_z
Si Si1 0.679147 0.500000 0.410906
Si Si2 0.185441 0.169479 0.084158
Si Si3 0.182396 0.663983 0.668183
Si Si4 0.682688 0.000000 0.672306
Si Si5 0.313249 0.500000 0.084740
Si Si6 0.317596 0.825909 0.412455
Si Si7 0.683572 0.330970 0.831259
Si Si8 0.184898 0.000000 0.163605
O O1 0.500000 0.500000 0.381138
O O2 0.683209 0.500000 0.500000
O O3 0.768348 0.584256 0.383038
O O4 0.227923 0.250189 0.134748
O O5 0.257347 0.084278 0.123304
O O6 0.000000 0.161688 0.079853
O O7 0.255974 0.178954 0.000000
O O8 0.212507 0.751785 0.623593
O O9 0.284788 0.662123 0.743246
O O10 0.000000 0.657433 0.689039
O O11 0.729412 0.083613 0.624539
O O12 0.778361 0.000000 0.748786
O O13 0.500000 0.000000 0.692218
O O14 0.500000 0.500000 0.084588
O O15 0.249999 0.416099 0.127900
O O16 0.246362 0.500000 0.000000
O O17 0.278142 0.832491 0.500000
O O18 0.500000 0.803860 0.398951
O O19 0.500000 0.319582 0.845856
O O20 0.000000 0.000000 0.153247
#
# Coordination Sequence:
#
# PCOD8199865 Si02
#       8
#     4   8   8   4   4   8   8   4
#     4  11  24  43  66  90 118 155 198 243 294 351
#     4  10  21  38  59  84 116 153 194 242 296 352
#     4  12  25  40  60  88 122 157 196 243 294 349
#     4  10  21  37  59  87 117 152 195 244 296 348
#     4   9  19  36  58  84 112 143 182 229 280 334
#     4  10  21  39  62  87 117 154 196 242 294 353
#     4  11  22  38  61  86 115 153 196 240 289 347
#     4  10  21  37  57  81 113 156 197 234 288 356
#
# _framework density 20.436032999999998
#
# number of rings (size 3 to 8) (size 9 to 14) (size 15 to 20)
#    0.000    1.500    0.000    5.250    0.000   10.667 
#    0.000    1.250    0.000    6.000    0.000    0.000 
#    0.000    0.000    0.000    0.000    0.000    0.000 
#
# Total GULP energy -595453.453362 kJ/mol
# GULP energy per Si atom -12405.280278 kJ/mol
# Density = 2.038952 g / cm^3
# Si number density = 20.436033 Si / 1000 Ang^3
#
#
#
# Elastic Constant Matrix: (Units=GPa)
#
#
# Indices 1 2 3 4 5 6 
#
# 1 35.2770 20.7383 10.4748 0.0000 0.0000 0.0000
# 2 20.7383 172.1351 54.7420 0.0000 0.0000 0.0000
# 3 10.4748 54.7420 126.6572 0.0000 0.0000 0.0000
# 4 0.0000 0.0000 0.0000 14.0704 0.0000 0.0000
# 5 0.0000 0.0000 0.0000 0.0000 22.1723 0.0000
# 6 0.0000 0.0000 0.0000 0.0000 0.0000 42.1337
#
#
#
# Elastic Compliance Matrix: (Units=1/GPa)
#
#
# Indices 1 2 3 4 5 6 
#
# 1 0.030637 -0.003345 -0.001088 0.000000 0.000000 0.000000
# 2 -0.003345 0.007100 -0.002792 0.000000 0.000000 0.000000
# 3 -0.001088 -0.002792 0.009192 0.000000 0.000000 0.000000
# 4 0.000000 0.000000 0.000000 0.071071 0.000000 0.000000
# 5 0.000000 0.000000 0.000000 0.000000 0.045101 0.000000
# 6 0.000000 0.000000 0.000000 0.000000 0.000000 0.023734
#
#
# Mechanical properties :
#
#
# Convention : Reuss Voigt Hill
#
# Bulk Modulus (GPa) = 30.78940 56.21993 43.50467
# Shear Modulus (GPa) = 23.57242 32.21621 27.89432
#
# Velocity S-wave (km/s) = 3.39997 3.97475 3.69854
# Velocity P-wave (km/s) = 5.52376 6.97386 6.29074
#
# Compressibility (1/GPa) = 0.03247871
#
# Stress axis : x y z
#
# Youngs Moduli (GPa) = 32.64074 140.83814 108.78906
#
# Poissons Ratio (x) = 0.47110 0.11836
# Poissons Ratio (y) = 0.10918 0.30376
# Poissons Ratio (z) = 0.03551 0.39324
#
# Static dielectric constant tensor:
#      x y z
#    x 3.501400 0.000000 0.000000 
#    y 0.000000 3.966490 0.000000 
#    z 0.000000 0.000000 3.836310 
# 
# 
# High freq. dielectric constant tensor:
#      x y z
#    x 1.780370 0.000000 0.000000 
#    y 0.000000 1.819700 0.000000 
#    z 0.000000 0.000000 1.816590 
# 
# From -- ./inp_files/26607.got.cif
#   From: 2010.03.12/outbox.cif.g09.slc.cpg/sg47_14_cif.got.tgz:26607.got - 2010.04.14 03:12:58.
