data_PCOD8199610
_publ_section_title
;
Structure prediction by ZEFSAII (Michael W. Deem and Ramdas Pophale) SiO2 
 PCOD8199610
Probable space group: P M M M
;
_chemical_formula_sum "Si O2"
_cell_formula_units_Z 52
_cell_length_a 8.632168
_cell_length_b 11.575698
_cell_length_c 28.602700
_cell_angle_alpha 90.000000
_cell_angle_beta 90.000000
_cell_angle_gamma 90.000000
_cell_volume 2858.078171
_symmetry_space_group_name_H-M "P M M M"
_symmetry_group_IT_number 47
_symmetry_cell_setting 'orthorhombic'
loop_
_space_group_symop_operation_xyz
x,y,z
-x,-y,z
x,-y,-z
-x,y,-z
-x,-y,-z
x,y,-z
-x,y,z
x,-y,z
loop_
_atom_site_type_symbol
_atom_site_label
_atom_site_fract_x
_atom_site_fract_y
_atom_site_fract_z
Si Si1 0.314647 0.630075 0.649695
Si Si2 0.177839 0.633850 0.818023
Si Si3 0.818359 0.235321 0.912463
Si Si4 0.682881 0.000000 0.881172
Si Si5 0.683150 0.368071 0.000000
Si Si6 0.680903 0.773035 0.737796
Si Si7 0.326618 0.362834 0.549469
Si Si8 0.180769 0.000000 0.222190
O O1 0.500000 0.627192 0.647914
O O2 0.253610 0.500000 0.660661
O O3 0.257039 0.718239 0.689332
O O4 0.248880 0.675724 0.598926
O O5 0.209655 0.500000 0.825764
O O6 0.222678 0.697503 0.865375
O O7 0.290717 0.679341 0.777969
O O8 0.000000 0.658945 0.804037
O O9 0.745300 0.304929 0.954573
O O10 0.000000 0.224001 0.920640
O O11 0.745468 0.109125 0.909419
O O12 0.500000 0.000000 0.882169
O O13 0.734176 0.000000 0.827317
O O14 0.743133 0.500000 0.000000
O O15 0.500000 0.362852 0.000000
O O16 0.500000 0.802935 0.735368
O O17 0.775890 0.888724 0.747486
O O18 0.242627 0.324533 0.500000
O O19 0.500000 0.312408 0.547617
O O20 0.333956 0.500000 0.551482
O O21 0.000000 0.000000 0.211124
#
# Coordination Sequence:
#
# PCOD8199610 Si02
#       8
#     8   8   8   4   4   8   8   4
#     4   8  14  24  39  66 104 138 169 210 262 318
#     4  10  21  36  55  80 111 146 181 216 259 318
#     4  11  23  41  65  89 116 153 189 224 269 322
#     4  12  24  41  65  92 116 141 180 230 277 321
#     4  11  25  44  65  92 125 155 187 231 274 315
#     4  11  21  33  52  77 104 138 176 222 274 320
#     4   7   9  15  30  54  89 134 174 204 245 309
#     4  12  24  40  57  75 103 141 182 225 268 322
#
# _framework density 18.194043000000001
#
# number of rings (size 3 to 8) (size 9 to 14) (size 15 to 20)
#    0.000    2.077    1.538    4.846    0.000    3.077 
#    0.000    1.538    0.000    0.000    0.000    0.538 
#    0.000    6.769    0.000   17.385    0.000   14.154 
#
# Total GULP energy -644489.032153 kJ/mol
# GULP energy per Si atom -12394.019849 kJ/mol
# Density = 1.815263 g / cm^3
# Si number density = 18.194043 Si / 1000 Ang^3
#
#
#
# Elastic Constant Matrix: (Units=GPa)
#
#
# Indices 1 2 3 4 5 6 
#
# 1 36.2679 29.6206 35.6806 0.0000 0.0000 0.0000
# 2 29.6206 120.8836 70.2968 0.0000 0.0000 0.0000
# 3 35.6806 70.2968 155.4195 0.0000 0.0000 0.0000
# 4 0.0000 0.0000 0.0000 46.8784 0.0000 0.0000
# 5 0.0000 0.0000 0.0000 0.0000 -10.1412 0.0000
# 6 0.0000 0.0000 0.0000 0.0000 0.0000 21.0835
#
#
#
# Elastic Compliance Matrix: (Units=1/GPa)
#
#
# Indices 1 2 3 4 5 6 
#
# 1 0.038408 -0.005812 -0.006189 0.000000 0.000000 0.000000
# 2 -0.005812 0.012104 -0.004140 0.000000 0.000000 0.000000
# 3 -0.006189 -0.004140 0.009728 0.000000 0.000000 0.000000
# 4 0.000000 0.000000 0.000000 0.021332 0.000000 0.000000
# 5 0.000000 0.000000 0.000000 0.000000 -0.098607 0.000000
# 6 0.000000 0.000000 0.000000 0.000000 0.000000 0.047430
#
#
# Mechanical properties :
#
#
# Convention : Reuss Voigt Hill
#
# Bulk Modulus (GPa) = 35.76896 64.86301 50.31599
# Shear Modulus (GPa) = 69.44688 23.36232 46.40460
#
# Velocity S-wave (km/s) = 6.18490 3.58727 5.05576
# Velocity P-wave (km/s) = 8.40871 7.27228 7.86106
#
# Compressibility (1/GPa) = 0.02795720
#
# Stress axis : x y z
#
# Youngs Moduli (GPa) = 26.03615 82.61405 102.79904
#
# Poissons Ratio (x) = 0.48019 0.63618
# Poissons Ratio (y) = 0.15133 0.42564
# Poissons Ratio (z) = 0.16113 0.34206
#
# Static dielectric constant tensor:
#      x y z
#    x 3.138310 0.000000 0.000000 
#    y 0.000000 3.330230 0.000000 
#    z 0.000000 0.000000 4.428440 
# 
# 
# High freq. dielectric constant tensor:
#      x y z
#    x 1.679980 0.000000 0.000000 
#    y 0.000000 1.688170 0.000000 
#    z 0.000000 0.000000 1.722360 
# 
# From -- ./inp_files/33327.got.cif
#   From: 2010.03.12/outbox.cif.g09.slc.cpg/sg47_17_cif.got.tgz:33327.got - 2010.04.14 03:12:58.
