data_PCOD8199266
_publ_section_title
;
Structure prediction by ZEFSAII (Michael W. Deem and Ramdas Pophale) SiO2 
 PCOD8199266
Probable space group: P M M M
;
_chemical_formula_sum "Si O2"
_cell_formula_units_Z 40
_cell_length_a 9.474393
_cell_length_b 25.387775
_cell_length_c 9.497779
_cell_angle_alpha 90.000000
_cell_angle_beta 90.000000
_cell_angle_gamma 90.000000
_cell_volume 2284.536473
_symmetry_space_group_name_H-M "P M M M"
_symmetry_group_IT_number 47
_symmetry_cell_setting 'orthorhombic'
loop_
_space_group_symop_operation_xyz
x,y,z
-x,-y,z
x,-y,-z
-x,y,-z
-x,-y,-z
x,y,-z
-x,y,z
x,-y,z
loop_
_atom_site_type_symbol
_atom_site_label
_atom_site_fract_x
_atom_site_fract_y
_atom_site_fract_z
Si Si1 0.163452 0.857982 0.664867
Si Si2 0.336887 0.756227 0.336548
Si Si3 0.841218 0.442126 0.167308
Si Si4 0.660300 0.061324 0.837789
Si Si5 0.335812 0.655274 0.836950
O O1 0.184480 0.867612 0.500000
O O2 0.243718 0.805360 0.713636
O O3 0.228890 0.907587 0.743754
O O4 0.000000 0.852374 0.705715
O O5 0.312988 0.743549 0.500000
O O6 0.500000 0.769358 0.304094
O O7 0.284192 0.706078 0.248627
O O8 0.790956 0.500000 0.221267
O O9 0.741580 0.396090 0.226682
O O10 0.000000 0.431255 0.219698
O O11 0.835098 0.441729 0.000000
O O12 0.500000 0.075181 0.792665
O O13 0.689888 0.000000 0.813757
O O14 0.683748 0.076585 0.000000
O O15 0.500000 0.645189 0.814225
O O16 0.298037 0.664696 0.000000
#
# Coordination Sequence:
#
# PCOD8199266 Si02
#       5
#     8   8   8   8   8
#     4  10  21  35  51  74 102 130 163 202 242 286
#     4   9  18  33  50  66  90 126 161 192 233 284
#     4   8  14  25  41  62  89 119 148 180 223 275
#     4   9  19  36  56  77 101 130 164 200 239 285
#     4   9  17  28  44  68  92 113 146 193 236 272
#
# _framework density 17.509022000000002
#
# number of rings (size 3 to 8) (size 9 to 14) (size 15 to 20)
#    0.000    3.000    0.000    1.800    0.000    4.400 
#    0.000    7.000    0.000    0.600    0.000    4.200 
#    0.000    0.000    0.000    0.000    0.000    0.000 
#
# Total GULP energy -495960.290828 kJ/mol
# GULP energy per Si atom -12399.007271 kJ/mol
# Density = 1.746917 g / cm^3
# Si number density = 17.509022 Si / 1000 Ang^3
#
#
#
# Elastic Constant Matrix: (Units=GPa)
#
#
# Indices 1 2 3 4 5 6 
#
# 1 96.4053 79.8388 38.7349 0.0000 0.0000 0.0000
# 2 79.8388 137.7282 50.6770 0.0000 0.0000 0.0000
# 3 38.7349 50.6770 40.4143 0.0000 0.0000 0.0000
# 4 0.0000 0.0000 0.0000 3.3909 0.0000 0.0000
# 5 0.0000 0.0000 0.0000 0.0000 21.3366 0.0000
# 6 0.0000 0.0000 0.0000 0.0000 0.0000 25.4646
#
#
#
# Elastic Compliance Matrix: (Units=1/GPa)
#
#
# Indices 1 2 3 4 5 6 
#
# 1 0.021692 -0.009143 -0.009326 0.000000 0.000000 0.000000
# 2 -0.009143 0.017334 -0.012973 0.000000 0.000000 0.000000
# 3 -0.009326 -0.012973 0.049949 0.000000 0.000000 0.000000
# 4 0.000000 0.000000 0.000000 0.294903 0.000000 0.000000
# 5 0.000000 0.000000 0.000000 0.000000 0.046868 0.000000
# 6 0.000000 0.000000 0.000000 0.000000 0.000000 0.039270
#
#
# Mechanical properties :
#
#
# Convention : Reuss Voigt Hill
#
# Bulk Modulus (GPa) = 38.32601 68.11657 53.22129
# Shear Modulus (GPa) = 9.23199 17.05824 13.14512
#
# Velocity S-wave (km/s) = 2.29873 3.12469 2.74298
# Velocity P-wave (km/s) = 5.38353 7.21155 6.36352
#
# Compressibility (1/GPa) = 0.02609194
#
# Stress axis : x y z
#
# Youngs Moduli (GPa) = 46.10089 57.69009 20.02049
#
# Poissons Ratio (x) = 0.52746 0.18670
# Poissons Ratio (y) = 0.42150 0.25972
# Poissons Ratio (z) = 0.42991 0.74840
#
# Static dielectric constant tensor:
#      x y z
#    x 3.287590 0.000000 0.000000 
#    y 0.000000 3.448880 0.000000 
#    z 0.000000 0.000000 2.998870 
# 
# 
# High freq. dielectric constant tensor:
#      x y z
#    x 1.674890 0.000000 0.000000 
#    y 0.000000 1.686860 0.000000 
#    z 0.000000 0.000000 1.648010 
# 
# From -- ./inp_files/1352.got.cif
#   From: 2010.03.12/outbox.cif.g09.slc.cpg/sg47_1_cif.got.tgz:1352.got - 2010.04.14 03:12:58.
