data_PCOD8199188
_publ_section_title
;
Structure prediction by ZEFSAII (Michael W. Deem and Ramdas Pophale) SiO2 
 PCOD8199188
Probable space group: P M M M
;
_chemical_formula_sum "Si O2"
_cell_formula_units_Z 52
_cell_length_a 33.390036
_cell_length_b 9.495472
_cell_length_c 9.409290
_cell_angle_alpha 90.000000
_cell_angle_beta 90.000000
_cell_angle_gamma 90.000000
_cell_volume 2983.254461
_symmetry_space_group_name_H-M "P M M M"
_symmetry_group_IT_number 47
_symmetry_cell_setting 'orthorhombic'
loop_
_space_group_symop_operation_xyz
x,y,z
-x,-y,z
x,-y,-z
-x,y,-z
-x,-y,-z
x,y,-z
-x,y,z
x,-y,z
loop_
_atom_site_type_symbol
_atom_site_label
_atom_site_fract_x
_atom_site_fract_y
_atom_site_fract_z
Si Si1 0.000000 0.340446 0.669025
Si Si2 0.924808 0.837728 0.334037
Si Si3 0.614686 0.155190 0.331530
Si Si4 0.769363 0.336768 0.833171
Si Si5 0.456062 0.342587 0.331085
Si Si6 0.846266 0.838197 0.164943
Si Si7 0.704461 0.163544 0.334047
O O1 0.960787 0.258841 0.724549
O O2 0.000000 0.500000 0.728145
O O3 0.000000 0.338919 0.500000
O O4 0.917231 0.812868 0.500000
O O5 0.885004 0.790982 0.252503
O O6 0.935802 0.000000 0.302587
O O7 0.610236 0.149145 0.500000
O O8 0.580016 0.252120 0.263409
O O9 0.659162 0.209553 0.293791
O O10 0.608522 0.000000 0.267369
O O11 0.772122 0.500000 0.789863
O O12 0.810008 0.260157 0.784436
O O13 0.732600 0.265056 0.754520
O O14 0.762533 0.317188 0.000000
O O15 0.452354 0.343990 0.500000
O O16 0.500000 0.281965 0.287746
O O17 0.451565 0.500000 0.271306
O O18 0.834723 0.000000 0.197638
O O19 0.856054 0.815966 0.000000
O O20 0.712830 0.186925 0.500000
O O21 0.711709 0.000000 0.294046
#
# Coordination Sequence:
#
# PCOD8199188 Si02
#       7
#     4   8   8   8   8   8   8
#     4   9  17  29  46  69  96 124 152 183 222 266
#     4   9  17  30  49  71  93 119 153 190 224 262
#     4   8  14  24  37  55  80 109 142 182 226 267
#     4  10  21  35  50  70  96 125 157 193 234 282
#     4   8  13  20  30  47  74 109 146 179 213 260
#     4   9  18  33  51  69  91 121 154 188 230 276
#     4   9  18  32  49  69  93 121 155 195 236 279
#
# _framework density 17.430627000000001
#
# number of rings (size 3 to 8) (size 9 to 14) (size 15 to 20)
#    0.000    3.154    0.000    2.077    0.000    4.308 
#    0.000    5.000    0.000    2.308    0.000    0.000 
#    0.000    0.615    0.000    6.769    0.000   11.077 
#
# Total GULP energy -644601.651641 kJ/mol
# GULP energy per Si atom -12396.185608 kJ/mol
# Density = 1.739095 g / cm^3
# Si number density = 17.430627 Si / 1000 Ang^3
#
#
#
# Elastic Constant Matrix: (Units=GPa)
#
#
# Indices 1 2 3 4 5 6 
#
# 1 181.9757 102.9108 42.7908 0.0000 0.0000 0.0000
# 2 102.9108 115.5610 31.1538 0.0000 0.0000 0.0000
# 3 42.7908 31.1538 24.6636 0.0000 0.0000 0.0000
# 4 0.0000 0.0000 0.0000 17.8189 0.0000 0.0000
# 5 0.0000 0.0000 0.0000 0.0000 -5.0408 0.0000
# 6 0.0000 0.0000 0.0000 0.0000 0.0000 23.2358
#
#
#
# Elastic Compliance Matrix: (Units=1/GPa)
#
#
# Indices 1 2 3 4 5 6 
#
# 1 0.013087 -0.008391 -0.012108 0.000000 0.000000 0.000000
# 2 -0.008391 0.018501 -0.008812 0.000000 0.000000 0.000000
# 3 -0.012108 -0.008812 0.072683 0.000000 0.000000 0.000000
# 4 0.000000 0.000000 0.000000 0.056120 0.000000 0.000000
# 5 0.000000 0.000000 0.000000 0.000000 -0.198383 0.000000
# 6 0.000000 0.000000 0.000000 0.000000 0.000000 0.043037
#
#
# Mechanical properties :
#
#
# Convention : Reuss Voigt Hill
#
# Bulk Modulus (GPa) = 21.90542 75.10125 48.50333
# Shear Modulus (GPa) = 63.38363 16.89244 40.13804
#
# Velocity S-wave (km/s) = 6.03675 3.11645 4.80388
# Velocity P-wave (km/s) = 7.82203 7.49193 7.65876
#
# Compressibility (1/GPa) = 0.04565080
#
# Stress axis : x y z
#
# Youngs Moduli (GPa) = 76.40931 54.05034 13.75832
#
# Poissons Ratio (x) = 0.45352 0.16658
# Poissons Ratio (y) = 0.64113 0.12124
# Poissons Ratio (z) = 0.92514 0.47630
#
# Static dielectric constant tensor:
#      x y z
#    x 3.458970 0.000000 0.000000 
#    y 0.000000 3.423960 0.000000 
#    z 0.000000 0.000000 2.784720 
# 
# 
# High freq. dielectric constant tensor:
#      x y z
#    x 1.687740 0.000000 0.000000 
#    y 0.000000 1.673010 0.000000 
#    z 0.000000 0.000000 1.622810 
# 
# From -- ./inp_files/20023.got.cif
#   From: 2010.03.12/outbox.cif.g09.slc.cpg/sg47_11_cif.got.tgz:20023.got - 2010.04.14 03:12:58.
