data_PCOD8199939
_publ_section_title
;
Structure prediction by ZEFSAII (Michael W. Deem and Ramdas Pophale) SiO2 
 PCOD8199939
Probable space group: P M M M
;
_chemical_formula_sum "Si O2"
_cell_formula_units_Z 48
_cell_length_a 13.881538
_cell_length_b 18.897174
_cell_length_c 9.450969
_cell_angle_alpha 90.000000
_cell_angle_beta 90.000000
_cell_angle_gamma 90.000000
_cell_volume 2479.195568
_symmetry_space_group_name_H-M "P M M M"
_symmetry_group_IT_number 47
_symmetry_cell_setting 'orthorhombic'
loop_
_space_group_symop_operation_xyz
x,y,z
-x,-y,z
x,-y,-z
-x,y,-z
-x,-y,-z
x,y,-z
-x,y,z
x,-y,z
loop_
_atom_site_type_symbol
_atom_site_label
_atom_site_fract_x
_atom_site_fract_y
_atom_site_fract_z
Si Si1 0.299459 0.659350 0.249635
Si Si2 0.109096 0.140754 0.835367
Si Si3 0.388489 0.578523 0.500000
Si Si4 0.390867 0.417253 0.000000
Si Si5 0.611409 0.193633 0.835608
Si Si6 0.723466 0.919162 0.336359
Si Si7 0.892341 0.283680 0.336820
O O1 0.362998 0.628101 0.371862
O O2 0.327902 0.739246 0.213722
O O3 0.185922 0.657722 0.289735
O O4 0.323597 0.606092 0.126238
O O5 0.176200 0.087226 0.748700
O O6 0.120362 0.217280 0.765709
O O7 0.000000 0.112845 0.822536
O O8 0.140686 0.145350 0.000000
O O9 0.337902 0.500000 0.500000
O O10 0.500000 0.563497 0.500000
O O11 0.404702 0.500000 0.000000
O O12 0.500000 0.382968 0.000000
O O13 0.500000 0.209503 0.809712
O O14 0.642224 0.127527 0.739802
O O15 0.632709 0.177069 0.000000
O O16 0.736588 0.895325 0.500000
O O17 0.688860 0.000000 0.328919
O O18 0.874225 0.260842 0.500000
O O19 0.000000 0.315740 0.319691
#
# Coordination Sequence:
#
# PCOD8199939 Si02
#       7
#     8   8   4   4   8   8   8
#     4  12  22  39  64  94 125 163 208 254 308 364
#     4  10  21  37  60  90 121 156 202 255 310 365
#     4  11  24  40  61  93 130 164 204 253 307 369
#     4  11  24  42  65  93 130 170 202 245 311 375
#     4  11  24  41  63  91 121 159 208 257 308 368
#     4  11  25  42  60  86 123 164 204 253 311 367
#     4  10  21  38  61  92 126 162 206 257 312 366
#
# _framework density 19.361118000000001
#
# number of rings (size 3 to 8) (size 9 to 14) (size 15 to 20)
#    0.000    1.167    3.333    3.000    2.333    4.667 
#    0.000    3.333    0.000    3.000    0.000    0.000 
#    0.000    0.000    0.000    0.000    0.000    0.000 
#
# Total GULP energy -595042.695557 kJ/mol
# GULP energy per Si atom -12396.722824 kJ/mol
# Density = 1.931705 g / cm^3
# Si number density = 19.361118 Si / 1000 Ang^3
#
#
#
# Elastic Constant Matrix: (Units=GPa)
#
#
# Indices 1 2 3 4 5 6 
#
# 1 117.2375 38.9367 48.2665 0.0000 0.0000 0.0000
# 2 38.9367 68.8673 41.2913 0.0000 0.0000 0.0000
# 3 48.2665 41.2913 162.7439 0.0000 0.0000 0.0000
# 4 0.0000 0.0000 0.0000 44.7693 0.0000 0.0000
# 5 0.0000 0.0000 0.0000 0.0000 13.7365 0.0000
# 6 0.0000 0.0000 0.0000 0.0000 0.0000 12.0736
#
#
#
# Elastic Compliance Matrix: (Units=1/GPa)
#
#
# Indices 1 2 3 4 5 6 
#
# 1 0.011023 -0.005038 -0.001991 0.000000 0.000000 0.000000
# 2 -0.005038 0.019429 -0.003435 0.000000 0.000000 0.000000
# 3 -0.001991 -0.003435 0.007607 0.000000 0.000000 0.000000
# 4 0.000000 0.000000 0.000000 0.022337 0.000000 0.000000
# 5 0.000000 0.000000 0.000000 0.000000 0.072799 0.000000
# 6 0.000000 0.000000 0.000000 0.000000 0.000000 0.082825
#
#
# Mechanical properties :
#
#
# Convention : Reuss Voigt Hill
#
# Bulk Modulus (GPa) = 58.37897 67.31532 62.84714
# Shear Modulus (GPa) = 20.60515 28.80616 24.70565
#
# Velocity S-wave (km/s) = 3.26583 3.86143 3.57605
# Velocity P-wave (km/s) = 6.66626 7.39761 7.04144
#
# Compressibility (1/GPa) = 0.01712946
#
# Stress axis : x y z
#
# Youngs Moduli (GPa) = 90.72237 51.46933 131.46453
#
# Poissons Ratio (x) = 0.25933 0.26171
# Poissons Ratio (y) = 0.45710 0.45161
# Poissons Ratio (z) = 0.18060 0.17681
#
# Static dielectric constant tensor:
#      x y z
#    x 3.837450 0.000000 0.000000 
#    y 0.000000 3.363360 0.000000 
#    z 0.000000 0.000000 3.996550 
# 
# 
# High freq. dielectric constant tensor:
#      x y z
#    x 1.761650 0.000000 0.000000 
#    y 0.000000 1.734360 0.000000 
#    z 0.000000 0.000000 1.775920 
# 
# From -- ./inp_files/6458.got.cif
#   From: 2010.03.12/outbox.cif.g09.slc.cpg/sg47_4_cif.got.tgz:6458.got - 2010.04.14 03:12:58.
