data_PCOD8199054
_publ_section_title
;
Structure prediction by ZEFSAII (Michael W. Deem and Ramdas Pophale) SiO2 
 PCOD8199054
Probable space group: P M M M
;
_chemical_formula_sum "Si O2"
_cell_formula_units_Z 52
_cell_length_a 14.323143
_cell_length_b 21.108452
_cell_length_c 9.725274
_cell_angle_alpha 90.000000
_cell_angle_beta 90.000000
_cell_angle_gamma 90.000000
_cell_volume 2940.333277
_symmetry_space_group_name_H-M "P M M M"
_symmetry_group_IT_number 47
_symmetry_cell_setting 'orthorhombic'
loop_
_space_group_symop_operation_xyz
x,y,z
-x,-y,z
x,-y,-z
-x,y,-z
-x,-y,-z
x,y,-z
-x,y,z
x,-y,z
loop_
_atom_site_type_symbol
_atom_site_label
_atom_site_fract_x
_atom_site_fract_y
_atom_site_fract_z
Si Si1 0.395395 0.637867 0.656263
Si Si2 0.897160 0.814894 0.836563
Si Si3 0.392536 0.000000 0.835630
Si Si4 0.212027 0.571071 0.341784
Si Si5 0.712584 0.123469 0.163314
Si Si6 0.890148 0.327405 0.155495
Si Si7 0.609450 0.247177 0.844464
O O1 0.395241 0.662893 0.500000
O O2 0.500000 0.615701 0.698906
O O3 0.323847 0.580026 0.674962
O O4 0.358460 0.694376 0.751974
O O5 0.820265 0.866542 0.786581
O O6 0.866334 0.743838 0.791642
O O7 0.000000 0.832392 0.776061
O O8 0.903533 0.814646 0.000000
O O9 0.335822 0.939518 0.776111
O O10 0.500000 0.000000 0.782347
O O11 0.393060 0.000000 0.000000
O O12 0.182488 0.580741 0.500000
O O13 0.187906 0.500000 0.292519
O O14 0.156856 0.621331 0.252469
O O15 0.654862 0.183730 0.215692
O O16 0.708805 0.119337 0.000000
O O17 0.000000 0.338109 0.161360
O O18 0.853421 0.337089 0.000000
O O19 0.500000 0.236791 0.837948
O O20 0.643568 0.260484 0.000000
#
# Coordination Sequence:
#
# PCOD8199054 Si02
#       7
#     8   8   4   8   8   8   8
#     4   9  18  32  48  66  89 117 150 188 228 269
#     4   8  14  25  41  60  80 104 139 180 218 258
#     4   9  16  24  33  51  84 120 149 176 210 256
#     4  10  21  34  47  66  92 121 151 183 223 271
#     4   9  15  23  37  57  83 114 143 175 217 258
#     4   9  18  33  52  71  90 115 148 186 228 273
#     4   9  16  26  43  66  87 109 143 186 228 267
#
# _framework density 17.685071000000001
#
# number of rings (size 3 to 8) (size 9 to 14) (size 15 to 20)
#    0.000    3.000    0.000    2.308    0.000    4.923 
#    0.000    3.462    0.000    2.308    0.000    3.769 
#    0.000    3.077    0.000    0.000    0.000   25.692 
#
# Total GULP energy -644451.170300 kJ/mol
# GULP energy per Si atom -12393.291737 kJ/mol
# Density = 1.764482 g / cm^3
# Si number density = 17.685071 Si / 1000 Ang^3
#
#
#
# Elastic Constant Matrix: (Units=GPa)
#
#
# Indices 1 2 3 4 5 6 
#
# 1 89.4676 72.4862 23.3216 0.0000 0.0000 0.0000
# 2 72.4862 104.4127 26.4359 0.0000 0.0000 0.0000
# 3 23.3216 26.4359 32.8447 0.0000 0.0000 0.0000
# 4 0.0000 0.0000 0.0000 -2.6073 0.0000 0.0000
# 5 0.0000 0.0000 0.0000 0.0000 17.3613 0.0000
# 6 0.0000 0.0000 0.0000 0.0000 0.0000 27.9937
#
#
#
# Elastic Compliance Matrix: (Units=1/GPa)
#
#
# Indices 1 2 3 4 5 6 
#
# 1 0.026177 -0.016914 -0.004974 0.000000 0.000000 0.000000
# 2 -0.016914 0.022957 -0.006468 0.000000 0.000000 0.000000
# 3 -0.004974 -0.006468 0.039184 0.000000 0.000000 0.000000
# 4 0.000000 0.000000 0.000000 -0.383545 0.000000 0.000000
# 5 0.000000 0.000000 0.000000 0.000000 0.057599 0.000000
# 6 0.000000 0.000000 0.000000 0.000000 0.000000 0.035722
#
#
# Mechanical properties :
#
#
# Convention : Reuss Voigt Hill
#
# Bulk Modulus (GPa) = 31.63830 52.35694 41.99762
# Shear Modulus (GPa) = -37.13084 15.51495 -10.80795
#
# Velocity S-wave (km/s) = -4.58706 2.96512 -2.47479
# Velocity P-wave (km/s) = 3.18217 6.43366 3.95385
#
# Compressibility (1/GPa) = 0.03160726
#
# Stress axis : x y z
#
# Youngs Moduli (GPa) = 38.20139 43.56009 25.52067
#
# Poissons Ratio (x) = 0.73675 0.12694
# Poissons Ratio (y) = 0.64612 0.16506
# Poissons Ratio (z) = 0.19001 0.28174
#
# Static dielectric constant tensor:
#      x y z
#    x 3.572570 0.000000 0.000000 
#    y 0.000000 3.312070 0.000000 
#    z 0.000000 0.000000 2.937380 
# 
# 
# High freq. dielectric constant tensor:
#      x y z
#    x 1.701680 0.000000 0.000000 
#    y 0.000000 1.672630 0.000000 
#    z 0.000000 0.000000 1.630480 
# 
# From -- ./inp_files/7105.got.cif
#   From: 2010.03.12/outbox.cif.g09.slc.cpg/sg47_4_cif.got.tgz:7105.got - 2010.04.14 03:12:58.
