data_PCOD8199276
_publ_section_title
;
Structure prediction by ZEFSAII (Michael W. Deem and Ramdas Pophale) SiO2 
 PCOD8199276
Probable space group: P M M M
;
_chemical_formula_sum "Si O2"
_cell_formula_units_Z 48
_cell_length_a 9.519301
_cell_length_b 7.629226
_cell_length_c 34.572597
_cell_angle_alpha 90.000000
_cell_angle_beta 90.000000
_cell_angle_gamma 90.000000
_cell_volume 2510.831355
_symmetry_space_group_name_H-M "P M M M"
_symmetry_group_IT_number 47
_symmetry_cell_setting 'orthorhombic'
loop_
_space_group_symop_operation_xyz
x,y,z
-x,-y,z
x,-y,-z
-x,y,-z
-x,-y,-z
x,y,-z
-x,y,z
x,-y,z
loop_
_atom_site_type_symbol
_atom_site_label
_atom_site_fract_x
_atom_site_fract_y
_atom_site_fract_z
Si Si1 0.666487 0.000000 0.671598
Si Si2 0.845391 0.299365 0.113339
Si Si3 0.157180 0.292144 0.457483
Si Si4 0.343206 0.792986 0.043441
Si Si5 0.663893 0.296363 0.184487
Si Si6 0.665852 0.000000 0.242564
Si Si7 0.664890 0.298761 0.385663
O O1 0.733860 0.000000 0.714577
O O2 0.716028 0.823684 0.649606
O O3 0.500000 0.000000 0.674518
O O4 0.867013 0.500000 0.123285
O O5 0.771499 0.284985 0.071985
O O6 0.747870 0.221756 0.147285
O O7 0.000000 0.207866 0.112404
O O8 0.204134 0.222205 0.500000
O O9 0.159341 0.500000 0.458084
O O10 0.262160 0.224756 0.424465
O O11 0.000000 0.224716 0.448175
O O12 0.500000 0.725769 0.054328
O O13 0.339129 0.000000 0.046194
O O14 0.305415 0.731230 0.000000
O O15 0.500000 0.268985 0.175213
O O16 0.695847 0.500000 0.194170
O O17 0.713299 0.177078 0.220472
O O18 0.500000 0.000000 0.246473
O O19 0.500000 0.281601 0.392706
O O20 0.707388 0.500000 0.376248
#
# Coordination Sequence:
#
# PCOD8199276 Si02
#       7
#     4   8   8   8   8   4   8
#     4   9  18  32  48  72 103 125 155 204 248 294
#     4  10  21  35  51  74 104 135 165 202 250 300
#     4   8  14  26  45  68  94 126 164 204 244 285
#     4   9  19  35  53  74 101 134 172 211 247 286
#     4   9  18  33  53  77 102 128 164 208 250 296
#     4   9  18  32  53  78  99 126 162 202 250 299
#     4   9  17  29  47  70  96 129 163 197 243 293
#
# _framework density 19.117175
#
# number of rings (size 3 to 8) (size 9 to 14) (size 15 to 20)
#    0.000    3.000    0.000    1.500    1.167    3.000 
#    0.000    8.333    0.000    4.500    0.000    4.667 
#    0.000    0.000    0.000    0.000    0.000    0.000 
#
# Total GULP energy -594896.269732 kJ/mol
# GULP energy per Si atom -12393.672286 kJ/mol
# Density = 1.907366 g / cm^3
# Si number density = 19.117175 Si / 1000 Ang^3
#
#
#
# Elastic Constant Matrix: (Units=GPa)
#
#
# Indices 1 2 3 4 5 6 
#
# 1 81.0608 28.3082 70.6313 0.0000 0.0000 0.0000
# 2 28.3082 70.9568 53.0133 0.0000 0.0000 0.0000
# 3 70.6313 53.0133 178.4949 0.0000 0.0000 0.0000
# 4 0.0000 0.0000 0.0000 17.4040 0.0000 0.0000
# 5 0.0000 0.0000 0.0000 0.0000 7.3456 0.0000
# 6 0.0000 0.0000 0.0000 0.0000 0.0000 8.9979
#
#
#
# Elastic Compliance Matrix: (Units=1/GPa)
#
#
# Indices 1 2 3 4 5 6 
#
# 1 0.019180 -0.002547 -0.006833 0.000000 0.000000 0.000000
# 2 -0.002547 0.018450 -0.004472 0.000000 0.000000 0.000000
# 3 -0.006833 -0.004472 0.009635 0.000000 0.000000 0.000000
# 4 0.000000 0.000000 0.000000 0.057458 0.000000 0.000000
# 5 0.000000 0.000000 0.000000 0.000000 0.136136 0.000000
# 6 0.000000 0.000000 0.000000 0.000000 0.000000 0.111137
#
#
# Mechanical properties :
#
#
# Convention : Reuss Voigt Hill
#
# Bulk Modulus (GPa) = 51.12242 70.49090 60.80666
# Shear Modulus (GPa) = 12.94599 18.65348 15.79974
#
# Velocity S-wave (km/s) = 2.60511 3.12708 2.87795
# Velocity P-wave (km/s) = 5.98736 7.07045 6.55133
#
# Compressibility (1/GPa) = 0.01956089
#
# Stress axis : x y z
#
# Youngs Moduli (GPa) = 52.13833 54.19999 103.79321
#
# Poissons Ratio (x) = 0.13802 0.70924
# Poissons Ratio (y) = 0.13277 0.46417
# Poissons Ratio (z) = 0.35627 0.24239
#
# Static dielectric constant tensor:
#      x y z
#    x 3.572440 0.000000 0.000000 
#    y 0.000000 3.400540 0.000000 
#    z 0.000000 0.000000 3.865310 
# 
# 
# High freq. dielectric constant tensor:
#      x y z
#    x 1.717750 0.000000 0.000000 
#    y 0.000000 1.736480 0.000000 
#    z 0.000000 0.000000 1.741520 
# 
# From -- ./inp_files/34069.got.cif
#   From: 2010.03.12/outbox.cif.g09.slc.cpg/sg47_18_cif.got.tgz:34069.got - 2010.04.14 03:12:58.
