data_PCOD8199142
_publ_section_title
;
Structure prediction by ZEFSAII (Michael W. Deem and Ramdas Pophale) SiO2 
 PCOD8199142
Probable space group: P M M M
;
_chemical_formula_sum "Si O2"
_cell_formula_units_Z 48
_cell_length_a 24.147965
_cell_length_b 13.566527
_cell_length_c 9.249271
_cell_angle_alpha 90.000000
_cell_angle_beta 90.000000
_cell_angle_gamma 90.000000
_cell_volume 3030.098354
_symmetry_space_group_name_H-M "P M M M"
_symmetry_group_IT_number 47
_symmetry_cell_setting 'orthorhombic'
loop_
_space_group_symop_operation_xyz
x,y,z
-x,-y,z
x,-y,-z
-x,y,-z
-x,-y,-z
x,y,-z
-x,y,z
x,-y,z
loop_
_atom_site_type_symbol
_atom_site_label
_atom_site_fract_x
_atom_site_fract_y
_atom_site_fract_z
Si Si1 0.937224 0.803140 0.329567
Si Si2 0.224509 0.723394 0.669849
Si Si3 0.836618 0.112975 0.833415
Si Si4 0.439395 0.382928 0.837025
Si Si5 0.883330 0.392913 0.669256
Si Si6 0.666152 0.387456 0.329706
O O1 0.924537 0.813686 0.500000
O O2 0.896145 0.874343 0.243558
O O3 0.926851 0.690010 0.278301
O O4 0.000000 0.833175 0.293008
O O5 0.224379 0.748184 0.500000
O O6 0.211069 0.823011 0.756600
O O7 0.178619 0.641531 0.707704
O O8 0.283053 0.680208 0.722302
O O9 0.818318 0.000000 0.819563
O O10 0.842255 0.145273 0.000000
O O11 0.500000 0.344649 0.783611
O O12 0.439392 0.500000 0.830098
O O13 0.390040 0.341865 0.737327
O O14 0.428816 0.346499 0.000000
O O15 0.889694 0.406203 0.500000
O O16 0.894711 0.500000 0.743145
O O17 0.659814 0.383911 0.500000
O O18 0.676382 0.500000 0.277878
#
# Coordination Sequence:
#
# PCOD8199142 Si02
#       6
#     8   8   8   8   8   8
#     4   9  18  31  47  68  89 109 137 170 204 247
#     4   9  17  29  45  65  87 110 139 174 211 253
#     4  10  21  35  49  64  82 106 136 172 216 260
#     4   8  14  24  36  52  80 120 160 189 211 239
#     4   8  13  23  41  63  86 111 137 166 199 236
#     4   9  16  25  40  64  91 117 146 180 214 246
#
# _framework density 15.841070999999999
#
# number of rings (size 3 to 8) (size 9 to 14) (size 15 to 20)
#    0.000    3.167    0.000    2.500    0.000    5.333 
#    0.000    5.000    0.000   12.000    0.000    4.667 
#    0.000    0.667    0.000    7.333    0.000    5.667 
#
# Total GULP energy -594882.695729 kJ/mol
# GULP energy per Si atom -12393.389494 kJ/mol
# Density = 1.580502 g / cm^3
# Si number density = 15.841071 Si / 1000 Ang^3
#
#
#
# Elastic Constant Matrix: (Units=GPa)
#
#
# Indices 1 2 3 4 5 6 
#
# 1 124.5252 31.3068 44.3930 0.0000 0.0000 0.0000
# 2 31.3068 66.3908 29.8478 0.0000 0.0000 0.0000
# 3 44.3930 29.8478 50.5017 0.0000 0.0000 0.0000
# 4 0.0000 0.0000 0.0000 16.0409 0.0000 0.0000
# 5 0.0000 0.0000 0.0000 0.0000 19.2831 0.0000
# 6 0.0000 0.0000 0.0000 0.0000 0.0000 17.6867
#
#
#
# Elastic Compliance Matrix: (Units=1/GPa)
#
#
# Indices 1 2 3 4 5 6 
#
# 1 0.011768 -0.001224 -0.009621 0.000000 0.000000 0.000000
# 2 -0.001224 0.020640 -0.011123 0.000000 0.000000 0.000000
# 3 -0.009621 -0.011123 0.034833 0.000000 0.000000 0.000000
# 4 0.000000 0.000000 0.000000 0.062340 0.000000 0.000000
# 5 0.000000 0.000000 0.000000 0.000000 0.051859 0.000000
# 6 0.000000 0.000000 0.000000 0.000000 0.000000 0.056540
#
#
# Mechanical properties :
#
#
# Convention : Reuss Voigt Hill
#
# Bulk Modulus (GPa) = 42.90984 50.27922 46.59453
# Shear Modulus (GPa) = 17.26012 19.66016 18.46014
#
# Velocity S-wave (km/s) = 3.30446 3.52673 3.41740
# Velocity P-wave (km/s) = 6.45800 6.95647 6.71186
#
# Compressibility (1/GPa) = 0.02330468
#
# Stress axis : x y z
#
# Youngs Moduli (GPa) = 84.97479 48.44938 28.70836
#
# Poissons Ratio (x) = 0.05929 0.27622
# Poissons Ratio (y) = 0.10399 0.31933
# Poissons Ratio (z) = 0.81758 0.53891
#
# Static dielectric constant tensor:
#      x y z
#    x 3.241370 0.000000 0.000000 
#    y 0.000000 2.877830 0.000000 
#    z 0.000000 0.000000 2.877200 
# 
# 
# High freq. dielectric constant tensor:
#      x y z
#    x 1.606890 0.000000 0.000000 
#    y 0.000000 1.577400 0.000000 
#    z 0.000000 0.000000 1.590030 
# 
# From -- ./inp_files/7491.got.cif
#   From: 2010.03.12/outbox.cif.g09.slc.cpg/sg47_4_cif.got.tgz:7491.got - 2010.04.14 03:12:58.
