data_PCOD8199989
_publ_section_title
;
Structure prediction by ZEFSAII (Michael W. Deem and Ramdas Pophale) SiO2 
 PCOD8199989
Probable space group: P M M M
;
_chemical_formula_sum "Si O2"
_cell_formula_units_Z 52
_cell_length_a 18.513786
_cell_length_b 8.181765
_cell_length_c 16.999589
_cell_angle_alpha 90.000000
_cell_angle_beta 90.000000
_cell_angle_gamma 90.000000
_cell_volume 2575.020331
_symmetry_space_group_name_H-M "P M M M"
_symmetry_group_IT_number 47
_symmetry_cell_setting 'orthorhombic'
loop_
_space_group_symop_operation_xyz
x,y,z
-x,-y,z
x,-y,-z
-x,y,-z
-x,-y,-z
x,y,-z
-x,y,z
x,-y,z
loop_
_atom_site_type_symbol
_atom_site_label
_atom_site_fract_x
_atom_site_fract_y
_atom_site_fract_z
Si Si1 0.422463 0.687293 0.406937
Si Si2 0.000000 0.692757 0.410421
Si Si3 0.418769 0.500000 0.906741
Si Si4 0.726044 0.809862 0.587368
Si Si5 0.673604 0.813663 0.092519
Si Si6 0.139771 0.806392 0.317890
Si Si7 0.833368 0.188856 0.854839
Si Si8 0.078504 0.312739 0.000000
O O1 0.423016 0.709818 0.500000
O O2 0.500000 0.755399 0.374369
O O3 0.415034 0.500000 0.382513
O O4 0.352533 0.780187 0.372248
O O5 0.069477 0.755920 0.365048
O O6 0.000000 0.500000 0.410925
O O7 0.000000 0.760755 0.500000
O O8 0.500000 0.500000 0.872011
O O9 0.380544 0.669566 0.878570
O O10 0.421098 0.500000 0.000000
O O11 0.728722 0.730052 0.500000
O O12 0.789680 0.730676 0.639154
O O13 0.739968 0.000000 0.580441
O O14 0.747878 0.781920 0.138256
O O15 0.644655 0.000000 0.110607
O O16 0.688840 0.797093 0.000000
O O17 0.139067 0.739374 0.228683
O O18 0.145880 0.000000 0.315009
O O19 0.876029 0.277126 0.922884
O O20 0.852153 0.000000 0.862702
O O21 0.061309 0.500000 0.000000
O O22 0.000000 0.221176 0.000000
#
# Coordination Sequence:
#
# PCOD8199989 Si02
#       8
#     8   4   4   8   8   8   8   4
#     4   8  14  25  43  69 101 137 176 218 267 326
#     4  11  25  43  61  84 117 154 193 237 288 341
#     4   9  18  30  50  82 114 150 194 245 301 351
#     4   9  17  30  50  77 107 138 178 228 277 327
#     4   9  17  31  53  81 112 150 195 242 294 356
#     4  10  22  39  60  85 112 147 192 238 285 339
#     4  10  21  38  60  85 113 150 194 237 287 347
#     4  11  25  39  57  87 119 152 185 230 292 350
#
# _framework density 20.194015
#
# number of rings (size 3 to 8) (size 9 to 14) (size 15 to 20)
#    0.000    2.538    0.769    1.385    2.154    3.692 
#    0.000    4.615    0.000    0.923    0.000    4.308 
#    0.000    0.000    0.000    0.000    0.000    0.000 
#
# Total GULP energy -644384.622314 kJ/mol
# GULP energy per Si atom -12392.011968 kJ/mol
# Density = 2.014805 g / cm^3
# Si number density = 20.194015 Si / 1000 Ang^3
#
#
#
# Elastic Constant Matrix: (Units=GPa)
#
#
# Indices 1 2 3 4 5 6 
#
# 1 170.4831 41.2205 71.0135 0.0000 0.0000 0.0000
# 2 41.2205 63.5124 27.0307 0.0000 0.0000 0.0000
# 3 71.0135 27.0307 112.0752 0.0000 0.0000 0.0000
# 4 0.0000 0.0000 0.0000 8.6401 0.0000 0.0000
# 5 0.0000 0.0000 0.0000 0.0000 25.3369 0.0000
# 6 0.0000 0.0000 0.0000 0.0000 0.0000 39.8049
#
#
#
# Elastic Compliance Matrix: (Units=1/GPa)
#
#
# Indices 1 2 3 4 5 6 
#
# 1 0.008673 -0.003666 -0.004611 0.000000 0.000000 0.000000
# 2 -0.003666 0.019096 -0.002283 0.000000 0.000000 0.000000
# 3 -0.004611 -0.002283 0.012395 0.000000 0.000000 0.000000
# 4 0.000000 0.000000 0.000000 0.115739 0.000000 0.000000
# 5 0.000000 0.000000 0.000000 0.000000 0.039468 0.000000
# 6 0.000000 0.000000 0.000000 0.000000 0.000000 0.025123
#
#
# Mechanical properties :
#
#
# Convention : Reuss Voigt Hill
#
# Bulk Modulus (GPa) = 52.51099 69.40001 60.95550
# Shear Modulus (GPa) = 20.16447 28.54347 24.35397
#
# Velocity S-wave (km/s) = 3.16339 3.76368 3.47652
# Velocity P-wave (km/s) = 6.27714 7.30262 6.80921
#
# Compressibility (1/GPa) = 0.01904363
#
# Stress axis : x y z
#
# Youngs Moduli (GPa) = 115.30216 52.36727 80.67917
#
# Poissons Ratio (x) = 0.19200 0.37202
# Poissons Ratio (y) = 0.42274 0.18415
# Poissons Ratio (z) = 0.53167 0.11953
#
# Static dielectric constant tensor:
#      x y z
#    x 3.838740 0.000000 0.000000 
#    y 0.000000 3.609670 0.000000 
#    z 0.000000 0.000000 3.661110 
# 
# 
# High freq. dielectric constant tensor:
#      x y z
#    x 1.802050 0.000000 0.000000 
#    y 0.000000 1.775160 0.000000 
#    z 0.000000 0.000000 1.761670 
# 
# From -- ./inp_files/28537.got.cif
#   From: 2010.03.12/outbox.cif.g09.slc.cpg/sg47_15_cif.got.tgz:28537.got - 2010.04.14 03:12:58.
