data_PCOD8199992
_publ_section_title
;
Structure prediction by ZEFSAII (Michael W. Deem and Ramdas Pophale) SiO2 
 PCOD8199992
Probable space group: P M M M
;
_chemical_formula_sum "Si O2"
_cell_formula_units_Z 48
_cell_length_a 29.081479
_cell_length_b 8.920675
_cell_length_c 9.521327
_cell_angle_alpha 90.000000
_cell_angle_beta 90.000000
_cell_angle_gamma 90.000000
_cell_volume 2470.083803
_symmetry_space_group_name_H-M "P M M M"
_symmetry_group_IT_number 47
_symmetry_cell_setting 'orthorhombic'
loop_
_space_group_symop_operation_xyz
x,y,z
-x,-y,z
x,-y,-z
-x,y,-z
-x,-y,-z
x,y,-z
-x,y,z
x,-y,z
loop_
_atom_site_type_symbol
_atom_site_label
_atom_site_fract_x
_atom_site_fract_y
_atom_site_fract_z
Si Si1 0.050193 0.176187 0.500000
Si Si2 0.109004 0.823221 0.758994
Si Si3 0.200183 0.674624 0.336563
Si Si4 0.628528 0.822781 0.338921
Si Si5 0.553537 0.673682 0.840608
Si Si6 0.291050 0.324794 0.162778
Si Si7 0.052259 0.323213 0.000000
O O1 0.079817 0.230171 0.371728
O O2 0.000000 0.254058 0.500000
O O3 0.043583 0.000000 0.500000
O O4 0.161115 0.772198 0.737840
O O5 0.082525 0.732901 0.874211
O O6 0.108116 0.000000 0.789269
O O7 0.206786 0.720756 0.500000
O O8 0.187732 0.500000 0.323940
O O9 0.245357 0.714866 0.248881
O O10 0.633308 0.764023 0.500000
O O11 0.580151 0.771394 0.274042
O O12 0.668089 0.760032 0.239319
O O13 0.631041 0.000000 0.336745
O O14 0.500000 0.705352 0.817577
O O15 0.565173 0.500000 0.815636
O O16 0.567826 0.718352 0.000000
O O17 0.301892 0.500000 0.169690
O O18 0.286245 0.272864 0.000000
O O19 0.049228 0.500000 0.000000
O O20 0.000000 0.256392 0.000000
#
# Coordination Sequence:
#
# PCOD8199992 Si02
#       7
#     4   8   8   8   8   8   4
#     4   9  18  34  57  85 117 151 189 233 282 339
#     4  11  22  38  61  89 120 155 194 239 291 348
#     4  10  21  38  60  87 121 157 193 237 291 352
#     4  11  24  39  56  84 122 160 198 246 300 352
#     4   9  19  37  61  88 118 155 201 250 297 351
#     4  10  22  40  63  89 115 151 198 245 294 350
#     4  11  25  43  61  85 119 157 197 243 292 343
#
# _framework density 19.432539999999999
#
# number of rings (size 3 to 8) (size 9 to 14) (size 15 to 20)
#    0.000    1.833    0.833    3.250    1.167    7.333 
#    0.000    2.500    0.000    2.000    0.000    0.000 
#    0.000    0.000    0.000    0.000    0.000    0.000 
#
# Total GULP energy -595086.019536 kJ/mol
# GULP energy per Si atom -12397.625407 kJ/mol
# Density = 1.938831 g / cm^3
# Si number density = 19.432540 Si / 1000 Ang^3
#
#
#
# Elastic Constant Matrix: (Units=GPa)
#
#
# Indices 1 2 3 4 5 6 
#
# 1 127.5345 44.3691 74.3526 0.0000 0.0000 0.0000
# 2 44.3691 54.6896 45.9886 0.0000 0.0000 0.0000
# 3 74.3526 45.9886 162.1237 0.0000 0.0000 0.0000
# 4 0.0000 0.0000 0.0000 44.6890 0.0000 0.0000
# 5 0.0000 0.0000 0.0000 0.0000 31.5832 0.0000
# 6 0.0000 0.0000 0.0000 0.0000 0.0000 -215.5278
#
#
#
# Elastic Compliance Matrix: (Units=1/GPa)
#
#
# Indices 1 2 3 4 5 6 
#
# 1 0.012434 -0.006950 -0.003731 0.000000 0.000000 0.000000
# 2 -0.006950 0.027898 -0.004726 0.000000 0.000000 0.000000
# 3 -0.003731 -0.004726 0.009220 0.000000 0.000000 0.000000
# 4 0.000000 0.000000 0.000000 0.022377 0.000000 0.000000
# 5 0.000000 0.000000 0.000000 0.000000 0.031662 0.000000
# 6 0.000000 0.000000 0.000000 0.000000 0.000000 -0.004640
#
#
# Mechanical properties :
#
#
# Convention : Reuss Voigt Hill
#
# Bulk Modulus (GPa) = 53.36992 74.86317 64.11654
# Shear Modulus (GPa) = 36.76147 -15.87530 10.44309
#
# Velocity S-wave (km/s) = 4.35414 -2.86132 2.32071
# Velocity P-wave (km/s) = 7.26649 5.26232 6.34405
#
# Compressibility (1/GPa) = 0.01873715
#
# Stress axis : x y z
#
# Youngs Moduli (GPa) = 80.42339 35.84496 108.46189
#
# Poissons Ratio (x) = 0.24914 0.40467
# Poissons Ratio (y) = 0.55897 0.51260
# Poissons Ratio (z) = 0.30006 0.16941
#
# Static dielectric constant tensor:
#      x y z
#    x 3.729520 0.000000 0.000000 
#    y 0.000000 3.405270 0.000000 
#    z 0.000000 0.000000 3.750710 
# 
# 
# High freq. dielectric constant tensor:
#      x y z
#    x 1.772510 0.000000 0.000000 
#    y 0.000000 1.743870 0.000000 
#    z 0.000000 0.000000 1.772880 
# 
# From -- ./inp_files/13949.got.cif
#   From: 2010.03.12/outbox.cif.g09.slc.cpg/sg47_7_cif.got.tgz:13949.got - 2010.04.14 03:12:58.
