data_PCOD8199642
_publ_section_title
;
Structure prediction by ZEFSAII (Michael W. Deem and Ramdas Pophale) SiO2 
 PCOD8199642
Probable space group: P M M M
;
_chemical_formula_sum "Si O2"
_cell_formula_units_Z 56
_cell_length_a 8.953119
_cell_length_b 14.487868
_cell_length_c 21.122635
_cell_angle_alpha 90.000000
_cell_angle_beta 90.000000
_cell_angle_gamma 90.000000
_cell_volume 2739.850914
_symmetry_space_group_name_H-M "P M M M"
_symmetry_group_IT_number 47
_symmetry_cell_setting 'orthorhombic'
loop_
_space_group_symop_operation_xyz
x,y,z
-x,-y,z
x,-y,-z
-x,y,-z
-x,-y,-z
x,y,-z
-x,y,z
x,-y,z
loop_
_atom_site_type_symbol
_atom_site_label
_atom_site_fract_x
_atom_site_fract_y
_atom_site_fract_z
Si Si1 0.674494 0.607343 0.308910
Si Si2 0.335687 0.108854 0.762072
Si Si3 0.328118 0.278161 0.070737
Si Si4 0.677817 0.713216 0.568904
Si Si5 0.322861 0.101243 0.376510
Si Si6 0.175332 0.392718 0.180523
Si Si7 0.825333 0.893863 0.113885
O O1 0.500000 0.628641 0.301952
O O2 0.708945 0.500000 0.316135
O O3 0.742177 0.653887 0.372616
O O4 0.753426 0.646715 0.245651
O O5 0.500000 0.152465 0.776486
O O6 0.275224 0.138747 0.693132
O O7 0.216734 0.138786 0.814974
O O8 0.353057 0.000000 0.760918
O O9 0.500000 0.275620 0.091509
O O10 0.237779 0.340506 0.119602
O O11 0.264208 0.173643 0.067578
O O12 0.310628 0.319688 0.000000
O O13 0.735185 0.677247 0.500000
O O14 0.500000 0.706760 0.571174
O O15 0.730057 0.820410 0.574582
O O16 0.500000 0.091063 0.377008
O O17 0.252652 0.000000 0.392694
O O18 0.217332 0.500000 0.172846
O O19 0.000000 0.376420 0.183791
O O20 0.000000 0.880644 0.103403
O O21 0.777760 0.000000 0.100810
#
# Coordination Sequence:
#
# PCOD8199642 Si02
#       7
#     8   8   8   8   8   8   8
#     4   9  18  33  54  80 109 143 184 229 278 334
#     4   8  14  26  45  69  97 134 183 234 282 331
#     4  11  25  42  61  87 118 154 194 234 279 336
#     4   9  17  27  42  70 106 144 187 233 282 333
#     4   8  14  24  39  63  97 137 181 229 279 328
#     4  10  22  41  65  91 117 146 183 232 291 351
#     4  10  21  36  55  82 117 155 195 239 286 335
#
# _framework density 20.439067999999999
#
# number of rings (size 3 to 8) (size 9 to 14) (size 15 to 20)
#    0.000    2.714    0.000    2.143    2.000    4.000 
#    0.000    5.714    0.000    0.429    0.000    2.000 
#    0.000    0.000    0.000    6.857    0.000    7.143 
#
# Total GULP energy -694027.895962 kJ/mol
# GULP energy per Si atom -12393.355285 kJ/mol
# Density = 2.039255 g / cm^3
# Si number density = 20.439068 Si / 1000 Ang^3
#
#
#
# Elastic Constant Matrix: (Units=GPa)
#
#
# Indices 1 2 3 4 5 6 
#
# 1 51.0665 29.2764 34.9082 0.0000 0.0000 0.0000
# 2 29.2764 68.5045 57.3237 0.0000 0.0000 0.0000
# 3 34.9082 57.3237 147.8955 0.0000 0.0000 0.0000
# 4 0.0000 0.0000 0.0000 27.6924 0.0000 0.0000
# 5 0.0000 0.0000 0.0000 0.0000 1.3898 0.0000
# 6 0.0000 0.0000 0.0000 0.0000 0.0000 21.3286
#
#
#
# Elastic Compliance Matrix: (Units=1/GPa)
#
#
# Indices 1 2 3 4 5 6 
#
# 1 0.026688 -0.009079 -0.002780 0.000000 0.000000 0.000000
# 2 -0.009079 0.024693 -0.007428 0.000000 0.000000 0.000000
# 3 -0.002780 -0.007428 0.010297 0.000000 0.000000 0.000000
# 4 0.000000 0.000000 0.000000 0.036111 0.000000 0.000000
# 5 0.000000 0.000000 0.000000 0.000000 0.719545 0.000000
# 6 0.000000 0.000000 0.000000 0.000000 0.000000 0.046885
#
#
# Mechanical properties :
#
#
# Convention : Reuss Voigt Hill
#
# Bulk Modulus (GPa) = 43.28365 56.72034 50.00200
# Shear Modulus (GPa) = 5.49152 19.81270 12.65211
#
# Velocity S-wave (km/s) = 1.64092 3.11682 2.49070
# Velocity P-wave (km/s) = 4.98127 6.38467 5.72612
#
# Compressibility (1/GPa) = 0.02310341
#
# Stress axis : x y z
#
# Youngs Moduli (GPa) = 37.47027 40.49671 97.11701
#
# Poissons Ratio (x) = 0.36767 0.27001
# Poissons Ratio (y) = 0.34019 0.72140
# Poissons Ratio (z) = 0.10418 0.30081
#
# Static dielectric constant tensor:
#      x y z
#    x 3.331700 0.000000 0.000000 
#    y 0.000000 3.786860 0.000000 
#    z 0.000000 0.000000 4.081940 
# 
# 
# High freq. dielectric constant tensor:
#      x y z
#    x 1.752790 0.000000 0.000000 
#    y 0.000000 1.798520 0.000000 
#    z 0.000000 0.000000 1.804760 
# 
# From -- ./inp_files/21567.got.cif
#   From: 2010.03.12/outbox.cif.g09.slc.cpg/sg47_11_cif.got.tgz:21567.got - 2010.04.14 03:12:58.
