data_PCOD8199397
_publ_section_title
;
Structure prediction by ZEFSAII (Michael W. Deem and Ramdas Pophale) SiO2 
 PCOD8199397
Probable space group: P M M M
;
_chemical_formula_sum "Si O2"
_cell_formula_units_Z 52
_cell_length_a 9.135655
_cell_length_b 25.910854
_cell_length_c 14.178708
_cell_angle_alpha 90.000000
_cell_angle_beta 90.000000
_cell_angle_gamma 90.000000
_cell_volume 3356.279160
_symmetry_space_group_name_H-M "P M M M"
_symmetry_group_IT_number 47
_symmetry_cell_setting 'orthorhombic'
loop_
_space_group_symop_operation_xyz
x,y,z
-x,-y,z
x,-y,-z
-x,y,-z
-x,-y,-z
x,y,-z
-x,y,z
x,-y,z
loop_
_atom_site_type_symbol
_atom_site_label
_atom_site_fract_x
_atom_site_fract_y
_atom_site_fract_z
Si Si1 0.171279 0.755232 0.107726
Si Si2 0.672531 0.896897 0.608671
Si Si3 0.835144 0.000000 0.611550
Si Si4 0.332337 0.059063 0.110161
Si Si5 0.664074 0.345656 0.112410
Si Si6 0.835451 0.443299 0.887854
Si Si7 0.827129 0.145033 0.224964
O O1 0.250208 0.704601 0.148839
O O2 0.220428 0.803889 0.169217
O O3 0.000000 0.744820 0.114594
O O4 0.218674 0.766266 0.000000
O O5 0.709732 0.884585 0.500000
O O6 0.500000 0.900806 0.624941
O O7 0.745444 0.950040 0.644561
O O8 0.744360 0.852766 0.673991
O O9 0.844594 0.000000 0.500000
O O10 0.000000 0.000000 0.654363
O O11 0.500000 0.072504 0.136591
O O12 0.222333 0.095240 0.166544
O O13 0.297110 0.000000 0.137285
O O14 0.305606 0.068024 0.000000
O O15 0.500000 0.342507 0.151050
O O16 0.735381 0.397855 0.154770
O O17 0.669189 0.347411 0.000000
O O18 0.777069 0.500000 0.855968
O O19 0.000000 0.435183 0.850371
O O20 0.834696 0.440219 0.000000
O O21 0.000000 0.142510 0.241389
#
# Coordination Sequence:
#
# PCOD8199397 Si02
#       7
#     8   8   4   8   8   8   8
#     4   9  18  32  46  60  82 112 145 179 215 256
#     4  10  21  36  52  69  90 115 139 166 207 260
#     4   9  17  31  51  71  88 105 128 161 199 241
#     4   9  19  35  51  66  87 115 143 172 210 257
#     4   9  16  24  36  55  77 103 137 178 219 251
#     4   8  13  21  33  49  71 102 138 173 211 254
#     4  11  22  33  49  70  89 111 142 180 219 256
#
# _framework density 15.493347999999999
#
# number of rings (size 3 to 8) (size 9 to 14) (size 15 to 20)
#    0.000    2.692    0.000    3.000    1.077    6.462 
#    0.000    3.846    0.000    0.000    0.000    0.000 
#    0.000    0.000    0.000    0.000    0.000    0.769 
#
# Total GULP energy -644681.299305 kJ/mol
# GULP energy per Si atom -12397.717294 kJ/mol
# Density = 1.545808 g / cm^3
# Si number density = 15.493348 Si / 1000 Ang^3
#
#
#
# Elastic Constant Matrix: (Units=GPa)
#
#
# Indices 1 2 3 4 5 6 
#
# 1 85.3442 61.4303 31.7367 0.0000 0.0000 0.0000
# 2 61.4303 123.9210 45.5601 0.0000 0.0000 0.0000
# 3 31.7367 45.5601 49.0690 0.0000 0.0000 0.0000
# 4 0.0000 0.0000 0.0000 4.9481 0.0000 0.0000
# 5 0.0000 0.0000 0.0000 0.0000 19.1614 0.0000
# 6 0.0000 0.0000 0.0000 0.0000 0.0000 17.3163
#
#
#
# Elastic Compliance Matrix: (Units=1/GPa)
#
#
# Indices 1 2 3 4 5 6 
#
# 1 0.019120 -0.007488 -0.005414 0.000000 0.000000 0.000000
# 2 -0.007488 0.015184 -0.009256 0.000000 0.000000 0.000000
# 3 -0.005414 -0.009256 0.032475 0.000000 0.000000 0.000000
# 4 0.000000 0.000000 0.000000 0.202096 0.000000 0.000000
# 5 0.000000 0.000000 0.000000 0.000000 0.052188 0.000000
# 6 0.000000 0.000000 0.000000 0.000000 0.000000 0.057749
#
#
# Mechanical properties :
#
#
# Convention : Reuss Voigt Hill
#
# Bulk Modulus (GPa) = 44.51482 59.53206 52.02344
# Shear Modulus (GPa) = 11.61126 16.25897 13.93511
#
# Velocity S-wave (km/s) = 2.74055 3.24298 3.00230
# Velocity P-wave (km/s) = 6.22961 7.24778 6.75790
#
# Compressibility (1/GPa) = 0.02246443
#
# Stress axis : x y z
#
# Youngs Moduli (GPa) = 52.30044 65.85708 30.79285
#
# Poissons Ratio (x) = 0.49312 0.16672
# Poissons Ratio (y) = 0.39161 0.28501
# Poissons Ratio (z) = 0.28317 0.60955
#
# Static dielectric constant tensor:
#      x y z
#    x 3.061800 0.000000 0.000000 
#    y 0.000000 3.078100 0.000000 
#    z 0.000000 0.000000 2.681460 
# 
# 
# High freq. dielectric constant tensor:
#      x y z
#    x 1.604790 0.000000 0.000000 
#    y 0.000000 1.587400 0.000000 
#    z 0.000000 0.000000 1.544500 
# 
# From -- ./inp_files/13406.got.cif
#   From: 2010.03.12/outbox.cif.g09.slc.cpg/sg47_7_cif.got.tgz:13406.got - 2010.04.14 03:12:58.
