data_PCOD8199536
_publ_section_title
;
Structure prediction by ZEFSAII (Michael W. Deem and Ramdas Pophale) SiO2 
 PCOD8199536
Probable space group: P M M M
;
_chemical_formula_sum "Si O2"
_cell_formula_units_Z 56
_cell_length_a 9.055466
_cell_length_b 15.448438
_cell_length_c 19.746553
_cell_angle_alpha 90.000000
_cell_angle_beta 90.000000
_cell_angle_gamma 90.000000
_cell_volume 2762.400689
_symmetry_space_group_name_H-M "P M M M"
_symmetry_group_IT_number 47
_symmetry_cell_setting 'orthorhombic'
loop_
_space_group_symop_operation_xyz
x,y,z
-x,-y,z
x,-y,-z
-x,y,-z
-x,-y,-z
x,y,-z
-x,y,z
x,-y,z
loop_
_atom_site_type_symbol
_atom_site_label
_atom_site_fract_x
_atom_site_fract_y
_atom_site_fract_z
Si Si1 0.826580 0.101361 0.166024
Si Si2 0.329445 0.664460 0.424711
Si Si3 0.672384 0.599586 0.828595
Si Si4 0.172511 0.845814 0.575510
Si Si5 0.661124 0.097951 0.297338
Si Si6 0.671637 0.242180 0.078382
Si Si7 0.838388 0.401454 0.302437
O O1 0.757338 0.137912 0.236441
O O2 0.762661 0.160568 0.106393
O O3 0.000000 0.115389 0.171179
O O4 0.789643 0.000000 0.152009
O O5 0.312610 0.623874 0.500000
O O6 0.500000 0.684349 0.408872
O O7 0.234368 0.750216 0.418664
O O8 0.262267 0.600666 0.369461
O O9 0.500000 0.602827 0.812299
O O10 0.717700 0.500000 0.847292
O O11 0.715572 0.665235 0.888775
O O12 0.754538 0.638062 0.762245
O O13 0.202875 0.883396 0.500000
O O14 0.254726 0.902387 0.631204
O O15 0.000000 0.845643 0.591577
O O16 0.500000 0.144654 0.302614
O O17 0.634030 0.000000 0.277310
O O18 0.500000 0.222086 0.090890
O O19 0.710640 0.251220 0.000000
O O20 0.864389 0.500000 0.284736
O O21 0.000000 0.356701 0.312753
#
# Coordination Sequence:
#
# PCOD8199536 Si02
#       7
#     8   8   8   8   8   8   8
#     4  10  22  40  61  86 118 156 198 244 293 348
#     4  10  21  36  54  77 107 145 189 237 288 341
#     4   9  19  37  60  86 118 155 195 240 288 344
#     4  10  21  36  54  78 110 148 189 234 285 340
#     4  10  21  37  58  83 111 146 189 236 286 341
#     4  10  22  39  61  91 122 154 193 236 290 354
#     4  10  21  36  55  80 110 146 188 234 287 345
#
# _framework density 20.272220999999998
#
# number of rings (size 3 to 8) (size 9 to 14) (size 15 to 20)
#    0.000    2.143    0.000    2.143    2.000    6.286 
#    0.000    5.714    0.000    0.000    0.000    3.000 
#    0.000    0.000    0.000    0.000    0.000    0.000 
#
# Total GULP energy -694126.624269 kJ/mol
# GULP energy per Si atom -12395.118291 kJ/mol
# Density = 2.022608 g / cm^3
# Si number density = 20.272221 Si / 1000 Ang^3
#
#
#
# Elastic Constant Matrix: (Units=GPa)
#
#
# Indices 1 2 3 4 5 6 
#
# 1 124.7900 42.9679 80.8409 0.0000 0.0000 0.0000
# 2 42.9679 69.7372 51.5331 0.0000 0.0000 0.0000
# 3 80.8409 51.5331 161.7486 0.0000 0.0000 0.0000
# 4 0.0000 0.0000 0.0000 25.9231 0.0000 0.0000
# 5 0.0000 0.0000 0.0000 0.0000 31.0326 0.0000
# 6 0.0000 0.0000 0.0000 0.0000 0.0000 26.7457
#
#
#
# Elastic Compliance Matrix: (Units=1/GPa)
#
#
# Indices 1 2 3 4 5 6 
#
# 1 0.012686 -0.004095 -0.005035 0.000000 0.000000 0.000000
# 2 -0.004095 0.020077 -0.004350 0.000000 0.000000 0.000000
# 3 -0.005035 -0.004350 0.010085 0.000000 0.000000 0.000000
# 4 0.000000 0.000000 0.000000 0.038576 0.000000 0.000000
# 5 0.000000 0.000000 0.000000 0.000000 0.032224 0.000000
# 6 0.000000 0.000000 0.000000 0.000000 0.000000 0.037389
#
#
# Mechanical properties :
#
#
# Convention : Reuss Voigt Hill
#
# Bulk Modulus (GPa) = 62.94527 78.55105 70.74816
# Shear Modulus (GPa) = 27.27873 28.80254 28.04064
#
# Velocity S-wave (km/s) = 3.67225 3.77342 3.72318
# Velocity P-wave (km/s) = 7.00700 7.60376 7.31147
#
# Compressibility (1/GPa) = 0.01588682
#
# Stress axis : x y z
#
# Youngs Moduli (GPa) = 78.82999 49.80807 99.15727
#
# Poissons Ratio (x) = 0.20397 0.49930
# Poissons Ratio (y) = 0.32281 0.43132
# Poissons Ratio (z) = 0.39694 0.21666
#
# Static dielectric constant tensor:
#      x y z
#    x 3.975930 0.000000 0.000000 
#    y 0.000000 3.476990 0.000000 
#    z 0.000000 0.000000 3.760920 
# 
# 
# High freq. dielectric constant tensor:
#      x y z
#    x 1.802180 0.000000 0.000000 
#    y 0.000000 1.776610 0.000000 
#    z 0.000000 0.000000 1.792540 
# 
# From -- ./inp_files/7220.got.cif
#   From: 2010.03.12/outbox.cif.g09.slc.cpg/sg47_4_cif.got.tgz:7220.got - 2010.04.14 03:12:58.
