data_PCOD8199697
_publ_section_title
;
Structure prediction by ZEFSAII (Michael W. Deem and Ramdas Pophale) SiO2 
 PCOD8199697
Probable space group: P M M M
;
_chemical_formula_sum "Si O2"
_cell_formula_units_Z 48
_cell_length_a 9.372193
_cell_length_b 17.123554
_cell_length_c 14.798327
_cell_angle_alpha 90.000000
_cell_angle_beta 90.000000
_cell_angle_gamma 90.000000
_cell_volume 2374.913252
_symmetry_space_group_name_H-M "P M M M"
_symmetry_group_IT_number 47
_symmetry_cell_setting 'orthorhombic'
loop_
_space_group_symop_operation_xyz
x,y,z
-x,-y,z
x,-y,-z
-x,y,-z
-x,-y,-z
x,y,-z
-x,y,z
x,-y,z
loop_
_atom_site_type_symbol
_atom_site_label
_atom_site_fract_x
_atom_site_fract_y
_atom_site_fract_z
Si Si1 0.333244 0.365129 0.789382
Si Si2 0.839185 0.852435 0.353327
Si Si3 0.841892 0.088092 0.157928
Si Si4 0.829865 0.500000 0.893125
Si Si5 0.663534 0.700625 0.601526
Si Si6 0.346813 0.000000 0.399144
Si Si7 0.658866 0.781548 0.098961
O O1 0.500000 0.383305 0.809930
O O2 0.234552 0.426206 0.840949
O O3 0.304676 0.363606 0.680459
O O4 0.285968 0.280822 0.827962
O O5 0.844029 0.858119 0.246066
O O6 0.767856 0.773291 0.387207
O O7 0.747198 0.924419 0.384917
O O8 0.000000 0.856753 0.392946
O O9 0.744817 0.137361 0.090618
O O10 0.000000 0.081283 0.116823
O O11 0.782092 0.000000 0.175706
O O12 0.000000 0.500000 0.882169
O O13 0.788357 0.500000 0.000000
O O14 0.685954 0.664915 0.500000
O O15 0.500000 0.729447 0.613000
O O16 0.500000 0.000000 0.343963
O O17 0.397128 0.000000 0.500000
O O18 0.500000 0.806081 0.126387
O O19 0.664762 0.741609 0.000000
#
# Coordination Sequence:
#
# PCOD8199697 Si02
#       7
#     8   8   8   4   8   4   8
#     4  10  21  40  66  93 124 162 199 240 294 357
#     4  11  21  35  54  78 110 150 197 249 304 360
#     4  10  21  37  54  76 110 153 200 247 300 360
#     4  11  25  43  66  99 132 160 195 243 298 353
#     4  10  21  38  61  90 121 155 199 245 290 347
#     4  11  23  35  49  73 106 147 198 255 311 362
#     4  10  21  37  59  87 114 147 197 249 298 356
#
# _framework density 20.211264
#
# number of rings (size 3 to 8) (size 9 to 14) (size 15 to 20)
#    0.000    1.667    2.500    2.000    0.000    7.333 
#    0.000    2.083    0.000    2.500    0.000    0.000 
#    0.000    0.000    0.000    0.000    0.000    0.000 
#
# Total GULP energy -594746.702186 kJ/mol
# GULP energy per Si atom -12390.556296 kJ/mol
# Density = 2.016526 g / cm^3
# Si number density = 20.211264 Si / 1000 Ang^3
#
#
#
# Elastic Constant Matrix: (Units=GPa)
#
#
# Indices 1 2 3 4 5 6 
#
# 1 121.8735 63.1958 47.3991 0.0000 0.0000 0.0000
# 2 63.1958 100.2811 52.4826 0.0000 0.0000 0.0000
# 3 47.3991 52.4826 127.5032 0.0000 0.0000 0.0000
# 4 0.0000 0.0000 0.0000 44.7811 0.0000 0.0000
# 5 0.0000 0.0000 0.0000 0.0000 22.2197 0.0000
# 6 0.0000 0.0000 0.0000 0.0000 0.0000 39.7662
#
#
#
# Elastic Compliance Matrix: (Units=1/GPa)
#
#
# Indices 1 2 3 4 5 6 
#
# 1 0.012500 -0.006941 -0.001790 0.000000 0.000000 0.000000
# 2 -0.006941 0.016564 -0.004238 0.000000 0.000000 0.000000
# 3 -0.001790 -0.004238 0.010253 0.000000 0.000000 0.000000
# 4 0.000000 0.000000 0.000000 0.022331 0.000000 0.000000
# 5 0.000000 0.000000 0.000000 0.000000 0.045005 0.000000
# 6 0.000000 0.000000 0.000000 0.000000 0.000000 0.025147
#
#
# Mechanical properties :
#
#
# Convention : Reuss Voigt Hill
#
# Bulk Modulus (GPa) = 74.73949 75.09031 74.91490
# Shear Modulus (GPa) = 30.82669 33.79209 32.30939
#
# Velocity S-wave (km/s) = 3.90965 4.09338 4.00257
# Velocity P-wave (km/s) = 7.57891 7.71844 7.64899
#
# Compressibility (1/GPa) = 0.01337981
#
# Stress axis : x y z
#
# Youngs Moduli (GPa) = 79.99686 60.37256 97.53509
#
# Poissons Ratio (x) = 0.41903 0.17459
# Poissons Ratio (y) = 0.55524 0.41333
# Poissons Ratio (z) = 0.14320 0.25584
#
# Static dielectric constant tensor:
#      x y z
#    x 3.778890 0.000000 0.000000 
#    y 0.000000 3.476560 0.000000 
#    z 0.000000 0.000000 3.896480 
# 
# 
# High freq. dielectric constant tensor:
#      x y z
#    x 1.792200 0.000000 0.000000 
#    y 0.000000 1.763480 0.000000 
#    z 0.000000 0.000000 1.799140 
# 
# From -- ./inp_files/21066.got.cif
#   From: 2010.03.12/outbox.cif.g09.slc.cpg/sg47_11_cif.got.tgz:21066.got - 2010.04.14 03:12:58.
