data_PCOD8199235
_publ_section_title
;
Structure prediction by ZEFSAII (Michael W. Deem and Ramdas Pophale) SiO2 
 PCOD8199235
Probable space group: P M M M
;
_chemical_formula_sum "Si O2"
_cell_formula_units_Z 60
_cell_length_a 11.819061
_cell_length_b 21.848370
_cell_length_c 12.918384
_cell_angle_alpha 90.000000
_cell_angle_beta 90.000000
_cell_angle_gamma 90.000000
_cell_volume 3335.878359
_symmetry_space_group_name_H-M "P M M M"
_symmetry_group_IT_number 47
_symmetry_cell_setting 'orthorhombic'
loop_
_space_group_symop_operation_xyz
x,y,z
-x,-y,z
x,-y,-z
-x,y,-z
-x,-y,-z
x,y,-z
-x,y,z
x,-y,z
loop_
_atom_site_type_symbol
_atom_site_label
_atom_site_fract_x
_atom_site_fract_y
_atom_site_fract_z
Si Si1 0.794301 0.360943 0.735522
Si Si2 0.626383 0.572282 0.884317
Si Si3 0.264289 0.163571 0.747090
Si Si4 0.000000 0.427746 0.622300
Si Si5 0.870733 0.255993 0.882557
Si Si6 0.631721 0.066616 0.112559
Si Si7 0.629816 0.270733 0.378765
Si Si8 0.133489 0.932397 0.616021
O O1 0.716417 0.406218 0.800783
O O2 0.857831 0.316905 0.815117
O O3 0.713560 0.324207 0.657518
O O4 0.887093 0.398510 0.671028
O O5 0.500000 0.596642 0.856603
O O6 0.626109 0.500000 0.882587
O O7 0.659045 0.595468 0.000000
O O8 0.201749 0.201544 0.835408
O O9 0.347731 0.116977 0.801584
O O10 0.337917 0.206840 0.673906
O O11 0.175315 0.124069 0.683293
O O12 0.000000 0.500000 0.645569
O O13 0.000000 0.414315 0.500000
O O14 0.000000 0.235022 0.880661
O O15 0.829995 0.268839 0.000000
O O16 0.500000 0.059970 0.100154
O O17 0.682032 0.000000 0.145363
O O18 0.683399 0.085293 0.000000
O O19 0.645751 0.262120 0.500000
O O20 0.500000 0.287500 0.350646
O O21 0.180886 0.924126 0.500000
O O22 0.000000 0.928465 0.615673
O O23 0.171074 0.000000 0.657530
#
# Coordination Sequence:
#
# PCOD8199235 Si02
#       8
#     8   8   8   4   8   8   8   8
#     4  11  20  37  59  78 105 146 182 211 263 324
#     4   9  18  33  55  85 116 142 174 217 260 309
#     4  11  19  31  53  74  99 132 176 214 268 318
#     4  11  24  40  59  85 113 139 177 230 274 313
#     4  10  21  35  50  73 105 137 171 213 256 303
#     4   9  18  32  49  71  99 129 164 209 260 316
#     4  10  22  37  53  76 105 138 178 225 268 313
#     4   9  18  32  49  71 100 133 173 222 270 318
#
# _framework density 17.986267000000002
#
# number of rings (size 3 to 8) (size 9 to 14) (size 15 to 20)
#    0.000    2.067    0.667    4.800    0.000    0.000 
#    0.000    0.000    0.000    8.000    0.000   16.800 
#    0.000    0.000    0.000    0.000    0.000    0.000 
#
# Total GULP energy -743743.607654 kJ/mol
# GULP energy per Si atom -12395.726794 kJ/mol
# Density = 1.794533 g / cm^3
# Si number density = 17.986267 Si / 1000 Ang^3
#
#
#
# Elastic Constant Matrix: (Units=GPa)
#
#
# Indices 1 2 3 4 5 6 
#
# 1 95.8307 49.8908 62.7005 0.0000 0.0000 0.0000
# 2 49.8908 104.9733 63.2603 0.0000 0.0000 0.0000
# 3 62.7005 63.2603 125.3957 0.0000 0.0000 0.0000
# 4 0.0000 0.0000 0.0000 24.1817 0.0000 0.0000
# 5 0.0000 0.0000 0.0000 0.0000 33.3460 0.0000
# 6 0.0000 0.0000 0.0000 0.0000 0.0000 28.8391
#
#
#
# Elastic Compliance Matrix: (Units=1/GPa)
#
#
# Indices 1 2 3 4 5 6 
#
# 1 0.016690 -0.004171 -0.006241 0.000000 0.000000 0.000000
# 2 -0.004171 0.014730 -0.005345 0.000000 0.000000 0.000000
# 3 -0.006241 -0.005345 0.013792 0.000000 0.000000 0.000000
# 4 0.000000 0.000000 0.000000 0.041354 0.000000 0.000000
# 5 0.000000 0.000000 0.000000 0.000000 0.029989 0.000000
# 6 0.000000 0.000000 0.000000 0.000000 0.000000 0.034675
#
#
# Mechanical properties :
#
#
# Convention : Reuss Voigt Hill
#
# Bulk Modulus (GPa) = 73.00966 75.32255 74.16610
# Shear Modulus (GPa) = 26.69364 27.29656 26.99510
#
# Velocity S-wave (km/s) = 3.85660 3.89991 3.87831
# Velocity P-wave (km/s) = 7.77889 7.88973 7.83450
#
# Compressibility (1/GPa) = 0.01369682
#
# Stress axis : x y z
#
# Youngs Moduli (GPa) = 59.91572 67.88866 72.50545
#
# Poissons Ratio (x) = 0.28318 0.45251
# Poissons Ratio (y) = 0.24992 0.38757
# Poissons Ratio (z) = 0.37394 0.36289
#
# Static dielectric constant tensor:
#      x y z
#    x 3.264220 0.000000 0.000000 
#    y 0.000000 3.346900 0.000000 
#    z 0.000000 0.000000 3.485970 
# 
# 
# High freq. dielectric constant tensor:
#      x y z
#    x 1.693560 0.000000 0.000000 
#    y 0.000000 1.702190 0.000000 
#    z 0.000000 0.000000 1.706350 
# 
# From -- ./inp_files/16594.got.cif
#   From: 2010.03.12/outbox.cif.g09.slc.cpg/sg47_9_cif.got.tgz:16594.got - 2010.04.14 03:12:58.
