data_PCOD8199153
_publ_section_title
;
Structure prediction by ZEFSAII (Michael W. Deem and Ramdas Pophale) SiO2 
 PCOD8199153
Probable space group: P M M M
;
_chemical_formula_sum "Si O2"
_cell_formula_units_Z 48
_cell_length_a 9.475919
_cell_length_b 30.894242
_cell_length_c 9.634164
_cell_angle_alpha 90.000000
_cell_angle_beta 90.000000
_cell_angle_gamma 90.000000
_cell_volume 2820.414370
_symmetry_space_group_name_H-M "P M M M"
_symmetry_group_IT_number 47
_symmetry_cell_setting 'orthorhombic'
loop_
_space_group_symop_operation_xyz
x,y,z
-x,-y,z
x,-y,-z
-x,y,-z
-x,-y,-z
x,y,-z
-x,y,z
x,-y,z
loop_
_atom_site_type_symbol
_atom_site_label
_atom_site_fract_x
_atom_site_fract_y
_atom_site_fract_z
Si Si1 0.163076 0.126266 0.338757
Si Si2 0.167578 0.047699 0.155736
Si Si3 0.844798 0.375989 0.164265
Si Si4 0.335293 0.789249 0.337840
Si Si5 0.342335 0.547464 0.164944
Si Si6 0.164637 0.721218 0.161737
O O1 0.179161 0.115850 0.500000
O O2 0.224759 0.084587 0.258389
O O3 0.257751 0.166704 0.293449
O O4 0.000000 0.136152 0.299962
O O5 0.000000 0.047408 0.160809
O O6 0.223293 0.000000 0.201383
O O7 0.219825 0.058138 0.000000
O O8 0.747791 0.413435 0.231165
O O9 0.789525 0.327888 0.198943
O O10 0.000000 0.382223 0.228221
O O11 0.852187 0.381453 0.000000
O O12 0.312294 0.779864 0.500000
O O13 0.500000 0.792979 0.300327
O O14 0.265359 0.750783 0.252716
O O15 0.500000 0.552101 0.223679
O O16 0.280995 0.500000 0.206847
O O17 0.344231 0.551588 0.000000
O O18 0.000000 0.728858 0.198381
O O19 0.190608 0.731124 0.000000
#
# Coordination Sequence:
#
# PCOD8199153 Si02
#       6
#     8   8   8   8   8   8
#     4   9  17  29  46  67  89 115 148 185 225 267
#     4   8  14  25  42  66  94 119 144 179 222 264
#     4   8  14  24  37  55  80 108 139 178 222 265
#     4  10  21  35  49  67  93 123 155 192 232 275
#     4   8  13  20  30  47  74 109 146 179 212 255
#     4   9  18  32  49  69  92 118 151 191 233 278
#
# _framework density 17.018775999999999
#
# number of rings (size 3 to 8) (size 9 to 14) (size 15 to 20)
#    0.000    3.333    0.000    2.500    0.000    3.333 
#    0.000    6.667    0.000    0.500    0.000    3.500 
#    0.000    0.667    0.000    7.333    0.000   12.000 
#
# Total GULP energy -594860.487354 kJ/mol
# GULP energy per Si atom -12392.926820 kJ/mol
# Density = 1.698004 g / cm^3
# Si number density = 17.018776 Si / 1000 Ang^3
#
#
#
# Elastic Constant Matrix: (Units=GPa)
#
#
# Indices 1 2 3 4 5 6 
#
# 1 81.4961 79.6997 33.8385 0.0000 0.0000 0.0000
# 2 79.6997 175.5403 56.9737 0.0000 0.0000 0.0000
# 3 33.8385 56.9737 38.7734 0.0000 0.0000 0.0000
# 4 0.0000 0.0000 0.0000 0.7108 0.0000 0.0000
# 5 0.0000 0.0000 0.0000 0.0000 16.2562 0.0000
# 6 0.0000 0.0000 0.0000 0.0000 0.0000 7.5574
#
#
#
# Elastic Compliance Matrix: (Units=1/GPa)
#
#
# Indices 1 2 3 4 5 6 
#
# 1 0.023709 -0.007740 -0.009318 0.000000 0.000000 0.000000
# 2 -0.007740 0.013417 -0.012961 0.000000 0.000000 0.000000
# 3 -0.009318 -0.012961 0.052967 0.000000 0.000000 0.000000
# 4 0.000000 0.000000 0.000000 1.406950 0.000000 0.000000
# 5 0.000000 0.000000 0.000000 0.000000 0.061515 0.000000
# 6 0.000000 0.000000 0.000000 0.000000 0.000000 0.132321
#
#
# Mechanical properties :
#
#
# Convention : Reuss Voigt Hill
#
# Bulk Modulus (GPa) = 33.27100 70.75926 52.01513
# Shear Modulus (GPa) = 2.83940 13.25807 8.04873
#
# Velocity S-wave (km/s) = 1.29306 2.79413 2.17706
# Velocity P-wave (km/s) = 4.67134 7.21644 6.07858
#
# Compressibility (1/GPa) = 0.03005621
#
# Stress axis : x y z
#
# Youngs Moduli (GPa) = 42.17775 74.52968 18.87965
#
# Poissons Ratio (x) = 0.57688 0.17592
# Poissons Ratio (y) = 0.32647 0.24469
# Poissons Ratio (z) = 0.39301 0.96594
#
# Static dielectric constant tensor:
#      x y z
#    x 3.171220 0.000000 0.000000 
#    y 0.000000 3.529200 0.000000 
#    z 0.000000 0.000000 2.842390 
# 
# 
# High freq. dielectric constant tensor:
#      x y z
#    x 1.635700 0.000000 0.000000 
#    y 0.000000 1.672760 0.000000 
#    z 0.000000 0.000000 1.613160 
# 
# From -- ./inp_files/2511.got.cif
#   From: 2010.03.12/outbox.cif.g09.slc.cpg/sg47_2_cif.got.tgz:2511.got - 2010.04.14 03:12:58.
