data_PCOD8199746
_publ_section_title
;
Structure prediction by ZEFSAII (Michael W. Deem and Ramdas Pophale) SiO2 
 PCOD8199746
Probable space group: P M M M
;
_chemical_formula_sum "Si O2"
_cell_formula_units_Z 48
_cell_length_a 32.118243
_cell_length_b 7.986196
_cell_length_c 9.255506
_cell_angle_alpha 90.000000
_cell_angle_beta 90.000000
_cell_angle_gamma 90.000000
_cell_volume 2374.061203
_symmetry_space_group_name_H-M "P M M M"
_symmetry_group_IT_number 47
_symmetry_cell_setting 'orthorhombic'
loop_
_space_group_symop_operation_xyz
x,y,z
-x,-y,z
x,-y,-z
-x,y,-z
-x,-y,-z
x,y,-z
-x,y,z
x,-y,z
loop_
_atom_site_type_symbol
_atom_site_label
_atom_site_fract_x
_atom_site_fract_y
_atom_site_fract_z
Si Si1 0.409873 0.192062 0.830327
Si Si2 0.549180 0.500000 0.666189
Si Si3 0.163085 0.806624 0.841310
Si Si4 0.686040 0.806148 0.837387
Si Si5 0.912717 0.195745 0.338922
Si Si6 0.000000 0.695675 0.665777
Si Si7 0.760962 0.691305 0.337843
O O1 0.435508 0.329240 0.741747
O O2 0.361640 0.222474 0.793033
O O3 0.422408 0.000000 0.787740
O O4 0.418142 0.218785 0.000000
O O5 0.500000 0.500000 0.677183
O O6 0.564251 0.500000 0.500000
O O7 0.124550 0.722142 0.754781
O O8 0.206286 0.792322 0.757093
O O9 0.152862 0.000000 0.861359
O O10 0.166949 0.722032 0.000000
O O11 0.714851 0.704507 0.727980
O O12 0.697972 0.000000 0.827835
O O13 0.693610 0.740248 0.000000
O O14 0.911238 0.276555 0.500000
O O15 0.957544 0.232363 0.263537
O O16 0.905330 0.000000 0.351164
O O17 0.000000 0.500000 0.685556
O O18 0.000000 0.755262 0.500000
O O19 0.760531 0.765088 0.500000
O O20 0.774992 0.500000 0.339325
#
# Coordination Sequence:
#
# PCOD8199746 Si02
#       7
#     8   4   8   8   8   4   8
#     4   9  20  40  65  92 121 158 207 258 307 363
#     4  11  25  41  59  89 129 169 207 253 311 370
#     4  10  21  37  56  77 102 136 179 224 270 320
#     4   9  19  37  60  85 112 144 185 233 284 336
#     4   9  17  31  52  75  99 130 168 210 259 316
#     4   9  17  29  48  75 102 128 162 207 258 311
#     4  11  24  37  51  78 113 146 182 223 269 326
#
# _framework density 20.218520999999999
#
# number of rings (size 3 to 8) (size 9 to 14) (size 15 to 20)
#    0.000    2.333    0.000    3.000    1.167    8.333 
#    0.000    5.417    0.000    2.500    0.000    0.000 
#    0.000    0.000    0.000    0.000    0.000    0.000 
#
# Total GULP energy -595071.114026 kJ/mol
# GULP energy per Si atom -12397.314876 kJ/mol
# Density = 2.017250 g / cm^3
# Si number density = 20.218521 Si / 1000 Ang^3
#
#
#
# Elastic Constant Matrix: (Units=GPa)
#
#
# Indices 1 2 3 4 5 6 
#
# 1 120.1082 36.4027 69.1403 0.0000 0.0000 0.0000
# 2 36.4027 63.9332 39.3545 0.0000 0.0000 0.0000
# 3 69.1403 39.3545 129.4741 0.0000 0.0000 0.0000
# 4 0.0000 0.0000 0.0000 21.0623 0.0000 0.0000
# 5 0.0000 0.0000 0.0000 0.0000 28.9007 0.0000
# 6 0.0000 0.0000 0.0000 0.0000 0.0000 3.0421
#
#
#
# Elastic Compliance Matrix: (Units=1/GPa)
#
#
# Indices 1 2 3 4 5 6 
#
# 1 0.012718 -0.003765 -0.005647 0.000000 0.000000 0.000000
# 2 -0.003765 0.020356 -0.004177 0.000000 0.000000 0.000000
# 3 -0.005647 -0.004177 0.012009 0.000000 0.000000 0.000000
# 4 0.000000 0.000000 0.000000 0.047478 0.000000 0.000000
# 5 0.000000 0.000000 0.000000 0.000000 0.034601 0.000000
# 6 0.000000 0.000000 0.000000 0.000000 0.000000 0.328716
#
#
# Mechanical properties :
#
#
# Convention : Reuss Voigt Hill
#
# Bulk Modulus (GPa) = 55.85116 67.03451 61.44284
# Shear Modulus (GPa) = 10.22446 21.84222 16.03334
#
# Velocity S-wave (km/s) = 2.25121 3.29037 2.81909
# Velocity P-wave (km/s) = 5.86865 6.90379 6.40716
#
# Compressibility (1/GPa) = 0.01790473
#
# Stress axis : x y z
#
# Youngs Moduli (GPa) = 78.63100 49.12494 83.27401
#
# Poissons Ratio (x) = 0.18497 0.47023
# Poissons Ratio (y) = 0.29607 0.34781
# Poissons Ratio (z) = 0.44402 0.20518
#
# Static dielectric constant tensor:
#      x y z
#    x 3.698630 0.000000 0.000000 
#    y 0.000000 3.443060 0.000000 
#    z 0.000000 0.000000 3.829660 
# 
# 
# High freq. dielectric constant tensor:
#      x y z
#    x 1.797170 0.000000 0.000000 
#    y 0.000000 1.778780 0.000000 
#    z 0.000000 0.000000 1.776000 
# 
# From -- ./inp_files/13831.got.cif
#   From: 2010.03.12/outbox.cif.g09.slc.cpg/sg47_7_cif.got.tgz:13831.got - 2010.04.14 03:12:58.
