data_PCOD8199350
_publ_section_title
;
Structure prediction by ZEFSAII (Michael W. Deem and Ramdas Pophale) SiO2 
 PCOD8199350
Probable space group: P M M M
;
_chemical_formula_sum "Si O2"
_cell_formula_units_Z 36
_cell_length_a 9.331563
_cell_length_b 9.079248
_cell_length_c 22.843893
_cell_angle_alpha 90.000000
_cell_angle_beta 90.000000
_cell_angle_gamma 90.000000
_cell_volume 1935.416275
_symmetry_space_group_name_H-M "P M M M"
_symmetry_group_IT_number 47
_symmetry_cell_setting 'orthorhombic'
loop_
_space_group_symop_operation_xyz
x,y,z
-x,-y,z
x,-y,-z
-x,y,-z
-x,-y,-z
x,y,-z
-x,y,z
x,-y,z
loop_
_atom_site_type_symbol
_atom_site_label
_atom_site_fract_x
_atom_site_fract_y
_atom_site_fract_z
Si Si1 0.831559 0.827796 0.500000
Si Si2 0.337345 0.671244 0.067033
Si Si3 0.333912 0.672480 0.396963
Si Si4 0.665845 0.169408 0.277980
Si Si5 0.162971 0.173808 0.834605
O O1 0.764153 0.755888 0.557161
O O2 0.000000 0.796892 0.500000
O O3 0.796131 0.000000 0.500000
O O4 0.500000 0.722195 0.079365
O O5 0.320684 0.500000 0.081187
O O6 0.229914 0.760874 0.107045
O O7 0.296240 0.703980 0.000000
O O8 0.500000 0.706115 0.411030
O O9 0.301415 0.500000 0.400214
O O10 0.292040 0.731126 0.333095
O O11 0.500000 0.186789 0.261759
O O12 0.754732 0.230339 0.222982
O O13 0.704173 0.000000 0.292554
O O14 0.000000 0.227166 0.829697
O O15 0.175967 0.000000 0.839210
#
# Coordination Sequence:
#
# PCOD8199350 Si02
#       5
#     4   8   8   8   8
#     4  11  24  39  56  80 110 145 182 219 262 312
#     4   9  19  36  56  77 102 135 177 223 268 315
#     4  10  21  37  58  84 111 139 175 220 267 314
#     4   9  18  34  55  77 104 141 182 220 259 307
#     4  10  21  35  52  78 111 143 175 215 263 315
#
# _framework density 18.600650000000002
#
# number of rings (size 3 to 8) (size 9 to 14) (size 15 to 20)
#    0.000    2.333    0.000    2.667    0.000    8.000 
#    0.000    7.778    0.000    0.000    0.000    0.000 
#    0.000    0.000    0.000    0.000    0.000    0.000 
#
# Total GULP energy -446522.301274 kJ/mol
# GULP energy per Si atom -12403.397258 kJ/mol
# Density = 1.855831 g / cm^3
# Si number density = 18.600650 Si / 1000 Ang^3
#
#
#
# Elastic Constant Matrix: (Units=GPa)
#
#
# Indices 1 2 3 4 5 6 
#
# 1 112.9165 53.3204 86.0972 0.0000 0.0000 0.0000
# 2 53.3204 67.6870 56.1437 0.0000 0.0000 0.0000
# 3 86.0972 56.1437 137.3168 0.0000 0.0000 0.0000
# 4 0.0000 0.0000 0.0000 66.7129 0.0000 0.0000
# 5 0.0000 0.0000 0.0000 0.0000 0.8993 0.0000
# 6 0.0000 0.0000 0.0000 0.0000 0.0000 27.0997
#
#
#
# Elastic Compliance Matrix: (Units=1/GPa)
#
#
# Indices 1 2 3 4 5 6 
#
# 1 0.019382 -0.007850 -0.008943 0.000000 0.000000 0.000000
# 2 -0.007850 0.025535 -0.005518 0.000000 0.000000 0.000000
# 3 -0.008943 -0.005518 0.015146 0.000000 0.000000 0.000000
# 4 0.000000 0.000000 0.000000 0.014990 0.000000 0.000000
# 5 0.000000 0.000000 0.000000 0.000000 1.111992 0.000000
# 6 0.000000 0.000000 0.000000 0.000000 0.000000 0.036901
#
#
# Mechanical properties :
#
#
# Convention : Reuss Voigt Hill
#
# Bulk Modulus (GPa) = 64.76629 78.78256 71.77443
# Shear Modulus (GPa) = 3.92553 27.09966 15.51259
#
# Velocity S-wave (km/s) = 1.45431 3.82110 2.89101
# Velocity P-wave (km/s) = 6.14125 7.86857 7.05795
#
# Compressibility (1/GPa) = 0.01544013
#
# Stress axis : x y z
#
# Youngs Moduli (GPa) = 51.59494 39.16169 66.02613
#
# Poissons Ratio (x) = 0.30744 0.59044
# Poissons Ratio (y) = 0.40505 0.36434
# Poissons Ratio (z) = 0.46139 0.21610
#
# Static dielectric constant tensor:
#      x y z
#    x 3.462180 0.000000 0.000000 
#    y 0.000000 3.364260 0.000000 
#    z 0.000000 0.000000 3.496400 
# 
# 
# High freq. dielectric constant tensor:
#      x y z
#    x 1.720680 0.000000 0.000000 
#    y 0.000000 1.719080 0.000000 
#    z 0.000000 0.000000 1.733880 
# 
# From -- ./inp_files/1392.got.cif
#   From: 2010.03.12/outbox.cif.g09.slc.cpg/sg47_1_cif.got.tgz:1392.got - 2010.04.14 03:12:58.
