data_PCOD8199359
_publ_section_title
;
Structure prediction by ZEFSAII (Michael W. Deem and Ramdas Pophale) SiO2 
 PCOD8199359
Probable space group: P M M M
;
_chemical_formula_sum "Si O2"
_cell_formula_units_Z 52
_cell_length_a 14.241737
_cell_length_b 7.862032
_cell_length_c 23.297116
_cell_angle_alpha 90.000000
_cell_angle_beta 90.000000
_cell_angle_gamma 90.000000
_cell_volume 2608.554596
_symmetry_space_group_name_H-M "P M M M"
_symmetry_group_IT_number 47
_symmetry_cell_setting 'orthorhombic'
loop_
_space_group_symop_operation_xyz
x,y,z
-x,-y,z
x,-y,-z
-x,y,-z
-x,-y,-z
x,y,-z
-x,y,z
x,-y,z
loop_
_atom_site_type_symbol
_atom_site_label
_atom_site_fract_x
_atom_site_fract_y
_atom_site_fract_z
Si Si1 0.895497 0.695762 0.659565
Si Si2 0.282969 0.805292 0.127464
Si Si3 0.739950 0.199916 0.742721
Si Si4 0.105719 0.697562 0.065943
Si Si5 0.604145 0.202531 0.355099
Si Si6 0.238382 0.803413 0.437095
Si Si7 0.389766 0.500000 0.067178
O O1 0.900726 0.500000 0.644147
O O2 0.835229 0.720852 0.717346
O O3 0.851361 0.785292 0.603861
O O4 0.000000 0.770217 0.669799
O O5 0.278268 0.739012 0.192724
O O6 0.177471 0.807941 0.102927
O O7 0.348116 0.674133 0.093075
O O8 0.322350 0.000000 0.123484
O O9 0.650397 0.258844 0.705232
O O10 0.753687 0.000000 0.739730
O O11 0.131922 0.500000 0.072802
O O12 0.000000 0.732480 0.087991
O O13 0.114417 0.752983 0.000000
O O14 0.500000 0.281826 0.359714
O O15 0.669231 0.276362 0.406378
O O16 0.599526 0.000000 0.358232
O O17 0.222955 0.717774 0.500000
O O18 0.257675 0.000000 0.446159
O O19 0.500000 0.500000 0.079293
O O20 0.365843 0.500000 0.000000
#
# Coordination Sequence:
#
# PCOD8199359 Si02
#       7
#     8   8   8   8   8   8   4
#     4  10  21  35  53  77 107 147 189 232 282 335
#     4  11  23  39  63  92 122 159 202 249 301 360
#     4   9  20  36  55  82 112 142 181 231 282 340
#     4   9  18  34  57  85 118 154 191 235 288 349
#     4   8  14  28  51  76 103 134 170 220 279 333
#     4   9  18  32  50  75 107 142 183 231 281 335
#     4  11  26  46  65  89 123 161 203 252 304 358
#
# _framework density 19.934411999999998
#
# number of rings (size 3 to 8) (size 9 to 14) (size 15 to 20)
#    0.000    2.538    0.769    2.308    1.077    5.231 
#    0.000    9.231    0.000    4.154    0.000    4.308 
#    0.000    0.000    0.000    0.000    0.000    0.000 
#
# Total GULP energy -644596.320523 kJ/mol
# GULP energy per Si atom -12396.083087 kJ/mol
# Density = 1.988904 g / cm^3
# Si number density = 19.934412 Si / 1000 Ang^3
#
#
#
# Elastic Constant Matrix: (Units=GPa)
#
#
# Indices 1 2 3 4 5 6 
#
# 1 147.8215 30.4972 68.1071 0.0000 0.0000 0.0000
# 2 30.4972 52.3393 38.9597 0.0000 0.0000 0.0000
# 3 68.1071 38.9597 153.0019 0.0000 0.0000 0.0000
# 4 0.0000 0.0000 0.0000 13.8382 0.0000 0.0000
# 5 0.0000 0.0000 0.0000 0.0000 12.5138 0.0000
# 6 0.0000 0.0000 0.0000 0.0000 0.0000 -0.8731
#
#
#
# Elastic Compliance Matrix: (Units=1/GPa)
#
#
# Indices 1 2 3 4 5 6 
#
# 1 0.008816 -0.002734 -0.003228 0.000000 0.000000 0.000000
# 2 -0.002734 0.024422 -0.005002 0.000000 0.000000 0.000000
# 3 -0.003228 -0.005002 0.009247 0.000000 0.000000 0.000000
# 4 0.000000 0.000000 0.000000 0.072264 0.000000 0.000000
# 5 0.000000 0.000000 0.000000 0.000000 0.079912 0.000000
# 6 0.000000 0.000000 0.000000 0.000000 0.000000 -1.145377
#
#
# Mechanical properties :
#
#
# Convention : Reuss Voigt Hill
#
# Bulk Modulus (GPa) = 48.64532 69.81008 59.22770
# Shear Modulus (GPa) = -5.42337 19.46903 7.02283
#
# Velocity S-wave (km/s) = -1.65122 3.12854 1.87899
# Velocity P-wave (km/s) = 4.56293 6.93875 5.87225
#
# Compressibility (1/GPa) = 0.02055696
#
# Stress axis : x y z
#
# Youngs Moduli (GPa) = 113.42493 40.94607 108.14855
#
# Poissons Ratio (x) = 0.11195 0.34914
# Poissons Ratio (y) = 0.31012 0.54093
# Poissons Ratio (z) = 0.36617 0.20480
#
# Static dielectric constant tensor:
#      x y z
#    x 3.815760 0.000000 0.000000 
#    y 0.000000 3.355290 0.000000 
#    z 0.000000 0.000000 3.882730 
# 
# 
# High freq. dielectric constant tensor:
#      x y z
#    x 1.777240 0.000000 0.000000 
#    y 0.000000 1.760330 0.000000 
#    z 0.000000 0.000000 1.778750 
# 
# From -- ./inp_files/32668.got.cif
#   From: 2010.03.12/outbox.cif.g09.slc.cpg/sg47_17_cif.got.tgz:32668.got - 2010.04.14 03:12:58.
