data_PCOD8199341
_publ_section_title
;
Structure prediction by ZEFSAII (Michael W. Deem and Ramdas Pophale) SiO2 
 PCOD8199341
Probable space group: P M M M
;
_chemical_formula_sum "Si O2"
_cell_formula_units_Z 40
_cell_length_a 10.232818
_cell_length_b 23.945110
_cell_length_c 9.160503
_cell_angle_alpha 90.000000
_cell_angle_beta 90.000000
_cell_angle_gamma 90.000000
_cell_volume 2244.560974
_symmetry_space_group_name_H-M "P M M M"
_symmetry_group_IT_number 47
_symmetry_cell_setting 'orthorhombic'
loop_
_space_group_symop_operation_xyz
x,y,z
-x,-y,z
x,-y,-z
-x,y,-z
-x,-y,-z
x,y,-z
-x,y,z
x,-y,z
loop_
_atom_site_type_symbol
_atom_site_label
_atom_site_fract_x
_atom_site_fract_y
_atom_site_fract_z
Si Si1 0.752124 0.127700 0.673610
Si Si2 0.151742 0.754716 0.667724
Si Si3 0.648120 0.434566 0.667901
Si Si4 0.500000 0.936284 0.325669
Si Si5 0.149662 0.642491 0.827867
Si Si6 0.000000 0.062617 0.325534
O O1 0.754622 0.124741 0.500000
O O2 0.761868 0.192571 0.721233
O O3 0.623484 0.097854 0.735948
O O4 0.873795 0.093693 0.738051
O O5 0.181775 0.739640 0.500000
O O6 0.192649 0.702219 0.764928
O O7 0.000000 0.770681 0.687409
O O8 0.674831 0.418953 0.500000
O O9 0.500000 0.416834 0.710820
O O10 0.666169 0.500000 0.693506
O O11 0.753822 0.404322 0.767806
O O12 0.500000 0.937323 0.500000
O O13 0.500000 0.000000 0.266615
O O14 0.000000 0.628644 0.781478
O O15 0.163870 0.644709 0.000000
O O16 0.000000 0.063423 0.500000
O O17 0.000000 0.000000 0.265213
#
# Coordination Sequence:
#
# PCOD8199341 Si02
#       6
#     8   8   8   4   8   4
#     4   9  15  24  37  56  83 118 156 193 240 297
#     4   9  16  29  48  67  92 127 167 209 250 295
#     4   9  19  37  59  82 108 138 173 211 252 300
#     4   9  16  24  34  54  89 123 146 183 246 307
#     4  10  21  35  52  77 108 140 175 214 257 304
#     4   9  14  20  34  56  81 111 150 193 238 295
#
# _framework density 17.820858000000001
#
# number of rings (size 3 to 8) (size 9 to 14) (size 15 to 20)
#    0.000    2.800    1.000    1.800    0.000    4.800 
#    1.800    3.000    0.000    0.000    0.000    0.000 
#    0.000    4.800    0.000    0.000    0.000    0.000 
#
# Total GULP energy -495897.242098 kJ/mol
# GULP energy per Si atom -12397.431052 kJ/mol
# Density = 1.778030 g / cm^3
# Si number density = 17.820858 Si / 1000 Ang^3
#
#
#
# Elastic Constant Matrix: (Units=GPa)
#
#
# Indices 1 2 3 4 5 6 
#
# 1 129.5261 75.3666 35.4800 0.0000 0.0000 0.0000
# 2 75.3666 117.7454 42.2893 0.0000 0.0000 0.0000
# 3 35.4800 42.2893 45.4975 0.0000 0.0000 0.0000
# 4 0.0000 0.0000 0.0000 -0.2072 0.0000 0.0000
# 5 0.0000 0.0000 0.0000 0.0000 17.1059 0.0000
# 6 0.0000 0.0000 0.0000 0.0000 0.0000 37.6511
#
#
#
# Elastic Compliance Matrix: (Units=1/GPa)
#
#
# Indices 1 2 3 4 5 6 
#
# 1 0.012666 -0.006845 -0.003515 0.000000 0.000000 0.000000
# 2 -0.006845 0.016448 -0.009950 0.000000 0.000000 0.000000
# 3 -0.003515 -0.009950 0.033969 0.000000 0.000000 0.000000
# 4 0.000000 0.000000 0.000000 -4.826002 0.000000 0.000000
# 5 0.000000 0.000000 0.000000 0.000000 0.058459 0.000000
# 6 0.000000 0.000000 0.000000 0.000000 0.000000 0.026560
#
#
# Mechanical properties :
#
#
# Convention : Reuss Voigt Hill
#
# Bulk Modulus (GPa) = 44.51868 66.56011 55.53939
# Shear Modulus (GPa) = -1.07996 20.21885 9.56944
#
# Velocity S-wave (km/s) = -0.77931 3.37198 2.31980
# Velocity P-wave (km/s) = 4.92196 7.25196 6.19744
#
# Compressibility (1/GPa) = 0.02246248
#
# Stress axis : x y z
#
# Youngs Moduli (GPa) = 78.95105 60.79808 29.43852
#
# Poissons Ratio (x) = 0.41615 0.10348
# Poissons Ratio (y) = 0.54041 0.29292
# Poissons Ratio (z) = 0.27752 0.60496
#
# Static dielectric constant tensor:
#      x y z
#    x 3.423010 0.000000 0.000000 
#    y 0.000000 3.379860 0.000000 
#    z 0.000000 0.000000 2.822830 
# 
# 
# High freq. dielectric constant tensor:
#      x y z
#    x 1.689330 0.000000 0.000000 
#    y 0.000000 1.700560 0.000000 
#    z 0.000000 0.000000 1.637470 
# 
# From -- ./inp_files/1837.got.cif
#   From: 2010.03.12/outbox.cif.g09.slc.cpg/sg47_1_cif.got.tgz:1837.got - 2010.04.14 03:12:58.
