data_PCOD8199022
_publ_section_title
;
Structure prediction by ZEFSAII (Michael W. Deem and Ramdas Pophale) SiO2 
 PCOD8199022
Probable space group: P M M M
;
_chemical_formula_sum "Si O2"
_cell_formula_units_Z 48
_cell_length_a 14.718816
_cell_length_b 9.478384
_cell_length_c 18.335676
_cell_angle_alpha 90.000000
_cell_angle_beta 90.000000
_cell_angle_gamma 90.000000
_cell_volume 2558.020978
_symmetry_space_group_name_H-M "P M M M"
_symmetry_group_IT_number 47
_symmetry_cell_setting 'orthorhombic'
loop_
_space_group_symop_operation_xyz
x,y,z
-x,-y,z
x,-y,-z
-x,y,-z
-x,-y,-z
x,y,-z
-x,y,z
x,-y,z
loop_
_atom_site_type_symbol
_atom_site_label
_atom_site_fract_x
_atom_site_fract_y
_atom_site_fract_z
Si Si1 0.607295 0.656705 0.000000
Si Si2 0.102357 0.831704 0.500000
Si Si3 0.784947 0.831908 0.362226
Si Si4 0.602287 0.839770 0.864237
Si Si5 0.597885 0.167722 0.582599
Si Si6 0.104592 0.335484 0.082758
Si Si7 0.787511 0.161891 0.201727
O O1 0.638537 0.739845 0.928575
O O2 0.651362 0.500000 0.000000
O O3 0.500000 0.645944 0.000000
O O4 0.150735 0.772981 0.573294
O O5 0.000000 0.774202 0.500000
O O6 0.105013 0.000000 0.500000
O O7 0.682803 0.770950 0.372281
O O8 0.819352 0.784789 0.281965
O O9 0.783037 0.000000 0.366156
O O10 0.500000 0.798320 0.837033
O O11 0.677117 0.823537 0.800597
O O12 0.600677 0.000000 0.893703
O O13 0.608197 0.221120 0.500000
O O14 0.500000 0.219647 0.614517
O O15 0.600692 0.000000 0.584046
O O16 0.117478 0.500000 0.098137
O O17 0.165410 0.251592 0.139453
O O18 0.000000 0.291727 0.093531
O O19 0.135546 0.299355 0.000000
O O20 0.816248 0.000000 0.189622
#
# Coordination Sequence:
#
# PCOD8199022 Si02
#       7
#     4   4   8   8   8   8   8
#     4   9  17  29  47  69  90 121 172 223 251 276
#     4   9  16  26  41  59  86 128 163 190 240 302
#     4   9  16  27  40  62  98 130 161 202 242 289
#     4   9  18  32  46  65 101 143 172 198 245 305
#     4   8  12  19  35  58  86 126 169 203 238 281
#     4   9  20  40  61  77  96 127 167 210 260 316
#     4  10  21  32  49  79 108 135 168 210 256 299
#
# _framework density 18.764503999999999
#
# number of rings (size 3 to 8) (size 9 to 14) (size 15 to 20)
#    0.000    3.000    0.833    1.250    1.167    3.667 
#    0.000    5.833    0.000    0.000    0.000    0.583 
#    0.000    2.000    0.000    1.833    0.000    2.000 
#
# Total GULP energy -594746.363266 kJ/mol
# GULP energy per Si atom -12390.549235 kJ/mol
# Density = 1.872180 g / cm^3
# Si number density = 18.764504 Si / 1000 Ang^3
#
#
#
# Elastic Constant Matrix: (Units=GPa)
#
#
# Indices 1 2 3 4 5 6 
#
# 1 117.3952 26.4481 74.1758 0.0000 0.0000 0.0000
# 2 26.4481 39.9032 35.8480 0.0000 0.0000 0.0000
# 3 74.1758 35.8480 138.3657 0.0000 0.0000 0.0000
# 4 0.0000 0.0000 0.0000 3.1848 0.0000 0.0000
# 5 0.0000 0.0000 0.0000 0.0000 20.0352 0.0000
# 6 0.0000 0.0000 0.0000 0.0000 0.0000 15.2787
#
#
#
# Elastic Compliance Matrix: (Units=1/GPa)
#
#
# Indices 1 2 3 4 5 6 
#
# 1 0.013171 -0.003111 -0.006255 0.000000 0.000000 0.000000
# 2 -0.003111 0.033398 -0.006985 0.000000 0.000000 0.000000
# 3 -0.006255 -0.006985 0.012390 0.000000 0.000000 0.000000
# 4 0.000000 0.000000 0.000000 0.313990 0.000000 0.000000
# 5 0.000000 0.000000 0.000000 0.000000 0.049912 0.000000
# 6 0.000000 0.000000 0.000000 0.000000 0.000000 0.065450
#
#
# Mechanical properties :
#
#
# Convention : Reuss Voigt Hill
#
# Bulk Modulus (GPa) = 38.08440 63.17867 50.63153
# Shear Modulus (GPa) = 9.43814 18.31258 13.87536
#
# Velocity S-wave (km/s) = 2.24515 3.12735 2.72223
# Velocity P-wave (km/s) = 5.20202 6.83980 6.07634
#
# Compressibility (1/GPa) = 0.02625747
#
# Stress axis : x y z
#
# Youngs Moduli (GPa) = 75.92304 29.94221 80.70932
#
# Poissons Ratio (x) = 0.09314 0.50484
# Poissons Ratio (y) = 0.23617 0.56377
# Poissons Ratio (z) = 0.47490 0.20915
#
# Static dielectric constant tensor:
#      x y z
#    x 3.662340 0.000000 0.000000 
#    y 0.000000 2.983290 0.000000 
#    z 0.000000 0.000000 3.469460 
# 
# 
# High freq. dielectric constant tensor:
#      x y z
#    x 1.737810 0.000000 0.000000 
#    y 0.000000 1.664800 0.000000 
#    z 0.000000 0.000000 1.724330 
# 
# From -- ./inp_files/27979.got.cif
#   From: 2010.03.12/outbox.cif.g09.slc.cpg/sg47_14_cif.got.tgz:27979.got - 2010.04.14 03:12:58.
