data_PCOD8199489
_publ_section_title
;
Structure prediction by ZEFSAII (Michael W. Deem and Ramdas Pophale) SiO2 
 PCOD8199489
Probable space group: P M M M
;
_chemical_formula_sum "Si O2"
_cell_formula_units_Z 64
_cell_length_a 9.217605
_cell_length_b 26.264604
_cell_length_c 14.456621
_cell_angle_alpha 90.000000
_cell_angle_beta 90.000000
_cell_angle_gamma 90.000000
_cell_volume 3499.900890
_symmetry_space_group_name_H-M "P M M M"
_symmetry_group_IT_number 47
_symmetry_cell_setting 'orthorhombic'
loop_
_space_group_symop_operation_xyz
x,y,z
-x,-y,z
x,-y,-z
-x,y,-z
-x,-y,-z
x,y,-z
-x,y,z
x,-y,z
loop_
_atom_site_type_symbol
_atom_site_label
_atom_site_fract_x
_atom_site_fract_y
_atom_site_fract_z
Si Si1 0.667817 0.697216 0.103492
Si Si2 0.833163 0.056839 0.737883
Si Si3 0.669166 0.248309 0.608001
Si Si4 0.327502 0.555950 0.604700
Si Si5 0.161790 0.796268 0.109493
Si Si6 0.669294 0.651785 0.289231
Si Si7 0.329799 0.895364 0.107042
Si Si8 0.170343 0.147459 0.605669
O O1 0.500000 0.713720 0.103706
O O2 0.758613 0.744993 0.140147
O O3 0.696925 0.652635 0.178174
O O4 0.714289 0.679245 0.000000
O O5 0.736096 0.059749 0.830745
O O6 0.779267 0.097697 0.662308
O O7 0.000000 0.067026 0.765117
O O8 0.814037 0.000000 0.696558
O O9 0.699812 0.257157 0.500000
O O10 0.500000 0.240323 0.628762
O O11 0.732507 0.297571 0.661856
O O12 0.751586 0.198039 0.644857
O O13 0.278516 0.567560 0.500000
O O14 0.500000 0.555686 0.611264
O O15 0.269338 0.500000 0.635451
O O16 0.259706 0.600021 0.670219
O O17 0.253467 0.844149 0.144705
O O18 0.000000 0.798191 0.152530
O O19 0.154088 0.797702 0.000000
O O20 0.500000 0.650635 0.312647
O O21 0.500000 0.890022 0.122730
O O22 0.293622 0.906607 0.000000
O O23 0.217792 0.137870 0.500000
O O24 0.000000 0.156449 0.614158
#
# Coordination Sequence:
#
# PCOD8199489 Si02
#       8
#     8   8   8   8   8   8   8   8
#     4   9  17  28  41  61  93 130 164 195 232 282
#     4  10  22  38  55  76  99 126 163 204 245 291
#     4   9  17  29  46  69  95 121 150 188 237 292
#     4   8  13  22  38  61  90 124 162 204 246 287
#     4   9  17  30  48  69  93 122 158 199 240 282
#     4   9  16  25  40  63  91 126 162 196 238 286
#     4  10  21  36  54  75 100 130 162 198 243 295
#     4   9  19  36  55  74  98 127 158 196 242 292
#
# _framework density 18.286231999999998
#
# number of rings (size 3 to 8) (size 9 to 14) (size 15 to 20)
#    0.000    2.875    0.000    1.500    1.750    5.000 
#    0.000    2.500    0.000    0.375    0.000    5.250 
#    0.000    2.000    0.000   12.000    0.000   11.500 
#
# Total GULP energy -793345.448554 kJ/mol
# GULP energy per Si atom -12396.022634 kJ/mol
# Density = 1.824461 g / cm^3
# Si number density = 18.286232 Si / 1000 Ang^3
#
#
#
# Elastic Constant Matrix: (Units=GPa)
#
#
# Indices 1 2 3 4 5 6 
#
# 1 44.4551 32.4643 23.9528 0.0000 0.0000 0.0000
# 2 32.4643 151.6383 73.9609 0.0000 0.0000 0.0000
# 3 23.9528 73.9609 86.6219 0.0000 0.0000 0.0000
# 4 0.0000 0.0000 0.0000 30.8269 0.0000 0.0000
# 5 0.0000 0.0000 0.0000 0.0000 16.0715 0.0000
# 6 0.0000 0.0000 0.0000 0.0000 0.0000 9.2341
#
#
#
# Elastic Compliance Matrix: (Units=1/GPa)
#
#
# Indices 1 2 3 4 5 6 
#
# 1 0.027624 -0.003750 -0.004437 0.000000 0.000000 0.000000
# 2 -0.003750 0.011810 -0.009047 0.000000 0.000000 0.000000
# 3 -0.004437 -0.009047 0.020496 0.000000 0.000000 0.000000
# 4 0.000000 0.000000 0.000000 0.032439 0.000000 0.000000
# 5 0.000000 0.000000 0.000000 0.000000 0.062222 0.000000
# 6 0.000000 0.000000 0.000000 0.000000 0.000000 0.108295
#
#
# Mechanical properties :
#
#
# Convention : Reuss Voigt Hill
#
# Bulk Modulus (GPa) = 39.27355 60.38571 49.82963
# Shear Modulus (GPa) = 16.34842 21.38232 18.86537
#
# Velocity S-wave (km/s) = 2.99328 3.42323 3.21545
# Velocity P-wave (km/s) = 5.78533 6.97989 6.41049
#
# Compressibility (1/GPa) = 0.02546243
#
# Stress axis : x y z
#
# Youngs Moduli (GPa) = 36.20091 84.67349 48.79039
#
# Poissons Ratio (x) = 0.31753 0.21647
# Poissons Ratio (y) = 0.13575 0.44140
# Poissons Ratio (z) = 0.16061 0.76603
#
# Static dielectric constant tensor:
#      x y z
#    x 3.151170 0.000000 0.000000 
#    y 0.000000 3.528710 0.000000 
#    z 0.000000 0.000000 3.401210 
# 
# 
# High freq. dielectric constant tensor:
#      x y z
#    x 1.675670 0.000000 0.000000 
#    y 0.000000 1.696890 0.000000 
#    z 0.000000 0.000000 1.708880 
# 
# From -- ./inp_files/21902.got.cif
#   From: 2010.03.12/outbox.cif.g09.slc.cpg/sg47_11_cif.got.tgz:21902.got - 2010.04.14 03:12:58.
