data_PCOD8199834
_publ_section_title
;
Structure prediction by ZEFSAII (Michael W. Deem and Ramdas Pophale) SiO2 
 PCOD8199834
Probable space group: P M M M
;
_chemical_formula_sum "Si O2"
_cell_formula_units_Z 64
_cell_length_a 24.217143
_cell_length_b 8.894259
_cell_length_c 15.050364
_cell_angle_alpha 90.000000
_cell_angle_beta 90.000000
_cell_angle_gamma 90.000000
_cell_volume 3241.751212
_symmetry_space_group_name_H-M "P M M M"
_symmetry_group_IT_number 47
_symmetry_cell_setting 'orthorhombic'
loop_
_space_group_symop_operation_xyz
x,y,z
-x,-y,z
x,-y,-z
-x,y,-z
-x,-y,-z
x,y,-z
-x,y,z
x,-y,z
loop_
_atom_site_type_symbol
_atom_site_label
_atom_site_fract_x
_atom_site_fract_y
_atom_site_fract_z
Si Si1 0.736173 0.322431 0.900016
Si Si2 0.889182 0.823055 0.398692
Si Si3 0.440005 0.325454 0.731525
Si Si4 0.564268 0.164183 0.904468
Si Si5 0.225183 0.326637 0.602118
Si Si6 0.147867 0.824075 0.101941
Si Si7 0.322494 0.679059 0.274793
Si Si8 0.936779 0.672726 0.234040
O O1 0.744289 0.500000 0.895731
O O2 0.794272 0.250628 0.872142
O O3 0.690900 0.268147 0.826927
O O4 0.718590 0.271196 0.000000
O O5 0.903383 0.775775 0.500000
O O6 0.827524 0.772532 0.373466
O O7 0.931229 0.741254 0.332824
O O8 0.894156 0.000000 0.385723
O O9 0.500000 0.249708 0.703746
O O10 0.446596 0.500000 0.713142
O O11 0.425891 0.297565 0.834859
O O12 0.382944 0.262834 0.687862
O O13 0.500000 0.144621 0.918081
O O14 0.587685 0.000000 0.872676
O O15 0.591028 0.209078 0.000000
O O16 0.242013 0.309144 0.500000
O O17 0.212386 0.500000 0.626110
O O18 0.275834 0.260400 0.659071
O O19 0.099778 0.760520 0.163306
O O20 0.153200 0.000000 0.119263
O O21 0.132549 0.787818 0.000000
O O22 0.324083 0.500000 0.277211
O O23 0.918070 0.500000 0.236497
O O24 0.000000 0.689261 0.204103
#
# Coordination Sequence:
#
# PCOD8199834 Si02
#       8
#     8   8   8   8   8   8   8   8
#     4   9  17  30  49  71  96 129 167 206 253 312
#     4  10  21  37  58  84 113 141 168 207 263 320
#     4   9  17  28  42  61  87 121 159 198 241 290
#     4   8  14  25  39  54  76 108 145 185 227 271
#     4   9  17  31  53  77  99 127 165 207 251 303
#     4  10  21  37  57  80 107 139 176 223 276 321
#     4   9  17  29  46  69  96 125 160 205 253 299
#     4  11  24  39  56  80 110 146 187 224 254 295
#
# _framework density 19.742415999999999
#
# number of rings (size 3 to 8) (size 9 to 14) (size 15 to 20)
#    0.000    2.625    0.000    2.250    0.000    4.750 
#    0.000    6.250    0.000    1.875    0.000    2.625 
#    0.000    0.000    0.000    6.250    0.000    6.500 
#
# Total GULP energy -792877.894046 kJ/mol
# GULP energy per Si atom -12388.717094 kJ/mol
# Density = 1.969748 g / cm^3
# Si number density = 19.742416 Si / 1000 Ang^3
#
#
#
# Elastic Constant Matrix: (Units=GPa)
#
#
# Indices 1 2 3 4 5 6 
#
# 1 98.5940 13.8676 28.0868 0.0000 0.0000 0.0000
# 2 13.8676 30.5713 8.4571 0.0000 0.0000 0.0000
# 3 28.0868 8.4571 54.1171 0.0000 0.0000 0.0000
# 4 0.0000 0.0000 0.0000 22.0108 0.0000 0.0000
# 5 0.0000 0.0000 0.0000 0.0000 15.8984 0.0000
# 6 0.0000 0.0000 0.0000 0.0000 0.0000 2.7652
#
#
#
# Elastic Compliance Matrix: (Units=1/GPa)
#
#
# Indices 1 2 3 4 5 6 
#
# 1 0.012354 -0.004003 -0.005786 0.000000 0.000000 0.000000
# 2 -0.004003 0.035486 -0.003468 0.000000 0.000000 0.000000
# 3 -0.005786 -0.003468 0.022023 0.000000 0.000000 0.000000
# 4 0.000000 0.000000 0.000000 0.045432 0.000000 0.000000
# 5 0.000000 0.000000 0.000000 0.000000 0.062899 0.000000
# 6 0.000000 0.000000 0.000000 0.000000 0.000000 0.361639
#
#
# Mechanical properties :
#
#
# Convention : Reuss Voigt Hill
#
# Bulk Modulus (GPa) = 23.06879 31.56729 27.31804
# Shear Modulus (GPa) = 8.60885 16.99293 12.80089
#
# Velocity S-wave (km/s) = 2.09047 2.93701 2.54912
# Velocity P-wave (km/s) = 4.18772 5.24649 4.74672
#
# Compressibility (1/GPa) = 0.04334861
#
# Stress axis : x y z
#
# Youngs Moduli (GPa) = 80.94542 28.18038 45.40633
#
# Poissons Ratio (x) = 0.11282 0.26273
# Poissons Ratio (y) = 0.32405 0.15746
# Poissons Ratio (z) = 0.46836 0.09772
#
# Static dielectric constant tensor:
#      x y z
#    x 3.815470 0.000000 0.000000 
#    y 0.000000 3.453240 0.000000 
#    z 0.000000 0.000000 3.657980 
# 
# 
# High freq. dielectric constant tensor:
#      x y z
#    x 1.774770 0.000000 0.000000 
#    y 0.000000 1.749740 0.000000 
#    z 0.000000 0.000000 1.752510 
# 
# From -- ./inp_files/12683.got.cif
#   From: 2010.03.12/outbox.cif.g09.slc.cpg/sg47_7_cif.got.tgz:12683.got - 2010.04.14 03:12:58.
