data_PCOD8199423
_publ_section_title
;
Structure prediction by ZEFSAII (Michael W. Deem and Ramdas Pophale) SiO2 
 PCOD8199423
Probable space group: P M M M
;
_chemical_formula_sum "Si O2"
_cell_formula_units_Z 64
_cell_length_a 17.831578
_cell_length_b 20.102025
_cell_length_c 9.200073
_cell_angle_alpha 90.000000
_cell_angle_beta 90.000000
_cell_angle_gamma 90.000000
_cell_volume 3297.773773
_symmetry_space_group_name_H-M "P M M M"
_symmetry_group_IT_number 47
_symmetry_cell_setting 'orthorhombic'
loop_
_space_group_symop_operation_xyz
x,y,z
-x,-y,z
x,-y,-z
-x,y,-z
-x,-y,-z
x,y,-z
-x,y,z
x,-y,z
loop_
_atom_site_type_symbol
_atom_site_label
_atom_site_fract_x
_atom_site_fract_y
_atom_site_fract_z
Si Si1 0.855570 0.075107 0.168551
Si Si2 0.584818 0.868793 0.834985
Si Si3 0.084528 0.214223 0.167838
Si Si4 0.416300 0.598521 0.665725
Si Si5 0.713724 0.076108 0.342594
Si Si6 0.731552 0.425825 0.167841
Si Si7 0.207481 0.301375 0.669839
Si Si8 0.627505 0.745846 0.337999
O O1 0.914501 0.134174 0.201592
O O2 0.781284 0.103426 0.246038
O O3 0.881363 0.000000 0.221258
O O4 0.836845 0.070105 0.000000
O O5 0.500000 0.894021 0.821102
O O6 0.634901 0.916209 0.736659
O O7 0.591770 0.793528 0.780941
O O8 0.612854 0.872646 0.000000
O O9 0.139438 0.258586 0.265300
O O10 0.000000 0.238198 0.199830
O O11 0.106536 0.225967 0.000000
O O12 0.397664 0.577106 0.500000
O O13 0.500000 0.573332 0.709130
O O14 0.353207 0.569120 0.770564
O O15 0.416066 0.677571 0.678267
O O16 0.712862 0.112859 0.500000
O O17 0.729243 0.000000 0.369228
O O18 0.766770 0.500000 0.182182
O O19 0.784005 0.373594 0.253636
O O20 0.727358 0.403533 0.000000
O O21 0.192306 0.314251 0.500000
O O22 0.284003 0.260858 0.694218
O O23 0.615313 0.774741 0.500000
#
# Coordination Sequence:
#
# PCOD8199423 Si02
#       8
#     8   8   8   8   8   8   8   8
#     4   9  18  34  57  83 111 145 182 217 255 305
#     4  11  23  34  46  68  96 127 166 215 270 321
#     4  10  21  36  56  85 119 150 178 213 260 313
#     4   9  18  32  50  74 106 144 183 223 268 316
#     4  10  21  36  53  71  92 124 168 215 262 313
#     4  10  21  36  55  80 109 143 184 229 278 330
#     4  10  21  37  58  82 108 142 183 225 268 318
#     4   9  18  33  52  73  98 131 173 217 259 307
#
# _framework density 19.407031
#
# number of rings (size 3 to 8) (size 9 to 14) (size 15 to 20)
#    0.000    2.250    0.000    3.375    0.000    9.500 
#    0.000    3.750    0.000    0.375    0.000    5.250 
#    0.000    0.000    0.000    0.000    0.000    0.000 
#
# Total GULP energy -793202.532831 kJ/mol
# GULP energy per Si atom -12393.789575 kJ/mol
# Density = 1.936286 g / cm^3
# Si number density = 19.407031 Si / 1000 Ang^3
#
#
#
# Elastic Constant Matrix: (Units=GPa)
#
#
# Indices 1 2 3 4 5 6 
#
# 1 84.8952 31.8750 44.7830 0.0000 0.0000 0.0000
# 2 31.8750 75.1102 34.8688 0.0000 0.0000 0.0000
# 3 44.7830 34.8688 104.5185 0.0000 0.0000 0.0000
# 4 0.0000 0.0000 0.0000 15.4989 0.0000 0.0000
# 5 0.0000 0.0000 0.0000 0.0000 24.2650 0.0000
# 6 0.0000 0.0000 0.0000 0.0000 0.0000 -2.6715
#
#
#
# Elastic Compliance Matrix: (Units=1/GPa)
#
#
# Indices 1 2 3 4 5 6 
#
# 1 0.016343 -0.004360 -0.005548 0.000000 0.000000 0.000000
# 2 -0.004360 0.016917 -0.003776 0.000000 0.000000 0.000000
# 3 -0.005548 -0.003776 0.013204 0.000000 0.000000 0.000000
# 4 0.000000 0.000000 0.000000 0.064521 0.000000 0.000000
# 5 0.000000 0.000000 0.000000 0.000000 0.041212 0.000000
# 6 0.000000 0.000000 0.000000 0.000000 0.000000 -0.374325
#
#
# Mechanical properties :
#
#
# Convention : Reuss Voigt Hill
#
# Bulk Modulus (GPa) = 52.36380 54.17528 53.26954
# Shear Modulus (GPa) = -26.53983 17.61829 -4.46077
#
# Velocity S-wave (km/s) = -3.70203 3.01629 -1.51774
# Velocity P-wave (km/s) = 2.96092 6.33297 4.94336
#
# Compressibility (1/GPa) = 0.01909716
#
# Stress axis : x y z
#
# Youngs Moduli (GPa) = 61.18906 59.11283 75.73274
#
# Poissons Ratio (x) = 0.25773 0.42015
# Poissons Ratio (y) = 0.26678 0.28593
# Poissons Ratio (z) = 0.33947 0.22318
#
# Static dielectric constant tensor:
#      x y z
#    x 3.362120 0.000000 0.000000 
#    y 0.000000 3.519190 0.000000 
#    z 0.000000 0.000000 3.841420 
# 
# 
# High freq. dielectric constant tensor:
#      x y z
#    x 1.733860 0.000000 0.000000 
#    y 0.000000 1.756550 0.000000 
#    z 0.000000 0.000000 1.759210 
# 
# From -- ./inp_files/9999.got.cif
#   From: 2010.03.12/outbox.cif.g09.slc.cpg/sg47_5_cif.got.tgz:9999.got - 2010.04.14 03:12:58.
