data_PCOD8199667
_publ_section_title
;
Structure prediction by ZEFSAII (Michael W. Deem and Ramdas Pophale) SiO2 
 PCOD8199667
Probable space group: P M M M
;
_chemical_formula_sum "Si O2"
_cell_formula_units_Z 64
_cell_length_a 24.764474
_cell_length_b 14.780111
_cell_length_c 8.905374
_cell_angle_alpha 90.000000
_cell_angle_beta 90.000000
_cell_angle_gamma 90.000000
_cell_volume 3259.559904
_symmetry_space_group_name_H-M "P M M M"
_symmetry_group_IT_number 47
_symmetry_cell_setting 'orthorhombic'
loop_
_space_group_symop_operation_xyz
x,y,z
-x,-y,z
x,-y,-z
-x,y,-z
-x,-y,-z
x,y,-z
-x,y,z
x,-y,z
loop_
_atom_site_type_symbol
_atom_site_label
_atom_site_fract_x
_atom_site_fract_y
_atom_site_fract_z
Si Si1 0.413352 0.899950 0.323290
Si Si2 0.660696 0.604518 0.178109
Si Si3 0.440861 0.720010 0.826234
Si Si4 0.060409 0.898746 0.178397
Si Si5 0.755282 0.717873 0.678405
Si Si6 0.708772 0.097091 0.678107
Si Si7 0.936785 0.601272 0.667173
Si Si8 0.132924 0.263538 0.174446
O O1 0.417016 0.885250 0.500000
O O2 0.445413 0.819108 0.246531
O O3 0.352173 0.893491 0.264792
O O4 0.436728 0.000000 0.281661
O O5 0.655410 0.500000 0.226811
O O6 0.607236 0.657133 0.239806
O O7 0.714460 0.645260 0.251827
O O8 0.665747 0.613331 0.000000
O O9 0.500000 0.673806 0.800432
O O10 0.429170 0.734316 0.000000
O O11 0.106729 0.830267 0.237109
O O12 0.000000 0.873002 0.238244
O O13 0.075456 0.000000 0.233270
O O14 0.059025 0.894273 0.000000
O O15 0.750837 0.710429 0.500000
O O16 0.742029 0.818445 0.741333
O O17 0.815962 0.702083 0.731193
O O18 0.709230 0.098751 0.500000
O O19 0.732709 0.000000 0.734712
O O20 0.922627 0.638804 0.500000
O O21 0.914016 0.500000 0.682237
O O22 0.911646 0.660222 0.799727
O O23 0.000000 0.601827 0.692838
O O24 0.148228 0.256287 0.000000
#
# Coordination Sequence:
#
# PCOD8199667 Si02
#       8
#     8   8   8   8   8   8   8   8
#     4   9  17  32  55  81 110 146 185 220 258 311
#     4  10  22  41  62  81 105 139 181 229 279 333
#     4  10  21  36  56  84 116 145 176 221 276 333
#     4   8  15  30  52  78 111 151 190 226 267 316
#     4  11  22  37  58  81 108 144 183 226 277 328
#     4   8  15  30  53  78 103 135 176 219 262 310
#     4   9  19  37  59  81 107 140 178 223 276 330
#     4  11  22  34  53  83 116 147 184 228 272 324
#
# _framework density 19.634553
#
# number of rings (size 3 to 8) (size 9 to 14) (size 15 to 20)
#    0.000    2.500    1.250    2.625    0.000    3.250 
#    0.000    3.125    0.000    2.250    0.000    6.125 
#    0.000    0.000    0.000    0.000    0.000    0.000 
#
# Total GULP energy -793154.915160 kJ/mol
# GULP energy per Si atom -12393.045549 kJ/mol
# Density = 1.958986 g / cm^3
# Si number density = 19.634553 Si / 1000 Ang^3
#
#
#
# Elastic Constant Matrix: (Units=GPa)
#
#
# Indices 1 2 3 4 5 6 
#
# 1 101.8408 61.8754 27.0582 0.0000 0.0000 0.0000
# 2 61.8754 134.8292 32.5761 0.0000 0.0000 0.0000
# 3 27.0582 32.5761 32.3281 0.0000 0.0000 0.0000
# 4 0.0000 0.0000 0.0000 25.7126 0.0000 0.0000
# 5 0.0000 0.0000 0.0000 0.0000 19.9018 0.0000
# 6 0.0000 0.0000 0.0000 0.0000 0.0000 12.9289
#
#
#
# Elastic Compliance Matrix: (Units=1/GPa)
#
#
# Indices 1 2 3 4 5 6 
#
# 1 0.014826 -0.005030 -0.007340 0.000000 0.000000 0.000000
# 2 -0.005030 0.011510 -0.007388 0.000000 0.000000 0.000000
# 3 -0.007340 -0.007388 0.044521 0.000000 0.000000 0.000000
# 4 0.000000 0.000000 0.000000 0.038891 0.000000 0.000000
# 5 0.000000 0.000000 0.000000 0.000000 0.050247 0.000000
# 6 0.000000 0.000000 0.000000 0.000000 0.000000 0.077346
#
#
# Mechanical properties :
#
#
# Convention : Reuss Voigt Hill
#
# Bulk Modulus (GPa) = 31.90803 56.89085 44.39944
# Shear Modulus (GPa) = 17.40304 21.54121 19.47212
#
# Velocity S-wave (km/s) = 2.98039 3.31585 3.15259
# Velocity P-wave (km/s) = 5.30376 6.61042 5.99281
#
# Compressibility (1/GPa) = 0.03134007
#
# Stress axis : x y z
#
# Youngs Moduli (GPa) = 67.45031 86.87787 22.46111
#
# Poissons Ratio (x) = 0.43703 0.16486
# Poissons Ratio (y) = 0.33930 0.16595
# Poissons Ratio (z) = 0.49509 0.64189
#
# Static dielectric constant tensor:
#      x y z
#    x 3.590390 0.000000 0.000000 
#    y 0.000000 3.905530 0.000000 
#    z 0.000000 0.000000 3.206200 
# 
# 
# High freq. dielectric constant tensor:
#      x y z
#    x 1.764830 0.000000 0.000000 
#    y 0.000000 1.771370 0.000000 
#    z 0.000000 0.000000 1.731720 
# 
# From -- ./inp_files/7899.got.cif
#   From: 2010.03.12/outbox.cif.g09.slc.cpg/sg47_4_cif.got.tgz:7899.got - 2010.04.14 03:12:58.
