data_PCOD8199189
_publ_section_title
;
Structure prediction by ZEFSAII (Michael W. Deem and Ramdas Pophale) SiO2 
 PCOD8199189
Probable space group: P M M M
;
_chemical_formula_sum "Si O2"
_cell_formula_units_Z 40
_cell_length_a 9.731958
_cell_length_b 25.925882
_cell_length_c 9.190123
_cell_angle_alpha 90.000000
_cell_angle_beta 90.000000
_cell_angle_gamma 90.000000
_cell_volume 2318.756210
_symmetry_space_group_name_H-M "P M M M"
_symmetry_group_IT_number 47
_symmetry_cell_setting 'orthorhombic'
loop_
_space_group_symop_operation_xyz
x,y,z
-x,-y,z
x,-y,-z
-x,y,-z
-x,-y,-z
x,y,-z
-x,y,z
x,-y,z
loop_
_atom_site_type_symbol
_atom_site_label
_atom_site_fract_x
_atom_site_fract_y
_atom_site_fract_z
Si Si1 0.836806 0.945398 0.337182
Si Si2 0.341331 0.639187 0.830054
Si Si3 0.341555 0.257786 0.329849
Si Si4 0.157779 0.559910 0.333590
Si Si5 0.845119 0.834937 0.674067
O O1 0.776608 0.947554 0.500000
O O2 0.790639 0.890903 0.263709
O O3 0.000000 0.942912 0.344726
O O4 0.791706 0.000000 0.258191
O O5 0.500000 0.628204 0.793001
O O6 0.290651 0.691104 0.751558
O O7 0.254107 0.591256 0.774130
O O8 0.316461 0.646141 0.000000
O O9 0.315028 0.266332 0.500000
O O10 0.500000 0.245974 0.295798
O O11 0.254310 0.209833 0.267806
O O12 0.196446 0.572828 0.500000
O O13 0.182410 0.500000 0.301208
O O14 0.000000 0.574738 0.303478
O O15 0.841962 0.837610 0.500000
O O16 0.000000 0.823172 0.728248
#
# Coordination Sequence:
#
# PCOD8199189 Si02
#       5
#     8   8   8   8   8
#     4   7   9  14  26  46  73 103 133 167 209 257
#     4  10  21  35  50  70  96 125 158 194 230 270
#     4   9  17  29  44  61  84 115 148 183 225 269
#     4   9  19  36  56  77 100 125 153 185 223 269
#     4   8  13  21  35  56  79 105 141 180 215 258
#
# _framework density 17.250629
#
# number of rings (size 3 to 8) (size 9 to 14) (size 15 to 20)
#    0.000    3.400    0.000    3.000    0.000    3.200 
#    0.000    5.000    0.000    0.600    0.000    4.200 
#    0.000    0.800    0.000   10.000    0.000    9.200 
#
# Total GULP energy -495536.759756 kJ/mol
# GULP energy per Si atom -12388.418994 kJ/mol
# Density = 1.721137 g / cm^3
# Si number density = 17.250629 Si / 1000 Ang^3
#
#
#
# Elastic Constant Matrix: (Units=GPa)
#
#
# Indices 1 2 3 4 5 6 
#
# 1 58.8727 63.4097 25.7646 0.0000 0.0000 0.0000
# 2 63.4097 145.9155 41.8251 0.0000 0.0000 0.0000
# 3 25.7646 41.8251 36.8232 0.0000 0.0000 0.0000
# 4 0.0000 0.0000 0.0000 0.9162 0.0000 0.0000
# 5 0.0000 0.0000 0.0000 0.0000 16.3455 0.0000
# 6 0.0000 0.0000 0.0000 0.0000 0.0000 10.4009
#
#
#
# Elastic Compliance Matrix: (Units=1/GPa)
#
#
# Indices 1 2 3 4 5 6 
#
# 1 0.034485 -0.011965 -0.010538 0.000000 0.000000 0.000000
# 2 -0.011965 0.014313 -0.007886 0.000000 0.000000 0.000000
# 3 -0.010538 -0.007886 0.043487 0.000000 0.000000 0.000000
# 4 0.000000 0.000000 0.000000 1.091439 0.000000 0.000000
# 5 0.000000 0.000000 0.000000 0.000000 0.061179 0.000000
# 6 0.000000 0.000000 0.000000 0.000000 0.000000 0.096145
#
#
# Mechanical properties :
#
#
# Convention : Reuss Voigt Hill
#
# Bulk Modulus (GPa) = 31.73863 55.95669 43.84766
# Shear Modulus (GPa) = 3.54025 12.90666 8.22346
#
# Velocity S-wave (km/s) = 1.43412 2.73826 2.18573
# Velocity P-wave (km/s) = 4.60225 6.51961 5.64296
#
# Compressibility (1/GPa) = 0.03150734
#
# Stress axis : x y z
#
# Youngs Moduli (GPa) = 28.99808 69.86478 22.99553
#
# Poissons Ratio (x) = 0.83596 0.24232
# Poissons Ratio (y) = 0.34697 0.18133
# Poissons Ratio (z) = 0.30558 0.55093
#
# Static dielectric constant tensor:
#      x y z
#    x 3.028970 0.000000 0.000000 
#    y 0.000000 3.698600 0.000000 
#    z 0.000000 0.000000 2.763890 
# 
# 
# High freq. dielectric constant tensor:
#      x y z
#    x 1.639270 0.000000 0.000000 
#    y 0.000000 1.690420 0.000000 
#    z 0.000000 0.000000 1.613740 
# 
# From -- ./inp_files/1654.got.cif
#   From: 2010.03.12/outbox.cif.g09.slc.cpg/sg47_1_cif.got.tgz:1654.got - 2010.04.14 03:12:58.
