data_PCOD8199772
_publ_section_title
;
Structure prediction by ZEFSAII (Michael W. Deem and Ramdas Pophale) SiO2 
 PCOD8199772
Probable space group: P M M M
;
_chemical_formula_sum "Si O2"
_cell_formula_units_Z 56
_cell_length_a 15.198098
_cell_length_b 20.873866
_cell_length_c 8.875123
_cell_angle_alpha 90.000000
_cell_angle_beta 90.000000
_cell_angle_gamma 90.000000
_cell_volume 2815.571188
_symmetry_space_group_name_H-M "P M M M"
_symmetry_group_IT_number 47
_symmetry_cell_setting 'orthorhombic'
loop_
_space_group_symop_operation_xyz
x,y,z
-x,-y,z
x,-y,-z
-x,y,-z
-x,-y,-z
x,y,-z
-x,y,z
x,-y,z
loop_
_atom_site_type_symbol
_atom_site_label
_atom_site_fract_x
_atom_site_fract_y
_atom_site_fract_z
Si Si1 0.000000 0.570671 0.823900
Si Si2 0.401867 0.924261 0.329842
Si Si3 0.598647 0.295779 0.172354
Si Si4 0.327639 0.570683 0.827292
Si Si5 0.896098 0.000000 0.320849
Si Si6 0.241361 0.237717 0.673087
Si Si7 0.777703 0.109893 0.822433
Si Si8 0.164898 0.375212 0.672340
O O1 0.916581 0.610652 0.775952
O O2 0.000000 0.500000 0.748702
O O3 0.000000 0.563253 0.000000
O O4 0.385049 0.899328 0.500000
O O5 0.500000 0.902078 0.275016
O O6 0.324643 0.899041 0.222492
O O7 0.397841 0.000000 0.327903
O O8 0.500000 0.273457 0.203751
O O9 0.604234 0.372116 0.208369
O O10 0.658459 0.252155 0.278567
O O11 0.626766 0.283233 0.000000
O O12 0.369663 0.500000 0.796448
O O13 0.244335 0.578879 0.719562
O O14 0.295577 0.575207 0.000000
O O15 0.846007 0.937892 0.257284
O O16 0.886798 0.000000 0.500000
O O17 0.000000 0.000000 0.274016
O O18 0.241372 0.216209 0.500000
O O19 0.197186 0.181758 0.772318
O O20 0.185490 0.301098 0.700953
O O21 0.787482 0.100643 0.000000
O O22 0.141775 0.389157 0.500000
#
# Coordination Sequence:
#
# PCOD8199772 Si02
#       8
#     4   8   8   8   4   8   8   8
#     4  11  23  37  57  85 115 146 179 222 285 353
#     4   9  18  34  58  87 121 161 199 236 285 347
#     4   9  18  33  53  79 113 151 194 244 290 337
#     4   9  17  30  50  76 108 147 188 233 289 348
#     4  11  25  47  72  95 122 159 197 238 288 345
#     4  10  22  40  60  81 111 154 197 236 284 344
#     4  12  24  39  64  95 125 157 195 245 298 348
#     4  10  21  37  56  79 107 143 188 236 283 336
#
# _framework density 19.889393999999999
#
# number of rings (size 3 to 8) (size 9 to 14) (size 15 to 20)
#    0.000    2.000    0.714    3.429    0.000    6.286 
#    1.286    2.143    0.000    0.000    0.000    4.000 
#    0.000    0.000    0.000    0.000    0.000    0.000 
#
# Total GULP energy -694281.828013 kJ/mol
# GULP energy per Si atom -12397.889786 kJ/mol
# Density = 1.984412 g / cm^3
# Si number density = 19.889394 Si / 1000 Ang^3
#
#
#
# Elastic Constant Matrix: (Units=GPa)
#
#
# Indices 1 2 3 4 5 6 
#
# 1 100.4131 32.1671 44.7258 0.0000 0.0000 0.0000
# 2 32.1671 103.9700 40.5244 0.0000 0.0000 0.0000
# 3 44.7258 40.5244 94.9278 0.0000 0.0000 0.0000
# 4 0.0000 0.0000 0.0000 30.7805 0.0000 0.0000
# 5 0.0000 0.0000 0.0000 0.0000 30.1766 0.0000
# 6 0.0000 0.0000 0.0000 0.0000 0.0000 12.6216
#
#
#
# Elastic Compliance Matrix: (Units=1/GPa)
#
#
# Indices 1 2 3 4 5 6 
#
# 1 0.012925 -0.001950 -0.005257 0.000000 0.000000 0.000000
# 2 -0.001950 0.011832 -0.004132 0.000000 0.000000 0.000000
# 3 -0.005257 -0.004132 0.014776 0.000000 0.000000 0.000000
# 4 0.000000 0.000000 0.000000 0.032488 0.000000 0.000000
# 5 0.000000 0.000000 0.000000 0.000000 0.033138 0.000000
# 6 0.000000 0.000000 0.000000 0.000000 0.000000 0.079229
#
#
# Mechanical properties :
#
#
# Convention : Reuss Voigt Hill
#
# Bulk Modulus (GPa) = 59.33463 59.34951 59.34207
# Shear Modulus (GPa) = 23.50890 26.84200 25.17545
#
# Velocity S-wave (km/s) = 3.44173 3.67763 3.56163
# Velocity P-wave (km/s) = 6.75951 6.92371 6.84211
#
# Compressibility (1/GPa) = 0.01685356
#
# Stress axis : x y z
#
# Youngs Moduli (GPa) = 77.36822 84.51595 67.67945
#
# Poissons Ratio (x) = 0.16478 0.35582
# Poissons Ratio (y) = 0.15085 0.27968
# Poissons Ratio (z) = 0.40676 0.34926
#
# Static dielectric constant tensor:
#      x y z
#    x 3.514130 0.000000 0.000000 
#    y 0.000000 3.733460 0.000000 
#    z 0.000000 0.000000 3.623370 
# 
# 
# High freq. dielectric constant tensor:
#      x y z
#    x 1.762110 0.000000 0.000000 
#    y 0.000000 1.786120 0.000000 
#    z 0.000000 0.000000 1.774340 
# 
# From -- ./inp_files/7437.got.cif
#   From: 2010.03.12/outbox.cif.g09.slc.cpg/sg47_4_cif.got.tgz:7437.got - 2010.04.14 03:12:58.
