data_PCOD8199583
_publ_section_title
;
Structure prediction by ZEFSAII (Michael W. Deem and Ramdas Pophale) SiO2 
 PCOD8199583
Probable space group: P M M M
;
_chemical_formula_sum "Si O2"
_cell_formula_units_Z 48
_cell_length_a 8.848203
_cell_length_b 28.809681
_cell_length_c 9.929773
_cell_angle_alpha 90.000000
_cell_angle_beta 90.000000
_cell_angle_gamma 90.000000
_cell_volume 2531.237220
_symmetry_space_group_name_H-M "P M M M"
_symmetry_group_IT_number 47
_symmetry_cell_setting 'orthorhombic'
loop_
_space_group_symop_operation_xyz
x,y,z
-x,-y,z
x,-y,-z
-x,y,-z
-x,-y,-z
x,y,-z
-x,y,z
x,-y,z
loop_
_atom_site_type_symbol
_atom_site_label
_atom_site_fract_x
_atom_site_fract_y
_atom_site_fract_z
Si Si1 0.332028 0.946059 0.000000
Si Si2 0.320465 0.053437 0.500000
Si Si3 0.676563 0.804749 0.157256
Si Si4 0.821210 0.100585 0.755933
Si Si5 0.822871 0.374606 0.347789
Si Si6 0.325491 0.553625 0.846128
Si Si7 0.677670 0.721027 0.347006
O O1 0.500000 0.921896 0.000000
O O2 0.233982 0.932681 0.127034
O O3 0.358911 0.000000 0.000000
O O4 0.500000 0.054480 0.500000
O O5 0.259402 0.081820 0.375121
O O6 0.262689 0.000000 0.500000
O O7 0.500000 0.815179 0.180590
O O8 0.773896 0.847131 0.212218
O O9 0.730869 0.760688 0.243911
O O10 0.711268 0.795824 0.000000
O O11 0.000000 0.097662 0.739099
O O12 0.768533 0.385609 0.500000
O O13 0.776500 0.416566 0.252514
O O14 0.750034 0.326823 0.296521
O O15 0.000000 0.368217 0.341190
O O16 0.500000 0.564492 0.817058
O O17 0.289515 0.500000 0.817836
O O18 0.285358 0.566179 0.000000
O O19 0.729637 0.733344 0.500000
O O20 0.500000 0.714597 0.340490
#
# Coordination Sequence:
#
# PCOD8199583 Si02
#       7
#     4   4   8   8   8   8   8
#     4  11  23  41  65  89 117 159 203 239 284 345
#     4  11  25  45  67  89 117 157 201 241 286 349
#     4  10  21  38  60  85 116 154 195 237 284 346
#     4  12  25  40  61  92 125 155 191 242 298 348
#     4  10  21  36  54  81 117 154 190 234 289 347
#     4   9  19  36  57  81 110 147 193 243 291 342
#     4   9  19  36  58  83 110 149 198 243 286 337
#
# _framework density 18.963058
#
# number of rings (size 3 to 8) (size 9 to 14) (size 15 to 20)
#    0.000    1.833    0.833    3.500    1.167    6.667 
#    0.000    4.167    0.000    0.000    0.000    0.000 
#    0.000    0.000    0.000    0.000    0.000    0.000 
#
# Total GULP energy -595293.116641 kJ/mol
# GULP energy per Si atom -12401.939930 kJ/mol
# Density = 1.891990 g / cm^3
# Si number density = 18.963058 Si / 1000 Ang^3
#
#
#
# Elastic Constant Matrix: (Units=GPa)
#
#
# Indices 1 2 3 4 5 6 
#
# 1 60.9309 36.6074 34.1691 0.0000 0.0000 0.0000
# 2 36.6074 112.6288 64.2304 0.0000 0.0000 0.0000
# 3 34.1691 64.2304 127.0431 0.0000 0.0000 0.0000
# 4 0.0000 0.0000 0.0000 41.7099 0.0000 0.0000
# 5 0.0000 0.0000 0.0000 0.0000 -24.7762 0.0000
# 6 0.0000 0.0000 0.0000 0.0000 0.0000 0.7571
#
#
#
# Elastic Compliance Matrix: (Units=1/GPa)
#
#
# Indices 1 2 3 4 5 6 
#
# 1 0.021241 -0.005123 -0.003123 0.000000 0.000000 0.000000
# 2 -0.005123 0.013711 -0.005554 0.000000 0.000000 0.000000
# 3 -0.003123 -0.005554 0.011519 0.000000 0.000000 0.000000
# 4 0.000000 0.000000 0.000000 0.023975 0.000000 0.000000
# 5 0.000000 0.000000 0.000000 0.000000 -0.040361 0.000000
# 6 0.000000 0.000000 0.000000 0.000000 0.000000 1.320825
#
#
# Mechanical properties :
#
#
# Convention : Reuss Voigt Hill
#
# Bulk Modulus (GPa) = 52.98977 63.40183 58.19580
# Shear Modulus (GPa) = 3.61063 14.57790 9.09426
#
# Velocity S-wave (km/s) = 1.38136 2.77565 2.19230
# Velocity P-wave (km/s) = 5.52708 6.61659 6.09622
#
# Compressibility (1/GPa) = 0.01887157
#
# Stress axis : x y z
#
# Youngs Moduli (GPa) = 47.07826 72.93210 86.81002
#
# Poissons Ratio (x) = 0.37363 0.27110
# Poissons Ratio (y) = 0.24118 0.48217
# Poissons Ratio (z) = 0.14702 0.40509
#
# Static dielectric constant tensor:
#      x y z
#    x 3.454110 0.000000 0.000000 
#    y 0.000000 3.516270 0.000000 
#    z 0.000000 0.000000 3.807310 
# 
# 
# High freq. dielectric constant tensor:
#      x y z
#    x 1.736260 0.000000 0.000000 
#    y 0.000000 1.743960 0.000000 
#    z 0.000000 0.000000 1.746920 
# 
# From -- ./inp_files/2693.got.cif
#   From: 2010.03.12/outbox.cif.g09.slc.cpg/sg47_2_cif.got.tgz:2693.got - 2010.04.14 03:12:58.
