data_PCOD8199591
_publ_section_title
;
Structure prediction by ZEFSAII (Michael W. Deem and Ramdas Pophale) SiO2 
 PCOD8199591
Probable space group: P M M M
;
_chemical_formula_sum "Si O2"
_cell_formula_units_Z 44
_cell_length_a 8.001324
_cell_length_b 29.827526
_cell_length_c 9.321334
_cell_angle_alpha 90.000000
_cell_angle_beta 90.000000
_cell_angle_gamma 90.000000
_cell_volume 2224.626773
_symmetry_space_group_name_H-M "P M M M"
_symmetry_group_IT_number 47
_symmetry_cell_setting 'orthorhombic'
loop_
_space_group_symop_operation_xyz
x,y,z
-x,-y,z
x,-y,-z
-x,y,-z
-x,-y,-z
x,y,-z
-x,y,z
x,-y,z
loop_
_atom_site_type_symbol
_atom_site_label
_atom_site_fract_x
_atom_site_fract_y
_atom_site_fract_z
Si Si1 0.195935 0.449008 0.336864
Si Si2 0.000000 0.050764 0.828755
Si Si3 0.691241 0.632176 0.161488
Si Si4 0.801603 0.796868 0.836375
Si Si5 0.686289 0.892816 0.170524
Si Si6 0.193188 0.713701 0.658192
O O1 0.249207 0.438016 0.500000
O O2 0.244046 0.500000 0.298807
O O3 0.293635 0.417162 0.228383
O O4 0.000000 0.441123 0.317918
O O5 0.168552 0.074570 0.768338
O O6 0.000000 0.000000 0.771880
O O7 0.000000 0.052458 0.000000
O O8 0.500000 0.646934 0.159822
O O9 0.790746 0.667486 0.256721
O O10 0.764444 0.631754 0.000000
O O11 0.719438 0.842288 0.775429
O O12 0.727851 0.755425 0.744742
O O13 0.000000 0.801785 0.824925
O O14 0.747417 0.788075 0.000000
O O15 0.500000 0.908204 0.221383
O O16 0.697073 0.893419 0.000000
O O17 0.276795 0.709678 0.500000
O O18 0.000000 0.724047 0.639674
#
# Coordination Sequence:
#
# PCOD8199591 Si02
#       6
#     8   4   8   8   8   8
#     4   9  19  37  60  83 105 132 170 215 262 314
#     4   9  16  26  40  62  97 137 175 217 264 315
#     4  11  24  38  52  75 108 142 176 215 259 310
#     4   9  16  29  49  70  97 134 172 211 259 314
#     4   9  16  26  42  65  94 131 174 217 262 315
#     4  10  21  36  55  79 105 135 173 216 263 316
#
# _framework density 19.778597999999999
#
# number of rings (size 3 to 8) (size 9 to 14) (size 15 to 20)
#    0.000    2.455    0.909    2.182    0.000    6.909 
#    0.000    6.364    0.000    0.000    0.000    0.000 
#    0.000    1.455    0.000    1.636    0.000    1.818 
#
# Total GULP energy -545507.242746 kJ/mol
# GULP energy per Si atom -12397.891881 kJ/mol
# Density = 1.973358 g / cm^3
# Si number density = 19.778598 Si / 1000 Ang^3
#
#
#
# Elastic Constant Matrix: (Units=GPa)
#
#
# Indices 1 2 3 4 5 6 
#
# 1 68.6817 43.2814 23.0925 0.0000 0.0000 0.0000
# 2 43.2814 149.6736 61.2787 0.0000 0.0000 0.0000
# 3 23.0925 61.2787 100.8771 0.0000 0.0000 0.0000
# 4 0.0000 0.0000 0.0000 8.6319 0.0000 0.0000
# 5 0.0000 0.0000 0.0000 0.0000 12.6467 0.0000
# 6 0.0000 0.0000 0.0000 0.0000 0.0000 14.4215
#
#
#
# Elastic Compliance Matrix: (Units=1/GPa)
#
#
# Indices 1 2 3 4 5 6 
#
# 1 0.017926 -0.004663 -0.001271 0.000000 0.000000 0.000000
# 2 -0.004663 0.010106 -0.005071 0.000000 0.000000 0.000000
# 3 -0.001271 -0.005071 0.013285 0.000000 0.000000 0.000000
# 4 0.000000 0.000000 0.000000 0.115850 0.000000 0.000000
# 5 0.000000 0.000000 0.000000 0.000000 0.079072 0.000000
# 6 0.000000 0.000000 0.000000 0.000000 0.000000 0.069341
#
#
# Mechanical properties :
#
#
# Convention : Reuss Voigt Hill
#
# Bulk Modulus (GPa) = 51.79894 63.83751 57.81822
# Shear Modulus (GPa) = 14.96891 19.91200 17.44046
#
# Velocity S-wave (km/s) = 2.75403 3.17637 2.97271
# Velocity P-wave (km/s) = 6.02985 6.76746 6.40928
#
# Compressibility (1/GPa) = 0.01930541
#
# Stress axis : x y z
#
# Youngs Moduli (GPa) = 55.78507 98.95027 75.27476
#
# Poissons Ratio (x) = 0.46145 0.09565
# Poissons Ratio (y) = 0.26015 0.38176
# Poissons Ratio (z) = 0.07089 0.50183
#
# Static dielectric constant tensor:
#      x y z
#    x 3.511190 0.000000 0.000000 
#    y 0.000000 3.661620 0.000000 
#    z 0.000000 0.000000 3.482930 
# 
# 
# High freq. dielectric constant tensor:
#      x y z
#    x 1.763710 0.000000 0.000000 
#    y 0.000000 1.775410 0.000000 
#    z 0.000000 0.000000 1.733980 
# 
# From -- ./inp_files/2202.got.cif
#   From: 2010.03.12/outbox.cif.g09.slc.cpg/sg47_2_cif.got.tgz:2202.got - 2010.04.14 03:12:58.
