data_PCOD8199160
_publ_section_title
;
Structure prediction by ZEFSAII (Michael W. Deem and Ramdas Pophale) SiO2 
 PCOD8199160
Probable space group: P M M M
;
_chemical_formula_sum "Si O2"
_cell_formula_units_Z 44
_cell_length_a 9.405118
_cell_length_b 9.386073
_cell_length_c 28.605327
_cell_angle_alpha 90.000000
_cell_angle_beta 90.000000
_cell_angle_gamma 90.000000
_cell_volume 2525.196002
_symmetry_space_group_name_H-M "P M M M"
_symmetry_group_IT_number 47
_symmetry_cell_setting 'orthorhombic'
loop_
_space_group_symop_operation_xyz
x,y,z
-x,-y,z
x,-y,-z
-x,y,-z
-x,-y,-z
x,y,-z
-x,y,z
x,-y,z
loop_
_atom_site_type_symbol
_atom_site_label
_atom_site_fract_x
_atom_site_fract_y
_atom_site_fract_z
Si Si1 0.668992 0.160489 0.051267
Si Si2 0.331440 0.666453 0.398758
Si Si3 0.335379 0.665852 0.138571
Si Si4 0.834768 0.664169 0.771228
Si Si5 0.334148 0.335784 0.500000
Si Si6 0.165905 0.833961 0.679714
O O1 0.500000 0.167221 0.051900
O O2 0.729916 0.258459 0.092679
O O3 0.721890 0.000000 0.060079
O O4 0.722833 0.213141 0.000000
O O5 0.500000 0.686835 0.393532
O O6 0.292100 0.500000 0.391707
O O7 0.277024 0.723724 0.450168
O O8 0.252773 0.763487 0.361770
O O9 0.500000 0.704495 0.146094
O O10 0.311435 0.500000 0.130611
O O11 0.251560 0.719686 0.184005
O O12 0.797946 0.500000 0.759679
O O13 0.786439 0.759825 0.727755
O O14 0.000000 0.683962 0.782442
O O15 0.296913 0.500000 0.500000
O O16 0.500000 0.310254 0.500000
O O17 0.000000 0.807946 0.670287
O O18 0.203433 0.000000 0.682871
#
# Coordination Sequence:
#
# PCOD8199160 Si02
#       6
#     8   8   8   8   4   8
#     4   8  14  25  41  62  89 119 147 175 213 263
#     4   9  17  31  53  77  98 123 157 196 236 278
#     4   9  17  28  44  68  92 111 140 186 230 265
#     4   9  18  33  50  65  86 120 156 188 229 280
#     4   7  12  26  48  73  98 122 152 191 232 275
#     4  10  21  35  49  68  96 128 161 196 235 281
#
# _framework density 17.424389000000001
#
# number of rings (size 3 to 8) (size 9 to 14) (size 15 to 20)
#    0.000    3.182    0.000    2.182    0.000    3.273 
#    0.000    4.545    0.000    4.909    0.000    3.818 
#    0.000    0.000    0.000    0.000    0.000    0.000 
#
# Total GULP energy -545257.727151 kJ/mol
# GULP energy per Si atom -12392.221072 kJ/mol
# Density = 1.738473 g / cm^3
# Si number density = 17.424389 Si / 1000 Ang^3
#
#
#
# Elastic Constant Matrix: (Units=GPa)
#
#
# Indices 1 2 3 4 5 6 
#
# 1 35.0990 33.6429 57.9095 0.0000 0.0000 0.0000
# 2 33.6429 82.1541 89.1319 0.0000 0.0000 0.0000
# 3 57.9095 89.1319 208.3866 0.0000 0.0000 0.0000
# 4 0.0000 0.0000 0.0000 5.2824 0.0000 0.0000
# 5 0.0000 0.0000 0.0000 0.0000 -9.5956 0.0000
# 6 0.0000 0.0000 0.0000 0.0000 0.0000 19.4303
#
#
#
# Elastic Compliance Matrix: (Units=1/GPa)
#
#
# Indices 1 2 3 4 5 6 
#
# 1 0.058079 -0.011705 -0.011133 0.000000 0.000000 0.000000
# 2 -0.011705 0.025071 -0.007471 0.000000 0.000000 0.000000
# 3 -0.011133 -0.007471 0.011088 0.000000 0.000000 0.000000
# 4 0.000000 0.000000 0.000000 0.189307 0.000000 0.000000
# 5 0.000000 0.000000 0.000000 0.000000 -0.104215 0.000000
# 6 0.000000 0.000000 0.000000 0.000000 0.000000 0.051466
#
#
# Mechanical properties :
#
#
# Convention : Reuss Voigt Hill
#
# Bulk Modulus (GPa) = 29.74427 76.33426 53.03926
# Shear Modulus (GPa) = 16.52233 12.68711 14.60472
#
# Velocity S-wave (km/s) = 3.08268 2.70130 2.89827
# Velocity P-wave (km/s) = 5.45693 7.32348 6.45800
#
# Compressibility (1/GPa) = 0.03361993
#
# Stress axis : x y z
#
# Youngs Moduli (GPa) = 17.21789 39.88728 90.18765
#
# Poissons Ratio (x) = 0.46688 1.00409
# Poissons Ratio (y) = 0.20154 0.67375
# Poissons Ratio (z) = 0.19169 0.29798
#
# Static dielectric constant tensor:
#      x y z
#    x 2.916940 0.000000 0.000000 
#    y 0.000000 3.159910 0.000000 
#    z 0.000000 0.000000 3.695990 
# 
# 
# High freq. dielectric constant tensor:
#      x y z
#    x 1.635970 0.000000 0.000000 
#    y 0.000000 1.658490 0.000000 
#    z 0.000000 0.000000 1.694400 
# 
# From -- ./inp_files/2051.got.cif
#   From: 2010.03.12/outbox.cif.g09.slc.cpg/sg47_2_cif.got.tgz:2051.got - 2010.04.14 03:12:58.
