data_PCOD8199425
_publ_section_title
;
Structure prediction by ZEFSAII (Michael W. Deem and Ramdas Pophale) SiO2 
 PCOD8199425
Probable space group: P M M M
;
_chemical_formula_sum "Si O2"
_cell_formula_units_Z 56
_cell_length_a 9.302222
_cell_length_b 21.342371
_cell_length_c 14.434548
_cell_angle_alpha 90.000000
_cell_angle_beta 90.000000
_cell_angle_gamma 90.000000
_cell_volume 2865.712077
_symmetry_space_group_name_H-M "P M M M"
_symmetry_group_IT_number 47
_symmetry_cell_setting 'orthorhombic'
loop_
_space_group_symop_operation_xyz
x,y,z
-x,-y,z
x,-y,-z
-x,y,-z
-x,-y,-z
x,y,-z
-x,y,z
x,-y,z
loop_
_atom_site_type_symbol
_atom_site_label
_atom_site_fract_x
_atom_site_fract_y
_atom_site_fract_z
Si Si1 0.329862 0.237232 0.107842
Si Si2 0.335473 0.925987 0.604738
Si Si3 0.833253 0.160351 0.738365
Si Si4 0.342564 0.377216 0.107741
Si Si5 0.841479 0.500000 0.848566
Si Si6 0.840027 0.725321 0.607258
Si Si7 0.346066 0.382662 0.603940
Si Si8 0.156996 0.500000 0.633526
O O1 0.500000 0.228887 0.123287
O O2 0.245268 0.185561 0.168899
O O3 0.283522 0.308452 0.139383
O O4 0.289925 0.225445 0.000000
O O5 0.283581 0.906235 0.500000
O O6 0.500000 0.903694 0.618042
O O7 0.241286 0.899415 0.690385
O O8 0.323937 0.000000 0.613745
O O9 0.817720 0.210439 0.657958
O O10 0.000000 0.145771 0.762384
O O11 0.500000 0.390562 0.153096
O O12 0.239121 0.435755 0.126724
O O13 0.365688 0.371136 0.000000
O O14 0.862220 0.500000 0.741221
O O15 0.000000 0.500000 0.896316
O O16 0.805969 0.737108 0.500000
O O17 0.733584 0.674606 0.654760
O O18 0.000000 0.698394 0.620541
O O19 0.374605 0.361016 0.500000
O O20 0.500000 0.396766 0.652921
O O21 0.244657 0.441382 0.599940
O O22 0.000000 0.500000 0.586119
#
# Coordination Sequence:
#
# PCOD8199425 Si02
#       8
#     8   8   8   8   4   8   8   4
#     4   9  20  39  60  82 110 148 195 243 290 343
#     4   9  19  37  61  90 125 164 203 238 272 318
#     4  11  22  34  56  88 121 154 189 231 282 338
#     4   9  19  37  58  77  99 131 173 222 280 342
#     4  11  24  35  48  74 104 131 168 219 276 344
#     4   9  19  35  52  74 109 147 178 213 267 333
#     4  10  21  36  53  72  92 121 170 225 268 313
#     4  11  24  37  48  66  96 131 166 207 264 334
#
# _framework density 19.541391000000001
#
# number of rings (size 3 to 8) (size 9 to 14) (size 15 to 20)
#    0.000    2.286    0.000    3.429    2.000    7.143 
#    0.000    3.571    0.000    0.429    0.000    3.000 
#    0.000    0.000    0.000    0.000    0.000    0.000 
#
# Total GULP energy -693743.825533 kJ/mol
# GULP energy per Si atom -12388.282599 kJ/mol
# Density = 1.949691 g / cm^3
# Si number density = 19.541391 Si / 1000 Ang^3
#
#
#
# Elastic Constant Matrix: (Units=GPa)
#
#
# Indices 1 2 3 4 5 6 
#
# 1 126.9261 50.0615 41.2548 0.0000 0.0000 0.0000
# 2 50.0615 77.2310 35.5298 0.0000 0.0000 0.0000
# 3 41.2548 35.5298 81.4665 0.0000 0.0000 0.0000
# 4 0.0000 0.0000 0.0000 42.1845 0.0000 0.0000
# 5 0.0000 0.0000 0.0000 0.0000 24.8421 0.0000
# 6 0.0000 0.0000 0.0000 0.0000 0.0000 32.9538
#
#
#
# Elastic Compliance Matrix: (Units=1/GPa)
#
#
# Indices 1 2 3 4 5 6 
#
# 1 0.011189 -0.005812 -0.003131 0.000000 0.000000 0.000000
# 2 -0.005812 0.019217 -0.005438 0.000000 0.000000 0.000000
# 3 -0.003131 -0.005438 0.016232 0.000000 0.000000 0.000000
# 4 0.000000 0.000000 0.000000 0.023705 0.000000 0.000000
# 5 0.000000 0.000000 0.000000 0.000000 0.040254 0.000000
# 6 0.000000 0.000000 0.000000 0.000000 0.000000 0.030346
#
#
# Mechanical properties :
#
#
# Convention : Reuss Voigt Hill
#
# Bulk Modulus (GPa) = 55.94138 59.92396 57.93267
# Shear Modulus (GPa) = 28.46337 30.58124 29.52230
#
# Velocity S-wave (km/s) = 3.82064 3.96023 3.89106
# Velocity P-wave (km/s) = 6.93919 7.18630 7.06383
#
# Compressibility (1/GPa) = 0.01787585
#
# Stress axis : x y z
#
# Youngs Moduli (GPa) = 89.37599 52.03645 61.60570
#
# Poissons Ratio (x) = 0.30244 0.19290
# Poissons Ratio (y) = 0.51946 0.33501
# Poissons Ratio (z) = 0.27985 0.28297
#
# Static dielectric constant tensor:
#      x y z
#    x 3.498040 0.000000 0.000000 
#    y 0.000000 3.572530 0.000000 
#    z 0.000000 0.000000 3.531540 
# 
# 
# High freq. dielectric constant tensor:
#      x y z
#    x 1.767930 0.000000 0.000000 
#    y 0.000000 1.744580 0.000000 
#    z 0.000000 0.000000 1.757730 
# 
# From -- ./inp_files/21617.got.cif
#   From: 2010.03.12/outbox.cif.g09.slc.cpg/sg47_11_cif.got.tgz:21617.got - 2010.04.14 03:12:58.
