data_PCOD8199512
_publ_section_title
;
Structure prediction by ZEFSAII (Michael W. Deem and Ramdas Pophale) SiO2 
 PCOD8199512
Probable space group: P M M M
;
_chemical_formula_sum "Si O2"
_cell_formula_units_Z 52
_cell_length_a 14.272903
_cell_length_b 8.997056
_cell_length_c 20.995533
_cell_angle_alpha 90.000000
_cell_angle_beta 90.000000
_cell_angle_gamma 90.000000
_cell_volume 2696.122633
_symmetry_space_group_name_H-M "P M M M"
_symmetry_group_IT_number 47
_symmetry_cell_setting 'orthorhombic'
loop_
_space_group_symop_operation_xyz
x,y,z
-x,-y,z
x,-y,-z
-x,y,-z
-x,-y,-z
x,y,-z
-x,y,z
x,-y,z
loop_
_atom_site_type_symbol
_atom_site_label
_atom_site_fract_x
_atom_site_fract_y
_atom_site_fract_z
Si Si1 0.723953 0.328713 0.071556
Si Si2 0.211918 0.325019 0.624037
Si Si3 0.109368 0.330521 0.251663
Si Si4 0.107964 0.322271 0.500000
Si Si5 0.610013 0.170274 0.180716
Si Si6 0.106919 0.825177 0.122937
Si Si7 0.394906 0.674474 0.689116
O O1 0.730732 0.500000 0.091241
O O2 0.656356 0.246104 0.120072
O O3 0.827667 0.257254 0.072299
O O4 0.684106 0.310501 0.000000
O O5 0.196975 0.500000 0.620492
O O6 0.159445 0.263682 0.686269
O O7 0.164473 0.256307 0.560858
O O8 0.322846 0.285348 0.631602
O O9 0.141089 0.500000 0.237421
O O10 0.139051 0.227322 0.192933
O O11 0.000000 0.322538 0.265166
O O12 0.109283 0.500000 0.500000
O O13 0.000000 0.265927 0.500000
O O14 0.500000 0.186807 0.171389
O O15 0.640759 0.247518 0.246484
O O16 0.642384 0.000000 0.183503
O O17 0.000000 0.778065 0.109230
O O18 0.120715 0.000000 0.117336
O O19 0.500000 0.727107 0.669758
O O20 0.393209 0.500000 0.702995
#
# Coordination Sequence:
#
# PCOD8199512 Si02
#       7
#     8   8   8   4   8   8   8
#     4  11  24  39  55  76 103 138 177 213 253 308
#     4   9  16  26  42  66  97 132 168 207 252 300
#     4   9  16  27  46  71  96 123 160 208 260 311
#     4   9  16  26  41  65 100 137 171 209 254 302
#     4  10  21  37  58  83 108 134 167 211 262 312
#     4  10  21  36  54  77 104 134 171 218 270 317
#     4   9  17  30  49  73 101 132 166 205 251 303
#
# _framework density 19.286957999999998
#
# number of rings (size 3 to 8) (size 9 to 14) (size 15 to 20)
#    0.000    2.385    0.000    2.769    0.000    6.769 
#    0.000    3.462    0.000    2.308    0.000    2.154 
#    0.000    7.385    0.000    0.000    0.000    0.000 
#
# Total GULP energy -644708.894966 kJ/mol
# GULP energy per Si atom -12398.247980 kJ/mol
# Density = 1.924306 g / cm^3
# Si number density = 19.286958 Si / 1000 Ang^3
#
#
#
# Elastic Constant Matrix: (Units=GPa)
#
#
# Indices 1 2 3 4 5 6 
#
# 1 83.2535 27.0703 61.0335 0.0000 0.0000 0.0000
# 2 27.0703 64.0908 32.2083 0.0000 0.0000 0.0000
# 3 61.0335 32.2083 103.5200 0.0000 0.0000 0.0000
# 4 0.0000 0.0000 0.0000 1.1659 0.0000 0.0000
# 5 0.0000 0.0000 0.0000 0.0000 31.3418 0.0000
# 6 0.0000 0.0000 0.0000 0.0000 0.0000 22.9341
#
#
#
# Elastic Compliance Matrix: (Units=1/GPa)
#
#
# Indices 1 2 3 4 5 6 
#
# 1 0.021710 -0.003245 -0.011790 0.000000 0.000000 0.000000
# 2 -0.003245 0.018980 -0.003992 0.000000 0.000000 0.000000
# 3 -0.011790 -0.003992 0.017853 0.000000 0.000000 0.000000
# 4 0.000000 0.000000 0.000000 0.857683 0.000000 0.000000
# 5 0.000000 0.000000 0.000000 0.000000 0.031906 0.000000
# 6 0.000000 0.000000 0.000000 0.000000 0.000000 0.043603
#
#
# Mechanical properties :
#
#
# Convention : Reuss Voigt Hill
#
# Bulk Modulus (GPa) = 48.80722 54.60982 51.70852
# Shear Modulus (GPa) = 4.82337 19.79186 12.30762
#
# Velocity S-wave (km/s) = 1.58312 3.20688 2.52887
# Velocity P-wave (km/s) = 5.35747 6.48752 5.94939
#
# Compressibility (1/GPa) = 0.02048877
#
# Stress axis : x y z
#
# Youngs Moduli (GPa) = 46.06162 52.68832 56.01167
#
# Poissons Ratio (x) = 0.17095 0.66040
# Poissons Ratio (y) = 0.14945 0.22361
# Poissons Ratio (z) = 0.54308 0.21034
#
# Static dielectric constant tensor:
#      x y z
#    x 3.788000 0.000000 0.000000 
#    y 0.000000 3.314650 0.000000 
#    z 0.000000 0.000000 3.540120 
# 
# 
# High freq. dielectric constant tensor:
#      x y z
#    x 1.764570 0.000000 0.000000 
#    y 0.000000 1.722420 0.000000 
#    z 0.000000 0.000000 1.739300 
# 
# From -- ./inp_files/6995.got.cif
#   From: 2010.03.12/outbox.cif.g09.slc.cpg/sg47_4_cif.got.tgz:6995.got - 2010.04.14 03:12:58.
