data_PCOD8199474
_publ_section_title
;
Structure prediction by ZEFSAII (Michael W. Deem and Ramdas Pophale) SiO2 
 PCOD8199474
Probable space group: P M M M
;
_chemical_formula_sum "Si O2"
_cell_formula_units_Z 64
_cell_length_a 9.079872
_cell_length_b 25.895595
_cell_length_c 14.362615
_cell_angle_alpha 90.000000
_cell_angle_beta 90.000000
_cell_angle_gamma 90.000000
_cell_volume 3377.062821
_symmetry_space_group_name_H-M "P M M M"
_symmetry_group_IT_number 47
_symmetry_cell_setting 'orthorhombic'
loop_
_space_group_symop_operation_xyz
x,y,z
-x,-y,z
x,-y,-z
-x,y,-z
-x,-y,-z
x,y,-z
-x,y,z
x,-y,z
loop_
_atom_site_type_symbol
_atom_site_label
_atom_site_fract_x
_atom_site_fract_y
_atom_site_fract_z
Si Si1 0.169852 0.387810 0.395719
Si Si2 0.828574 0.655010 0.108820
Si Si3 0.168287 0.059745 0.892734
Si Si4 0.826293 0.815525 0.392875
Si Si5 0.664183 0.287456 0.610221
Si Si6 0.326353 0.142816 0.225064
Si Si7 0.673274 0.241693 0.106205
Si Si8 0.828144 0.443861 0.215713
O O1 0.220416 0.403793 0.500000
O O2 0.260473 0.339709 0.354092
O O3 0.197637 0.435357 0.326264
O O4 0.000000 0.370746 0.396166
O O5 0.747554 0.706287 0.146748
O O6 0.759979 0.603618 0.157038
O O7 0.000000 0.660960 0.133459
O O8 0.799923 0.648511 0.000000
O O9 0.279245 0.091809 0.829440
O O10 0.000000 0.076285 0.872890
O O11 0.191010 0.000000 0.867981
O O12 0.208168 0.070073 0.000000
O O13 0.783814 0.827795 0.500000
O O14 0.760625 0.761073 0.358557
O O15 0.753703 0.858209 0.325715
O O16 0.000000 0.814432 0.379620
O O17 0.656775 0.289936 0.500000
O O18 0.500000 0.282038 0.653064
O O19 0.500000 0.141936 0.240724
O O20 0.274931 0.192885 0.166594
O O21 0.500000 0.249444 0.111622
O O22 0.725102 0.231964 0.000000
O O23 0.757836 0.500000 0.189952
O O24 0.000000 0.445965 0.192466
#
# Coordination Sequence:
#
# PCOD8199474 Si02
#       8
#     8   8   8   8   8   8   8   8
#     4   9  17  29  46  68  93 123 159 199 249 311
#     4   9  18  32  50  71  93 122 162 207 256 308
#     4   9  19  37  60  86 118 156 196 236 276 320
#     4  10  21  36  53  75 107 147 188 228 271 321
#     4   9  17  30  48  70  97 129 166 210 259 310
#     4  11  22  34  54  85 116 149 187 228 277 328
#     4   9  19  35  52  74 107 141 170 206 258 320
#     4   9  18  31  47  69  93 118 157 210 260 308
#
# _framework density 18.951378999999999
#
# number of rings (size 3 to 8) (size 9 to 14) (size 15 to 20)
#    0.000    2.625    0.000    1.875    1.750    4.750 
#    0.000    4.375    0.000    1.875    0.000    6.125 
#    0.000    0.000    0.000    0.000    0.000    0.000 
#
# Total GULP energy -793487.296033 kJ/mol
# GULP energy per Si atom -12398.239001 kJ/mol
# Density = 1.890824 g / cm^3
# Si number density = 18.951379 Si / 1000 Ang^3
#
#
#
# Elastic Constant Matrix: (Units=GPa)
#
#
# Indices 1 2 3 4 5 6 
#
# 1 65.2102 39.6262 31.6696 0.0000 0.0000 0.0000
# 2 39.6262 106.4978 49.3855 0.0000 0.0000 0.0000
# 3 31.6696 49.3855 68.3206 0.0000 0.0000 0.0000
# 4 0.0000 0.0000 0.0000 25.2611 0.0000 0.0000
# 5 0.0000 0.0000 0.0000 0.0000 20.8629 0.0000
# 6 0.0000 0.0000 0.0000 0.0000 0.0000 15.1899
#
#
#
# Elastic Compliance Matrix: (Units=1/GPa)
#
#
# Indices 1 2 3 4 5 6 
#
# 1 0.021471 -0.005075 -0.006284 0.000000 0.000000 0.000000
# 2 -0.005075 0.015324 -0.008724 0.000000 0.000000 0.000000
# 3 -0.006284 -0.008724 0.023856 0.000000 0.000000 0.000000
# 4 0.000000 0.000000 0.000000 0.039587 0.000000 0.000000
# 5 0.000000 0.000000 0.000000 0.000000 0.047932 0.000000
# 6 0.000000 0.000000 0.000000 0.000000 0.000000 0.065833
#
#
# Mechanical properties :
#
#
# Convention : Reuss Voigt Hill
#
# Bulk Modulus (GPa) = 48.81879 53.48790 51.15334
# Shear Modulus (GPa) = 19.15723 20.21927 19.68825
#
# Velocity S-wave (km/s) = 3.18285 3.26989 3.22667
# Velocity P-wave (km/s) = 6.27083 6.52237 6.39784
#
# Compressibility (1/GPa) = 0.02048392
#
# Stress axis : x y z
#
# Youngs Moduli (GPa) = 46.57482 65.25777 41.91736
#
# Poissons Ratio (x) = 0.33117 0.26342
# Poissons Ratio (y) = 0.23636 0.36571
# Poissons Ratio (z) = 0.29269 0.56934
#
# Static dielectric constant tensor:
#      x y z
#    x 3.357090 0.000000 0.000000 
#    y 0.000000 3.440850 0.000000 
#    z 0.000000 0.000000 3.538810 
# 
# 
# High freq. dielectric constant tensor:
#      x y z
#    x 1.718350 0.000000 0.000000 
#    y 0.000000 1.721690 0.000000 
#    z 0.000000 0.000000 1.740010 
# 
# From -- ./inp_files/21963.got.cif
#   From: 2010.03.12/outbox.cif.g09.slc.cpg/sg47_11_cif.got.tgz:21963.got - 2010.04.14 03:12:58.
