data_PCOD8199135
_publ_section_title
;
Structure prediction by ZEFSAII (Michael W. Deem and Ramdas Pophale) SiO2 
 PCOD8199135
Probable space group: P M M M
;
_chemical_formula_sum "Si O2"
_cell_formula_units_Z 44
_cell_length_a 9.303608
_cell_length_b 17.148742
_cell_length_c 14.628732
_cell_angle_alpha 90.000000
_cell_angle_beta 90.000000
_cell_angle_gamma 90.000000
_cell_volume 2333.943582
_symmetry_space_group_name_H-M "P M M M"
_symmetry_group_IT_number 47
_symmetry_cell_setting 'orthorhombic'
loop_
_space_group_symop_operation_xyz
x,y,z
-x,-y,z
x,-y,-z
-x,y,-z
-x,-y,-z
x,y,-z
-x,y,z
x,-y,z
loop_
_atom_site_type_symbol
_atom_site_label
_atom_site_fract_x
_atom_site_fract_y
_atom_site_fract_z
Si Si1 0.659663 0.407653 0.000000
Si Si2 0.837292 0.000000 0.391342
Si Si3 0.333710 0.150951 0.607398
Si Si4 0.163341 0.740399 0.268177
Si Si5 0.165264 0.412142 0.174435
Si Si6 0.338436 0.000000 0.108635
Si Si7 0.164988 0.851441 0.896236
O O1 0.742022 0.380117 0.909789
O O2 0.653299 0.500000 0.000000
O O3 0.500000 0.371158 0.000000
O O4 0.754047 0.923771 0.355494
O O5 0.837106 0.000000 0.500000
O O6 0.000000 0.000000 0.352868
O O7 0.311836 0.162497 0.500000
O O8 0.500000 0.139029 0.632209
O O9 0.272531 0.227681 0.656280
O O10 0.189979 0.647348 0.258657
O O11 0.192567 0.777875 0.168777
O O12 0.000000 0.757580 0.300136
O O13 0.209519 0.500000 0.204879
O O14 0.000000 0.410207 0.142620
O O15 0.258058 0.922848 0.143917
O O16 0.500000 0.000000 0.147407
O O17 0.335340 0.000000 0.000000
O O18 0.000000 0.878342 0.894581
O O19 0.211136 0.828816 0.000000
#
# Coordination Sequence:
#
# PCOD8199135 Si02
#       7
#     4   4   8   8   8   4   8
#     4   9  17  29  47  73 103 136 173 212 259 315
#     4   9  17  32  57  84 108 136 172 214 261 315
#     4  10  21  37  56  79 109 141 174 216 267 319
#     4  10  21  34  53  79 104 135 175 218 265 317
#     4   9  18  33  53  76 104 138 176 219 268 320
#     4   9  17  30  47  66  92 130 174 212 245 285
#     4   9  18  32  49  69  97 132 168 206 247 297
#
# _framework density 18.852211
#
# number of rings (size 3 to 8) (size 9 to 14) (size 15 to 20)
#    0.000    2.636    0.000    1.364    1.273    6.545 
#    0.000    0.909    0.000    0.545    0.000    3.818 
#    0.000    0.000    0.000    0.000    0.000    0.000 
#
# Total GULP energy -545593.251477 kJ/mol
# GULP energy per Si atom -12399.846624 kJ/mol
# Density = 1.880930 g / cm^3
# Si number density = 18.852211 Si / 1000 Ang^3
#
#
#
# Elastic Constant Matrix: (Units=GPa)
#
#
# Indices 1 2 3 4 5 6 
#
# 1 120.0430 57.8080 44.0358 0.0000 0.0000 0.0000
# 2 57.8080 109.7287 35.9899 0.0000 0.0000 0.0000
# 3 44.0358 35.9899 48.9517 0.0000 0.0000 0.0000
# 4 0.0000 0.0000 0.0000 23.8473 0.0000 0.0000
# 5 0.0000 0.0000 0.0000 0.0000 26.7538 0.0000
# 6 0.0000 0.0000 0.0000 0.0000 0.0000 18.9735
#
#
#
# Elastic Compliance Matrix: (Units=1/GPa)
#
#
# Indices 1 2 3 4 5 6 
#
# 1 0.013762 -0.004203 -0.009290 0.000000 0.000000 0.000000
# 2 -0.004203 0.013293 -0.005992 0.000000 0.000000 0.000000
# 3 -0.009290 -0.005992 0.033191 0.000000 0.000000 0.000000
# 4 0.000000 0.000000 0.000000 0.041934 0.000000 0.000000
# 5 0.000000 0.000000 0.000000 0.000000 0.037378 0.000000
# 6 0.000000 0.000000 0.000000 0.000000 0.000000 0.052705
#
#
# Mechanical properties :
#
#
# Convention : Reuss Voigt Hill
#
# Bulk Modulus (GPa) = 47.00228 61.59898 54.30063
# Shear Modulus (GPa) = 20.97971 23.30756 22.14364
#
# Velocity S-wave (km/s) = 3.33956 3.51996 3.43095
# Velocity P-wave (km/s) = 6.31319 7.01896 6.67541
#
# Compressibility (1/GPa) = 0.02127556
#
# Stress axis : x y z
#
# Youngs Moduli (GPa) = 72.66170 75.22663 30.12887
#
# Poissons Ratio (x) = 0.31621 0.27990
# Poissons Ratio (y) = 0.30542 0.18053
# Poissons Ratio (z) = 0.67503 0.45076
#
# Static dielectric constant tensor:
#      x y z
#    x 3.609950 0.000000 0.000000 
#    y 0.000000 3.468840 0.000000 
#    z 0.000000 0.000000 3.140340 
# 
# 
# High freq. dielectric constant tensor:
#      x y z
#    x 1.735160 0.000000 0.000000 
#    y 0.000000 1.725040 0.000000 
#    z 0.000000 0.000000 1.703900 
# 
# From -- ./inp_files/20964.got.cif
#   From: 2010.03.12/outbox.cif.g09.slc.cpg/sg47_11_cif.got.tgz:20964.got - 2010.04.14 03:12:58.
