data_PCOD8199172
_publ_section_title
;
Structure prediction by ZEFSAII (Michael W. Deem and Ramdas Pophale) SiO2 
 PCOD8199172
Probable space group: P M M M
;
_chemical_formula_sum "Si O2"
_cell_formula_units_Z 44
_cell_length_a 9.366477
_cell_length_b 7.876679
_cell_length_c 30.008641
_cell_angle_alpha 90.000000
_cell_angle_beta 90.000000
_cell_angle_gamma 90.000000
_cell_volume 2213.939485
_symmetry_space_group_name_H-M "P M M M"
_symmetry_group_IT_number 47
_symmetry_cell_setting 'orthorhombic'
loop_
_space_group_symop_operation_xyz
x,y,z
-x,-y,z
x,-y,-z
-x,y,-z
-x,-y,-z
x,y,-z
-x,y,z
x,-y,z
loop_
_atom_site_type_symbol
_atom_site_label
_atom_site_fract_x
_atom_site_fract_y
_atom_site_fract_z
Si Si1 0.164226 0.500000 0.052669
Si Si2 0.342739 0.305611 0.709413
Si Si3 0.668698 0.200656 0.900785
Si Si4 0.330784 0.187397 0.197861
Si Si5 0.338477 0.800353 0.550165
Si Si6 0.844092 0.304373 0.631181
O O1 0.242858 0.326568 0.067778
O O2 0.000000 0.500000 0.069707
O O3 0.169123 0.500000 0.000000
O O4 0.500000 0.218217 0.708179
O O5 0.359818 0.500000 0.696445
O O6 0.275852 0.293708 0.759388
O O7 0.244085 0.216726 0.671797
O O8 0.500000 0.230930 0.908250
O O9 0.717554 0.255031 0.850568
O O10 0.703822 0.000000 0.909616
O O11 0.500000 0.186340 0.196723
O O12 0.269029 0.000000 0.204818
O O13 0.294351 0.748321 0.500000
O O14 0.500000 0.740583 0.559774
O O15 0.234151 0.709020 0.584112
O O16 0.325506 0.000000 0.556559
O O17 0.864471 0.500000 0.642844
O O18 0.000000 0.216712 0.628116
#
# Coordination Sequence:
#
# PCOD8199172 Si02
#       6
#     4   8   8   8   8   8
#     4  11  25  41  57  83 119 161 203 239 288 353
#     4   9  17  29  48  73 100 135 175 212 254 306
#     4   9  19  37  62  90 118 149 191 247 301 347
#     4   8  15  29  51  80 108 134 171 221 274 323
#     4   9  19  36  56  76  96 121 160 211 263 313
#     4  10  21  35  49  70 104 140 171 206 251 305
#
# _framework density 19.874074
#
# number of rings (size 3 to 8) (size 9 to 14) (size 15 to 20)
#    0.000    2.818    0.000    2.455    1.273    4.364 
#    0.000    7.273    0.000    1.091    0.000    0.000 
#    0.000    0.000    0.000    0.000    0.000    0.000 
#
# Total GULP energy -545130.346202 kJ/mol
# GULP energy per Si atom -12389.326050 kJ/mol
# Density = 1.982884 g / cm^3
# Si number density = 19.874074 Si / 1000 Ang^3
#
#
#
# Elastic Constant Matrix: (Units=GPa)
#
#
# Indices 1 2 3 4 5 6 
#
# 1 104.2500 36.7915 67.4939 0.0000 0.0000 0.0000
# 2 36.7915 55.4982 33.4585 0.0000 0.0000 0.0000
# 3 67.4939 33.4585 133.7470 0.0000 0.0000 0.0000
# 4 0.0000 0.0000 0.0000 -20.3941 0.0000 0.0000
# 5 0.0000 0.0000 0.0000 0.0000 8.2573 0.0000
# 6 0.0000 0.0000 0.0000 0.0000 0.0000 14.5307
#
#
#
# Elastic Compliance Matrix: (Units=1/GPa)
#
#
# Indices 1 2 3 4 5 6 
#
# 1 0.016186 -0.006837 -0.006458 0.000000 0.000000 0.000000
# 2 -0.006837 0.024107 -0.002580 0.000000 0.000000 0.000000
# 3 -0.006458 -0.002580 0.011381 0.000000 0.000000 0.000000
# 4 0.000000 0.000000 0.000000 -0.049034 0.000000 0.000000
# 5 0.000000 0.000000 0.000000 0.000000 0.121104 0.000000
# 6 0.000000 0.000000 0.000000 0.000000 0.000000 0.068820
#
#
# Mechanical properties :
#
#
# Convention : Reuss Voigt Hill
#
# Bulk Modulus (GPa) = 50.19163 63.22035 56.70599
# Shear Modulus (GPa) = 21.64914 10.86220 16.25567
#
# Velocity S-wave (km/s) = 3.30406 2.34038 2.86306
# Velocity P-wave (km/s) = 6.31390 6.25961 6.28682
#
# Compressibility (1/GPa) = 0.01992364
#
# Stress axis : x y z
#
# Youngs Moduli (GPa) = 61.78111 41.48212 87.86453
#
# Poissons Ratio (x) = 0.28362 0.56741
# Poissons Ratio (y) = 0.42240 0.22672
# Poissons Ratio (z) = 0.39897 0.10704
#
# Static dielectric constant tensor:
#      x y z
#    x 3.674730 0.000000 0.000000 
#    y 0.000000 3.424640 0.000000 
#    z 0.000000 0.000000 3.862550 
# 
# 
# High freq. dielectric constant tensor:
#      x y z
#    x 1.745670 0.000000 0.000000 
#    y 0.000000 1.758500 0.000000 
#    z 0.000000 0.000000 1.786880 
# 
# From -- ./inp_files/13612.got.cif
#   From: 2010.03.12/outbox.cif.g09.slc.cpg/sg47_7_cif.got.tgz:13612.got - 2010.04.14 03:12:58.
