data_PCOD8199245
_publ_section_title
;
Structure prediction by ZEFSAII (Michael W. Deem and Ramdas Pophale) SiO2 
 PCOD8199245
Probable space group: P M M M
;
_chemical_formula_sum "Si O2"
_cell_formula_units_Z 52
_cell_length_a 9.106557
_cell_length_b 15.854869
_cell_length_c 19.477610
_cell_angle_alpha 90.000000
_cell_angle_beta 90.000000
_cell_angle_gamma 90.000000
_cell_volume 2812.240990
_symmetry_space_group_name_H-M "P M M M"
_symmetry_group_IT_number 47
_symmetry_cell_setting 'orthorhombic'
loop_
_space_group_symop_operation_xyz
x,y,z
-x,-y,z
x,-y,-z
-x,y,-z
-x,-y,-z
x,y,-z
-x,y,z
x,-y,z
loop_
_atom_site_type_symbol
_atom_site_label
_atom_site_fract_x
_atom_site_fract_y
_atom_site_fract_z
Si Si1 0.173554 0.833990 0.575034
Si Si2 0.174596 0.254148 0.204140
Si Si3 0.825542 0.092090 0.713951
Si Si4 0.667095 0.338191 0.575676
Si Si5 0.674274 0.317311 0.920593
Si Si6 0.669598 0.405542 0.719145
Si Si7 0.329013 0.500000 0.079273
O O1 0.227470 0.866811 0.500000
O O2 0.229424 0.895393 0.635388
O O3 0.230303 0.740923 0.590087
O O4 0.000000 0.828069 0.576802
O O5 0.234216 0.168008 0.238877
O O6 0.239877 0.251298 0.126929
O O7 0.231019 0.335517 0.245063
O O8 0.000000 0.257274 0.201575
O O9 0.000000 0.093739 0.716420
O O10 0.767685 0.000000 0.738992
O O11 0.701169 0.378090 0.500000
O O12 0.500000 0.305784 0.577886
O O13 0.694874 0.404916 0.636587
O O14 0.500000 0.307213 0.912124
O O15 0.729010 0.410217 0.892149
O O16 0.718603 0.303409 0.000000
O O17 0.500000 0.386254 0.737248
O O18 0.711281 0.500000 0.745127
O O19 0.500000 0.500000 0.091547
O O20 0.290712 0.500000 0.000000
#
# Coordination Sequence:
#
# PCOD8199245 Si02
#       7
#     8   8   8   8   8   8   4
#     4   9  16  28  49  74  99 129 167 212 261 311
#     4  11  22  35  53  78 108 137 168 214 263 305
#     4   9  18  33  52  75 103 135 172 214 262 312
#     4   9  17  30  49  71  97 131 173 221 264 300
#     4   9  18  34  56  79 105 139 175 208 247 301
#     4  10  21  35  51  72 101 141 183 216 253 307
#     4   7  12  26  49  75  99 127 164 197 228 279
#
# _framework density 18.490591999999999
#
# number of rings (size 3 to 8) (size 9 to 14) (size 15 to 20)
#    0.000    2.692    1.538    1.385    1.077    1.231 
#    0.000    3.077    0.000    6.000    0.000    8.615 
#    0.000    0.000    0.000    0.000    0.000    0.000 
#
# Total GULP energy -644192.967850 kJ/mol
# GULP energy per Si atom -12388.326305 kJ/mol
# Density = 1.844851 g / cm^3
# Si number density = 18.490592 Si / 1000 Ang^3
#
#
#
# Elastic Constant Matrix: (Units=GPa)
#
#
# Indices 1 2 3 4 5 6 
#
# 1 29.7530 28.2303 34.6924 0.0000 0.0000 0.0000
# 2 28.2303 121.6476 66.6177 0.0000 0.0000 0.0000
# 3 34.6924 66.6177 111.0495 0.0000 0.0000 0.0000
# 4 0.0000 0.0000 0.0000 22.8144 0.0000 0.0000
# 5 0.0000 0.0000 0.0000 0.0000 26.4948 0.0000
# 6 0.0000 0.0000 0.0000 0.0000 0.0000 6.9910
#
#
#
# Elastic Compliance Matrix: (Units=1/GPa)
#
#
# Indices 1 2 3 4 5 6 
#
# 1 0.054821 -0.004979 -0.014140 0.000000 0.000000 0.000000
# 2 -0.004979 0.012694 -0.006060 0.000000 0.000000 0.000000
# 3 -0.014140 -0.006060 0.017058 0.000000 0.000000 0.000000
# 4 0.000000 0.000000 0.000000 0.043832 0.000000 0.000000
# 5 0.000000 0.000000 0.000000 0.000000 0.037743 0.000000
# 6 0.000000 0.000000 0.000000 0.000000 0.000000 0.143042
#
#
# Mechanical properties :
#
#
# Convention : Reuss Voigt Hill
#
# Bulk Modulus (GPa) = 29.22573 57.94789 43.58681
# Shear Modulus (GPa) = 13.47882 20.12069 16.79976
#
# Velocity S-wave (km/s) = 2.70285 3.30230 3.01750
# Velocity P-wave (km/s) = 5.05772 6.77845 5.98030
#
# Compressibility (1/GPa) = 0.03421642
#
# Stress axis : x y z
#
# Youngs Moduli (GPa) = 18.24115 78.77459 58.62514
#
# Poissons Ratio (x) = 0.39221 0.82894
# Poissons Ratio (y) = 0.09082 0.35526
# Poissons Ratio (z) = 0.25792 0.47736
#
# Static dielectric constant tensor:
#      x y z
#    x 3.102520 0.000000 0.000000 
#    y 0.000000 3.492880 0.000000 
#    z 0.000000 0.000000 3.702470 
# 
# 
# High freq. dielectric constant tensor:
#      x y z
#    x 1.682910 0.000000 0.000000 
#    y 0.000000 1.696250 0.000000 
#    z 0.000000 0.000000 1.729230 
# 
# From -- ./inp_files/29603.got.cif
#   From: 2010.03.12/outbox.cif.g09.slc.cpg/sg47_15_cif.got.tgz:29603.got - 2010.04.14 03:12:58.
