data_PCOD8199052
_publ_section_title
;
Structure prediction by ZEFSAII (Michael W. Deem and Ramdas Pophale) SiO2 
 PCOD8199052
Probable space group: P M M M
;
_chemical_formula_sum "Si O2"
_cell_formula_units_Z 52
_cell_length_a 8.133179
_cell_length_b 28.226006
_cell_length_c 14.008492
_cell_angle_alpha 90.000000
_cell_angle_beta 90.000000
_cell_angle_gamma 90.000000
_cell_volume 3215.889714
_symmetry_space_group_name_H-M "P M M M"
_symmetry_group_IT_number 47
_symmetry_cell_setting 'orthorhombic'
loop_
_space_group_symop_operation_xyz
x,y,z
-x,-y,z
x,-y,-z
-x,y,-z
-x,-y,-z
x,y,-z
-x,y,z
x,-y,z
loop_
_atom_site_type_symbol
_atom_site_label
_atom_site_fract_x
_atom_site_fract_y
_atom_site_fract_z
Si Si1 0.000000 0.053899 0.613742
Si Si2 0.807142 0.694184 0.715054
Si Si3 0.308453 0.782452 0.394449
Si Si4 0.191268 0.641901 0.895405
Si Si5 0.684116 0.110860 0.386727
Si Si6 0.804975 0.397053 0.393025
Si Si7 0.690811 0.553279 0.787590
O O1 0.168331 0.077957 0.653946
O O2 0.000000 0.057409 0.500000
O O3 0.000000 0.000000 0.649462
O O4 0.758989 0.746772 0.684605
O O5 0.731640 0.679345 0.818798
O O6 0.747468 0.655970 0.636731
O O7 0.000000 0.691173 0.724706
O O8 0.228053 0.774199 0.500000
O O9 0.500000 0.774641 0.404616
O O10 0.270761 0.835412 0.357503
O O11 0.212537 0.588556 0.857044
O O12 0.000000 0.651708 0.906226
O O13 0.275378 0.648030 0.000000
O O14 0.677061 0.106970 0.500000
O O15 0.500000 0.096756 0.347502
O O16 0.741939 0.406706 0.500000
O O17 0.723672 0.435309 0.323496
O O18 0.000000 0.401793 0.385812
O O19 0.500000 0.558589 0.810006
O O20 0.751950 0.500000 0.808258
#
# Coordination Sequence:
#
# PCOD8199052 Si02
#       7
#     4   8   8   8   8   8   8
#     4   9  16  24  36  54  74 106 153 195 232 265
#     4   9  17  28  44  65  83 103 134 169 207 249
#     4   9  17  27  39  58  85 115 143 172 210 253
#     4   9  19  36  53  66  83 107 136 171 209 254
#     4   8  15  26  36  51  78 109 145 188 226 261
#     4   9  18  32  47  64  87 113 142 172 202 244
#     4  10  21  34  47  66  89 109 133 168 209 253
#
# _framework density 16.169709999999998
#
# number of rings (size 3 to 8) (size 9 to 14) (size 15 to 20)
#    0.000    3.000    0.000    2.769    1.077    6.154 
#    0.000    4.615    0.000    0.000    0.000    0.000 
#    0.000    0.000    0.000    0.000    0.000    1.538 
#
# Total GULP energy -644363.044259 kJ/mol
# GULP energy per Si atom -12391.597005 kJ/mol
# Density = 1.613291 g / cm^3
# Si number density = 16.169710 Si / 1000 Ang^3
#
#
#
# Elastic Constant Matrix: (Units=GPa)
#
#
# Indices 1 2 3 4 5 6 
#
# 1 40.4557 30.7101 17.4434 0.0000 0.0000 0.0000
# 2 30.7101 96.1163 41.9279 0.0000 0.0000 0.0000
# 3 17.4434 41.9279 88.1362 0.0000 0.0000 0.0000
# 4 0.0000 0.0000 0.0000 10.9570 0.0000 0.0000
# 5 0.0000 0.0000 0.0000 0.0000 8.1418 0.0000
# 6 0.0000 0.0000 0.0000 0.0000 0.0000 18.6833
#
#
#
# Elastic Compliance Matrix: (Units=1/GPa)
#
#
# Indices 1 2 3 4 5 6 
#
# 1 0.032885 -0.009676 -0.001905 0.000000 0.000000 0.000000
# 2 -0.009676 0.015975 -0.005685 0.000000 0.000000 0.000000
# 3 -0.001905 -0.005685 0.014428 0.000000 0.000000 0.000000
# 4 0.000000 0.000000 0.000000 0.091266 0.000000 0.000000
# 5 0.000000 0.000000 0.000000 0.000000 0.122823 0.000000
# 6 0.000000 0.000000 0.000000 0.000000 0.000000 0.053524
#
#
# Mechanical properties :
#
#
# Convention : Reuss Voigt Hill
#
# Bulk Modulus (GPa) = 34.77569 44.98567 39.88068
# Shear Modulus (GPa) = 13.33268 16.53152 14.93210
#
# Velocity S-wave (km/s) = 2.87461 3.20093 3.04215
# Velocity P-wave (km/s) = 5.70712 6.44536 6.08744
#
# Compressibility (1/GPa) = 0.02875572
#
# Stress axis : x y z
#
# Youngs Moduli (GPa) = 30.40906 62.59614 69.31190
#
# Poissons Ratio (x) = 0.60567 0.13207
# Poissons Ratio (y) = 0.29423 0.39402
# Poissons Ratio (z) = 0.05794 0.35585
#
# Static dielectric constant tensor:
#      x y z
#    x 3.083190 0.000000 0.000000 
#    y 0.000000 3.288620 0.000000 
#    z 0.000000 0.000000 2.572210 
# 
# 
# High freq. dielectric constant tensor:
#      x y z
#    x 1.621640 0.000000 0.000000 
#    y 0.000000 1.607540 0.000000 
#    z 0.000000 0.000000 1.580050 
# 
# From -- ./inp_files/21998.got.cif
#   From: 2010.03.12/outbox.cif.g09.slc.cpg/sg47_11_cif.got.tgz:21998.got - 2010.04.14 03:12:58.
