data_PCOD8199990
_publ_section_title
;
Structure prediction by ZEFSAII (Michael W. Deem and Ramdas Pophale) SiO2 
 PCOD8199990
Probable space group: P M M M
;
_chemical_formula_sum "Si O2"
_cell_formula_units_Z 56
_cell_length_a 13.958699
_cell_length_b 8.738095
_cell_length_c 22.977969
_cell_angle_alpha 90.000000
_cell_angle_beta 90.000000
_cell_angle_gamma 90.000000
_cell_volume 2802.678898
_symmetry_space_group_name_H-M "P M M M"
_symmetry_group_IT_number 47
_symmetry_cell_setting 'orthorhombic'
loop_
_space_group_symop_operation_xyz
x,y,z
-x,-y,z
x,-y,-z
-x,y,-z
-x,-y,-z
x,y,-z
-x,y,z
x,-y,z
loop_
_atom_site_type_symbol
_atom_site_label
_atom_site_fract_x
_atom_site_fract_y
_atom_site_fract_z
Si Si1 0.887561 0.674764 0.066083
Si Si2 0.886795 0.326936 0.500000
Si Si3 0.110719 0.320231 0.721675
Si Si4 0.386502 0.827650 0.000000
Si Si5 0.214564 0.821584 0.829847
Si Si6 0.392030 0.322208 0.432809
Si Si7 0.209023 0.820641 0.610770
Si Si8 0.390212 0.319337 0.879963
O O1 0.858936 0.500000 0.081394
O O2 0.832926 0.791683 0.107653
O O3 0.000000 0.697373 0.074675
O O4 0.857859 0.713930 0.000000
O O5 0.848324 0.500000 0.500000
O O6 0.850089 0.247940 0.557834
O O7 0.000000 0.319839 0.500000
O O8 0.122213 0.500000 0.712414
O O9 0.155505 0.272647 0.782700
O O10 0.166104 0.234529 0.671016
O O11 0.000000 0.270846 0.720747
O O12 0.352550 0.736072 0.056998
O O13 0.500000 0.834515 0.000000
O O14 0.344032 0.000000 0.000000
O O15 0.324517 0.762030 0.831246
O O16 0.212673 0.000000 0.814479
O O17 0.364935 0.292830 0.500000
O O18 0.500000 0.265596 0.420315
O O19 0.382542 0.500000 0.417657
O O20 0.320287 0.227694 0.392278
O O21 0.200743 0.000000 0.607081
O O22 0.500000 0.270071 0.868708
O O23 0.377827 0.500000 0.876193
#
# Coordination Sequence:
#
# PCOD8199990 Si02
#       8
#     8   4   8   4   8   8   8   8
#     4   9  19  37  60  85 115 153 198 247 298 358
#     4  11  23  39  60  87 122 165 209 252 302 363
#     4  11  25  46  69  89 116 161 212 255 300 364
#     4   9  17  31  53  83 118 151 188 241 303 359
#     4  12  25  39  60  89 122 157 196 251 312 365
#     4   9  18  35  61  91 126 170 214 253 296 355
#     4  12  24  38  61  95 130 162 200 255 314 365
#     4  10  21  38  60  85 116 158 204 247 296 361
#
# _framework density 19.980882999999999
#
# number of rings (size 3 to 8) (size 9 to 14) (size 15 to 20)
#    0.000    1.571    0.714    5.571    1.000    7.714 
#    0.000    2.143    0.000    4.286    0.000    0.000 
#    0.000    0.000    0.000    0.000    0.000    0.000 
#
# Total GULP energy -694618.167597 kJ/mol
# GULP energy per Si atom -12403.895850 kJ/mol
# Density = 1.993541 g / cm^3
# Si number density = 19.980883 Si / 1000 Ang^3
#
#
#
# Elastic Constant Matrix: (Units=GPa)
#
#
# Indices 1 2 3 4 5 6 
#
# 1 111.6857 45.7743 51.4164 0.0000 0.0000 0.0000
# 2 45.7743 101.5090 31.2419 0.0000 0.0000 0.0000
# 3 51.4164 31.2419 79.8286 0.0000 0.0000 0.0000
# 4 0.0000 0.0000 0.0000 39.6677 0.0000 0.0000
# 5 0.0000 0.0000 0.0000 0.0000 37.1607 0.0000
# 6 0.0000 0.0000 0.0000 0.0000 0.0000 11.3003
#
#
#
# Elastic Compliance Matrix: (Units=1/GPa)
#
#
# Indices 1 2 3 4 5 6 
#
# 1 0.014045 -0.004035 -0.007467 0.000000 0.000000 0.000000
# 2 -0.004035 0.012360 -0.002238 0.000000 0.000000 0.000000
# 3 -0.007467 -0.002238 0.018212 0.000000 0.000000 0.000000
# 4 0.000000 0.000000 0.000000 0.025209 0.000000 0.000000
# 5 0.000000 0.000000 0.000000 0.000000 0.026910 0.000000
# 6 0.000000 0.000000 0.000000 0.000000 0.000000 0.088493
#
#
# Mechanical properties :
#
#
# Convention : Reuss Voigt Hill
#
# Bulk Modulus (GPa) = 58.35564 61.09871 59.72717
# Shear Modulus (GPa) = 22.89138 28.59844 25.74491
#
# Velocity S-wave (km/s) = 3.38844 3.78734 3.59343
# Velocity P-wave (km/s) = 6.67666 7.05480 6.86834
#
# Compressibility (1/GPa) = 0.01713630
#
# Stress axis : x y z
#
# Youngs Moduli (GPa) = 71.19906 80.90710 54.90851
#
# Poissons Ratio (x) = 0.32649 0.41000
# Poissons Ratio (y) = 0.28731 0.12289
# Poissons Ratio (z) = 0.53164 0.18108
#
# Static dielectric constant tensor:
#      x y z
#    x 3.867160 0.000000 0.000000 
#    y 0.000000 3.619010 0.000000 
#    z 0.000000 0.000000 4.019620 
# 
# 
# High freq. dielectric constant tensor:
#      x y z
#    x 1.797820 0.000000 0.000000 
#    y 0.000000 1.782060 0.000000 
#    z 0.000000 0.000000 1.764210 
# 
# From -- ./inp_files/30988.got.cif
#   From: 2010.03.12/outbox.cif.g09.slc.cpg/sg47_16_cif.got.tgz:30988.got - 2010.04.14 03:12:58.
