data_PCOD8199518
_publ_section_title
;
Structure prediction by ZEFSAII (Michael W. Deem and Ramdas Pophale) SiO2 
 PCOD8199518
Probable space group: P M M M
;
_chemical_formula_sum "Si O2"
_cell_formula_units_Z 44
_cell_length_a 9.492531
_cell_length_b 29.739559
_cell_length_c 8.040947
_cell_angle_alpha 90.000000
_cell_angle_beta 90.000000
_cell_angle_gamma 90.000000
_cell_volume 2269.988975
_symmetry_space_group_name_H-M "P M M M"
_symmetry_group_IT_number 47
_symmetry_cell_setting 'orthorhombic'
loop_
_space_group_symop_operation_xyz
x,y,z
-x,-y,z
x,-y,-z
-x,y,-z
-x,-y,-z
x,y,-z
-x,y,z
x,-y,z
loop_
_atom_site_type_symbol
_atom_site_label
_atom_site_fract_x
_atom_site_fract_y
_atom_site_fract_z
Si Si1 0.162317 0.449743 0.306672
Si Si2 0.666427 0.949983 0.500000
Si Si3 0.656426 0.630166 0.189179
Si Si4 0.844428 0.803646 0.808339
Si Si5 0.665411 0.888403 0.193672
Si Si6 0.340226 0.724535 0.689946
O O1 0.186727 0.440741 0.500000
O O2 0.213997 0.500000 0.259461
O O3 0.247288 0.413357 0.203987
O O4 0.000000 0.444542 0.258936
O O5 0.500000 0.952806 0.500000
O O6 0.713789 0.926285 0.326598
O O7 0.732754 0.000000 0.500000
O O8 0.500000 0.616942 0.250958
O O9 0.712510 0.672944 0.293212
O O10 0.655056 0.646100 0.000000
O O11 0.747554 0.844213 0.742783
O O12 0.766364 0.756400 0.786499
O O13 0.000000 0.803264 0.721580
O O14 0.868223 0.811929 0.000000
O O15 0.500000 0.878050 0.209744
O O16 0.700498 0.901961 0.000000
O O17 0.336697 0.739399 0.500000
O O18 0.500000 0.728748 0.761440
#
# Coordination Sequence:
#
# PCOD8199518 Si02
#       6
#     8   4   8   8   8   8
#     4   9  19  36  56  77 102 134 172 213 258 310
#     4   9  18  32  53  83 113 141 183 235 278 325
#     4  10  21  36  54  77 105 136 171 213 260 312
#     4  10  21  36  54  78 108 141 178 221 268 319
#     4   9  18  33  54  79 109 146 184 226 277 328
#     4  10  21  36  55  78 104 137 176 217 263 317
#
# _framework density 19.383355000000002
#
# number of rings (size 3 to 8) (size 9 to 14) (size 15 to 20)
#    0.000    2.455    0.000    2.182    1.273    5.455 
#    0.000    4.545    0.000    1.091    0.000    2.545 
#    0.000    0.000    0.000    0.000    0.000    0.000 
#
# Total GULP energy -545404.563713 kJ/mol
# GULP energy per Si atom -12395.558266 kJ/mol
# Density = 1.933924 g / cm^3
# Si number density = 19.383355 Si / 1000 Ang^3
#
#
#
# Elastic Constant Matrix: (Units=GPa)
#
#
# Indices 1 2 3 4 5 6 
#
# 1 79.1643 62.7660 25.2518 0.0000 0.0000 0.0000
# 2 62.7660 143.4791 37.4912 0.0000 0.0000 0.0000
# 3 25.2518 37.4912 62.1372 0.0000 0.0000 0.0000
# 4 0.0000 0.0000 0.0000 34.6088 0.0000 0.0000
# 5 0.0000 0.0000 0.0000 0.0000 18.4142 0.0000
# 6 0.0000 0.0000 0.0000 0.0000 0.0000 3.8503
#
#
#
# Elastic Compliance Matrix: (Units=1/GPa)
#
#
# Indices 1 2 3 4 5 6 
#
# 1 0.019916 -0.007832 -0.003368 0.000000 0.000000 0.000000
# 2 -0.007832 0.011354 -0.003668 0.000000 0.000000 0.000000
# 3 -0.003368 -0.003668 0.019675 0.000000 0.000000 0.000000
# 4 0.000000 0.000000 0.000000 0.028894 0.000000 0.000000
# 5 0.000000 0.000000 0.000000 0.000000 0.054306 0.000000
# 6 0.000000 0.000000 0.000000 0.000000 0.000000 0.259719
#
#
# Mechanical properties :
#
#
# Convention : Reuss Voigt Hill
#
# Bulk Modulus (GPa) = 47.14884 59.53317 53.34100
# Shear Modulus (GPa) = 11.60979 21.99277 16.80128
#
# Velocity S-wave (km/s) = 2.45001 3.37207 2.94732
# Velocity P-wave (km/s) = 5.69040 6.77801 6.25787
#
# Compressibility (1/GPa) = 0.02120943
#
# Stress axis : x y z
#
# Youngs Moduli (GPa) = 50.21018 88.07132 50.82563
#
# Poissons Ratio (x) = 0.68982 0.17118
# Poissons Ratio (y) = 0.39327 0.18642
# Poissons Ratio (z) = 0.16910 0.32303
#
# Static dielectric constant tensor:
#      x y z
#    x 3.601270 0.000000 0.000000 
#    y 0.000000 3.562420 0.000000 
#    z 0.000000 0.000000 3.514990 
# 
# 
# High freq. dielectric constant tensor:
#      x y z
#    x 1.737430 0.000000 0.000000 
#    y 0.000000 1.753360 0.000000 
#    z 0.000000 0.000000 1.753550 
# 
# From -- ./inp_files/1995.got.cif
#   From: 2010.03.12/outbox.cif.g09.slc.cpg/sg47_1_cif.got.tgz:1995.got - 2010.04.14 03:12:58.
