data_PCOD8199097
_publ_section_title
;
Structure prediction by ZEFSAII (Michael W. Deem and Ramdas Pophale) SiO2 
 PCOD8199097
Probable space group: P M M M
;
_chemical_formula_sum "Si O2"
_cell_formula_units_Z 36
_cell_length_a 8.033701
_cell_length_b 24.702331
_cell_length_c 9.822385
_cell_angle_alpha 90.000000
_cell_angle_beta 90.000000
_cell_angle_gamma 90.000000
_cell_volume 1949.263513
_symmetry_space_group_name_H-M "P M M M"
_symmetry_group_IT_number 47
_symmetry_cell_setting 'orthorhombic'
loop_
_space_group_symop_operation_xyz
x,y,z
-x,-y,z
x,-y,-z
-x,y,-z
-x,-y,-z
x,y,-z
-x,y,z
x,-y,z
loop_
_atom_site_type_symbol
_atom_site_label
_atom_site_fract_x
_atom_site_fract_y
_atom_site_fract_z
Si Si1 0.692030 0.366190 0.340473
Si Si2 0.694093 0.058993 0.350931
Si Si3 0.808594 0.849819 0.848713
Si Si4 0.305890 0.265434 0.153803
Si Si5 0.000000 0.560172 0.660750
O O1 0.710383 0.352944 0.500000
O O2 0.500000 0.384731 0.308527
O O3 0.741895 0.313164 0.256308
O O4 0.827548 0.410863 0.293440
O O5 0.770871 0.073333 0.500000
O O6 0.500000 0.053366 0.367273
O O7 0.725902 0.106174 0.245651
O O8 0.764931 0.000000 0.302340
O O9 0.782435 0.789036 0.792556
O O10 0.000000 0.863924 0.854333
O O11 0.729064 0.853526 0.000000
O O12 0.500000 0.254099 0.156574
O O13 0.246766 0.280348 0.000000
O O14 0.000000 0.500000 0.725344
O O15 0.000000 0.556249 0.500000
#
# Coordination Sequence:
#
# PCOD8199097 Si02
#       5
#     8   8   8   8   4
#     4   9  18  32  51  76 103 133 172 214 254 301
#     4   9  19  36  55  73  95 127 168 211 254 302
#     4  10  21  34  49  74 104 132 165 205 251 306
#     4   9  18  33  52  73  99 132 167 205 251 299
#     4   9  18  32  51  77 107 137 170 211 256 299
#
# _framework density 18.468516000000001
#
# number of rings (size 3 to 8) (size 9 to 14) (size 15 to 20)
#    0.000    2.778    0.000    1.333    1.556    4.000 
#    0.000    7.778    0.000    1.333    0.000    3.111 
#    0.000    0.000    0.000    0.000    0.000    0.000 
#
# Total GULP energy -446118.679845 kJ/mol
# GULP energy per Si atom -12392.185551 kJ/mol
# Density = 1.842648 g / cm^3
# Si number density = 18.468516 Si / 1000 Ang^3
#
#
#
# Elastic Constant Matrix: (Units=GPa)
#
#
# Indices 1 2 3 4 5 6 
#
# 1 68.7218 53.0456 29.6830 0.0000 0.0000 0.0000
# 2 53.0456 150.5302 72.7686 0.0000 0.0000 0.0000
# 3 29.6830 72.7686 71.3218 0.0000 0.0000 0.0000
# 4 0.0000 0.0000 0.0000 311.5117 0.0000 0.0000
# 5 0.0000 0.0000 0.0000 0.0000 5.6781 0.0000
# 6 0.0000 0.0000 0.0000 0.0000 0.0000 236.6437
#
#
#
# Elastic Compliance Matrix: (Units=1/GPa)
#
#
# Indices 1 2 3 4 5 6 
#
# 1 0.020170 -0.006018 -0.002254 0.000000 0.000000 0.000000
# 2 -0.006018 0.014904 -0.012702 0.000000 0.000000 0.000000
# 3 -0.002254 -0.012702 0.027919 0.000000 0.000000 0.000000
# 4 0.000000 0.000000 0.000000 0.003210 0.000000 0.000000
# 5 0.000000 0.000000 0.000000 0.000000 0.176115 0.000000
# 6 0.000000 0.000000 0.000000 0.000000 0.000000 0.004226
#
#
# Mechanical properties :
#
#
# Convention : Reuss Voigt Hill
#
# Bulk Modulus (GPa) = 47.51822 66.84092 57.17957
# Shear Modulus (GPa) = 16.92001 119.77181 68.34591
#
# Velocity S-wave (km/s) = 3.03009 8.06180 6.08991
# Velocity P-wave (km/s) = 6.16661 11.08726 8.97091
#
# Compressibility (1/GPa) = 0.02104456
#
# Stress axis : x y z
#
# Youngs Moduli (GPa) = 49.57740 67.09518 35.81816
#
# Poissons Ratio (x) = 0.40378 0.08075
# Poissons Ratio (y) = 0.29836 0.45496
# Poissons Ratio (z) = 0.11177 0.85224
#
# Static dielectric constant tensor:
#      x y z
#    x 3.423940 0.000000 0.000000 
#    y 0.000000 3.558610 0.000000 
#    z 0.000000 0.000000 3.597480 
# 
# 
# High freq. dielectric constant tensor:
#      x y z
#    x 1.717790 0.000000 0.000000 
#    y 0.000000 1.714240 0.000000 
#    z 0.000000 0.000000 1.699850 
# 
# From -- ./inp_files/1394.got.cif
#   From: 2010.03.12/outbox.cif.g09.slc.cpg/sg47_1_cif.got.tgz:1394.got - 2010.04.14 03:12:58.
