data_PCOD8199699
_publ_section_title
;
Structure prediction by ZEFSAII (Michael W. Deem and Ramdas Pophale) SiO2 
 PCOD8199699
Probable space group: P M M M
;
_chemical_formula_sum "Si O2"
_cell_formula_units_Z 44
_cell_length_a 21.059621
_cell_length_b 14.245016
_cell_length_c 8.857108
_cell_angle_alpha 90.000000
_cell_angle_beta 90.000000
_cell_angle_gamma 90.000000
_cell_volume 2657.084909
_symmetry_space_group_name_H-M "P M M M"
_symmetry_group_IT_number 47
_symmetry_cell_setting 'orthorhombic'
loop_
_space_group_symop_operation_xyz
x,y,z
-x,-y,z
x,-y,-z
-x,y,-z
-x,-y,-z
x,y,-z
-x,y,z
x,-y,z
loop_
_atom_site_type_symbol
_atom_site_label
_atom_site_fract_x
_atom_site_fract_y
_atom_site_fract_z
Si Si1 0.932892 0.388628 0.669252
Si Si2 0.628939 0.106990 0.321676
Si Si3 0.204433 0.391364 0.320645
Si Si4 0.682726 0.277685 0.822662
Si Si5 0.500000 0.111283 0.169409
Si Si6 0.427658 0.609765 0.673662
O O1 0.935365 0.348666 0.500000
O O2 0.930476 0.500000 0.662805
O O3 0.865463 0.356826 0.741108
O O4 0.000000 0.356922 0.751242
O O5 0.627511 0.115594 0.500000
O O6 0.682766 0.174240 0.252700
O O7 0.561964 0.145513 0.258635
O O8 0.642518 0.000000 0.270647
O O9 0.209683 0.376220 0.500000
O O10 0.216454 0.500000 0.280429
O O11 0.255510 0.330458 0.234718
O O12 0.619341 0.333987 0.780747
O O13 0.686452 0.265567 0.000000
O O14 0.500000 0.000000 0.164099
O O15 0.500000 0.153212 0.000000
O O16 0.412308 0.634738 0.500000
O O17 0.500000 0.637755 0.713563
O O18 0.417044 0.500000 0.701783
#
# Coordination Sequence:
#
# PCOD8199699 Si02
#       6
#     8   8   8   8   4   8
#     4   7  10  19  39  67  94 120 154 195 233 265
#     4  10  21  37  55  71  88 115 152 193 237 287
#     4   9  17  30  48  69  96 130 165 198 230 270
#     4  12  24  33  46  68  96 126 155 193 239 284
#     4   9  17  31  51  73  94 111 132 173 231 287
#     4   9  19  36  54  68  85 115 157 201 239 276
#
# _framework density 16.559501000000001
#
# number of rings (size 3 to 8) (size 9 to 14) (size 15 to 20)
#    0.000    2.636    0.000    5.182    1.273    5.455 
#    0.000    0.909    0.000    0.545    0.000    2.545 
#    0.000    0.727    0.000    8.364    0.000    2.727 
#
# Total GULP energy -545182.562581 kJ/mol
# GULP energy per Si atom -12390.512786 kJ/mol
# Density = 1.652181 g / cm^3
# Si number density = 16.559501 Si / 1000 Ang^3
#
#
#
# Elastic Constant Matrix: (Units=GPa)
#
#
# Indices 1 2 3 4 5 6 
#
# 1 128.7851 53.7482 46.6451 0.0000 0.0000 0.0000
# 2 53.7482 61.6412 33.9226 0.0000 0.0000 0.0000
# 3 46.6451 33.9226 74.3644 0.0000 0.0000 0.0000
# 4 0.0000 0.0000 0.0000 17.0291 0.0000 0.0000
# 5 0.0000 0.0000 0.0000 0.0000 -0.2984 0.0000
# 6 0.0000 0.0000 0.0000 0.0000 0.0000 6.4542
#
#
#
# Elastic Compliance Matrix: (Units=1/GPa)
#
#
# Indices 1 2 3 4 5 6 
#
# 1 0.013040 -0.009171 -0.003996 0.000000 0.000000 0.000000
# 2 -0.009171 0.028111 -0.007071 0.000000 0.000000 0.000000
# 3 -0.003996 -0.007071 0.019179 0.000000 0.000000 0.000000
# 4 0.000000 0.000000 0.000000 0.058723 0.000000 0.000000
# 5 0.000000 0.000000 0.000000 0.000000 -3.351063 0.000000
# 6 0.000000 0.000000 0.000000 0.000000 0.000000 0.154937
#
#
# Mechanical properties :
#
#
# Convention : Reuss Voigt Hill
#
# Bulk Modulus (GPa) = 50.36582 59.26915 54.81748
# Shear Modulus (GPa) = -1.65018 13.33531 5.84257
#
# Velocity S-wave (km/s) = -0.99934 2.84085 1.88039
# Velocity P-wave (km/s) = 5.39903 6.82861 6.15546
#
# Compressibility (1/GPa) = 0.01985474
#
# Stress axis : x y z
#
# Youngs Moduli (GPa) = 76.68986 35.57352 52.14059
#
# Poissons Ratio (x) = 0.32625 0.20833
# Poissons Ratio (y) = 0.70332 0.36867
# Poissons Ratio (z) = 0.30642 0.25153
#
# Static dielectric constant tensor:
#      x y z
#    x 3.574230 0.000000 0.000000 
#    y 0.000000 2.984950 0.000000 
#    z 0.000000 0.000000 2.932520 
# 
# 
# High freq. dielectric constant tensor:
#      x y z
#    x 1.636810 0.000000 0.000000 
#    y 0.000000 1.609030 0.000000 
#    z 0.000000 0.000000 1.620290 
# 
# From -- ./inp_files/6819.got.cif
#   From: 2010.03.12/outbox.cif.g09.slc.cpg/sg47_4_cif.got.tgz:6819.got - 2010.04.14 03:12:58.
