data_PCOD8199408
_publ_section_title
;
Structure prediction by ZEFSAII (Michael W. Deem and Ramdas Pophale) SiO2 
 PCOD8199408
Probable space group: P M M M
;
_chemical_formula_sum "Si O2"
_cell_formula_units_Z 52
_cell_length_a 26.601658
_cell_length_b 12.643422
_cell_length_c 8.882242
_cell_angle_alpha 90.000000
_cell_angle_beta 90.000000
_cell_angle_gamma 90.000000
_cell_volume 2987.417639
_symmetry_space_group_name_H-M "P M M M"
_symmetry_group_IT_number 47
_symmetry_cell_setting 'orthorhombic'
loop_
_space_group_symop_operation_xyz
x,y,z
-x,-y,z
x,-y,-z
-x,y,-z
-x,-y,-z
x,y,-z
-x,y,z
x,-y,z
loop_
_atom_site_type_symbol
_atom_site_label
_atom_site_fract_x
_atom_site_fract_y
_atom_site_fract_z
Si Si1 0.392982 0.381880 0.820906
Si Si2 0.874520 0.119571 0.827021
Si Si3 0.771571 0.877509 0.325318
Si Si4 0.942956 0.688646 0.175655
Si Si5 0.287713 0.302648 0.822028
Si Si6 0.231900 0.500000 0.678394
Si Si7 0.116293 0.500000 0.677030
Si Si8 0.500000 0.626262 0.166021
O O1 0.381416 0.500000 0.760474
O O2 0.346407 0.308275 0.772961
O O3 0.447015 0.339735 0.753448
O O4 0.398623 0.385737 0.000000
O O5 0.827705 0.153505 0.724295
O O6 0.921352 0.194856 0.790282
O O7 0.891813 0.000000 0.790959
O O8 0.857305 0.131019 0.000000
O O9 0.765818 0.850050 0.500000
O O10 0.731478 0.811022 0.230941
O O11 0.760817 0.000000 0.290720
O O12 0.910133 0.604038 0.262080
O O13 0.000000 0.685389 0.234980
O O14 0.940674 0.661603 0.000000
O O15 0.256722 0.395157 0.743828
O O16 0.281519 0.315690 0.000000
O O17 0.237932 0.500000 0.500000
O O18 0.173956 0.500000 0.728993
O O19 0.111340 0.500000 0.500000
O O20 0.500000 0.500000 0.154825
O O21 0.500000 0.677087 0.000000
#
# Coordination Sequence:
#
# PCOD8199408 Si02
#       8
#     8   8   8   8   8   4   4   4
#     4   8  13  23  39  66 100 130 161 197 241 288
#     4   9  18  34  56  79 100 123 154 194 241 292
#     4  10  21  36  52  71  98 132 168 204 245 295
#     4  10  21  36  54  76 100 125 154 191 238 290
#     4  11  20  31  50  76 104 130 164 209 249 290
#     4  11  23  36  50  72 103 136 167 198 243 298
#     4  11  24  38  51  68  93 129 170 204 231 272
#     4   7  10  18  36  60  93 132 161 191 236 289
#
# _framework density 17.406338000000002
#
# number of rings (size 3 to 8) (size 9 to 14) (size 15 to 20)
#    0.000    2.385    0.769    3.462    0.000    6.769 
#    0.000    1.538    0.000    0.000    0.000    6.462 
#    0.000    4.308    0.000    0.000    0.000    0.000 
#
# Total GULP energy -644585.915553 kJ/mol
# GULP energy per Si atom -12395.882991 kJ/mol
# Density = 1.736672 g / cm^3
# Si number density = 17.406338 Si / 1000 Ang^3
#
#
#
# Elastic Constant Matrix: (Units=GPa)
#
#
# Indices 1 2 3 4 5 6 
#
# 1 172.1028 65.1335 47.5185 0.0000 0.0000 0.0000
# 2 65.1335 78.7149 28.4847 0.0000 0.0000 0.0000
# 3 47.5185 28.4847 45.3349 0.0000 0.0000 0.0000
# 4 0.0000 0.0000 0.0000 15.5613 0.0000 0.0000
# 5 0.0000 0.0000 0.0000 0.0000 3.7512 0.0000
# 6 0.0000 0.0000 0.0000 0.0000 0.0000 -119.5077
#
#
#
# Elastic Compliance Matrix: (Units=1/GPa)
#
#
# Indices 1 2 3 4 5 6 
#
# 1 0.009820 -0.005696 -0.006714 0.000000 0.000000 0.000000
# 2 -0.005696 0.019747 -0.006437 0.000000 0.000000 0.000000
# 3 -0.006714 -0.006437 0.033140 0.000000 0.000000 0.000000
# 4 0.000000 0.000000 0.000000 0.064262 0.000000 0.000000
# 5 0.000000 0.000000 0.000000 0.000000 0.266579 0.000000
# 6 0.000000 0.000000 0.000000 0.000000 0.000000 -0.008368
#
#
# Mechanical properties :
#
#
# Convention : Reuss Voigt Hill
#
# Bulk Modulus (GPa) = 39.97957 64.26955 52.12456
# Shear Modulus (GPa) = 11.59523 -9.70466 0.94529
#
# Velocity S-wave (km/s) = 2.58379 -2.36378 0.73773
# Velocity P-wave (km/s) = 5.64974 5.43629 5.54404
#
# Compressibility (1/GPa) = 0.02501278
#
# Stress axis : x y z
#
# Youngs Moduli (GPa) = 101.83331 50.64166 30.17513
#
# Poissons Ratio (x) = 0.28846 0.20260
# Poissons Ratio (y) = 0.58004 0.19423
# Poissons Ratio (z) = 0.68372 0.32597
#
# Static dielectric constant tensor:
#      x y z
#    x 3.628750 0.000000 0.000000 
#    y 0.000000 3.199540 0.000000 
#    z 0.000000 0.000000 3.098480 
# 
# 
# High freq. dielectric constant tensor:
#      x y z
#    x 1.683700 0.000000 0.000000 
#    y 0.000000 1.654890 0.000000 
#    z 0.000000 0.000000 1.653470 
# 
# From -- ./inp_files/13356.got.cif
#   From: 2010.03.12/outbox.cif.g09.slc.cpg/sg47_7_cif.got.tgz:13356.got - 2010.04.14 03:12:58.
