data_PCOD8199399
_publ_section_title
;
Structure prediction by ZEFSAII (Michael W. Deem and Ramdas Pophale) SiO2 
 PCOD8199399
Probable space group: P M M M
;
_chemical_formula_sum "Si O2"
_cell_formula_units_Z 44
_cell_length_a 9.059762
_cell_length_b 20.767535
_cell_length_c 14.207367
_cell_angle_alpha 90.000000
_cell_angle_beta 90.000000
_cell_angle_gamma 90.000000
_cell_volume 2673.100820
_symmetry_space_group_name_H-M "P M M M"
_symmetry_group_IT_number 47
_symmetry_cell_setting 'orthorhombic'
loop_
_space_group_symop_operation_xyz
x,y,z
-x,-y,z
x,-y,-z
-x,y,-z
-x,-y,-z
x,y,-z
-x,y,z
x,-y,z
loop_
_atom_site_type_symbol
_atom_site_label
_atom_site_fract_x
_atom_site_fract_y
_atom_site_fract_z
Si Si1 0.833170 0.070221 0.888204
Si Si2 0.325350 0.317836 0.775877
Si Si3 0.326078 0.804802 0.893258
Si Si4 0.334020 0.500000 0.611385
Si Si5 0.830710 0.573654 0.890107
Si Si6 0.825919 0.370740 0.391833
O O1 0.735657 0.128871 0.848369
O O2 0.000000 0.080911 0.853831
O O3 0.776098 0.000000 0.851774
O O4 0.824496 0.070452 0.000000
O O5 0.500000 0.318190 0.761325
O O6 0.270270 0.254817 0.831314
O O7 0.278893 0.380878 0.833287
O O8 0.245369 0.315833 0.673974
O O9 0.500000 0.809700 0.891902
O O10 0.268253 0.794479 0.000000
O O11 0.500000 0.500000 0.654045
O O12 0.342631 0.500000 0.500000
O O13 0.244483 0.437515 0.644626
O O14 0.793968 0.500000 0.863314
O O15 0.000000 0.589813 0.863878
O O16 0.803370 0.585122 0.000000
O O17 0.785207 0.355660 0.500000
O O18 0.000000 0.374825 0.377397
#
# Coordination Sequence:
#
# PCOD8199399 Si02
#       6
#     8   8   8   4   8   8
#     4   8  14  25  42  65  92 122 156 191 225 262
#     4  11  22  33  48  69  94 123 156 195 238 282
#     4   9  18  31  45  65  95 128 160 191 224 267
#     4   9  17  31  51  71  88 107 136 179 233 287
#     4   9  19  35  51  66  87 118 157 198 236 276
#     4  10  21  36  52  69  90 117 150 191 239 290
#
# _framework density 16.460283
#
# number of rings (size 3 to 8) (size 9 to 14) (size 15 to 20)
#    0.000    2.636    0.000    3.000    1.273    5.455 
#    0.000    4.545    0.000    0.000    0.000    0.000 
#    0.000    0.727    0.000    8.000    0.000    6.182 
#
# Total GULP energy -545479.622492 kJ/mol
# GULP energy per Si atom -12397.264148 kJ/mol
# Density = 1.642282 g / cm^3
# Si number density = 16.460283 Si / 1000 Ang^3
#
#
#
# Elastic Constant Matrix: (Units=GPa)
#
#
# Indices 1 2 3 4 5 6 
#
# 1 63.8451 46.1809 32.3407 0.0000 0.0000 0.0000
# 2 46.1809 122.3926 56.4088 0.0000 0.0000 0.0000
# 3 32.3407 56.4088 66.6603 0.0000 0.0000 0.0000
# 4 0.0000 0.0000 0.0000 9.8820 0.0000 0.0000
# 5 0.0000 0.0000 0.0000 0.0000 23.4542 0.0000
# 6 0.0000 0.0000 0.0000 0.0000 0.0000 28.8590
#
#
#
# Elastic Compliance Matrix: (Units=1/GPa)
#
#
# Indices 1 2 3 4 5 6 
#
# 1 0.023034 -0.005805 -0.006263 0.000000 0.000000 0.000000
# 2 -0.005805 0.014857 -0.009756 0.000000 0.000000 0.000000
# 3 -0.006263 -0.009756 0.026296 0.000000 0.000000 0.000000
# 4 0.000000 0.000000 0.000000 0.101194 0.000000 0.000000
# 5 0.000000 0.000000 0.000000 0.000000 0.042636 0.000000
# 6 0.000000 0.000000 0.000000 0.000000 0.000000 0.034651
#
#
# Mechanical properties :
#
#
# Convention : Reuss Voigt Hill
#
# Bulk Modulus (GPa) = 48.68749 58.08433 53.38591
# Shear Modulus (GPa) = 17.05539 20.30355 18.67947
#
# Velocity S-wave (km/s) = 3.22243 3.51591 3.37236
# Velocity P-wave (km/s) = 6.59457 7.20044 6.90416
#
# Compressibility (1/GPa) = 0.02053916
#
# Stress axis : x y z
#
# Youngs Moduli (GPa) = 43.41370 67.30830 38.02880
#
# Poissons Ratio (x) = 0.39069 0.23819
# Poissons Ratio (y) = 0.25200 0.37101
# Poissons Ratio (z) = 0.27191 0.65666
#
# Static dielectric constant tensor:
#      x y z
#    x 3.109160 0.000000 0.000000 
#    y 0.000000 3.339930 0.000000 
#    z 0.000000 0.000000 2.997280 
# 
# 
# High freq. dielectric constant tensor:
#      x y z
#    x 1.638330 0.000000 0.000000 
#    y 0.000000 1.621960 0.000000 
#    z 0.000000 0.000000 1.604610 
# 
# From -- ./inp_files/6176.got.cif
#   From: 2010.03.12/outbox.cif.g09.slc.cpg/sg47_4_cif.got.tgz:6176.got - 2010.04.14 03:12:58.
