data_PCOD8199492
_publ_section_title
;
Structure prediction by ZEFSAII (Michael W. Deem and Ramdas Pophale) SiO2 
 PCOD8199492
Probable space group: P M M M
;
_chemical_formula_sum "Si O2"
_cell_formula_units_Z 56
_cell_length_a 14.408272
_cell_length_b 9.151975
_cell_length_c 23.011622
_cell_angle_alpha 90.000000
_cell_angle_beta 90.000000
_cell_angle_gamma 90.000000
_cell_volume 3034.407863
_symmetry_space_group_name_H-M "P M M M"
_symmetry_group_IT_number 47
_symmetry_cell_setting 'orthorhombic'
loop_
_space_group_symop_operation_xyz
x,y,z
-x,-y,z
x,-y,-z
-x,y,-z
-x,-y,-z
x,y,-z
-x,y,z
x,-y,z
loop_
_atom_site_type_symbol
_atom_site_label
_atom_site_fract_x
_atom_site_fract_y
_atom_site_fract_z
Si Si1 0.606199 0.171237 0.288303
Si Si2 0.608570 0.165659 0.843911
Si Si3 0.268385 0.668428 0.065194
Si Si4 0.894747 0.831987 0.432148
Si Si5 0.893077 0.332372 0.232092
Si Si6 0.771963 0.671982 0.658140
Si Si7 0.894112 0.171959 0.883867
O O1 0.500000 0.211761 0.302677
O O2 0.629831 0.216565 0.221912
O O3 0.670345 0.259259 0.333104
O O4 0.623074 0.000000 0.296707
O O5 0.500000 0.175055 0.856327
O O6 0.658472 0.271040 0.888905
O O7 0.643915 0.000000 0.853415
O O8 0.250283 0.500000 0.079558
O O9 0.170616 0.753330 0.068288
O O10 0.307834 0.689022 0.000000
O O11 0.876037 0.810802 0.500000
O O12 0.820193 0.733241 0.399332
O O13 0.000000 0.782749 0.416911
O O14 0.880615 0.000000 0.414018
O O15 0.873506 0.500000 0.214849
O O16 0.834647 0.282619 0.287308
O O17 0.862345 0.230042 0.179053
O O18 0.000000 0.307470 0.248195
O O19 0.761556 0.500000 0.651285
O O20 0.000000 0.216802 0.897142
O O21 0.880149 0.000000 0.885453
#
# Coordination Sequence:
#
# PCOD8199492 Si02
#       7
#     8   8   8   8   8   8   8
#     4   9  19  36  56  78 105 137 173 213 258 310
#     4   9  19  37  60  83 105 131 166 210 260 310
#     4  11  24  38  52  73 101 134 171 209 253 310
#     4   9  19  36  56  78 107 146 189 225 256 297
#     4   9  18  32  49  73 107 140 167 200 250 314
#     4  11  21  31  50  81 112 141 174 214 261 309
#     4  10  21  36  54  75  98 128 169 216 263 308
#
# _framework density 18.455002
#
# number of rings (size 3 to 8) (size 9 to 14) (size 15 to 20)
#    0.000    2.286    0.000    3.857    0.000    8.286 
#    0.000    6.429    0.000    0.429    0.000    3.000 
#    0.000    0.000    0.000    0.000    0.000    0.000 
#
# Total GULP energy -694537.270069 kJ/mol
# GULP energy per Si atom -12402.451251 kJ/mol
# Density = 1.841300 g / cm^3
# Si number density = 18.455002 Si / 1000 Ang^3
#
#
#
# Elastic Constant Matrix: (Units=GPa)
#
#
# Indices 1 2 3 4 5 6 
#
# 1 92.4115 46.5363 54.5183 0.0000 0.0000 0.0000
# 2 46.5363 85.8426 49.2670 0.0000 0.0000 0.0000
# 3 54.5183 49.2670 79.5995 0.0000 0.0000 0.0000
# 4 0.0000 0.0000 0.0000 32.0805 0.0000 0.0000
# 5 0.0000 0.0000 0.0000 0.0000 28.1088 0.0000
# 6 0.0000 0.0000 0.0000 0.0000 0.0000 28.4416
#
#
#
# Elastic Compliance Matrix: (Units=1/GPa)
#
#
# Indices 1 2 3 4 5 6 
#
# 1 0.019188 -0.004435 -0.010397 0.000000 0.000000 0.000000
# 2 -0.004435 0.019092 -0.008779 0.000000 0.000000 0.000000
# 3 -0.010397 -0.008779 0.025118 0.000000 0.000000 0.000000
# 4 0.000000 0.000000 0.000000 0.031172 0.000000 0.000000
# 5 0.000000 0.000000 0.000000 0.000000 0.035576 0.000000
# 6 0.000000 0.000000 0.000000 0.000000 0.000000 0.035160
#
#
# Mechanical properties :
#
#
# Convention : Reuss Voigt Hill
#
# Bulk Modulus (GPa) = 61.82263 62.05521 61.93892
# Shear Modulus (GPa) = 22.94413 24.89497 23.91955
#
# Velocity S-wave (km/s) = 3.52980 3.67680 3.60405
# Velocity P-wave (km/s) = 7.08410 7.19189 7.13820
#
# Compressibility (1/GPa) = 0.01617531
#
# Stress axis : x y z
#
# Youngs Moduli (GPa) = 52.11468 52.37764 39.81234
#
# Poissons Ratio (x) = 0.23230 0.41394
# Poissons Ratio (y) = 0.23113 0.34952
# Poissons Ratio (z) = 0.54185 0.45983
#
# Static dielectric constant tensor:
#      x y z
#    x 3.424730 0.000000 0.000000 
#    y 0.000000 3.349930 0.000000 
#    z 0.000000 0.000000 3.224720 
# 
# 
# High freq. dielectric constant tensor:
#      x y z
#    x 1.719180 0.000000 0.000000 
#    y 0.000000 1.717970 0.000000 
#    z 0.000000 0.000000 1.700370 
# 
# From -- ./inp_files/7223.got.cif
#   From: 2010.03.12/outbox.cif.g09.slc.cpg/sg47_4_cif.got.tgz:7223.got - 2010.04.14 03:12:58.
