data_PCOD8199794
_publ_section_title
;
Structure prediction by ZEFSAII (Michael W. Deem and Ramdas Pophale) SiO2 
 PCOD8199794
Probable space group: P M M M
;
_chemical_formula_sum "Si O2"
_cell_formula_units_Z 56
_cell_length_a 21.168450
_cell_length_b 8.740800
_cell_length_c 15.078416
_cell_angle_alpha 90.000000
_cell_angle_beta 90.000000
_cell_angle_gamma 90.000000
_cell_volume 2789.947065
_symmetry_space_group_name_H-M "P M M M"
_symmetry_group_IT_number 47
_symmetry_cell_setting 'orthorhombic'
loop_
_space_group_symop_operation_xyz
x,y,z
-x,-y,z
x,-y,-z
-x,y,-z
-x,-y,-z
x,y,-z
-x,y,z
x,-y,z
loop_
_atom_site_type_symbol
_atom_site_label
_atom_site_fract_x
_atom_site_fract_y
_atom_site_fract_z
Si Si1 0.732545 0.827223 0.595254
Si Si2 0.763328 0.323314 0.100152
Si Si3 0.366249 0.178887 0.848224
Si Si4 0.500000 0.170922 0.396061
Si Si5 0.925883 0.323280 0.599933
Si Si6 0.376247 0.676088 0.667857
Si Si7 0.166265 0.179986 0.262808
Si Si8 0.500000 0.330301 0.103535
O O1 0.767369 0.815996 0.500000
O O2 0.673454 0.711434 0.590402
O O3 0.778136 0.771639 0.671792
O O4 0.708502 0.000000 0.611751
O O5 0.755016 0.500000 0.125725
O O6 0.693262 0.248586 0.099376
O O7 0.815741 0.252099 0.167191
O O8 0.790039 0.303686 0.000000
O O9 0.352140 0.215622 0.746720
O O10 0.435622 0.245282 0.869781
O O11 0.368028 0.000000 0.868206
O O12 0.500000 0.153133 0.500000
O O13 0.443638 0.273294 0.363723
O O14 0.500000 0.000000 0.353218
O O15 0.906077 0.263681 0.500000
O O16 0.906953 0.500000 0.606953
O O17 0.895822 0.238240 0.685453
O O18 0.000000 0.299257 0.611047
O O19 0.376968 0.500000 0.696279
O O20 0.159698 0.000000 0.248606
O O21 0.500000 0.500000 0.147430
O O22 0.500000 0.346774 0.000000
#
# Coordination Sequence:
#
# PCOD8199794 Si02
#       8
#     8   8   8   4   8   8   8   4
#     4  10  21  37  56  82 118 156 193 237 293 353
#     4  11  24  42  64  90 121 159 205 257 312 370
#     4  12  24  40  61  85 114 149 193 246 308 372
#     4  11  24  41  58  75 103 145 190 240 299 360
#     4   9  19  37  62  94 134 178 218 254 296 350
#     4  12  24  38  57  80 108 144 191 242 293 353
#     4  11  22  37  61  92 126 165 206 250 302 357
#     4  11  24  41  60  83 111 143 184 240 307 374
#
# _framework density 20.072064000000001
#
# number of rings (size 3 to 8) (size 9 to 14) (size 15 to 20)
#    0.000    1.143    1.429    6.000    0.000    7.714 
#    0.000    0.714    0.000    0.429    0.000    3.000 
#    0.000    0.000    0.000    0.000    0.000    0.000 
#
# Total GULP energy -693973.430538 kJ/mol
# GULP energy per Si atom -12392.382688 kJ/mol
# Density = 2.002638 g / cm^3
# Si number density = 20.072064 Si / 1000 Ang^3
#
#
#
# Elastic Constant Matrix: (Units=GPa)
#
#
# Indices 1 2 3 4 5 6 
#
# 1 86.0796 47.0820 40.3557 0.0000 0.0000 0.0000
# 2 47.0820 128.3121 46.3981 0.0000 0.0000 0.0000
# 3 40.3557 46.3981 117.4014 0.0000 0.0000 0.0000
# 4 0.0000 0.0000 0.0000 10.4189 0.0000 0.0000
# 5 0.0000 0.0000 0.0000 0.0000 307.2085 0.0000
# 6 0.0000 0.0000 0.0000 0.0000 0.0000 34.1516
#
#
#
# Elastic Compliance Matrix: (Units=1/GPa)
#
#
# Indices 1 2 3 4 5 6 
#
# 1 0.015774 -0.004466 -0.003657 0.000000 0.000000 0.000000
# 2 -0.004466 0.010357 -0.002558 0.000000 0.000000 0.000000
# 3 -0.003657 -0.002558 0.010786 0.000000 0.000000 0.000000
# 4 0.000000 0.000000 0.000000 0.095980 0.000000 0.000000
# 5 0.000000 0.000000 0.000000 0.000000 0.003255 0.000000
# 6 0.000000 0.000000 0.000000 0.000000 0.000000 0.029281
#
#
# Mechanical properties :
#
#
# Convention : Reuss Voigt Hill
#
# Bulk Modulus (GPa) = 64.28810 66.60719 65.44765
# Shear Modulus (GPa) = 26.04426 83.55296 54.79861
#
# Velocity S-wave (km/s) = 3.60604 6.45886 5.23070
# Velocity P-wave (km/s) = 7.03109 9.42754 8.31609
#
# Compressibility (1/GPa) = 0.01555498
#
# Stress axis : x y z
#
# Youngs Moduli (GPa) = 63.39415 96.55186 92.71244
#
# Poissons Ratio (x) = 0.43116 0.33909
# Poissons Ratio (y) = 0.28309 0.23718
# Poissons Ratio (z) = 0.23186 0.24700
#
# Static dielectric constant tensor:
#      x y z
#    x 1.022560 0.000000 0.000000 
#    y 0.000000 3.755900 0.000000 
#    z 0.000000 0.000000 3.907940 
# 
# 
# High freq. dielectric constant tensor:
#      x y z
#    x 1.768130 0.000000 0.000000 
#    y 0.000000 1.791250 0.000000 
#    z 0.000000 0.000000 1.790980 
# 
# From -- ./inp_files/25190.got.cif
#   From: 2010.03.12/outbox.cif.g09.slc.cpg/sg47_13_cif.got.tgz:25190.got - 2010.04.14 03:12:58.
