data_PCOD8199997
_publ_section_title
;
Structure prediction by ZEFSAII (Michael W. Deem and Ramdas Pophale) SiO2 
 PCOD8199997
Probable space group: P M M M
;
_chemical_formula_sum "Si O2"
_cell_formula_units_Z 48
_cell_length_a 9.155715
_cell_length_b 8.746551
_cell_length_c 30.825514
_cell_angle_alpha 90.000000
_cell_angle_beta 90.000000
_cell_angle_gamma 90.000000
_cell_volume 2468.535773
_symmetry_space_group_name_H-M "P M M M"
_symmetry_group_IT_number 47
_symmetry_cell_setting 'orthorhombic'
loop_
_space_group_symop_operation_xyz
x,y,z
-x,-y,z
x,-y,-z
-x,y,-z
-x,-y,-z
x,y,-z
-x,y,z
x,-y,z
loop_
_atom_site_type_symbol
_atom_site_label
_atom_site_fract_x
_atom_site_fract_y
_atom_site_fract_z
Si Si1 0.667584 0.176276 0.748244
Si Si2 0.664759 0.680523 0.500000
Si Si3 0.668267 0.181858 0.906104
Si Si4 0.669453 0.322477 0.341650
Si Si5 0.831855 0.821027 0.579987
Si Si6 0.827959 0.325425 0.173272
Si Si7 0.672338 0.833499 0.000000
O O1 0.500000 0.206920 0.760959
O O2 0.713714 0.277632 0.707070
O O3 0.765461 0.220915 0.788757
O O4 0.694095 0.000000 0.736408
O O5 0.662068 0.500000 0.500000
O O6 0.500000 0.745983 0.500000
O O7 0.746006 0.734590 0.542727
O O8 0.500000 0.220736 0.895717
O O9 0.769746 0.268657 0.872636
O O10 0.693215 0.000000 0.903553
O O11 0.714131 0.246977 0.954234
O O12 0.500000 0.284391 0.350299
O O13 0.703029 0.500000 0.349099
O O14 0.766822 0.222814 0.373659
O O15 0.000000 0.770421 0.578294
O O16 0.814509 0.000000 0.572267
O O17 0.779619 0.500000 0.180908
O O18 0.000000 0.307127 0.173159
O O19 0.500000 0.857013 0.000000
O O20 0.747443 0.000000 0.000000
#
# Coordination Sequence:
#
# PCOD8199997 Si02
#       7
#     8   4   8   8   8   8   4
#     4  10  21  38  61  86 109 138 180 228 276 325
#     4  11  24  41  62  88 116 149 192 239 286 334
#     4   9  17  32  56  82 105 133 173 220 269 321
#     4  10  21  38  61  88 116 147 184 225 272 328
#     4  11  24  40  59  86 119 154 192 232 276 328
#     4  11  24  38  51  73 108 147 183 220 267 322
#     4   7  12  26  50  79 106 130 164 215 268 317
#
# _framework density 19.444724999999998
#
# number of rings (size 3 to 8) (size 9 to 14) (size 15 to 20)
#    0.000    2.000    0.000    4.500    0.000   11.333 
#    0.000    0.833    0.000    4.000    0.000    0.000 
#    0.000    0.000    0.000    0.000    0.000    0.000 
#
# Total GULP energy -595210.643389 kJ/mol
# GULP energy per Si atom -12400.221737 kJ/mol
# Density = 1.940047 g / cm^3
# Si number density = 19.444725 Si / 1000 Ang^3
#
#
#
# Elastic Constant Matrix: (Units=GPa)
#
#
# Indices 1 2 3 4 5 6 
#
# 1 88.7674 37.5030 57.6811 0.0000 0.0000 0.0000
# 2 37.5030 52.8473 25.3896 0.0000 0.0000 0.0000
# 3 57.6811 25.3896 126.3416 0.0000 0.0000 0.0000
# 4 0.0000 0.0000 0.0000 52.4412 0.0000 0.0000
# 5 0.0000 0.0000 0.0000 0.0000 -87.5687 0.0000
# 6 0.0000 0.0000 0.0000 0.0000 0.0000 29.3268
#
#
#
# Elastic Compliance Matrix: (Units=1/GPa)
#
#
# Indices 1 2 3 4 5 6 
#
# 1 0.020674 -0.011220 -0.007184 0.000000 0.000000 0.000000
# 2 -0.011220 0.027034 -0.000310 0.000000 0.000000 0.000000
# 3 -0.007184 -0.000310 0.011257 0.000000 0.000000 0.000000
# 4 0.000000 0.000000 0.000000 0.019069 0.000000 0.000000
# 5 0.000000 0.000000 0.000000 0.000000 -0.011420 0.000000
# 6 0.000000 0.000000 0.000000 0.000000 0.000000 0.034098
#
#
# Mechanical properties :
#
#
# Convention : Reuss Voigt Hill
#
# Bulk Modulus (GPa) = 46.43235 56.56710 51.49972
# Shear Modulus (GPa) = 34.40716 8.66536 21.53626
#
# Velocity S-wave (km/s) = 4.21109 2.11331 3.33162
# Velocity P-wave (km/s) = 6.89749 5.92530 6.42979
#
# Compressibility (1/GPa) = 0.02153671
#
# Stress axis : x y z
#
# Youngs Moduli (GPa) = 48.37093 36.99110 88.83234
#
# Poissons Ratio (x) = 0.41503 0.63815
# Poissons Ratio (y) = 0.54270 0.02757
# Poissons Ratio (z) = 0.34749 0.01148
#
# Static dielectric constant tensor:
#      x y z
#    x 3.497800 0.000000 0.000000 
#    y 0.000000 3.537170 0.000000 
#    z 0.000000 0.000000 3.833670 
# 
# 
# High freq. dielectric constant tensor:
#      x y z
#    x 1.746000 0.000000 0.000000 
#    y 0.000000 1.753390 0.000000 
#    z 0.000000 0.000000 1.777290 
# 
# From -- ./inp_files/34130.got.cif
#   From: 2010.03.12/outbox.cif.g09.slc.cpg/sg47_18_cif.got.tgz:34130.got - 2010.04.14 03:12:58.
