data_PCOD8199214
_publ_section_title
;
Structure prediction by ZEFSAII (Michael W. Deem and Ramdas Pophale) SiO2 
 PCOD8199214
Probable space group: P M M M
;
_chemical_formula_sum "Si O2"
_cell_formula_units_Z 56
_cell_length_a 19.713402
_cell_length_b 9.320878
_cell_length_c 15.788505
_cell_angle_alpha 90.000000
_cell_angle_beta 90.000000
_cell_angle_gamma 90.000000
_cell_volume 2901.078034
_symmetry_space_group_name_H-M "P M M M"
_symmetry_group_IT_number 47
_symmetry_cell_setting 'orthorhombic'
loop_
_space_group_symop_operation_xyz
x,y,z
-x,-y,z
x,-y,-z
-x,y,-z
-x,-y,-z
x,y,-z
-x,y,z
x,-y,z
loop_
_atom_site_type_symbol
_atom_site_label
_atom_site_fract_x
_atom_site_fract_y
_atom_site_fract_z
Si Si1 0.693421 0.654946 0.903214
Si Si2 0.160748 0.170181 0.595414
Si Si3 0.424717 0.833608 0.161330
Si Si4 0.842467 0.330435 0.902069
Si Si5 0.575271 0.665408 0.334239
Si Si6 0.079342 0.167379 0.757274
Si Si7 0.691139 0.155243 0.402975
O O1 0.672368 0.500000 0.861966
O O2 0.633785 0.771369 0.897737
O O3 0.766122 0.708663 0.868067
O O4 0.708396 0.625661 0.000000
O O5 0.144839 0.232938 0.500000
O O6 0.109840 0.227660 0.668093
O O7 0.236255 0.214242 0.629518
O O8 0.155707 0.000000 0.589411
O O9 0.500000 0.809219 0.121517
O O10 0.418543 0.751778 0.248521
O O11 0.411020 0.000000 0.176427
O O12 0.854746 0.500000 0.894506
O O13 0.893309 0.248887 0.839881
O O14 0.854448 0.280813 0.000000
O O15 0.500000 0.685526 0.374024
O O16 0.590523 0.500000 0.316610
O O17 0.631834 0.728321 0.395593
O O18 0.000000 0.195674 0.752332
O O19 0.096998 0.000000 0.767939
O O20 0.703307 0.124520 0.500000
O O21 0.672215 0.000000 0.360176
#
# Coordination Sequence:
#
# PCOD8199214 Si02
#       7
#     8   8   8   8   8   8   8
#     4   9  19  36  56  78 104 136 177 223 271 322
#     4   8  16  33  55  80 112 147 182 222 270 326
#     4  10  21  35  51  74 105 140 178 220 267 321
#     4   9  20  39  59  80 110 148 188 228 273 330
#     4  10  21  35  50  71 102 139 179 224 271 318
#     4  10  21  35  55  87 118 144 181 227 275 326
#     4   9  18  33  53  76 102 135 177 224 272 322
#
# _framework density 19.303169
#
# number of rings (size 3 to 8) (size 9 to 14) (size 15 to 20)
#    0.000    2.714    0.000    2.571    2.000    4.571 
#    0.000    7.143    0.000    1.286    0.000    1.000 
#    0.000    0.000    0.000    0.000    0.000    0.000 
#
# Total GULP energy -693781.730248 kJ/mol
# GULP energy per Si atom -12388.959469 kJ/mol
# Density = 1.925923 g / cm^3
# Si number density = 19.303169 Si / 1000 Ang^3
#
#
#
# Elastic Constant Matrix: (Units=GPa)
#
#
# Indices 1 2 3 4 5 6 
#
# 1 137.5246 60.8082 56.3922 0.0000 0.0000 0.0000
# 2 60.8082 84.2031 32.9638 0.0000 0.0000 0.0000
# 3 56.3922 32.9638 83.7779 0.0000 0.0000 0.0000
# 4 0.0000 0.0000 0.0000 66.2599 0.0000 0.0000
# 5 0.0000 0.0000 0.0000 0.0000 22.9635 0.0000
# 6 0.0000 0.0000 0.0000 0.0000 0.0000 20.5913
#
#
#
# Elastic Compliance Matrix: (Units=1/GPa)
#
#
# Indices 1 2 3 4 5 6 
#
# 1 0.012718 -0.006895 -0.005848 0.000000 0.000000 0.000000
# 2 -0.006895 0.017777 -0.002353 0.000000 0.000000 0.000000
# 3 -0.005848 -0.002353 0.016798 0.000000 0.000000 0.000000
# 4 0.000000 0.000000 0.000000 0.015092 0.000000 0.000000
# 5 0.000000 0.000000 0.000000 0.000000 0.043547 0.000000
# 6 0.000000 0.000000 0.000000 0.000000 0.000000 0.048564
#
#
# Mechanical properties :
#
#
# Convention : Reuss Voigt Hill
#
# Bulk Modulus (GPa) = 58.47654 67.31489 62.89572
# Shear Modulus (GPa) = 26.26192 32.31904 29.29048
#
# Velocity S-wave (km/s) = 3.69249 4.09624 3.89960
# Velocity P-wave (km/s) = 6.96698 7.57103 7.27528
#
# Compressibility (1/GPa) = 0.01710087
#
# Stress axis : x y z
#
# Youngs Moduli (GPa) = 78.62799 56.25300 59.52935
#
# Poissons Ratio (x) = 0.38788 0.34811
# Poissons Ratio (y) = 0.54216 0.14009
# Poissons Ratio (z) = 0.45979 0.13238
#
# Static dielectric constant tensor:
#      x y z
#    x 3.778630 0.000000 0.000000 
#    y 0.000000 2.792950 0.000000 
#    z 0.000000 0.000000 3.423570 
# 
# 
# High freq. dielectric constant tensor:
#      x y z
#    x 1.758540 0.000000 0.000000 
#    y 0.000000 1.732710 0.000000 
#    z 0.000000 0.000000 1.739110 
# 
# From -- ./inp_files/7228.got.cif
#   From: 2010.03.12/outbox.cif.g09.slc.cpg/sg47_4_cif.got.tgz:7228.got - 2010.04.14 03:12:58.
