data_PCOD8199468
_publ_section_title
;
Structure prediction by ZEFSAII (Michael W. Deem and Ramdas Pophale) SiO2 
 PCOD8199468
Probable space group: P M M M
;
_chemical_formula_sum "Si O2"
_cell_formula_units_Z 44
_cell_length_a 9.287644
_cell_length_b 8.987581
_cell_length_c 28.223571
_cell_angle_alpha 90.000000
_cell_angle_beta 90.000000
_cell_angle_gamma 90.000000
_cell_volume 2355.918920
_symmetry_space_group_name_H-M "P M M M"
_symmetry_group_IT_number 47
_symmetry_cell_setting 'orthorhombic'
loop_
_space_group_symop_operation_xyz
x,y,z
-x,-y,z
x,-y,-z
-x,y,-z
-x,-y,-z
x,y,-z
-x,y,z
x,-y,z
loop_
_atom_site_type_symbol
_atom_site_label
_atom_site_fract_x
_atom_site_fract_y
_atom_site_fract_z
Si Si1 0.669990 0.330674 0.185634
Si Si2 0.835879 0.822699 0.897798
Si Si3 0.168730 0.327709 0.365245
Si Si4 0.334332 0.170914 0.445101
Si Si5 0.829745 0.837645 0.000000
Si Si6 0.666196 0.174500 0.718898
O O1 0.500000 0.318461 0.181503
O O2 0.723540 0.500000 0.186864
O O3 0.733879 0.249367 0.140527
O O4 0.724090 0.252024 0.233497
O O5 0.000000 0.777258 0.886581
O O6 0.818771 0.000000 0.897108
O O7 0.787953 0.758495 0.950077
O O8 0.203644 0.500000 0.356313
O O9 0.232376 0.279508 0.415701
O O10 0.240401 0.230373 0.324590
O O11 0.000000 0.295916 0.365510
O O12 0.304044 0.202524 0.500000
O O13 0.500000 0.204983 0.432545
O O14 0.298861 0.000000 0.432528
O O15 0.000000 0.859149 0.000000
O O16 0.756212 0.000000 0.000000
O O17 0.500000 0.215688 0.709262
O O18 0.687821 0.000000 0.725072
#
# Coordination Sequence:
#
# PCOD8199468 Si02
#       6
#     8   8   8   8   4   8
#     4  10  21  36  53  75 105 139 172 209 258 313
#     4   9  17  31  53  78 102 132 172 216 260 306
#     4  11  24  38  53  79 114 146 175 212 260 312
#     4   9  19  37  60  84 109 140 181 224 262 305
#     4   7  12  26  48  73 100 130 168 213 256 301
#     4  10  21  38  60  81 100 130 175 221 262 309
#
# _framework density 18.676365000000001
#
# number of rings (size 3 to 8) (size 9 to 14) (size 15 to 20)
#    0.000    2.455    0.000    3.818    0.000    8.000 
#    0.000    3.636    0.000    4.364    0.000    0.000 
#    0.000    0.000    0.000    0.000    0.000    0.000 
#
# Total GULP energy -545508.833406 kJ/mol
# GULP energy per Si atom -12397.928032 kJ/mol
# Density = 1.863386 g / cm^3
# Si number density = 18.676365 Si / 1000 Ang^3
#
#
#
# Elastic Constant Matrix: (Units=GPa)
#
#
# Indices 1 2 3 4 5 6 
#
# 1 46.3346 26.8609 39.0312 0.0000 0.0000 0.0000
# 2 26.8609 57.1223 37.0663 0.0000 0.0000 0.0000
# 3 39.0312 37.0663 125.8127 0.0000 0.0000 0.0000
# 4 0.0000 0.0000 0.0000 -6.1306 0.0000 0.0000
# 5 0.0000 0.0000 0.0000 0.0000 46.9997 0.0000
# 6 0.0000 0.0000 0.0000 0.0000 0.0000 29.3852
#
#
#
# Elastic Compliance Matrix: (Units=1/GPa)
#
#
# Indices 1 2 3 4 5 6 
#
# 1 0.034343 -0.011419 -0.007290 0.000000 0.000000 0.000000
# 2 -0.011419 0.025441 -0.003953 0.000000 0.000000 0.000000
# 3 -0.007290 -0.003953 0.011375 0.000000 0.000000 0.000000
# 4 0.000000 0.000000 0.000000 -0.163116 0.000000 0.000000
# 5 0.000000 0.000000 0.000000 0.000000 0.021277 0.000000
# 6 0.000000 0.000000 0.000000 0.000000 0.000000 0.034031
#
#
# Mechanical properties :
#
#
# Convention : Reuss Voigt Hill
#
# Bulk Modulus (GPa) = 38.70742 48.35402 43.53072
# Shear Modulus (GPa) = 289.29179 22.47160 155.88170
#
# Velocity S-wave (km/s) = 12.45927 3.47250 9.14581
# Velocity P-wave (km/s) = 15.09133 6.48262 11.61406
#
# Compressibility (1/GPa) = 0.02583484
#
# Stress axis : x y z
#
# Youngs Moduli (GPa) = 29.11829 39.30721 87.91591
#
# Poissons Ratio (x) = 0.44883 0.64092
# Poissons Ratio (y) = 0.33249 0.34751
# Poissons Ratio (z) = 0.21228 0.15537
#
# Static dielectric constant tensor:
#      x y z
#    x 3.262120 0.000000 0.000000 
#    y 0.000000 3.387970 0.000000 
#    z 0.000000 0.000000 3.679070 
# 
# 
# High freq. dielectric constant tensor:
#      x y z
#    x 1.707420 0.000000 0.000000 
#    y 0.000000 1.716950 0.000000 
#    z 0.000000 0.000000 1.745450 
# 
# From -- ./inp_files/2026.got.cif
#   From: 2010.03.12/outbox.cif.g09.slc.cpg/sg47_2_cif.got.tgz:2026.got - 2010.04.14 03:12:58.
