data_PCOD8199450
_publ_section_title
;
Structure prediction by ZEFSAII (Michael W. Deem and Ramdas Pophale) SiO2 
 PCOD8199450
Probable space group: P M M M
;
_chemical_formula_sum "Si O2"
_cell_formula_units_Z 36
_cell_length_a 23.561484
_cell_length_b 9.236993
_cell_length_c 8.951362
_cell_angle_alpha 90.000000
_cell_angle_beta 90.000000
_cell_angle_gamma 90.000000
_cell_volume 1948.149924
_symmetry_space_group_name_H-M "P M M M"
_symmetry_group_IT_number 47
_symmetry_cell_setting 'orthorhombic'
loop_
_space_group_symop_operation_xyz
x,y,z
-x,-y,z
x,-y,-z
-x,y,-z
-x,-y,-z
x,y,-z
-x,y,z
x,-y,z
loop_
_atom_site_type_symbol
_atom_site_label
_atom_site_fract_x
_atom_site_fract_y
_atom_site_fract_z
Si Si1 0.439982 0.338178 0.177252
Si Si2 0.000000 0.330336 0.673764
Si Si3 0.781645 0.166342 0.673094
Si Si4 0.317685 0.327201 0.829706
Si Si5 0.897679 0.832557 0.824878
O O1 0.500000 0.259301 0.226834
O O2 0.442209 0.500000 0.242791
O O3 0.379877 0.266780 0.226580
O O4 0.437667 0.346366 0.000000
O O5 0.944297 0.263970 0.746088
O O6 0.000000 0.500000 0.704897
O O7 0.000000 0.292859 0.500000
O O8 0.794918 0.191936 0.500000
O O9 0.728616 0.262472 0.720046
O O10 0.836382 0.216729 0.765922
O O11 0.767044 0.000000 0.707754
O O12 0.316849 0.500000 0.818958
O O13 0.305329 0.277710 0.000000
O O14 0.909214 0.000000 0.785457
O O15 0.900441 0.804144 0.000000
#
# Coordination Sequence:
#
# PCOD8199450 Si02
#       5
#     8   4   8   8   8
#     4   7  10  19  38  65  95 124 156 198 247 297
#     4  11  24  39  56  82 114 143 168 197 240 292
#     4  10  21  36  53  73  99 134 173 209 248 296
#     4   9  17  29  48  75 102 128 162 206 256 305
#     4  10  21  38  60  82 102 130 171 213 251 293
#
# _framework density 18.479071000000001
#
# number of rings (size 3 to 8) (size 9 to 14) (size 15 to 20)
#    0.000    2.778    0.000    4.000    0.000    6.222 
#    0.000    0.000    0.000    1.333    0.000    7.778 
#    0.000    0.000    0.000    0.000    0.000    0.000 
#
# Total GULP energy -446051.200229 kJ/mol
# GULP energy per Si atom -12390.311117 kJ/mol
# Density = 1.843701 g / cm^3
# Si number density = 18.479071 Si / 1000 Ang^3
#
#
#
# Elastic Constant Matrix: (Units=GPa)
#
#
# Indices 1 2 3 4 5 6 
#
# 1 178.6879 55.8950 58.7237 0.0000 0.0000 0.0000
# 2 55.8950 42.4210 37.2746 0.0000 0.0000 0.0000
# 3 58.7237 37.2746 71.6271 0.0000 0.0000 0.0000
# 4 0.0000 0.0000 0.0000 24.7818 0.0000 0.0000
# 5 0.0000 0.0000 0.0000 0.0000 -47.6940 0.0000
# 6 0.0000 0.0000 0.0000 0.0000 0.0000 34.3191
#
#
#
# Elastic Compliance Matrix: (Units=1/GPa)
#
#
# Indices 1 2 3 4 5 6 
#
# 1 0.009741 -0.010719 -0.002408 0.000000 0.000000 0.000000
# 2 -0.010719 0.055229 -0.019953 0.000000 0.000000 0.000000
# 3 -0.002408 -0.019953 0.026319 0.000000 0.000000 0.000000
# 4 0.000000 0.000000 0.000000 0.040352 0.000000 0.000000
# 5 0.000000 0.000000 0.000000 0.000000 -0.020967 0.000000
# 6 0.000000 0.000000 0.000000 0.000000 0.000000 0.029138
#
#
# Mechanical properties :
#
#
# Convention : Reuss Voigt Hill
#
# Bulk Modulus (GPa) = 39.79490 66.28030 53.03760
# Shear Modulus (GPa) = 23.32652 11.67090 17.49871
#
# Velocity S-wave (km/s) = 3.55677 2.51584 3.08059
# Velocity P-wave (km/s) = 6.20075 6.66220 6.43561
#
# Compressibility (1/GPa) = 0.02512885
#
# Stress axis : x y z
#
# Youngs Moduli (GPa) = 102.66372 18.10638 37.99537
#
# Poissons Ratio (x) = 0.19408 0.09149
# Poissons Ratio (y) = 1.10042 0.75814
# Poissons Ratio (z) = 0.24720 0.36128
#
# Static dielectric constant tensor:
#      x y z
#    x 3.891220 0.000000 0.000000 
#    y 0.000000 3.083460 0.000000 
#    z 0.000000 0.000000 3.228400 
# 
# 
# High freq. dielectric constant tensor:
#      x y z
#    x 1.746690 0.000000 0.000000 
#    y 0.000000 1.677520 0.000000 
#    z 0.000000 0.000000 1.697740 
# 
# From -- ./inp_files/1429.got.cif
#   From: 2010.03.12/outbox.cif.g09.slc.cpg/sg47_1_cif.got.tgz:1429.got - 2010.04.14 03:12:58.
