data_PCOD8199088
_publ_section_title
;
Structure prediction by ZEFSAII (Michael W. Deem and Ramdas Pophale) SiO2 
 PCOD8199088
Probable space group: P M M M
;
_chemical_formula_sum "Si O2"
_cell_formula_units_Z 56
_cell_length_a 19.180508
_cell_length_b 18.110333
_cell_length_c 9.262137
_cell_angle_alpha 90.000000
_cell_angle_beta 90.000000
_cell_angle_gamma 90.000000
_cell_volume 3217.345803
_symmetry_space_group_name_H-M "P M M M"
_symmetry_group_IT_number 47
_symmetry_cell_setting 'orthorhombic'
loop_
_space_group_symop_operation_xyz
x,y,z
-x,-y,z
x,-y,-z
-x,y,-z
-x,-y,-z
x,y,-z
-x,y,z
x,-y,z
loop_
_atom_site_type_symbol
_atom_site_label
_atom_site_fract_x
_atom_site_fract_y
_atom_site_fract_z
Si Si1 0.720403 0.145603 0.664916
Si Si2 0.920931 0.207574 0.332067
Si Si3 0.706468 0.584175 0.834494
Si Si4 0.155744 0.915558 0.833862
Si Si5 0.575166 0.808376 0.328481
Si Si6 0.421338 0.641510 0.332368
Si Si7 0.792759 0.699235 0.663313
O O1 0.727311 0.117841 0.500000
O O2 0.767878 0.094350 0.764462
O O3 0.640133 0.140771 0.721875
O O4 0.741982 0.230917 0.676444
O O5 0.909355 0.188227 0.500000
O O6 0.902035 0.134126 0.244071
O O7 0.870562 0.275434 0.288447
O O8 0.000000 0.231006 0.298070
O O9 0.731545 0.500000 0.820001
O O10 0.632181 0.591797 0.756268
O O11 0.766823 0.634467 0.766092
O O12 0.697125 0.607655 0.000000
O O13 0.132130 0.000000 0.816959
O O14 0.160306 0.891726 0.000000
O O15 0.575591 0.804340 0.500000
O O16 0.500000 0.840565 0.274705
O O17 0.583829 0.724905 0.272013
O O18 0.399872 0.637796 0.500000
O O19 0.500000 0.611288 0.310421
O O20 0.793320 0.669063 0.500000
#
# Coordination Sequence:
#
# PCOD8199088 Si02
#       7
#     8   8   8   8   8   8   8
#     4   9  16  29  51  74  95 124 165 209 250 290
#     4   9  19  36  58  82 104 126 155 194 240 288
#     4  11  23  34  45  66  99 136 169 205 248 291
#     4  10  21  34  48  72 107 141 168 194 228 277
#     4   8  13  24  45  71  95 118 152 205 259 296
#     4   9  17  31  50  69  92 125 165 208 254 301
#     4   9  17  32  53  75  96 121 160 203 242 289
#
# _framework density 17.405650999999999
#
# number of rings (size 3 to 8) (size 9 to 14) (size 15 to 20)
#    0.000    2.714    1.429    2.571    0.000    5.714 
#    0.000    2.857    0.000    1.286    0.000    6.000 
#    0.000    0.000    0.000    0.000    0.000    0.000 
#
# Total GULP energy -694180.389677 kJ/mol
# GULP energy per Si atom -12396.078387 kJ/mol
# Density = 1.736604 g / cm^3
# Si number density = 17.405651 Si / 1000 Ang^3
#
#
#
# Elastic Constant Matrix: (Units=GPa)
#
#
# Indices 1 2 3 4 5 6 
#
# 1 143.2721 37.8198 48.6176 0.0000 0.0000 0.0000
# 2 37.8198 55.4275 41.7981 0.0000 0.0000 0.0000
# 3 48.6176 41.7981 86.3051 0.0000 0.0000 0.0000
# 4 0.0000 0.0000 0.0000 25.2685 0.0000 0.0000
# 5 0.0000 0.0000 0.0000 0.0000 11.3436 0.0000
# 6 0.0000 0.0000 0.0000 0.0000 0.0000 16.8719
#
#
#
# Elastic Compliance Matrix: (Units=1/GPa)
#
#
# Indices 1 2 3 4 5 6 
#
# 1 0.009083 -0.003685 -0.003332 0.000000 0.000000 0.000000
# 2 -0.003685 0.029917 -0.012413 0.000000 0.000000 0.000000
# 3 -0.003332 -0.012413 0.019476 0.000000 0.000000 0.000000
# 4 0.000000 0.000000 0.000000 0.039575 0.000000 0.000000
# 5 0.000000 0.000000 0.000000 0.000000 0.088155 0.000000
# 6 0.000000 0.000000 0.000000 0.000000 0.000000 0.059270
#
#
# Mechanical properties :
#
#
# Convention : Reuss Voigt Hill
#
# Bulk Modulus (GPa) = 50.98081 60.16397 55.57239
# Shear Modulus (GPa) = 17.18955 21.14808 19.16881
#
# Velocity S-wave (km/s) = 3.14599 3.48948 3.32218
# Velocity P-wave (km/s) = 6.52302 7.13275 6.83469
#
# Compressibility (1/GPa) = 0.01961522
#
# Stress axis : x y z
#
# Youngs Moduli (GPa) = 110.09387 33.42619 51.34641
#
# Poissons Ratio (x) = 0.12317 0.17109
# Poissons Ratio (y) = 0.40569 0.63736
# Poissons Ratio (z) = 0.36684 0.41492
#
# Static dielectric constant tensor:
#      x y z
#    x 3.549400 0.000000 0.000000 
#    y 0.000000 2.922180 0.000000 
#    z 0.000000 0.000000 3.094630 
# 
# 
# High freq. dielectric constant tensor:
#      x y z
#    x 1.678970 0.000000 0.000000 
#    y 0.000000 1.639460 0.000000 
#    z 0.000000 0.000000 1.655440 
# 
# From -- ./inp_files/9795.got.cif
#   From: 2010.03.12/outbox.cif.g09.slc.cpg/sg47_5_cif.got.tgz:9795.got - 2010.04.14 03:12:58.
