data_PCOD8199436
_publ_section_title
;
Structure prediction by ZEFSAII (Michael W. Deem and Ramdas Pophale) SiO2 
 PCOD8199436
Probable space group: P M M M
;
_chemical_formula_sum "Si O2"
_cell_formula_units_Z 48
_cell_length_a 30.620317
_cell_length_b 9.400704
_cell_length_c 9.404631
_cell_angle_alpha 90.000000
_cell_angle_beta 90.000000
_cell_angle_gamma 90.000000
_cell_volume 2707.146888
_symmetry_space_group_name_H-M "P M M M"
_symmetry_group_IT_number 47
_symmetry_cell_setting 'orthorhombic'
loop_
_space_group_symop_operation_xyz
x,y,z
-x,-y,z
x,-y,-z
-x,y,-z
-x,-y,-z
x,y,-z
-x,y,z
x,-y,z
loop_
_atom_site_type_symbol
_atom_site_label
_atom_site_fract_x
_atom_site_fract_y
_atom_site_fract_z
Si Si1 0.723701 0.334623 0.165982
Si Si2 0.949264 0.161360 0.164295
Si Si3 0.795459 0.164883 0.666963
Si Si4 0.880650 0.664207 0.666819
Si Si5 0.452220 0.158991 0.831028
Si Si6 0.625965 0.656664 0.831479
O O1 0.731227 0.500000 0.206156
O O2 0.754426 0.232452 0.255008
O O3 0.674351 0.286807 0.205726
O O4 0.733018 0.311262 0.000000
O O5 0.923003 0.274267 0.256565
O O6 0.000000 0.191880 0.190676
O O7 0.937775 0.000000 0.210983
O O8 0.937240 0.183295 0.000000
O O9 0.788170 0.184155 0.500000
O O10 0.838606 0.247500 0.718050
O O11 0.800202 0.000000 0.709540
O O12 0.888158 0.681715 0.500000
O O13 0.873999 0.500000 0.709785
O O14 0.500000 0.222115 0.788152
O O15 0.412345 0.247703 0.763115
O O16 0.448117 0.000000 0.771019
O O17 0.448045 0.157522 0.000000
O O18 0.619938 0.500000 0.766765
O O19 0.621009 0.650174 0.000000
#
# Coordination Sequence:
#
# PCOD8199436 Si02
#       6
#     8   8   8   8   8   8
#     4   9  18  32  49  70  96 125 158 196 239 288
#     4   9  19  36  56  78 105 136 168 201 238 281
#     4  10  21  36  53  73  97 126 162 202 242 286
#     4  10  21  36  54  76 101 130 164 201 242 287
#     4   8  13  20  30  47  74 109 147 184 223 269
#     4   8  14  24  37  55  81 112 146 185 227 272
#
# _framework density 17.730844000000001
#
# number of rings (size 3 to 8) (size 9 to 14) (size 15 to 20)
#    0.000    3.000    0.000    3.000    0.000    5.000 
#    0.000    5.833    0.000    0.000    0.000    0.000 
#    0.000    0.667    0.000    7.333    0.000   12.000 
#
# Total GULP energy -595008.773190 kJ/mol
# GULP energy per Si atom -12396.016108 kJ/mol
# Density = 1.769049 g / cm^3
# Si number density = 17.730844 Si / 1000 Ang^3
#
#
#
# Elastic Constant Matrix: (Units=GPa)
#
#
# Indices 1 2 3 4 5 6 
#
# 1 138.3118 87.5351 39.3962 0.0000 0.0000 0.0000
# 2 87.5351 125.3872 37.7459 0.0000 0.0000 0.0000
# 3 39.3962 37.7459 26.6732 0.0000 0.0000 0.0000
# 4 0.0000 0.0000 0.0000 24.6185 0.0000 0.0000
# 5 0.0000 0.0000 0.0000 0.0000 -10.5014 0.0000
# 6 0.0000 0.0000 0.0000 0.0000 0.0000 41.8382
#
#
#
# Elastic Compliance Matrix: (Units=1/GPa)
#
#
# Indices 1 2 3 4 5 6 
#
# 1 0.015132 -0.006682 -0.012893 0.000000 0.000000 0.000000
# 2 -0.006682 0.016845 -0.013968 0.000000 0.000000 0.000000
# 3 -0.012893 -0.013968 0.076300 0.000000 0.000000 0.000000
# 4 0.000000 0.000000 0.000000 0.040620 0.000000 0.000000
# 5 0.000000 0.000000 0.000000 0.000000 -0.095225 0.000000
# 6 0.000000 0.000000 0.000000 0.000000 0.000000 0.023902
#
#
# Mechanical properties :
#
#
# Convention : Reuss Voigt Hill
#
# Bulk Modulus (GPa) = 24.27772 68.85851 46.56812
# Shear Modulus (GPa) = 31.56762 19.57074 25.56918
#
# Velocity S-wave (km/s) = 4.22403 3.32590 3.80158
# Velocity P-wave (km/s) = 6.12471 7.32589 6.75206
#
# Compressibility (1/GPa) = 0.04119002
#
# Stress axis : x y z
#
# Youngs Moduli (GPa) = 66.08698 59.36343 13.10615
#
# Poissons Ratio (x) = 0.39669 0.16897
# Poissons Ratio (y) = 0.44162 0.18307
# Poissons Ratio (z) = 0.85204 0.82921
#
# Static dielectric constant tensor:
#      x y z
#    x 3.470160 0.000000 0.000000 
#    y 0.000000 3.464990 0.000000 
#    z 0.000000 0.000000 2.841760 
# 
# 
# High freq. dielectric constant tensor:
#      x y z
#    x 1.700310 0.000000 0.000000 
#    y 0.000000 1.688740 0.000000 
#    z 0.000000 0.000000 1.638850 
# 
# From -- ./inp_files/2462.got.cif
#   From: 2010.03.12/outbox.cif.g09.slc.cpg/sg47_2_cif.got.tgz:2462.got - 2010.04.14 03:12:58.
