data_PCOD8199523
_publ_section_title
;
Structure prediction by ZEFSAII (Michael W. Deem and Ramdas Pophale) SiO2 
 PCOD8199523
Probable space group: P M M M
;
_chemical_formula_sum "Si O2"
_cell_formula_units_Z 44
_cell_length_a 9.211315
_cell_length_b 9.489524
_cell_length_c 27.478488
_cell_angle_alpha 90.000000
_cell_angle_beta 90.000000
_cell_angle_gamma 90.000000
_cell_volume 2401.921971
_symmetry_space_group_name_H-M "P M M M"
_symmetry_group_IT_number 47
_symmetry_cell_setting 'orthorhombic'
loop_
_space_group_symop_operation_xyz
x,y,z
-x,-y,z
x,-y,-z
-x,y,-z
-x,-y,-z
x,y,-z
-x,y,z
x,-y,z
loop_
_atom_site_type_symbol
_atom_site_label
_atom_site_fract_x
_atom_site_fract_y
_atom_site_fract_z
Si Si1 0.831321 0.336253 0.769632
Si Si2 0.665178 0.163063 0.308372
Si Si3 0.834557 0.837086 0.943799
Si Si4 0.332154 0.838715 0.420858
Si Si5 0.331379 0.663832 0.134295
Si Si6 0.828933 0.663209 0.500000
O O1 0.798684 0.500000 0.761093
O O2 0.775467 0.254530 0.722724
O O3 0.749972 0.280663 0.817663
O O4 0.000000 0.305093 0.776775
O O5 0.500000 0.207198 0.296402
O O6 0.699799 0.192447 0.364592
O O7 0.689271 0.000000 0.295870
O O8 0.724949 0.745057 0.912641
O O9 0.000000 0.793489 0.932076
O O10 0.809952 0.000000 0.931122
O O11 0.799190 0.807994 0.000000
O O12 0.500000 0.810648 0.433232
O O13 0.233844 0.734596 0.451789
O O14 0.292551 0.000000 0.433609
O O15 0.500000 0.695551 0.141343
O O16 0.299209 0.500000 0.125839
O O17 0.784315 0.500000 0.500000
O O18 0.000000 0.683792 0.500000
#
# Coordination Sequence:
#
# PCOD8199523 Si02
#       6
#     8   8   8   8   8   4
#     4  10  21  36  54  77 106 140 176 214 258 308
#     4   9  19  36  57  81 107 135 171 215 261 310
#     4   9  19  36  56  78 105 137 173 213 259 312
#     4   9  19  37  59  80 103 135 176 218 259 308
#     4  10  21  36  54  77 105 138 177 218 259 307
#     4  11  24  37  50  76 112 143 174 215 260 308
#
# _framework density 18.318662
#
# number of rings (size 3 to 8) (size 9 to 14) (size 15 to 20)
#    0.000    2.455    0.000    3.273    0.000    8.000 
#    0.000    8.182    0.000    0.000    0.000    0.000 
#    0.000    0.000    0.000    0.000    0.000    0.000 
#
# Total GULP energy -545747.218729 kJ/mol
# GULP energy per Si atom -12403.345880 kJ/mol
# Density = 1.827697 g / cm^3
# Si number density = 18.318662 Si / 1000 Ang^3
#
#
#
# Elastic Constant Matrix: (Units=GPa)
#
#
# Indices 1 2 3 4 5 6 
#
# 1 107.4751 66.4308 71.6660 0.0000 0.0000 0.0000
# 2 66.4308 85.2531 66.9811 0.0000 0.0000 0.0000
# 3 71.6660 66.9811 113.8575 0.0000 0.0000 0.0000
# 4 0.0000 0.0000 0.0000 38.3420 0.0000 0.0000
# 5 0.0000 0.0000 0.0000 0.0000 36.5284 0.0000
# 6 0.0000 0.0000 0.0000 0.0000 0.0000 35.6134
#
#
#
# Elastic Compliance Matrix: (Units=1/GPa)
#
#
# Indices 1 2 3 4 5 6 
#
# 1 0.020195 -0.010690 -0.006422 0.000000 0.000000 0.000000
# 2 -0.010690 0.027470 -0.009431 0.000000 0.000000 0.000000
# 3 -0.006422 -0.009431 0.018374 0.000000 0.000000 0.000000
# 4 0.000000 0.000000 0.000000 0.026081 0.000000 0.000000
# 5 0.000000 0.000000 0.000000 0.000000 0.027376 0.000000
# 6 0.000000 0.000000 0.000000 0.000000 0.000000 0.028079
#
#
# Mechanical properties :
#
#
# Convention : Reuss Voigt Hill
#
# Bulk Modulus (GPa) = 77.21790 79.63796 78.42793
# Shear Modulus (GPa) = 24.39276 28.86394 26.62835
#
# Velocity S-wave (km/s) = 3.65304 3.97376 3.81677
# Velocity P-wave (km/s) = 7.74836 8.03881 7.89492
#
# Compressibility (1/GPa) = 0.01295037
#
# Stress axis : x y z
#
# Youngs Moduli (GPa) = 49.51817 36.40369 54.42568
#
# Poissons Ratio (x) = 0.38916 0.34954
# Poissons Ratio (y) = 0.52936 0.51331
# Poissons Ratio (z) = 0.31802 0.34334
#
# Static dielectric constant tensor:
#      x y z
#    x 3.336600 0.000000 0.000000 
#    y 0.000000 3.285720 0.000000 
#    z 0.000000 0.000000 3.363060 
# 
# 
# High freq. dielectric constant tensor:
#      x y z
#    x 1.713170 0.000000 0.000000 
#    y 0.000000 1.705270 0.000000 
#    z 0.000000 0.000000 1.719420 
# 
# From -- ./inp_files/1971.got.cif
#   From: 2010.03.12/outbox.cif.g09.slc.cpg/sg47_1_cif.got.tgz:1971.got - 2010.04.14 03:12:58.
