data_PCOD8199273
_publ_section_title
;
Structure prediction by ZEFSAII (Michael W. Deem and Ramdas Pophale) SiO2 
 PCOD8199273
Probable space group: P M M M
;
_chemical_formula_sum "Si O2"
_cell_formula_units_Z 44
_cell_length_a 9.217130
_cell_length_b 9.597780
_cell_length_c 28.030392
_cell_angle_alpha 90.000000
_cell_angle_beta 90.000000
_cell_angle_gamma 90.000000
_cell_volume 2479.680205
_symmetry_space_group_name_H-M "P M M M"
_symmetry_group_IT_number 47
_symmetry_cell_setting 'orthorhombic'
loop_
_space_group_symop_operation_xyz
x,y,z
-x,-y,z
x,-y,-z
-x,y,-z
-x,-y,-z
x,y,-z
-x,y,z
x,-y,z
loop_
_atom_site_type_symbol
_atom_site_label
_atom_site_fract_x
_atom_site_fract_y
_atom_site_fract_z
Si Si1 0.331362 0.338380 0.815024
Si Si2 0.830837 0.161171 0.630330
Si Si3 0.664381 0.666289 0.000000
Si Si4 0.836134 0.334231 0.908300
Si Si5 0.665673 0.339351 0.444830
Si Si6 0.331235 0.160581 0.275230
O O1 0.500000 0.312568 0.826202
O O2 0.299918 0.500000 0.804633
O O3 0.241041 0.282635 0.860102
O O4 0.278633 0.251554 0.769433
O O5 0.773488 0.245865 0.585439
O O6 0.754504 0.213884 0.678548
O O7 0.000000 0.188608 0.636002
O O8 0.794399 0.000000 0.621278
O O9 0.747306 0.724363 0.953480
O O10 0.663927 0.500000 0.000000
O O11 0.500000 0.723349 0.000000
O O12 0.836251 0.500000 0.909980
O O13 0.000000 0.275977 0.909996
O O14 0.700606 0.311730 0.500000
O O15 0.500000 0.298038 0.433379
O O16 0.692511 0.500000 0.431931
O O17 0.500000 0.184432 0.285574
O O18 0.295906 0.000000 0.263893
#
# Coordination Sequence:
#
# PCOD8199273 Si02
#       6
#     8   8   4   8   8   8
#     4   9  17  29  45  66  91 118 151 192 235 278
#     4  10  21  35  51  74 103 132 163 201 244 290
#     4   9  15  23  37  57  84 119 154 187 226 272
#     4   9  16  25  38  59  88 119 150 186 229 277
#     4   9  19  36  56  77 101 130 165 203 242 287
#     4   9  18  33  51  69  92 125 163 200 238 282
#
# _framework density 17.744223999999999
#
# number of rings (size 3 to 8) (size 9 to 14) (size 15 to 20)
#    0.000    2.818    0.000    1.909    0.000    6.909 
#    0.000    4.545    0.000    0.000    0.000    0.636 
#    0.000    5.091    0.000    0.000    0.000    0.000 
#
# Total GULP energy -545666.245253 kJ/mol
# GULP energy per Si atom -12401.505574 kJ/mol
# Density = 1.770384 g / cm^3
# Si number density = 17.744224 Si / 1000 Ang^3
#
#
#
# Elastic Constant Matrix: (Units=GPa)
#
#
# Indices 1 2 3 4 5 6 
#
# 1 103.7209 35.4387 78.4593 0.0000 0.0000 0.0000
# 2 35.4387 42.4756 53.3903 0.0000 0.0000 0.0000
# 3 78.4593 53.3903 149.4570 0.0000 0.0000 0.0000
# 4 0.0000 0.0000 0.0000 -0.3700 0.0000 0.0000
# 5 0.0000 0.0000 0.0000 0.0000 20.5245 0.0000
# 6 0.0000 0.0000 0.0000 0.0000 0.0000 19.2499
#
#
#
# Elastic Compliance Matrix: (Units=1/GPa)
#
#
# Indices 1 2 3 4 5 6 
#
# 1 0.016615 -0.005261 -0.006843 0.000000 0.000000 0.000000
# 2 -0.005261 0.044395 -0.013097 0.000000 0.000000 0.000000
# 3 -0.006843 -0.013097 0.014962 0.000000 0.000000 0.000000
# 4 0.000000 0.000000 0.000000 -2.702553 0.000000 0.000000
# 5 0.000000 0.000000 0.000000 0.000000 0.048722 0.000000
# 6 0.000000 0.000000 0.000000 0.000000 0.000000 0.051948
#
#
# Mechanical properties :
#
#
# Convention : Reuss Voigt Hill
#
# Bulk Modulus (GPa) = 39.10911 70.02558 54.56734
# Shear Modulus (GPa) = -2.02677 16.43855 7.20589
#
# Velocity S-wave (km/s) = -1.06990 3.04701 2.01737
# Velocity P-wave (km/s) = 4.53454 7.20615 6.02041
#
# Compressibility (1/GPa) = 0.02556949
#
# Stress axis : x y z
#
# Youngs Moduli (GPa) = 60.18601 22.52482 66.83655
#
# Poissons Ratio (x) = 0.11851 0.45735
# Poissons Ratio (y) = 0.31666 0.87538
# Poissons Ratio (z) = 0.41184 0.29502
#
# Static dielectric constant tensor:
#      x y z
#    x 3.336860 0.000000 0.000000 
#    y 0.000000 2.954050 0.000000 
#    z 0.000000 0.000000 3.393570 
# 
# 
# High freq. dielectric constant tensor:
#      x y z
#    x 1.690480 0.000000 0.000000 
#    y 0.000000 1.647050 0.000000 
#    z 0.000000 0.000000 1.697800 
# 
# From -- ./inp_files/2239.got.cif
#   From: 2010.03.12/outbox.cif.g09.slc.cpg/sg47_2_cif.got.tgz:2239.got - 2010.04.14 03:12:58.
