data_PCOD8199764
_publ_section_title
;
Structure prediction by ZEFSAII (Michael W. Deem and Ramdas Pophale) SiO2 
 PCOD8199764
Probable space group: P M M M
;
_chemical_formula_sum "Si O2"
_cell_formula_units_Z 48
_cell_length_a 9.002880
_cell_length_b 18.109067
_cell_length_c 15.223776
_cell_angle_alpha 90.000000
_cell_angle_beta 90.000000
_cell_angle_gamma 90.000000
_cell_volume 2481.989399
_symmetry_space_group_name_H-M "P M M M"
_symmetry_group_IT_number 47
_symmetry_cell_setting 'orthorhombic'
loop_
_space_group_symop_operation_xyz
x,y,z
-x,-y,z
x,-y,-z
-x,y,-z
-x,-y,-z
x,y,-z
-x,y,z
x,-y,z
loop_
_atom_site_type_symbol
_atom_site_label
_atom_site_fract_x
_atom_site_fract_y
_atom_site_fract_z
Si Si1 0.324811 0.416291 0.173139
Si Si2 0.175030 0.151983 0.101968
Si Si3 0.836685 0.413148 0.000000
Si Si4 0.330783 0.000000 0.895932
Si Si5 0.331045 0.782227 0.601982
Si Si6 0.161553 0.079709 0.397049
Si Si7 0.173014 0.719994 0.760458
O O1 0.500000 0.412735 0.166441
O O2 0.273802 0.500000 0.196855
O O3 0.262141 0.357197 0.240357
O O4 0.255625 0.387152 0.082810
O O5 0.226007 0.219492 0.166424
O O6 0.000000 0.139999 0.110012
O O7 0.250756 0.075806 0.135927
O O8 0.218769 0.170308 0.000000
O O9 0.855590 0.500000 0.000000
O O10 0.000000 0.375103 0.000000
O O11 0.500000 0.000000 0.861393
O O12 0.324371 0.000000 0.000000
O O13 0.301269 0.762804 0.500000
O O14 0.500000 0.763398 0.628447
O O15 0.300298 0.867992 0.623402
O O16 0.209981 0.741911 0.661099
O O17 0.144504 0.071030 0.500000
O O18 0.000000 0.108650 0.360414
O O19 0.196925 0.000000 0.354234
O O20 0.000000 0.704008 0.772061
#
# Coordination Sequence:
#
# PCOD8199764 Si02
#       7
#     8   8   4   4   8   8   8
#     4  10  21  37  57  83 117 153 186 226 280 339
#     4   9  19  36  56  79 110 148 188 231 278 329
#     4   9  17  31  53  81 113 150 189 224 263 321
#     4   9  17  31  53  79 106 143 190 235 279 324
#     4  10  21  37  56  78 108 145 184 231 286 341
#     4   8  14  27  49  75 102 134 174 221 273 330
#     4  11  23  37  58  86 113 147 190 235 283 337
#
# _framework density 19.339326
#
# number of rings (size 3 to 8) (size 9 to 14) (size 15 to 20)
#    0.000    2.500    0.000    2.500    1.167    5.667 
#    1.500    1.667    0.000    0.500    0.000    3.500 
#    0.000    0.000    0.000    0.000    0.000    0.000 
#
# Total GULP energy -594665.461157 kJ/mol
# GULP energy per Si atom -12388.863774 kJ/mol
# Density = 1.929531 g / cm^3
# Si number density = 19.339326 Si / 1000 Ang^3
#
#
#
# Elastic Constant Matrix: (Units=GPa)
#
#
# Indices 1 2 3 4 5 6 
#
# 1 77.5850 45.6338 26.4092 0.0000 0.0000 0.0000
# 2 45.6338 106.3082 35.3746 0.0000 0.0000 0.0000
# 3 26.4092 35.3746 63.3033 0.0000 0.0000 0.0000
# 4 0.0000 0.0000 0.0000 22.2463 0.0000 0.0000
# 5 0.0000 0.0000 0.0000 0.0000 24.7737 0.0000
# 6 0.0000 0.0000 0.0000 0.0000 0.0000 29.8559
#
#
#
# Elastic Compliance Matrix: (Units=1/GPa)
#
#
# Indices 1 2 3 4 5 6 
#
# 1 0.018001 -0.006423 -0.003921 0.000000 0.000000 0.000000
# 2 -0.006423 0.013847 -0.005058 0.000000 0.000000 0.000000
# 3 -0.003921 -0.005058 0.020259 0.000000 0.000000 0.000000
# 4 0.000000 0.000000 0.000000 0.044951 0.000000 0.000000
# 5 0.000000 0.000000 0.000000 0.000000 0.040365 0.000000
# 6 0.000000 0.000000 0.000000 0.000000 0.000000 0.033494
#
#
# Mechanical properties :
#
#
# Convention : Reuss Voigt Hill
#
# Bulk Modulus (GPa) = 46.93978 51.33686 49.13832
# Shear Modulus (GPa) = 23.94369 24.69376 24.31872
#
# Velocity S-wave (km/s) = 3.52246 3.57720 3.54994
# Velocity P-wave (km/s) = 6.39281 6.60794 6.50126
#
# Compressibility (1/GPa) = 0.02130389
#
# Stress axis : x y z
#
# Youngs Moduli (GPa) = 55.55147 72.21912 49.35990
#
# Poissons Ratio (x) = 0.46383 0.19353
# Poissons Ratio (y) = 0.35678 0.24968
# Poissons Ratio (z) = 0.21781 0.36531
#
# Static dielectric constant tensor:
#      x y z
#    x 3.557170 0.000000 0.000000 
#    y 0.000000 3.730630 0.000000 
#    z 0.000000 0.000000 3.255010 
# 
# 
# High freq. dielectric constant tensor:
#      x y z
#    x 1.754930 0.000000 0.000000 
#    y 0.000000 1.745300 0.000000 
#    z 0.000000 0.000000 1.730710 
# 
# From -- ./inp_files/21080.got.cif
#   From: 2010.03.12/outbox.cif.g09.slc.cpg/sg47_11_cif.got.tgz:21080.got - 2010.04.14 03:12:58.
