data_PCOD8199495
_publ_section_title
;
Structure prediction by ZEFSAII (Michael W. Deem and Ramdas Pophale) SiO2 
 PCOD8199495
Probable space group: P M M M
;
_chemical_formula_sum "Si O2"
_cell_formula_units_Z 64
_cell_length_a 18.930849
_cell_length_b 9.070310
_cell_length_c 20.763139
_cell_angle_alpha 90.000000
_cell_angle_beta 90.000000
_cell_angle_gamma 90.000000
_cell_volume 3565.210962
_symmetry_space_group_name_H-M "P M M M"
_symmetry_group_IT_number 47
_symmetry_cell_setting 'orthorhombic'
loop_
_space_group_symop_operation_xyz
x,y,z
-x,-y,z
x,-y,-z
-x,y,-z
-x,-y,-z
x,y,-z
-x,y,z
x,-y,z
loop_
_atom_site_type_symbol
_atom_site_label
_atom_site_fract_x
_atom_site_fract_y
_atom_site_fract_z
Si Si1 0.668660 0.174247 0.803049
Si Si2 0.187808 0.828490 0.426489
Si Si3 0.921268 0.824748 0.679378
Si Si4 0.818001 0.831718 0.068239
Si Si5 0.170446 0.829117 0.794282
Si Si6 0.672549 0.327740 0.929418
Si Si7 0.418026 0.171391 0.320505
Si Si8 0.331014 0.673250 0.574143
O O1 0.749113 0.230936 0.791785
O O2 0.636453 0.243413 0.869171
O O3 0.622556 0.229085 0.742825
O O4 0.664680 0.000000 0.810725
O O5 0.168511 0.792059 0.500000
O O6 0.120921 0.777612 0.384542
O O7 0.256445 0.740261 0.403235
O O8 0.204794 0.000000 0.416038
O O9 0.880335 0.754988 0.741197
O O10 0.000000 0.756761 0.676331
O O11 0.926502 0.000000 0.684569
O O12 0.862552 0.800597 0.133672
O O13 0.753622 0.720127 0.066910
O O14 0.788713 0.000000 0.073518
O O15 0.860918 0.813438 0.000000
O O16 0.173433 0.000000 0.776740
O O17 0.668334 0.500000 0.915061
O O18 0.637507 0.292150 0.000000
O O19 0.500000 0.202566 0.309518
O O20 0.393373 0.260108 0.383145
O O21 0.402135 0.000000 0.332536
O O22 0.346332 0.715420 0.500000
O O23 0.327962 0.500000 0.584338
#
# Coordination Sequence:
#
# PCOD8199495 Si02
#       8
#     8   8   8   8   8   8   8   8
#     4   9  17  30  48  68  92 124 160 196 236 285
#     4   9  17  30  49  71  94 121 155 196 238 280
#     4   9  16  25  40  65  95 123 152 191 239 287
#     4   8  13  22  37  57  82 113 149 189 234 282
#     4   8  13  22  38  59  83 114 149 183 223 273
#     4   9  16  25  40  66  96 120 149 195 244 285
#     4  10  21  36  54  76 101 129 162 200 240 283
#     4  10  21  36  54  76 101 129 161 197 239 289
#
# _framework density 17.951252
#
# number of rings (size 3 to 8) (size 9 to 14) (size 15 to 20)
#    0.000    3.000    0.000    2.250    0.000    4.750 
#    0.000    2.500    0.000    1.125    0.000    7.000 
#    0.000    0.000    0.000   31.500    0.000   29.000 
#
# Total GULP energy -792966.772993 kJ/mol
# GULP energy per Si atom -12390.105828 kJ/mol
# Density = 1.791039 g / cm^3
# Si number density = 17.951252 Si / 1000 Ang^3
#
#
#
# Elastic Constant Matrix: (Units=GPa)
#
#
# Indices 1 2 3 4 5 6 
#
# 1 80.3108 21.7049 62.9459 0.0000 0.0000 0.0000
# 2 21.7049 37.4836 34.0117 0.0000 0.0000 0.0000
# 3 62.9459 34.0117 148.4485 0.0000 0.0000 0.0000
# 4 0.0000 0.0000 0.0000 21.1476 0.0000 0.0000
# 5 0.0000 0.0000 0.0000 0.0000 8.5460 0.0000
# 6 0.0000 0.0000 0.0000 0.0000 0.0000 6.0046
#
#
#
# Elastic Compliance Matrix: (Units=1/GPa)
#
#
# Indices 1 2 3 4 5 6 
#
# 1 0.019293 -0.004732 -0.007096 0.000000 0.000000 0.000000
# 2 -0.004732 0.034841 -0.005976 0.000000 0.000000 0.000000
# 3 -0.007096 -0.005976 0.011115 0.000000 0.000000 0.000000
# 4 0.000000 0.000000 0.000000 0.047287 0.000000 0.000000
# 5 0.000000 0.000000 0.000000 0.000000 0.117014 0.000000
# 6 0.000000 0.000000 0.000000 0.000000 0.000000 0.166540
#
#
# Mechanical properties :
#
#
# Convention : Reuss Voigt Hill
#
# Bulk Modulus (GPa) = 33.73943 55.95198 44.84570
# Shear Modulus (GPa) = 11.32305 16.97833 14.15069
#
# Velocity S-wave (km/s) = 2.51423 3.07873 2.81069
# Velocity P-wave (km/s) = 5.22152 6.62379 5.96401
#
# Compressibility (1/GPa) = 0.02963892
#
# Stress axis : x y z
#
# Youngs Moduli (GPa) = 51.83360 28.70178 89.97248
#
# Poissons Ratio (x) = 0.13583 0.63847
# Poissons Ratio (y) = 0.24530 0.53767
# Poissons Ratio (z) = 0.36782 0.17152
#
# Static dielectric constant tensor:
#      x y z
#    x 3.090820 0.000000 0.000000 
#    y 0.000000 3.016780 0.000000 
#    z 0.000000 0.000000 3.863500 
# 
# 
# High freq. dielectric constant tensor:
#      x y z
#    x 1.650020 0.000000 0.000000 
#    y 0.000000 1.661290 0.000000 
#    z 0.000000 0.000000 1.723390 
# 
# From -- ./inp_files/28769.got.cif
#   From: 2010.03.12/outbox.cif.g09.slc.cpg/sg47_15_cif.got.tgz:28769.got - 2010.04.14 03:12:58.
