data_PCOD8199099
_publ_section_title
;
Structure prediction by ZEFSAII (Michael W. Deem and Ramdas Pophale) SiO2 
 PCOD8199099
Probable space group: P M M M
;
_chemical_formula_sum "Si O2"
_cell_formula_units_Z 64
_cell_length_a 24.323911
_cell_length_b 9.500453
_cell_length_c 14.700215
_cell_angle_alpha 90.000000
_cell_angle_beta 90.000000
_cell_angle_gamma 90.000000
_cell_volume 3397.045830
_symmetry_space_group_name_H-M "P M M M"
_symmetry_group_IT_number 47
_symmetry_cell_setting 'orthorhombic'
loop_
_space_group_symop_operation_xyz
x,y,z
-x,-y,z
x,-y,-z
-x,y,-z
-x,-y,-z
x,y,-z
-x,y,z
x,-y,z
loop_
_atom_site_type_symbol
_atom_site_label
_atom_site_fract_x
_atom_site_fract_y
_atom_site_fract_z
Si Si1 0.563275 0.665809 0.741777
Si Si2 0.244858 0.843621 0.608043
Si Si3 0.358458 0.332513 0.100616
Si Si4 0.862590 0.837517 0.102942
Si Si5 0.632641 0.162932 0.394244
Si Si6 0.063673 0.837132 0.269819
Si Si7 0.142899 0.663046 0.607620
Si Si8 0.761793 0.344215 0.891890
O O1 0.500000 0.707255 0.753193
O O2 0.571272 0.500000 0.728794
O O3 0.594830 0.722176 0.831200
O O4 0.587642 0.741663 0.654183
O O5 0.245344 0.848725 0.500000
O O6 0.305798 0.798074 0.640730
O O7 0.199838 0.732283 0.643284
O O8 0.230036 0.000000 0.645129
O O9 0.358363 0.500000 0.094718
O O10 0.298184 0.284464 0.137071
O O11 0.370649 0.270070 0.000000
O O12 0.913788 0.805386 0.168534
O O13 0.809815 0.756897 0.143904
O O14 0.846574 0.000000 0.103182
O O15 0.877711 0.788317 0.000000
O O16 0.626959 0.196422 0.500000
O O17 0.620436 0.000000 0.373929
O O18 0.092080 0.740019 0.344963
O O19 0.000000 0.797685 0.268915
O O20 0.073435 0.000000 0.296104
O O21 0.135969 0.683101 0.500000
O O22 0.143546 0.500000 0.635236
O O23 0.771975 0.500000 0.851181
O O24 0.762868 0.351027 0.000000
#
# Coordination Sequence:
#
# PCOD8199099 Si02
#       8
#     8   8   8   8   8   8   8   8
#     4  10  21  34  49  74 104 133 172 219 260 299
#     4   8  15  31  55  80 104 130 164 206 252 306
#     4   8  15  30  51  73  99 132 168 206 249 300
#     4   9  18  33  53  77 104 131 162 207 258 302
#     4   9  19  36  56  76 100 134 172 208 251 305
#     4  10  22  38  54  74 101 137 181 219 251 295
#     4  10  21  36  55  80 108 136 166 206 258 309
#     4   8  14  27  49  75 101 130 164 201 247 306
#
# _framework density 18.839898999999999
#
# number of rings (size 3 to 8) (size 9 to 14) (size 15 to 20)
#    0.000    3.000    0.000    1.875    0.000    4.500 
#    0.000    9.375    0.000    1.125    0.000    3.500 
#    0.000    0.000    0.000    0.000    0.000    0.000 
#
# Total GULP energy -793421.617361 kJ/mol
# GULP energy per Si atom -12397.212771 kJ/mol
# Density = 1.879702 g / cm^3
# Si number density = 18.839899 Si / 1000 Ang^3
#
#
#
# Elastic Constant Matrix: (Units=GPa)
#
#
# Indices 1 2 3 4 5 6 
#
# 1 121.1066 54.0587 37.0430 0.0000 0.0000 0.0000
# 2 54.0587 70.2010 34.3147 0.0000 0.0000 0.0000
# 3 37.0430 34.3147 55.6494 0.0000 0.0000 0.0000
# 4 0.0000 0.0000 0.0000 19.9558 0.0000 0.0000
# 5 0.0000 0.0000 0.0000 0.0000 33.1898 0.0000
# 6 0.0000 0.0000 0.0000 0.0000 0.0000 30.3951
#
#
#
# Elastic Compliance Matrix: (Units=1/GPa)
#
#
# Indices 1 2 3 4 5 6 
#
# 1 0.013059 -0.008312 -0.003567 0.000000 0.000000 0.000000
# 2 -0.008312 0.025682 -0.010303 0.000000 0.000000 0.000000
# 3 -0.003567 -0.010303 0.026697 0.000000 0.000000 0.000000
# 4 0.000000 0.000000 0.000000 0.050111 0.000000 0.000000
# 5 0.000000 0.000000 0.000000 0.000000 0.030130 0.000000
# 6 0.000000 0.000000 0.000000 0.000000 0.000000 0.032900
#
#
# Mechanical properties :
#
#
# Convention : Reuss Voigt Hill
#
# Bulk Modulus (GPa) = 47.45372 55.30997 51.38185
# Shear Modulus (GPa) = 21.74227 24.81085 23.27656
#
# Velocity S-wave (km/s) = 3.40082 3.63289 3.51877
# Velocity P-wave (km/s) = 6.37678 6.85703 6.62126
#
# Compressibility (1/GPa) = 0.02107316
#
# Stress axis : x y z
#
# Youngs Moduli (GPa) = 76.57782 38.93780 37.45742
#
# Poissons Ratio (x) = 0.32367 0.13361
# Poissons Ratio (y) = 0.63654 0.38592
# Poissons Ratio (z) = 0.27314 0.40118
#
# Static dielectric constant tensor:
#      x y z
#    x 3.594800 0.000000 0.000000 
#    y 0.000000 3.455840 0.000000 
#    z 0.000000 0.000000 3.404960 
# 
# 
# High freq. dielectric constant tensor:
#      x y z
#    x 1.732060 0.000000 0.000000 
#    y 0.000000 1.712950 0.000000 
#    z 0.000000 0.000000 1.725540 
# 
# From -- ./inp_files/21907.got.cif
#   From: 2010.03.12/outbox.cif.g09.slc.cpg/sg47_11_cif.got.tgz:21907.got - 2010.04.14 03:12:58.
