data_PCOD8199209
_publ_section_title
;
Structure prediction by ZEFSAII (Michael W. Deem and Ramdas Pophale) SiO2 
 PCOD8199209
Probable space group: P M M M
;
_chemical_formula_sum "Si O2"
_cell_formula_units_Z 40
_cell_length_a 9.478822
_cell_length_b 7.723705
_cell_length_c 27.547806
_cell_angle_alpha 90.000000
_cell_angle_beta 90.000000
_cell_angle_gamma 90.000000
_cell_volume 2016.819639
_symmetry_space_group_name_H-M "P M M M"
_symmetry_group_IT_number 47
_symmetry_cell_setting 'orthorhombic'
loop_
_space_group_symop_operation_xyz
x,y,z
-x,-y,z
x,-y,-z
-x,y,-z
-x,-y,-z
x,y,-z
-x,y,z
x,-y,z
loop_
_atom_site_type_symbol
_atom_site_label
_atom_site_fract_x
_atom_site_fract_y
_atom_site_fract_z
Si Si1 0.158306 0.206930 0.000000
Si Si2 0.664971 0.701001 0.625196
Si Si3 0.844664 0.301316 0.715359
Si Si4 0.657155 0.205741 0.912059
Si Si5 0.666713 0.000000 0.446154
Si Si6 0.341019 0.204517 0.196146
O O1 0.235571 0.280767 0.952024
O O2 0.000000 0.279356 0.000000
O O3 0.160228 0.000000 0.000000
O O4 0.500000 0.724599 0.636510
O O5 0.698818 0.500000 0.612442
O O6 0.747491 0.773560 0.672348
O O7 0.714634 0.823915 0.581052
O O8 0.866233 0.500000 0.703696
O O9 0.769842 0.284420 0.767022
O O10 0.000000 0.211123 0.716332
O O11 0.500000 0.274264 0.923927
O O12 0.702223 0.266304 0.858057
O O13 0.656684 0.000000 0.913972
O O14 0.500000 0.000000 0.450426
O O15 0.734831 0.000000 0.500000
O O16 0.500000 0.268875 0.208029
O O17 0.334397 0.000000 0.200190
#
# Coordination Sequence:
#
# PCOD8199209 Si02
#       6
#     4   8   8   8   4   8
#     4   9  15  21  33  55  84 119 156 195 238 288
#     4   9  18  33  53  76 104 139 176 216 262 310
#     4  10  21  35  50  71 100 133 168 206 250 302
#     4   8  14  25  39  57  84 118 154 193 241 295
#     4   9  18  32  53  83 111 135 173 222 265 308
#     4   9  18  31  48  71  97 125 161 206 253 302
#
# _framework density 19.833206000000001
#
# number of rings (size 3 to 8) (size 9 to 14) (size 15 to 20)
#    0.000    3.000    0.000    2.100    1.400    4.000 
#    0.000    4.000    0.000    1.200    0.000    3.500 
#    0.000    5.600    0.000    0.000    0.000    0.000 
#
# Total GULP energy -495748.503133 kJ/mol
# GULP energy per Si atom -12393.712578 kJ/mol
# Density = 1.978806 g / cm^3
# Si number density = 19.833206 Si / 1000 Ang^3
#
#
#
# Elastic Constant Matrix: (Units=GPa)
#
#
# Indices 1 2 3 4 5 6 
#
# 1 122.3229 23.3753 92.3133 0.0000 0.0000 0.0000
# 2 23.3753 47.4108 34.7597 0.0000 0.0000 0.0000
# 3 92.3133 34.7597 184.5976 0.0000 0.0000 0.0000
# 4 0.0000 0.0000 0.0000 -12.4406 0.0000 0.0000
# 5 0.0000 0.0000 0.0000 0.0000 9.8394 0.0000
# 6 0.0000 0.0000 0.0000 0.0000 0.0000 11.0895
#
#
#
# Elastic Compliance Matrix: (Units=1/GPa)
#
#
# Indices 1 2 3 4 5 6 
#
# 1 0.013284 -0.001948 -0.006276 0.000000 0.000000 0.000000
# 2 -0.001948 0.024756 -0.003687 0.000000 0.000000 0.000000
# 3 -0.006276 -0.003687 0.009250 0.000000 0.000000 0.000000
# 4 0.000000 0.000000 0.000000 -0.080382 0.000000 0.000000
# 5 0.000000 0.000000 0.000000 0.000000 0.101633 0.000000
# 6 0.000000 0.000000 0.000000 0.000000 0.000000 0.090175
#
#
# Mechanical properties :
#
#
# Convention : Reuss Voigt Hill
#
# Bulk Modulus (GPa) = 42.61318 72.80312 57.70815
# Shear Modulus (GPa) = 26.26582 15.28984 20.77783
#
# Velocity S-wave (km/s) = 3.64309 2.77956 3.24022
# Velocity P-wave (km/s) = 6.26327 6.86212 6.56952
#
# Compressibility (1/GPa) = 0.02346692
#
# Stress axis : x y z
#
# Youngs Moduli (GPa) = 75.28018 40.39395 108.10727
#
# Poissons Ratio (x) = 0.07869 0.67849
# Poissons Ratio (y) = 0.14665 0.39864
# Poissons Ratio (z) = 0.47247 0.14895
#
# Static dielectric constant tensor:
#      x y z
#    x 3.782580 0.000000 0.000000 
#    y 0.000000 3.310720 0.000000 
#    z 0.000000 0.000000 3.942660 
# 
# 
# High freq. dielectric constant tensor:
#      x y z
#    x 1.756580 0.000000 0.000000 
#    y 0.000000 1.748760 0.000000 
#    z 0.000000 0.000000 1.775510 
# 
# From -- ./inp_files/33014.got.cif
#   From: 2010.03.12/outbox.cif.g09.slc.cpg/sg47_17_cif.got.tgz:33014.got - 2010.04.14 03:12:58.
