data_PCOD8199177
_publ_section_title
;
Structure prediction by ZEFSAII (Michael W. Deem and Ramdas Pophale) SiO2 
 PCOD8199177
Probable space group: P M M M
;
_chemical_formula_sum "Si O2"
_cell_formula_units_Z 64
_cell_length_a 19.796070
_cell_length_b 9.326112
_cell_length_c 20.309896
_cell_angle_alpha 90.000000
_cell_angle_beta 90.000000
_cell_angle_gamma 90.000000
_cell_volume 3749.620433
_symmetry_space_group_name_H-M "P M M M"
_symmetry_group_IT_number 47
_symmetry_cell_setting 'orthorhombic'
loop_
_space_group_symop_operation_xyz
x,y,z
-x,-y,z
x,-y,-z
-x,y,-z
-x,-y,-z
x,y,-z
-x,y,z
x,-y,z
loop_
_atom_site_type_symbol
_atom_site_label
_atom_site_fract_x
_atom_site_fract_y
_atom_site_fract_z
Si Si1 0.160386 0.666561 0.927108
Si Si2 0.715923 0.162829 0.880206
Si Si3 0.428208 0.837223 0.132687
Si Si4 0.077735 0.663988 0.423544
Si Si5 0.299379 0.835009 0.726868
Si Si6 0.847412 0.168959 0.685128
Si Si7 0.574159 0.332806 0.265296
Si Si8 0.921846 0.668552 0.198392
O O1 0.173928 0.500000 0.918598
O O2 0.232841 0.739351 0.919439
O O3 0.107118 0.718747 0.872389
O O4 0.131407 0.701876 0.000000
O O5 0.639855 0.188911 0.910020
O O6 0.714944 0.202861 0.803042
O O7 0.739761 0.000000 0.890309
O O8 0.500000 0.820768 0.093089
O O9 0.429113 0.725690 0.191657
O O10 0.422712 0.000000 0.161468
O O11 0.089995 0.695336 0.500000
O O12 0.096606 0.500000 0.406384
O O13 0.124435 0.772094 0.383408
O O14 0.000000 0.692157 0.404575
O O15 0.232215 0.795596 0.686262
O O16 0.363250 0.745459 0.697926
O O17 0.318314 0.000000 0.718257
O O18 0.884156 0.245011 0.745433
O O19 0.860874 0.000000 0.690625
O O20 0.500000 0.305450 0.298848
O O21 0.590650 0.500000 0.263279
O O22 0.910892 0.500000 0.210475
O O23 0.000000 0.709862 0.199749
#
# Coordination Sequence:
#
# PCOD8199177 Si02
#       8
#     8   8   8   8   8   8   8   8
#     4  10  21  35  50  68  89 117 156 202 250 299
#     4   9  16  29  47  66  89 118 153 192 237 289
#     4   8  14  25  41  61  87 118 149 184 230 283
#     4   9  19  36  55  75 103 139 174 204 238 286
#     4   9  18  30  44  65  95 129 161 195 238 287
#     4  11  21  33  51  77 106 132 164 205 244 284
#     4   9  16  24  37  62  93 123 158 198 237 279
#     4  10  21  36  53  72  94 123 158 197 248 305
#
# _framework density 17.068394999999999
#
# number of rings (size 3 to 8) (size 9 to 14) (size 15 to 20)
#    0.000    2.625    1.250    2.250    0.000    6.500 
#    0.000    1.875    0.000    0.375    0.000    4.375 
#    0.000    0.500    0.000    5.500    0.000    4.125 
#
# Total GULP energy -793069.649501 kJ/mol
# GULP energy per Si atom -12391.713273 kJ/mol
# Density = 1.702955 g / cm^3
# Si number density = 17.068395 Si / 1000 Ang^3
#
#
#
# Elastic Constant Matrix: (Units=GPa)
#
#
# Indices 1 2 3 4 5 6 
#
# 1 130.8968 62.9327 42.2962 0.0000 0.0000 0.0000
# 2 62.9327 67.3015 33.5463 0.0000 0.0000 0.0000
# 3 42.2962 33.5463 59.0438 0.0000 0.0000 0.0000
# 4 0.0000 0.0000 0.0000 16.3552 0.0000 0.0000
# 5 0.0000 0.0000 0.0000 0.0000 14.6751 0.0000
# 6 0.0000 0.0000 0.0000 0.0000 0.0000 31.1786
#
#
#
# Elastic Compliance Matrix: (Units=1/GPa)
#
#
# Indices 1 2 3 4 5 6 
#
# 1 0.014445 -0.011648 -0.003730 0.000000 0.000000 0.000000
# 2 -0.011648 0.030122 -0.008770 0.000000 0.000000 0.000000
# 3 -0.003730 -0.008770 0.024591 0.000000 0.000000 0.000000
# 4 0.000000 0.000000 0.000000 0.061143 0.000000 0.000000
# 5 0.000000 0.000000 0.000000 0.000000 0.068143 0.000000
# 6 0.000000 0.000000 0.000000 0.000000 0.000000 0.032073
#
#
# Mechanical properties :
#
#
# Convention : Reuss Voigt Hill
#
# Bulk Modulus (GPa) = 47.93291 59.42139 53.67715
# Shear Modulus (GPa) = 17.49680 20.33956 18.91818
#
# Velocity S-wave (km/s) = 3.20519 3.45577 3.33284
# Velocity P-wave (km/s) = 6.46850 7.12828 6.80639
#
# Compressibility (1/GPa) = 0.02086249
#
# Stress axis : x y z
#
# Youngs Moduli (GPa) = 69.22778 33.19829 40.66534
#
# Poissons Ratio (x) = 0.38671 0.15167
# Poissons Ratio (y) = 0.80639 0.35663
# Poissons Ratio (z) = 0.25819 0.29114
#
# Static dielectric constant tensor:
#      x y z
#    x 3.674330 0.000000 0.000000 
#    y 0.000000 3.194680 0.000000 
#    z 0.000000 0.000000 2.857220 
# 
# 
# High freq. dielectric constant tensor:
#      x y z
#    x 1.676430 0.000000 0.000000 
#    y 0.000000 1.660030 0.000000 
#    z 0.000000 0.000000 1.606170 
# 
# From -- ./inp_files/11611.got.cif
#   From: 2010.03.12/outbox.cif.g09.slc.cpg/sg47_6_cif.got.tgz:11611.got - 2010.04.14 03:12:58.
