data_PCOD8199777
_publ_section_title
;
Structure prediction by ZEFSAII (Michael W. Deem and Ramdas Pophale) SiO2 
 PCOD8199777
Probable space group: P M M M
;
_chemical_formula_sum "Si O2"
_cell_formula_units_Z 40
_cell_length_a 15.856645
_cell_length_b 13.716640
_cell_length_c 9.002254
_cell_angle_alpha 90.000000
_cell_angle_beta 90.000000
_cell_angle_gamma 90.000000
_cell_volume 1957.989264
_symmetry_space_group_name_H-M "P M M M"
_symmetry_group_IT_number 47
_symmetry_cell_setting 'orthorhombic'
loop_
_space_group_symop_operation_xyz
x,y,z
-x,-y,z
x,-y,-z
-x,y,-z
-x,-y,-z
x,y,-z
-x,y,z
x,-y,z
loop_
_atom_site_type_symbol
_atom_site_label
_atom_site_fract_x
_atom_site_fract_y
_atom_site_fract_z
Si Si1 0.181521 0.616361 0.168193
Si Si2 0.500000 0.609357 0.676659
Si Si3 0.666956 0.716667 0.324676
Si Si4 0.907584 0.883978 0.668050
Si Si5 0.000000 0.392637 0.823637
Si Si6 0.258266 0.889265 0.825443
O O1 0.178008 0.500000 0.172833
O O2 0.252510 0.653218 0.279307
O O3 0.089132 0.658802 0.222030
O O4 0.202123 0.651822 0.000000
O O5 0.500000 0.500000 0.742127
O O6 0.500000 0.605586 0.500000
O O7 0.417163 0.664558 0.735435
O O8 0.664951 0.728540 0.500000
O O9 0.670151 0.823762 0.251132
O O10 0.887417 0.849995 0.500000
O O11 0.833392 0.846726 0.776524
O O12 0.000000 0.843437 0.718309
O O13 0.910656 0.000000 0.675555
O O14 0.000000 0.500000 0.750844
O O15 0.000000 0.403536 0.000000
O O16 0.270885 0.000000 0.770512
O O17 0.266061 0.881065 0.000000
#
# Coordination Sequence:
#
# PCOD8199777 Si02
#       6
#     8   4   8   8   4   8
#     4   9  17  32  55  82 113 148 186 228 276 334
#     4   9  20  40  64  89 116 144 179 227 286 349
#     4  11  22  37  59  85 112 146 187 236 290 344
#     4   8  14  27  49  76 106 142 186 236 285 328
#     4   7  12  26  49  75 106 147 186 219 263 322
#     4  10  21  37  56  79 111 151 193 237 285 339
#
# _framework density 20.429122
#
# number of rings (size 3 to 8) (size 9 to 14) (size 15 to 20)
#    0.000    2.800    0.000    3.600    0.000    2.800 
#    1.800    5.000    0.000    8.400    0.000    0.000 
#    0.000    0.000    0.000    0.000    0.000    0.000 
#
# Total GULP energy -495774.008351 kJ/mol
# GULP energy per Si atom -12394.350209 kJ/mol
# Density = 2.038262 g / cm^3
# Si number density = 20.429122 Si / 1000 Ang^3
#
#
#
# Elastic Constant Matrix: (Units=GPa)
#
#
# Indices 1 2 3 4 5 6 
#
# 1 167.3338 71.5196 43.6188 0.0000 0.0000 0.0000
# 2 71.5196 79.7233 24.7330 0.0000 0.0000 0.0000
# 3 43.6188 24.7330 62.5962 0.0000 0.0000 0.0000
# 4 0.0000 0.0000 0.0000 24.3165 0.0000 0.0000
# 5 0.0000 0.0000 0.0000 0.0000 19.3437 0.0000
# 6 0.0000 0.0000 0.0000 0.0000 0.0000 37.2131
#
#
#
# Elastic Compliance Matrix: (Units=1/GPa)
#
#
# Indices 1 2 3 4 5 6 
#
# 1 0.010547 -0.008185 -0.004116 0.000000 0.000000 0.000000
# 2 -0.008185 0.020648 -0.002455 0.000000 0.000000 0.000000
# 3 -0.004116 -0.002455 0.019813 0.000000 0.000000 0.000000
# 4 0.000000 0.000000 0.000000 0.041124 0.000000 0.000000
# 5 0.000000 0.000000 0.000000 0.000000 0.051696 0.000000
# 6 0.000000 0.000000 0.000000 0.000000 0.000000 0.026872
#
#
# Mechanical properties :
#
#
# Convention : Reuss Voigt Hill
#
# Bulk Modulus (GPa) = 46.51719 65.48847 56.00283
# Shear Modulus (GPa) = 24.11061 27.49347 25.80204
#
# Velocity S-wave (km/s) = 3.43914 3.67249 3.55773
# Velocity P-wave (km/s) = 6.21206 7.07877 6.65953
#
# Compressibility (1/GPa) = 0.02149743
#
# Stress axis : x y z
#
# Youngs Moduli (GPa) = 94.81152 48.43138 50.47155
#
# Poissons Ratio (x) = 0.39642 0.20772
# Poissons Ratio (y) = 0.77604 0.12389
# Poissons Ratio (z) = 0.39020 0.11889
#
# Static dielectric constant tensor:
#      x y z
#    x 3.982420 0.000000 0.000000 
#    y 0.000000 3.719480 0.000000 
#    z 0.000000 0.000000 3.396030 
# 
# 
# High freq. dielectric constant tensor:
#      x y z
#    x 1.793780 0.000000 0.000000 
#    y 0.000000 1.801510 0.000000 
#    z 0.000000 0.000000 1.772640 
# 
# From -- ./inp_files/5781.got.cif
#   From: 2010.03.12/outbox.cif.g09.slc.cpg/sg47_3_cif.got.tgz:5781.got - 2010.04.14 03:12:58.
