data_PCOD8199400
_publ_section_title
;
Structure prediction by ZEFSAII (Michael W. Deem and Ramdas Pophale) SiO2 
 PCOD8199400
Probable space group: P M M M
;
_chemical_formula_sum "Si O2"
_cell_formula_units_Z 40
_cell_length_a 25.880920
_cell_length_b 9.607244
_cell_length_c 9.066789
_cell_angle_alpha 90.000000
_cell_angle_beta 90.000000
_cell_angle_gamma 90.000000
_cell_volume 2254.405526
_symmetry_space_group_name_H-M "P M M M"
_symmetry_group_IT_number 47
_symmetry_cell_setting 'orthorhombic'
loop_
_space_group_symop_operation_xyz
x,y,z
-x,-y,z
x,-y,-z
-x,y,-z
-x,-y,-z
x,y,-z
-x,y,z
x,-y,z
loop_
_atom_site_type_symbol
_atom_site_label
_atom_site_fract_x
_atom_site_fract_y
_atom_site_fract_z
Si Si1 0.746217 0.337921 0.671909
Si Si2 0.833707 0.839535 0.175507
Si Si3 0.440314 0.839339 0.668409
Si Si4 0.054616 0.834900 0.165040
Si Si5 0.642168 0.660675 0.828679
O O1 0.744701 0.304468 0.500000
O O2 0.755031 0.500000 0.704976
O O3 0.792310 0.255020 0.745524
O O4 0.692400 0.286703 0.741158
O O5 0.890597 0.788644 0.236500
O O6 0.823357 0.000000 0.217570
O O7 0.830743 0.819525 0.000000
O O8 0.428191 0.797098 0.500000
O O9 0.500000 0.811588 0.704882
O O10 0.407282 0.747034 0.778828
O O11 0.426442 0.000000 0.694518
O O12 0.000000 0.788152 0.245298
O O13 0.056494 0.000000 0.157292
O O14 0.052674 0.774526 0.000000
O O15 0.630788 0.500000 0.793641
O O16 0.652509 0.686610 0.000000
#
# Coordination Sequence:
#
# PCOD8199400 Si02
#       5
#     8   8   8   8   8
#     4  10  21  36  52  69  93 129 169 204 242 290
#     4   9  17  29  48  75 101 124 156 199 245 292
#     4   9  19  36  56  78 105 136 167 197 233 281
#     4   7  10  19  38  65  95 123 151 188 235 284
#     4  10  21  36  54  76 100 127 163 206 248 289
#
# _framework density 17.743037999999999
#
# number of rings (size 3 to 8) (size 9 to 14) (size 15 to 20)
#    0.000    3.000    0.000    3.600    0.000    4.800 
#    0.000    3.000    0.000    1.200    0.000    7.000 
#    0.000    0.000    0.000    0.000    0.000    0.000 
#
# Total GULP energy -495620.771742 kJ/mol
# GULP energy per Si atom -12390.519294 kJ/mol
# Density = 1.770265 g / cm^3
# Si number density = 17.743038 Si / 1000 Ang^3
#
#
#
# Elastic Constant Matrix: (Units=GPa)
#
#
# Indices 1 2 3 4 5 6 
#
# 1 147.8897 58.6821 53.2629 0.0000 0.0000 0.0000
# 2 58.6821 49.5785 34.6145 0.0000 0.0000 0.0000
# 3 53.2629 34.6145 59.6353 0.0000 0.0000 0.0000
# 4 0.0000 0.0000 0.0000 27.6998 0.0000 0.0000
# 5 0.0000 0.0000 0.0000 0.0000 -7.5816 0.0000
# 6 0.0000 0.0000 0.0000 0.0000 0.0000 335.0579
#
#
#
# Elastic Compliance Matrix: (Units=1/GPa)
#
#
# Indices 1 2 3 4 5 6 
#
# 1 0.013482 -0.012696 -0.004673 0.000000 0.000000 0.000000
# 2 -0.012696 0.045868 -0.015285 0.000000 0.000000 0.000000
# 3 -0.004673 -0.015285 0.029814 0.000000 0.000000 0.000000
# 4 0.000000 0.000000 0.000000 0.036101 0.000000 0.000000
# 5 0.000000 0.000000 0.000000 0.000000 -0.131898 0.000000
# 6 0.000000 0.000000 0.000000 0.000000 0.000000 0.002985
#
#
# Mechanical properties :
#
#
# Convention : Reuss Voigt Hill
#
# Bulk Modulus (GPa) = 41.91380 61.13583 51.52481
# Shear Modulus (GPa) = 71.82852 78.40481 75.11667
#
# Velocity S-wave (km/s) = 6.36950 6.65470 6.51366
# Velocity P-wave (km/s) = 8.81862 9.67356 9.25596
#
# Compressibility (1/GPa) = 0.02385849
#
# Stress axis : x y z
#
# Youngs Moduli (GPa) = 74.17201 21.80166 33.54173
#
# Poissons Ratio (x) = 0.27678 0.15673
# Poissons Ratio (y) = 0.94165 0.51267
# Poissons Ratio (z) = 0.34657 0.33323
#
# Static dielectric constant tensor:
#      x y z
#    x 3.730180 0.000000 0.000000 
#    y 0.000000 3.022440 0.000000 
#    z 0.000000 0.000000 3.069640 
# 
# 
# High freq. dielectric constant tensor:
#      x y z
#    x 1.710520 0.000000 0.000000 
#    y 0.000000 1.657680 0.000000 
#    z 0.000000 0.000000 1.662780 
# 
# From -- ./inp_files/1403.got.cif
#   From: 2010.03.12/outbox.cif.g09.slc.cpg/sg47_1_cif.got.tgz:1403.got - 2010.04.14 03:12:58.
