data_PCOD8199372
_publ_section_title
;
Structure prediction by ZEFSAII (Michael W. Deem and Ramdas Pophale) SiO2 
 PCOD8199372
Probable space group: P M M M
;
_chemical_formula_sum "Si O2"
_cell_formula_units_Z 40
_cell_length_a 27.073751
_cell_length_b 9.208369
_cell_length_c 7.847156
_cell_angle_alpha 90.000000
_cell_angle_beta 90.000000
_cell_angle_gamma 90.000000
_cell_volume 1956.335928
_symmetry_space_group_name_H-M "P M M M"
_symmetry_group_IT_number 47
_symmetry_cell_setting 'orthorhombic'
loop_
_space_group_symop_operation_xyz
x,y,z
-x,-y,z
x,-y,-z
-x,y,-z
-x,-y,-z
x,y,-z
-x,y,z
x,-y,z
loop_
_atom_site_type_symbol
_atom_site_label
_atom_site_fract_x
_atom_site_fract_y
_atom_site_fract_z
Si Si1 0.889528 0.670790 0.195361
Si Si2 0.595993 0.339199 0.699163
Si Si3 0.223212 0.662203 0.198644
Si Si4 0.500000 0.164858 0.200901
Si Si5 0.058300 0.833061 0.500000
Si Si6 0.313778 0.840619 0.696040
O O1 0.898256 0.500000 0.221693
O O2 0.832771 0.711278 0.234280
O O3 0.922762 0.758090 0.327556
O O4 0.903054 0.713793 0.000000
O O5 0.604385 0.357450 0.500000
O O6 0.590688 0.500000 0.781881
O O7 0.547763 0.245439 0.730645
O O8 0.643787 0.259391 0.782218
O O9 0.231728 0.500000 0.270899
O O10 0.259716 0.771590 0.291398
O O11 0.234696 0.664847 0.000000
O O12 0.500000 0.000000 0.270208
O O13 0.500000 0.167805 0.000000
O O14 0.000000 0.818565 0.500000
O O15 0.075513 0.000000 0.500000
O O16 0.327367 0.859570 0.500000
O O17 0.313711 0.000000 0.783792
#
# Coordination Sequence:
#
# PCOD8199372 Si02
#       6
#     8   8   8   4   4   8
#     4   9  20  40  64  90 120 158 207 258 306 360
#     4  10  21  38  59  81 105 139 184 228 274 330
#     4   9  19  36  57  82 112 147 187 231 283 339
#     4  11  24  39  56  80 108 139 176 221 278 338
#     4  11  25  41  59  89 127 165 205 250 307 370
#     4  10  21  35  53  81 114 146 182 224 273 331
#
# _framework density 20.446387000000001
#
# number of rings (size 3 to 8) (size 9 to 14) (size 15 to 20)
#    0.000    2.200    0.000    3.300    1.400    8.000 
#    0.000    4.000    0.000    0.000    0.000    0.000 
#    0.000    0.000    0.000    0.000    0.000    0.000 
#
# Total GULP energy -495946.320905 kJ/mol
# GULP energy per Si atom -12398.658023 kJ/mol
# Density = 2.039985 g / cm^3
# Si number density = 20.446387 Si / 1000 Ang^3
#
#
#
# Elastic Constant Matrix: (Units=GPa)
#
#
# Indices 1 2 3 4 5 6 
#
# 1 123.1911 79.5348 39.9064 0.0000 0.0000 0.0000
# 2 79.5348 165.1705 44.8092 0.0000 0.0000 0.0000
# 3 39.9064 44.8092 63.4468 0.0000 0.0000 0.0000
# 4 0.0000 0.0000 0.0000 19.4724 0.0000 0.0000
# 5 0.0000 0.0000 0.0000 0.0000 679.3363 0.0000
# 6 0.0000 0.0000 0.0000 0.0000 0.0000 11.5243
#
#
#
# Elastic Compliance Matrix: (Units=1/GPa)
#
#
# Indices 1 2 3 4 5 6 
#
# 1 0.012764 -0.004909 -0.004562 0.000000 0.000000 0.000000
# 2 -0.004909 0.009377 -0.003535 0.000000 0.000000 0.000000
# 3 -0.004562 -0.003535 0.021127 0.000000 0.000000 0.000000
# 4 0.000000 0.000000 0.000000 0.051355 0.000000 0.000000
# 5 0.000000 0.000000 0.000000 0.000000 0.001472 0.000000
# 6 0.000000 0.000000 0.000000 0.000000 0.000000 0.086773
#
#
# Mechanical properties :
#
#
# Convention : Reuss Voigt Hill
#
# Bulk Modulus (GPa) = 57.94584 75.58992 66.76788
# Shear Modulus (GPa) = 23.29568 154.57047 88.93307
#
# Velocity S-wave (km/s) = 3.37909 8.70414 6.60228
# Velocity P-wave (km/s) = 6.60502 11.75016 9.53133
#
# Compressibility (1/GPa) = 0.01725749
#
# Stress axis : x y z
#
# Youngs Moduli (GPa) = 78.34242 106.64171 47.33299
#
# Poissons Ratio (x) = 0.52350 0.21591
# Poissons Ratio (y) = 0.38458 0.16732
# Poissons Ratio (z) = 0.35736 0.37698
#
# Static dielectric constant tensor:
#      x y z
#    x 3.686810 0.000000 0.000000 
#    y 0.000000 4.052360 0.000000 
#    z 0.000000 0.000000 3.524870 
# 
# 
# High freq. dielectric constant tensor:
#      x y z
#    x 1.802330 0.000000 0.000000 
#    y 0.000000 1.807770 0.000000 
#    z 0.000000 0.000000 1.787650 
# 
# From -- ./inp_files/13049.got.cif
#   From: 2010.03.12/outbox.cif.g09.slc.cpg/sg47_7_cif.got.tgz:13049.got - 2010.04.14 03:12:58.
