data_PCOD8199678
_publ_section_title
;
Structure prediction by ZEFSAII (Michael W. Deem and Ramdas Pophale) SiO2 
 PCOD8199678
Probable space group: P M M M
;
_chemical_formula_sum "Si O2"
_cell_formula_units_Z 64
_cell_length_a 8.868935
_cell_length_b 18.713490
_cell_length_c 18.827480
_cell_angle_alpha 90.000000
_cell_angle_beta 90.000000
_cell_angle_gamma 90.000000
_cell_volume 3124.772878
_symmetry_space_group_name_H-M "P M M M"
_symmetry_group_IT_number 47
_symmetry_cell_setting 'orthorhombic'
loop_
_space_group_symop_operation_xyz
x,y,z
-x,-y,z
x,-y,-z
-x,y,-z
-x,-y,-z
x,y,-z
-x,y,z
x,-y,z
loop_
_atom_site_type_symbol
_atom_site_label
_atom_site_fract_x
_atom_site_fract_y
_atom_site_fract_z
Si Si1 0.826296 0.326427 0.322241
Si Si2 0.677681 0.418379 0.796377
Si Si3 0.826114 0.082824 0.819002
Si Si4 0.322522 0.207205 0.418851
Si Si5 0.324860 0.194644 0.918588
Si Si6 0.335322 0.417125 0.422745
Si Si7 0.824340 0.342171 0.917800
Si Si8 0.174314 0.082382 0.656246
O O1 0.750524 0.354780 0.250279
O O2 0.750272 0.258221 0.359146
O O3 0.804795 0.391240 0.377053
O O4 0.000000 0.309577 0.307593
O O5 0.500000 0.409785 0.793258
O O6 0.722430 0.500000 0.773232
O O7 0.737010 0.404421 0.875759
O O8 0.720330 0.128171 0.870133
O O9 0.788996 0.102757 0.737684
O O10 0.000000 0.099792 0.835985
O O11 0.791007 0.000000 0.833044
O O12 0.267212 0.222550 0.500000
O O13 0.500000 0.216653 0.414331
O O14 0.276886 0.127116 0.397609
O O15 0.500000 0.211629 0.908133
O O16 0.232599 0.264097 0.894124
O O17 0.287437 0.174849 0.000000
O O18 0.328959 0.379987 0.500000
O O19 0.500000 0.398510 0.387862
O O20 0.318692 0.500000 0.432334
O O21 0.000000 0.347396 0.900525
O O22 0.788415 0.355432 0.000000
O O23 0.000000 0.098410 0.640002
O O24 0.212319 0.000000 0.642417
#
# Coordination Sequence:
#
# PCOD8199678 Si02
#       8
#     8   8   8   8   8   8   8   8
#     4  12  25  39  59  87 120 156 195 246 300 352
#     4  11  25  44  66  92 123 161 203 247 300 363
#     4   9  19  36  58  85 120 162 207 256 311 369
#     4  11  25  43  63  89 122 161 204 250 303 365
#     4  10  21  36  56  85 123 166 210 257 308 363
#     4   9  18  34  56  80 110 151 193 234 287 350
#     4  10  22  41  65  92 123 161 204 252 306 361
#     4   9  20  40  64  90 121 158 201 252 310 368
#
# _framework density 20.481489
#
# number of rings (size 3 to 8) (size 9 to 14) (size 15 to 20)
#    0.000    1.875    0.000    4.500    1.750    8.750 
#    0.000    5.625    0.000    0.000    0.000    0.000 
#    0.000    0.000    0.000    0.000    0.000    0.000 
#
# Total GULP energy -793430.661288 kJ/mol
# GULP energy per Si atom -12397.354083 kJ/mol
# Density = 2.043487 g / cm^3
# Si number density = 20.481489 Si / 1000 Ang^3
#
#
#
# Elastic Constant Matrix: (Units=GPa)
#
#
# Indices 1 2 3 4 5 6 
#
# 1 91.7569 46.6543 46.6676 0.0000 0.0000 0.0000
# 2 46.6543 93.1717 58.4775 0.0000 0.0000 0.0000
# 3 46.6676 58.4775 93.0439 0.0000 0.0000 0.0000
# 4 0.0000 0.0000 0.0000 42.0880 0.0000 0.0000
# 5 0.0000 0.0000 0.0000 0.0000 32.4420 0.0000
# 6 0.0000 0.0000 0.0000 0.0000 0.0000 37.0862
#
#
#
# Elastic Compliance Matrix: (Units=1/GPa)
#
#
# Indices 1 2 3 4 5 6 
#
# 1 0.015865 -0.004872 -0.004896 0.000000 0.000000 0.000000
# 2 -0.004872 0.019220 -0.009636 0.000000 0.000000 0.000000
# 3 -0.004896 -0.009636 0.019260 0.000000 0.000000 0.000000
# 4 0.000000 0.000000 0.000000 0.023760 0.000000 0.000000
# 5 0.000000 0.000000 0.000000 0.000000 0.030824 0.000000
# 6 0.000000 0.000000 0.000000 0.000000 0.000000 0.026964
#
#
# Mechanical properties :
#
#
# Convention : Reuss Voigt Hill
#
# Bulk Modulus (GPa) = 64.35948 64.61903 64.48925
# Shear Modulus (GPa) = 27.79625 30.73479 29.26552
#
# Velocity S-wave (km/s) = 3.68793 3.87798 3.78415
# Velocity P-wave (km/s) = 7.04457 7.18819 7.11674
#
# Compressibility (1/GPa) = 0.01553773
#
# Stress axis : x y z
#
# Youngs Moduli (GPa) = 63.03052 52.02799 51.92211
#
# Poissons Ratio (x) = 0.25346 0.25420
# Poissons Ratio (y) = 0.30706 0.50035
# Poissons Ratio (z) = 0.30858 0.50137
#
# Static dielectric constant tensor:
#      x y z
#    x 3.694680 0.000000 0.000000 
#    y 0.000000 3.713490 0.000000 
#    z 0.000000 0.000000 3.876100 
# 
# 
# High freq. dielectric constant tensor:
#      x y z
#    x 1.796160 0.000000 0.000000 
#    y 0.000000 1.804690 0.000000 
#    z 0.000000 0.000000 1.806600 
# 
# From -- ./inp_files/30025.got.cif
#   From: 2010.03.12/outbox.cif.g09.slc.cpg/sg47_16_cif.got.tgz:30025.got - 2010.04.14 03:12:58.
