data_PCOD8199095
_publ_section_title
;
Structure prediction by ZEFSAII (Michael W. Deem and Ramdas Pophale) SiO2 
 PCOD8199095
Probable space group: P M M M
;
_chemical_formula_sum "Si O2"
_cell_formula_units_Z 48
_cell_length_a 9.501512
_cell_length_b 34.400699
_cell_length_c 7.865346
_cell_angle_alpha 90.000000
_cell_angle_beta 90.000000
_cell_angle_gamma 90.000000
_cell_volume 2570.856410
_symmetry_space_group_name_H-M "P M M M"
_symmetry_group_IT_number 47
_symmetry_cell_setting 'orthorhombic'
loop_
_space_group_symop_operation_xyz
x,y,z
-x,-y,z
x,-y,-z
-x,y,-z
-x,-y,-z
x,y,-z
-x,y,z
x,-y,z
loop_
_atom_site_type_symbol
_atom_site_label
_atom_site_fract_x
_atom_site_fract_y
_atom_site_fract_z
Si Si1 0.668103 0.818019 0.000000
Si Si2 0.155221 0.613489 0.803840
Si Si3 0.658245 0.543904 0.700421
Si Si4 0.332845 0.767068 0.310874
Si Si5 0.332688 0.043698 0.688723
Si Si6 0.659335 0.316610 0.797635
Si Si7 0.668184 0.094222 0.000000
O O1 0.727276 0.796676 0.169191
O O2 0.500000 0.817606 0.000000
O O3 0.725925 0.861906 0.000000
O O4 0.231062 0.572247 0.786800
O O5 0.247417 0.648151 0.721710
O O6 0.000000 0.611853 0.718142
O O7 0.137801 0.623150 0.000000
O O8 0.669131 0.548299 0.500000
O O9 0.500000 0.554279 0.761333
O O10 0.695636 0.500000 0.756060
O O11 0.284777 0.780390 0.500000
O O12 0.500000 0.766531 0.296046
O O13 0.277529 0.723548 0.275195
O O14 0.282230 0.056971 0.500000
O O15 0.500000 0.044075 0.695307
O O16 0.272152 0.072715 0.831747
O O17 0.278712 0.000000 0.726751
O O18 0.500000 0.323375 0.733430
O O19 0.662894 0.314628 0.000000
O O20 0.500000 0.093623 0.000000
#
# Coordination Sequence:
#
# PCOD8199095 Si02
#       7
#     4   8   8   8   8   8   4
#     4   9  16  25  34  51  77  99 124 168 222 276
#     4  10  21  34  49  74 104 129 153 186 233 282
#     4   9  19  36  55  73  95 126 164 201 233 271
#     4   9  16  26  41  59  78 103 136 174 219 271
#     4   8  13  20  28  38  54  80 119 164 206 255
#     4   9  16  29  48  65  86 117 151 187 226 271
#     4   9  15  20  29  42  60  87 117 154 211 272
#
# _framework density 18.670822000000001
#
# number of rings (size 3 to 8) (size 9 to 14) (size 15 to 20)
#    0.000    3.000    0.833    1.750    0.000    4.333 
#    0.000    7.500    0.000    0.000    0.000    0.000 
#    0.000    0.000    0.000    0.000    0.000    0.000 
#
# Total GULP energy -594934.107342 kJ/mol
# GULP energy per Si atom -12394.460570 kJ/mol
# Density = 1.862833 g / cm^3
# Si number density = 18.670822 Si / 1000 Ang^3
#
#
#
# Elastic Constant Matrix: (Units=GPa)
#
#
# Indices 1 2 3 4 5 6 
#
# 1 55.4220 44.9074 21.7023 0.0000 0.0000 0.0000
# 2 44.9074 159.6694 69.1780 0.0000 0.0000 0.0000
# 3 21.7023 69.1780 98.0484 0.0000 0.0000 0.0000
# 4 0.0000 0.0000 0.0000 15.2111 0.0000 0.0000
# 5 0.0000 0.0000 0.0000 0.0000 6.6860 0.0000
# 6 0.0000 0.0000 0.0000 0.0000 0.0000 1.7336
#
#
#
# Elastic Compliance Matrix: (Units=1/GPa)
#
#
# Indices 1 2 3 4 5 6 
#
# 1 0.023410 -0.006249 -0.000772 0.000000 0.000000 0.000000
# 2 -0.006249 0.010689 -0.006158 0.000000 0.000000 0.000000
# 3 -0.000772 -0.006158 0.014715 0.000000 0.000000 0.000000
# 4 0.000000 0.000000 0.000000 0.065742 0.000000 0.000000
# 5 0.000000 0.000000 0.000000 0.000000 0.149566 0.000000
# 6 0.000000 0.000000 0.000000 0.000000 0.000000 0.576843
#
#
# Mechanical properties :
#
#
# Convention : Reuss Voigt Hill
#
# Bulk Modulus (GPa) = 44.53656 64.96837 54.75247
# Shear Modulus (GPa) = 5.71554 16.54960 11.13257
#
# Velocity S-wave (km/s) = 1.75153 2.98046 2.44448
# Velocity P-wave (km/s) = 5.29111 6.83494 6.11197
#
# Compressibility (1/GPa) = 0.02245346
#
# Stress axis : x y z
#
# Youngs Moduli (GPa) = 42.71759 93.55717 67.95861
#
# Poissons Ratio (x) = 0.58468 0.05248
# Poissons Ratio (y) = 0.26696 0.41850
# Poissons Ratio (z) = 0.03299 0.57614
#
# Static dielectric constant tensor:
#      x y z
#    x 3.006210 0.000000 0.000000 
#    y 0.000000 3.613150 0.000000 
#    z 0.000000 0.000000 3.512930 
# 
# 
# High freq. dielectric constant tensor:
#      x y z
#    x 1.652550 0.000000 0.000000 
#    y 0.000000 1.727850 0.000000 
#    z 0.000000 0.000000 1.727250 
# 
# From -- ./inp_files/2587.got.cif
#   From: 2010.03.12/outbox.cif.g09.slc.cpg/sg47_2_cif.got.tgz:2587.got - 2010.04.14 03:12:58.
