data_PCOD8199000
_publ_section_title
;
Structure prediction by ZEFSAII (Michael W. Deem and Ramdas Pophale) SiO2 
 PCOD8199000
Probable space group: P M M M
;
_chemical_formula_sum "Si O2"
_cell_formula_units_Z 48
_cell_length_a 8.663377
_cell_length_b 17.638471
_cell_length_c 15.427894
_cell_angle_alpha 90.000000
_cell_angle_beta 90.000000
_cell_angle_gamma 90.000000
_cell_volume 2357.516796
_symmetry_space_group_name_H-M "P M M M"
_symmetry_group_IT_number 47
_symmetry_cell_setting 'orthorhombic'
loop_
_space_group_symop_operation_xyz
x,y,z
-x,-y,z
x,-y,-z
-x,y,-z
-x,-y,-z
x,y,-z
-x,y,z
x,-y,z
loop_
_atom_site_type_symbol
_atom_site_label
_atom_site_fract_x
_atom_site_fract_y
_atom_site_fract_z
Si Si1 0.323216 0.666831 0.595971
Si Si2 0.673835 0.089176 0.500000
Si Si3 0.822636 0.702893 0.097488
Si Si4 0.817900 0.000000 0.902647
Si Si5 0.820071 0.818874 0.647347
Si Si6 0.319907 0.151871 0.830366
Si Si7 0.680403 0.414053 0.230438
O O1 0.300853 0.630251 0.500000
O O2 0.500000 0.693720 0.608521
O O3 0.211712 0.738880 0.601826
O O4 0.279024 0.606376 0.669996
O O5 0.500000 0.123514 0.500000
O O6 0.765642 0.114078 0.414906
O O7 0.666069 0.000000 0.500000
O O8 0.727928 0.780724 0.105278
O O9 0.770077 0.639257 0.164475
O O10 0.000000 0.722209 0.116885
O O11 0.799372 0.671631 0.000000
O O12 0.764646 0.074188 0.852277
O O13 0.000000 0.000000 0.905518
O O14 0.749101 0.000000 0.000000
O O15 0.722594 0.821763 0.734598
O O16 0.000000 0.828078 0.667918
O O17 0.500000 0.137223 0.838396
O O18 0.500000 0.404059 0.212203
O O19 0.734258 0.500000 0.214454
#
# Coordination Sequence:
#
# PCOD8199000 Si02
#       7
#     8   4   8   4   8   8   8
#     4  10  20  37  63  92 126 165 208 257 312 377
#     4  11  25  43  63  89 126 167 214 265 316 375
#     4  11  24  42  65  93 126 167 215 266 324 386
#     4  11  25  45  67  94 129 164 203 257 317 375
#     4  12  24  39  62  91 125 164 210 260 313 374
#     4  12  25  42  66  94 127 166 212 261 316 379
#     4  10  22  40  63  94 130 169 214 265 322 384
#
# _framework density 20.360405
#
# number of rings (size 3 to 8) (size 9 to 14) (size 15 to 20)
#    0.000    1.000    2.500    4.500    1.167    5.667 
#    0.000    3.333    0.000    0.000    0.000    2.333 
#    0.000    0.000    0.000    0.000    0.000    0.000 
#
# Total GULP energy -595428.876974 kJ/mol
# GULP energy per Si atom -12404.768270 kJ/mol
# Density = 2.031406 g / cm^3
# Si number density = 20.360405 Si / 1000 Ang^3
#
#
#
# Elastic Constant Matrix: (Units=GPa)
#
#
# Indices 1 2 3 4 5 6 
#
# 1 86.6094 29.0602 30.9395 0.0000 0.0000 0.0000
# 2 29.0602 105.6699 38.1533 0.0000 0.0000 0.0000
# 3 30.9395 38.1533 129.3038 0.0000 0.0000 0.0000
# 4 0.0000 0.0000 0.0000 27.1290 0.0000 0.0000
# 5 0.0000 0.0000 0.0000 0.0000 33.1198 0.0000
# 6 0.0000 0.0000 0.0000 0.0000 0.0000 -17.5434
#
#
#
# Elastic Compliance Matrix: (Units=1/GPa)
#
#
# Indices 1 2 3 4 5 6 
#
# 1 0.013334 -0.002815 -0.002360 0.000000 0.000000 0.000000
# 2 -0.002815 0.011186 -0.002627 0.000000 0.000000 0.000000
# 3 -0.002360 -0.002627 0.009074 0.000000 0.000000 0.000000
# 4 0.000000 0.000000 0.000000 0.036861 0.000000 0.000000
# 5 0.000000 0.000000 0.000000 0.000000 0.030193 0.000000
# 6 0.000000 0.000000 0.000000 0.000000 0.000000 -0.057001
#
#
# Mechanical properties :
#
#
# Convention : Reuss Voigt Hill
#
# Bulk Modulus (GPa) = 55.58758 57.54322 56.56540
# Shear Modulus (GPa) = 76.63268 23.43641 50.03455
#
# Velocity S-wave (km/s) = 6.14164 3.39643 4.96264
# Velocity P-wave (km/s) = 8.81216 6.61095 7.78970
#
# Compressibility (1/GPa) = 0.01798963
#
# Stress axis : x y z
#
# Youngs Moduli (GPa) = 74.99871 89.39688 110.21021
#
# Poissons Ratio (x) = 0.25163 0.26008
# Poissons Ratio (y) = 0.21111 0.28954
# Poissons Ratio (z) = 0.17699 0.23486
#
# Static dielectric constant tensor:
#      x y z
#    x 3.748860 0.000000 0.000000 
#    y 0.000000 3.614060 0.000000 
#    z 0.000000 0.000000 3.900540 
# 
# 
# High freq. dielectric constant tensor:
#      x y z
#    x 1.798950 0.000000 0.000000 
#    y 0.000000 1.790390 0.000000 
#    z 0.000000 0.000000 1.812200 
# 
# From -- ./inp_files/6538.got.cif
#   From: 2010.03.12/outbox.cif.g09.slc.cpg/sg47_4_cif.got.tgz:6538.got - 2010.04.14 03:12:58.
