data_PCOD8199978
_publ_section_title
;
Structure prediction by ZEFSAII (Michael W. Deem and Ramdas Pophale) SiO2 
 PCOD8199978
Probable space group: P M M M
;
_chemical_formula_sum "Si O2"
_cell_formula_units_Z 46
_cell_length_a 7.802703
_cell_length_b 10.758295
_cell_length_c 26.651179
_cell_angle_alpha 90.000000
_cell_angle_beta 90.000000
_cell_angle_gamma 90.000000
_cell_volume 2237.200725
_symmetry_space_group_name_H-M "P M M M"
_symmetry_group_IT_number 47
_symmetry_cell_setting 'orthorhombic'
loop_
_space_group_symop_operation_xyz
x,y,z
-x,-y,z
x,-y,-z
-x,y,-z
-x,-y,-z
x,y,-z
-x,y,z
x,-y,z
loop_
_atom_site_type_symbol
_atom_site_label
_atom_site_fract_x
_atom_site_fract_y
_atom_site_fract_z
Si Si1 0.192518 0.354478 0.618180
Si Si2 0.188936 0.853654 0.000000
Si Si3 0.304670 0.363220 0.172022
Si Si4 0.302890 0.860624 0.892344
Si Si5 0.805054 0.000000 0.696887
Si Si6 0.500000 0.000000 0.380969
Si Si7 0.500000 0.750137 0.559127
Si Si8 0.803521 0.266411 0.726067
O O1 0.181683 0.500000 0.623505
O O2 0.326425 0.320687 0.574934
O O3 0.263877 0.300932 0.670756
O O4 0.000000 0.301709 0.606467
O O5 0.287404 0.812878 0.949683
O O6 0.000000 0.793149 0.000000
O O7 0.174910 0.000000 0.000000
O O8 0.500000 0.370030 0.154278
O O9 0.220363 0.500000 0.160943
O O10 0.214725 0.247219 0.142372
O O11 0.301091 0.337909 0.231489
O O12 0.500000 0.872085 0.877557
O O13 0.219115 0.000000 0.885038
O O14 0.672874 0.000000 0.651282
O O15 0.776490 0.118616 0.732643
O O16 0.000000 0.000000 0.674715
O O17 0.500000 0.884440 0.417288
O O18 0.500000 0.760351 0.500000
O O19 0.000000 0.307027 0.731804
#
# Coordination Sequence:
#
# PCOD8199978 Si02
#       8
#     8   4   8   8   4   2   4   8
#     4  10  22  41  64  89 120 159 201 245 297 355
#     4   9  17  31  54  81 106 136 184 245 296 336
#     4  10  22  36  53  83 121 153 188 236 291 351
#     4   9  18  34  54  78 107 148 192 236 284 346
#     4  10  22  39  61  91 120 153 203 249 294 358
#     4  12  23  42  68  88 118 164 188 245 308 354
#     4  12  26  42  63  93 122 154 200 249 299 358
#     4  10  21  38  59  84 116 152 192 239 290 348
#
# _framework density 20.561409000000001
#
# number of rings (size 3 to 8) (size 9 to 14) (size 15 to 20)
#    0.000    2.000    1.739    1.174    3.652    3.826 
#    0.000    1.304    0.000    4.174    0.000    0.000 
#    0.000    0.000    0.000    0.000    0.000    0.000 
#
# Total GULP energy -570116.436600 kJ/mol
# GULP energy per Si atom -12393.835578 kJ/mol
# Density = 2.051461 g / cm^3
# Si number density = 20.561409 Si / 1000 Ang^3
#
#
#
# Elastic Constant Matrix: (Units=GPa)
#
#
# Indices 1 2 3 4 5 6 
#
# 1 63.3960 26.4721 24.9492 0.0000 0.0000 0.0000
# 2 26.4721 138.9258 52.4881 0.0000 0.0000 0.0000
# 3 24.9492 52.4881 102.2500 0.0000 0.0000 0.0000
# 4 0.0000 0.0000 0.0000 594.8502 0.0000 0.0000
# 5 0.0000 0.0000 0.0000 0.0000 53.0495 0.0000
# 6 0.0000 0.0000 0.0000 0.0000 0.0000 26.9808
#
#
#
# Elastic Compliance Matrix: (Units=1/GPa)
#
#
# Indices 1 2 3 4 5 6 
#
# 1 0.017972 -0.002193 -0.003259 0.000000 0.000000 0.000000
# 2 -0.002193 0.009198 -0.004186 0.000000 0.000000 0.000000
# 3 -0.003259 -0.004186 0.012724 0.000000 0.000000 0.000000
# 4 0.000000 0.000000 0.000000 0.001681 0.000000 0.000000
# 5 0.000000 0.000000 0.000000 0.000000 0.018850 0.000000
# 6 0.000000 0.000000 0.000000 0.000000 0.000000 0.037063
#
#
# Mechanical properties :
#
#
# Convention : Reuss Voigt Hill
#
# Bulk Modulus (GPa) = 48.50507 56.93230 52.71868
# Shear Modulus (GPa) = 40.44032 148.35361 94.39696
#
# Velocity S-wave (km/s) = 4.43968 8.50342 6.78303
# Velocity P-wave (km/s) = 7.06559 11.14270 9.32959
#
# Compressibility (1/GPa) = 0.02061640
#
# Stress axis : x y z
#
# Youngs Moduli (GPa) = 55.64089 108.72364 78.59021
#
# Poissons Ratio (x) = 0.23845 0.25616
# Poissons Ratio (y) = 0.12203 0.32900
# Poissons Ratio (z) = 0.18136 0.45515
#
# Static dielectric constant tensor:
#      x y z
#    x 3.268340 0.000000 0.000000 
#    y 0.000000 4.154090 0.000000 
#    z 0.000000 0.000000 3.605270 
# 
# 
# High freq. dielectric constant tensor:
#      x y z
#    x 1.792330 0.000000 0.000000 
#    y 0.000000 1.810500 0.000000 
#    z 0.000000 0.000000 1.786420 
# 
# From -- ./inp_files/31911.got.cif
#   From: 2010.03.12/outbox.cif.g09.slc.cpg/sg47_16_cif.got.tgz:31911.got - 2010.04.14 03:12:58.
