data_PCOD8199588
_publ_section_title
;
Structure prediction by ZEFSAII (Michael W. Deem and Ramdas Pophale) SiO2 
 PCOD8199588
Probable space group: P M M M
;
_chemical_formula_sum "Si O2"
_cell_formula_units_Z 32
_cell_length_a 9.552412
_cell_length_b 8.014505
_cell_length_c 22.106030
_cell_angle_alpha 90.000000
_cell_angle_beta 90.000000
_cell_angle_gamma 90.000000
_cell_volume 1692.390211
_symmetry_space_group_name_H-M "P M M M"
_symmetry_group_IT_number 47
_symmetry_cell_setting 'orthorhombic'
loop_
_space_group_symop_operation_xyz
x,y,z
-x,-y,z
x,-y,-z
-x,y,-z
-x,-y,-z
x,y,-z
-x,y,z
x,-y,z
loop_
_atom_site_type_symbol
_atom_site_label
_atom_site_fract_x
_atom_site_fract_y
_atom_site_fract_z
Si Si1 0.156045 0.691058 0.394313
Si Si2 0.348179 0.190421 0.500000
Si Si3 0.335278 0.808528 0.148967
Si Si4 0.665869 0.500000 0.067538
Si Si5 0.158265 0.193914 0.734792
O O1 0.148992 0.500000 0.412338
O O2 0.262741 0.774888 0.439573
O O3 0.208991 0.711174 0.325424
O O4 0.000000 0.770891 0.400615
O O5 0.500000 0.285256 0.500000
O O6 0.383830 0.000000 0.500000
O O7 0.500000 0.794685 0.160168
O O8 0.284303 0.672053 0.099745
O O9 0.259856 0.756576 0.210761
O O10 0.295889 0.000000 0.129204
O O11 0.500000 0.500000 0.064773
O O12 0.729802 0.500000 0.000000
O O13 0.000000 0.246398 0.752433
O O14 0.167908 0.000000 0.720278
#
# Coordination Sequence:
#
# PCOD8199588 Si02
#       5
#     8   4   8   4   8
#     4  10  21  36  55  79 104 133 172 215 260 315
#     4  11  24  39  54  74 102 137 176 217 262 312
#     4   9  18  32  51  76 105 137 175 218 261 308
#     4   9  18  32  51  77 107 138 175 216 259 309
#     4   9  18  33  53  77 104 135 170 209 256 308
#
# _framework density 18.908166999999999
#
# number of rings (size 3 to 8) (size 9 to 14) (size 15 to 20)
#    0.000    2.500    0.000    1.500    1.750    5.500 
#    0.000    5.000    0.000    1.500    0.000    3.500 
#    0.000    0.000    0.000    0.000    0.000    0.000 
#
# Total GULP energy -396660.200649 kJ/mol
# GULP energy per Si atom -12395.631270 kJ/mol
# Density = 1.886513 g / cm^3
# Si number density = 18.908167 Si / 1000 Ang^3
#
#
#
# Elastic Constant Matrix: (Units=GPa)
#
#
# Indices 1 2 3 4 5 6 
#
# 1 74.9732 35.3110 68.6332 0.0000 0.0000 0.0000
# 2 35.3110 86.8883 60.5218 0.0000 0.0000 0.0000
# 3 68.6332 60.5218 147.8505 0.0000 0.0000 0.0000
# 4 0.0000 0.0000 0.0000 48.5422 0.0000 0.0000
# 5 0.0000 0.0000 0.0000 0.0000 -3.3982 0.0000
# 6 0.0000 0.0000 0.0000 0.0000 0.0000 14.2288
#
#
#
# Elastic Compliance Matrix: (Units=1/GPa)
#
#
# Indices 1 2 3 4 5 6 
#
# 1 0.023655 -0.002748 -0.009856 0.000000 0.000000 0.000000
# 2 -0.002748 0.016419 -0.005445 0.000000 0.000000 0.000000
# 3 -0.009856 -0.005445 0.013568 0.000000 0.000000 0.000000
# 4 0.000000 0.000000 0.000000 0.020601 0.000000 0.000000
# 5 0.000000 0.000000 0.000000 0.000000 -0.294270 0.000000
# 6 0.000000 0.000000 0.000000 0.000000 0.000000 0.070280
#
#
# Mechanical properties :
#
#
# Convention : Reuss Voigt Hill
#
# Bulk Modulus (GPa) = 57.00319 70.96043 63.98181
# Shear Modulus (GPa) = -46.38117 21.55762 -12.41177
#
# Velocity S-wave (km/s) = -4.95812 3.38023 -2.56486
# Velocity P-wave (km/s) = 1.60138 7.26946 5.01401
#
# Compressibility (1/GPa) = 0.01754288
#
# Stress axis : x y z
#
# Youngs Moduli (GPa) = 42.27487 60.90620 73.70487
#
# Poissons Ratio (x) = 0.16738 0.72641
# Poissons Ratio (y) = 0.11618 0.40134
# Poissons Ratio (z) = 0.41665 0.33164
#
# Static dielectric constant tensor:
#      x y z
#    x 3.483650 0.000000 0.000000 
#    y 0.000000 3.583580 0.000000 
#    z 0.000000 0.000000 3.529850 
# 
# 
# High freq. dielectric constant tensor:
#      x y z
#    x 1.717220 0.000000 0.000000 
#    y 0.000000 1.740790 0.000000 
#    z 0.000000 0.000000 1.731330 
# 
# From -- ./inp_files/31608.got.cif
#   From: 2010.03.12/outbox.cif.g09.slc.cpg/sg47_16_cif.got.tgz:31608.got - 2010.04.14 03:12:58.
