data_PCOD8199360
_publ_section_title
;
Structure prediction by ZEFSAII (Michael W. Deem and Ramdas Pophale) SiO2 
 PCOD8199360
Probable space group: P M M M
;
_chemical_formula_sum "Si O2"
_cell_formula_units_Z 44
_cell_length_a 15.494935
_cell_length_b 16.871712
_cell_length_c 9.242976
_cell_angle_alpha 90.000000
_cell_angle_beta 90.000000
_cell_angle_gamma 90.000000
_cell_volume 2416.354990
_symmetry_space_group_name_H-M "P M M M"
_symmetry_group_IT_number 47
_symmetry_cell_setting 'orthorhombic'
loop_
_space_group_symop_operation_xyz
x,y,z
-x,-y,z
x,-y,-z
-x,y,-z
-x,-y,-z
x,y,-z
-x,y,z
x,-y,z
loop_
_atom_site_type_symbol
_atom_site_label
_atom_site_fract_x
_atom_site_fract_y
_atom_site_fract_z
Si Si1 0.403250 0.154585 0.833477
Si Si2 0.847831 0.000000 0.329730
Si Si3 0.500000 0.590368 0.670038
Si Si4 0.352107 0.000000 0.670779
Si Si5 0.313454 0.591510 0.671434
Si Si6 0.751358 0.732592 0.169168
Si Si7 0.902858 0.152667 0.834720
O O1 0.500000 0.190225 0.815075
O O2 0.397116 0.076805 0.736372
O O3 0.332796 0.218108 0.780544
O O4 0.385208 0.131164 0.000000
O O5 0.893561 0.923357 0.265407
O O6 0.861905 0.000000 0.500000
O O7 0.747975 0.000000 0.286128
O O8 0.500000 0.500000 0.716000
O O9 0.500000 0.599296 0.500000
O O10 0.408258 0.623847 0.726876
O O11 0.366469 0.000000 0.500000
O O12 0.304680 0.599818 0.500000
O O13 0.297937 0.500000 0.716878
O O14 0.244726 0.648354 0.748787
O O15 0.837150 0.779360 0.216422
O O16 0.749352 0.714979 0.000000
O O17 0.000000 0.185977 0.820069
O O18 0.882141 0.127974 0.000000
#
# Coordination Sequence:
#
# PCOD8199360 Si02
#       7
#     8   4   4   4   8   8   8
#     4  10  21  36  53  73 102 143 182 215 259 308
#     4  11  22  35  54  81 109 136 169 214 265 311
#     4   7  12  26  47  71  99 132 169 204 239 289
#     4  11  22  35  52  75 105 140 181 220 253 299
#     4   9  18  33  53  76 104 139 175 209 252 307
#     4  10  21  35  53  78 106 133 168 217 260 303
#     4  10  21  38  59  79 101 135 175 212 258 314
#
# _framework density 18.209246
#
# number of rings (size 3 to 8) (size 9 to 14) (size 15 to 20)
#    0.000    2.273    1.818    2.182    1.273    5.455 
#    0.000    0.000    0.000    2.182    0.000    3.818 
#    0.000    0.000    0.000    0.000    0.000    0.000 
#
# Total GULP energy -545424.585055 kJ/mol
# GULP energy per Si atom -12396.013297 kJ/mol
# Density = 1.816780 g / cm^3
# Si number density = 18.209246 Si / 1000 Ang^3
#
#
#
# Elastic Constant Matrix: (Units=GPa)
#
#
# Indices 1 2 3 4 5 6 
#
# 1 120.9823 58.8780 34.0992 0.0000 0.0000 0.0000
# 2 58.8780 119.5178 44.6560 0.0000 0.0000 0.0000
# 3 34.0992 44.6560 49.2207 0.0000 0.0000 0.0000
# 4 0.0000 0.0000 0.0000 70.6935 0.0000 0.0000
# 5 0.0000 0.0000 0.0000 0.0000 21.8563 0.0000
# 6 0.0000 0.0000 0.0000 0.0000 0.0000 -32.5501
#
#
#
# Elastic Compliance Matrix: (Units=1/GPa)
#
#
# Indices 1 2 3 4 5 6 
#
# 1 0.011432 -0.004043 -0.004252 0.000000 0.000000 0.000000
# 2 -0.004043 0.014088 -0.009980 0.000000 0.000000 0.000000
# 3 -0.004252 -0.009980 0.032317 0.000000 0.000000 0.000000
# 4 0.000000 0.000000 0.000000 0.014146 0.000000 0.000000
# 5 0.000000 0.000000 0.000000 0.000000 0.045753 0.000000
# 6 0.000000 0.000000 0.000000 0.000000 0.000000 -0.030722
#
#
# Mechanical properties :
#
#
# Convention : Reuss Voigt Hill
#
# Bulk Modulus (GPa) = 46.97839 62.77635 54.87737
# Shear Modulus (GPa) = 38.26785 22.13911 30.20348
#
# Velocity S-wave (km/s) = 4.58925 3.49064 4.07712
# Velocity P-wave (km/s) = 7.34417 7.12713 7.23646
#
# Compressibility (1/GPa) = 0.02128638
#
# Stress axis : x y z
#
# Youngs Moduli (GPa) = 87.47701 70.98437 30.94377
#
# Poissons Ratio (x) = 0.28699 0.13156
# Poissons Ratio (y) = 0.35367 0.30883
# Poissons Ratio (z) = 0.37191 0.70844
#
# Static dielectric constant tensor:
#      x y z
#    x 3.529480 0.000000 0.000000 
#    y 0.000000 3.190840 0.000000 
#    z 0.000000 0.000000 3.161680 
# 
# 
# High freq. dielectric constant tensor:
#      x y z
#    x 1.704460 0.000000 0.000000 
#    y 0.000000 1.692180 0.000000 
#    z 0.000000 0.000000 1.693030 
# 
# From -- ./inp_files/6293.got.cif
#   From: 2010.03.12/outbox.cif.g09.slc.cpg/sg47_4_cif.got.tgz:6293.got - 2010.04.14 03:12:58.
