data_PCOD8199001
_publ_section_title
;
Structure prediction by ZEFSAII (Michael W. Deem and Ramdas Pophale) SiO2 
 PCOD8199001
Probable space group: P M M M
;
_chemical_formula_sum "Si O2"
_cell_formula_units_Z 48
_cell_length_a 15.457407
_cell_length_b 18.672618
_cell_length_c 8.038221
_cell_angle_alpha 90.000000
_cell_angle_beta 90.000000
_cell_angle_gamma 90.000000
_cell_volume 2320.073786
_symmetry_space_group_name_H-M "P M M M"
_symmetry_group_IT_number 47
_symmetry_cell_setting 'orthorhombic'
loop_
_space_group_symop_operation_xyz
x,y,z
-x,-y,z
x,-y,-z
-x,y,-z
-x,-y,-z
x,y,-z
-x,y,z
x,-y,z
loop_
_atom_site_type_symbol
_atom_site_label
_atom_site_fract_x
_atom_site_fract_y
_atom_site_fract_z
Si Si1 0.834778 0.834869 0.185205
Si Si2 0.901939 0.688395 0.693500
Si Si3 0.902558 0.084415 0.500000
Si Si4 0.500000 0.083451 0.805177
Si Si5 0.755531 0.419675 0.303027
Si Si6 0.651065 0.818525 0.687491
Si Si7 0.596120 0.670092 0.190519
O O1 0.886183 0.760982 0.206792
O O2 0.858369 0.890496 0.329374
O O3 0.732451 0.820937 0.190211
O O4 0.857247 0.864925 0.000000
O O5 0.884393 0.704918 0.500000
O O6 0.836409 0.627716 0.760316
O O7 0.000000 0.661575 0.723167
O O8 0.000000 0.114196 0.500000
O O9 0.898662 0.000000 0.500000
O O10 0.414801 0.118072 0.727811
O O11 0.500000 0.000000 0.760448
O O12 0.500000 0.097944 0.000000
O O13 0.752873 0.419271 0.500000
O O14 0.768152 0.500000 0.234143
O O15 0.665092 0.390174 0.236355
O O16 0.684750 0.828495 0.500000
O O17 0.606302 0.741405 0.700878
O O18 0.500000 0.638612 0.223697
O O19 0.607520 0.692864 0.000000
#
# Coordination Sequence:
#
# PCOD8199001 Si02
#       7
#     8   8   4   4   8   8   8
#     4  12  24  42  69  99 132 172 222 273 326 391
#     4  10  20  37  63  95 131 169 214 269 327 391
#     4  11  26  48  70  97 134 170 213 273 334 394
#     4  11  25  43  63  95 136 173 214 264 323 393
#     4  10  22  39  60  90 127 168 216 268 324 388
#     4  12  23  40  66  94 128 171 217 268 323 383
#     4  11  23  39  62  90 123 164 214 268 324 386
#
# _framework density 20.688998000000002
#
# number of rings (size 3 to 8) (size 9 to 14) (size 15 to 20)
#    0.000    1.000    4.167    2.750    0.000    5.000 
#    0.000    4.167    0.000    0.000    0.000    2.333 
#    0.000    0.000    0.000    0.000    0.000    0.000 
#
# Total GULP energy -595366.128077 kJ/mol
# GULP energy per Si atom -12403.461002 kJ/mol
# Density = 2.064191 g / cm^3
# Si number density = 20.688998 Si / 1000 Ang^3
#
#
#
# Elastic Constant Matrix: (Units=GPa)
#
#
# Indices 1 2 3 4 5 6 
#
# 1 131.0297 46.3380 17.8575 0.0000 0.0000 0.0000
# 2 46.3380 96.3806 37.9788 0.0000 0.0000 0.0000
# 3 17.8575 37.9788 97.2031 0.0000 0.0000 0.0000
# 4 0.0000 0.0000 0.0000 19.0996 0.0000 0.0000
# 5 0.0000 0.0000 0.0000 0.0000 15.6280 0.0000
# 6 0.0000 0.0000 0.0000 0.0000 0.0000 26.2449
#
#
#
# Elastic Compliance Matrix: (Units=1/GPa)
#
#
# Indices 1 2 3 4 5 6 
#
# 1 0.009195 -0.004439 0.000045 0.000000 0.000000 0.000000
# 2 -0.004439 0.014406 -0.004813 0.000000 0.000000 0.000000
# 3 0.000045 -0.004813 0.012160 0.000000 0.000000 0.000000
# 4 0.000000 0.000000 0.000000 0.052357 0.000000 0.000000
# 5 0.000000 0.000000 0.000000 0.000000 0.063988 0.000000
# 6 0.000000 0.000000 0.000000 0.000000 0.000000 0.038103
#
#
# Mechanical properties :
#
#
# Convention : Reuss Voigt Hill
#
# Bulk Modulus (GPa) = 57.64454 58.77355 58.20905
# Shear Modulus (GPa) = 23.32022 27.02376 25.17199
#
# Velocity S-wave (km/s) = 3.36099 3.61805 3.49189
# Velocity P-wave (km/s) = 6.55626 6.77669 6.66739
#
# Compressibility (1/GPa) = 0.01734770
#
# Stress axis : x y z
#
# Youngs Moduli (GPa) = 108.74925 69.41422 82.23604
#
# Poissons Ratio (x) = 0.30811 -0.00370
# Poissons Ratio (y) = 0.48271 0.39583
# Poissons Ratio (z) = -0.00489 0.33411
#
# Static dielectric constant tensor:
#      x y z
#    x 4.122000 0.000000 0.000000 
#    y 0.000000 3.674070 0.000000 
#    z 0.000000 0.000000 3.776410 
# 
# 
# High freq. dielectric constant tensor:
#      x y z
#    x 1.824110 0.000000 0.000000 
#    y 0.000000 1.796320 0.000000 
#    z 0.000000 0.000000 1.811960 
# 
# From -- ./inp_files/6535.got.cif
#   From: 2010.03.12/outbox.cif.g09.slc.cpg/sg47_4_cif.got.tgz:6535.got - 2010.04.14 03:12:58.
