data_PCOD8199217
_publ_section_title
;
Structure prediction by ZEFSAII (Michael W. Deem and Ramdas Pophale) SiO2 
 PCOD8199217
Probable space group: P M M M
;
_chemical_formula_sum "Si O2"
_cell_formula_units_Z 44
_cell_length_a 28.333499
_cell_length_b 9.542113
_cell_length_c 9.265530
_cell_angle_alpha 90.000000
_cell_angle_beta 90.000000
_cell_angle_gamma 90.000000
_cell_volume 2505.042118
_symmetry_space_group_name_H-M "P M M M"
_symmetry_group_IT_number 47
_symmetry_cell_setting 'orthorhombic'
loop_
_space_group_symop_operation_xyz
x,y,z
-x,-y,z
x,-y,-z
-x,y,-z
-x,-y,-z
x,y,-z
-x,y,z
x,-y,z
loop_
_atom_site_type_symbol
_atom_site_label
_atom_site_fract_x
_atom_site_fract_y
_atom_site_fract_z
Si Si1 0.682202 0.661833 0.830251
Si Si2 0.500000 0.833609 0.662524
Si Si3 0.865335 0.154557 0.671213
Si Si4 0.948164 0.656672 0.671567
Si Si5 0.408440 0.837888 0.168322
Si Si6 0.240547 0.161906 0.330888
O O1 0.678107 0.500000 0.782507
O O2 0.635287 0.743518 0.781377
O O3 0.726376 0.733020 0.754470
O O4 0.689712 0.675988 0.000000
O O5 0.500000 0.773908 0.500000
O O6 0.546494 0.780221 0.744786
O O7 0.500000 0.000000 0.663267
O O8 0.870165 0.149878 0.500000
O O9 0.905881 0.252269 0.740205
O O10 0.812821 0.206602 0.711167
O O11 0.873383 0.000000 0.735196
O O12 0.943933 0.655610 0.500000
O O13 0.942449 0.500000 0.731980
O O14 0.000000 0.716052 0.716031
O O15 0.397127 0.000000 0.205178
O O16 0.419573 0.819467 0.000000
O O17 0.249628 0.181321 0.500000
O O18 0.249897 0.000000 0.286922
#
# Coordination Sequence:
#
# PCOD8199217 Si02
#       6
#     8   4   8   8   8   8
#     4  10  21  35  50  71  98 126 159 198 237 279
#     4   9  17  29  48  75 100 120 150 193 232 267
#     4   8  14  24  37  55  80 109 143 184 228 273
#     4   8  13  20  30  47  74 109 147 183 219 264
#     4   9  17  31  51  71  92 122 157 190 228 274
#     4   9  18  32  49  69  93 122 157 196 238 285
#
# _framework density 17.564575000000001
#
# number of rings (size 3 to 8) (size 9 to 14) (size 15 to 20)
#    0.000    3.182    0.000    2.455    0.000    4.364 
#    0.000    5.909    0.000    2.727    0.000    0.000 
#    0.000    0.727    0.000    8.000    0.000   13.091 
#
# Total GULP energy -545380.091633 kJ/mol
# GULP energy per Si atom -12395.002083 kJ/mol
# Density = 1.752460 g / cm^3
# Si number density = 17.564575 Si / 1000 Ang^3
#
#
#
# Elastic Constant Matrix: (Units=GPa)
#
#
# Indices 1 2 3 4 5 6 
#
# 1 181.4699 92.7674 44.2543 0.0000 0.0000 0.0000
# 2 92.7674 101.7380 29.5840 0.0000 0.0000 0.0000
# 3 44.2543 29.5840 30.8351 0.0000 0.0000 0.0000
# 4 0.0000 0.0000 0.0000 17.2078 0.0000 0.0000
# 5 0.0000 0.0000 0.0000 0.0000 -2.1335 0.0000
# 6 0.0000 0.0000 0.0000 0.0000 0.0000 14.6799
#
#
#
# Elastic Compliance Matrix: (Units=1/GPa)
#
#
# Indices 1 2 3 4 5 6 
#
# 1 0.011983 -0.008218 -0.009313 0.000000 0.000000 0.000000
# 2 -0.008218 0.019269 -0.006692 0.000000 0.000000 0.000000
# 3 -0.009313 -0.006692 0.052217 0.000000 0.000000 0.000000
# 4 0.000000 0.000000 0.000000 0.058113 0.000000 0.000000
# 5 0.000000 0.000000 0.000000 0.000000 -0.468711 0.000000
# 6 0.000000 0.000000 0.000000 0.000000 0.000000 0.068120
#
#
# Mechanical properties :
#
#
# Convention : Reuss Voigt Hill
#
# Bulk Modulus (GPa) = 28.55351 71.91715 50.23533
# Shear Modulus (GPa) = -25.13982 15.77998 -4.67992
#
# Velocity S-wave (km/s) = -3.78733 3.00058 -1.63407
# Velocity P-wave (km/s) = 1.68332 7.28272 5.01021
#
# Compressibility (1/GPa) = 0.03502197
#
# Stress axis : x y z
#
# Youngs Moduli (GPa) = 83.45326 51.89752 19.15079
#
# Poissons Ratio (x) = 0.42650 0.17835
# Poissons Ratio (y) = 0.68583 0.12816
# Poissons Ratio (z) = 0.77719 0.34732
#
# Static dielectric constant tensor:
#      x y z
#    x 3.514420 0.000000 0.000000 
#    y 0.000000 3.356440 0.000000 
#    z 0.000000 0.000000 2.854500 
# 
# 
# High freq. dielectric constant tensor:
#      x y z
#    x 1.695350 0.000000 0.000000 
#    y 0.000000 1.666820 0.000000 
#    z 0.000000 0.000000 1.631920 
# 
# From -- ./inp_files/13552.got.cif
#   From: 2010.03.12/outbox.cif.g09.slc.cpg/sg47_7_cif.got.tgz:13552.got - 2010.04.14 03:12:58.
