data_PCOD8199745
_publ_section_title
;
Structure prediction by ZEFSAII (Michael W. Deem and Ramdas Pophale) SiO2 
 PCOD8199745
Probable space group: P M M M
;
_chemical_formula_sum "Si O2"
_cell_formula_units_Z 56
_cell_length_a 8.775579
_cell_length_b 23.599159
_cell_length_c 14.424243
_cell_angle_alpha 90.000000
_cell_angle_beta 90.000000
_cell_angle_gamma 90.000000
_cell_volume 2987.207127
_symmetry_space_group_name_H-M "P M M M"
_symmetry_group_IT_number 47
_symmetry_cell_setting 'orthorhombic'
loop_
_space_group_symop_operation_xyz
x,y,z
-x,-y,z
x,-y,-z
-x,y,-z
-x,-y,-z
x,y,-z
-x,y,z
x,-y,z
loop_
_atom_site_type_symbol
_atom_site_label
_atom_site_fract_x
_atom_site_fract_y
_atom_site_fract_z
Si Si1 0.320130 0.649801 0.603163
Si Si2 0.674275 0.935761 0.607281
Si Si3 0.679316 0.736468 0.755727
Si Si4 0.672672 0.935371 0.107045
Si Si5 0.180070 0.348797 0.893389
Si Si6 0.319458 0.435601 0.757238
Si Si7 0.824062 0.142589 0.750120
O O1 0.245033 0.649740 0.500000
O O2 0.500000 0.649292 0.591841
O O3 0.268696 0.705509 0.660428
O O4 0.267398 0.594619 0.661449
O O5 0.714520 0.931160 0.500000
O O6 0.500000 0.917680 0.625875
O O7 0.787440 0.894154 0.659734
O O8 0.699868 0.000000 0.642348
O O9 0.500000 0.729944 0.769972
O O10 0.758880 0.707809 0.844055
O O11 0.723269 0.801486 0.749178
O O12 0.500000 0.927285 0.144074
O O13 0.786577 0.894004 0.159420
O O14 0.724663 0.000000 0.123034
O O15 0.680872 0.919154 0.000000
O O16 0.245927 0.405083 0.845561
O O17 0.000000 0.349858 0.885014
O O18 0.233576 0.347937 0.000000
O O19 0.500000 0.431571 0.768623
O O20 0.261566 0.500000 0.753818
O O21 0.000000 0.159622 0.750685
#
# Coordination Sequence:
#
# PCOD8199745 Si02
#       7
#     8   8   8   8   8   8   8
#     4   8  15  30  53  79 104 132 170 216 261 300
#     4   9  19  37  59  80 104 139 183 226 266 314
#     4  10  21  37  56  77 102 136 179 222 262 310
#     4   9  19  37  59  80 103 135 176 219 263 316
#     4  10  21  37  56  77 104 139 176 218 271 320
#     4   9  18  32  52  81 113 143 177 214 252 303
#     4  12  24  35  52  80 112 143 174 215 271 327
#
# _framework density 18.746607000000001
#
# number of rings (size 3 to 8) (size 9 to 14) (size 15 to 20)
#    0.000    2.429    0.000    4.286    0.000    6.000 
#    0.000    5.714    0.000   10.286    0.000    4.000 
#    0.000    0.000    0.000    0.000    0.000    0.000 
#
# Total GULP energy -694402.290203 kJ/mol
# GULP energy per Si atom -12400.040896 kJ/mol
# Density = 1.870394 g / cm^3
# Si number density = 18.746607 Si / 1000 Ang^3
#
#
#
# Elastic Constant Matrix: (Units=GPa)
#
#
# Indices 1 2 3 4 5 6 
#
# 1 40.5740 18.0309 28.5686 0.0000 0.0000 0.0000
# 2 18.0309 121.6555 58.8416 0.0000 0.0000 0.0000
# 3 28.5686 58.8416 141.8254 0.0000 0.0000 0.0000
# 4 0.0000 0.0000 0.0000 22.0492 0.0000 0.0000
# 5 0.0000 0.0000 0.0000 0.0000 17.9175 0.0000
# 6 0.0000 0.0000 0.0000 0.0000 0.0000 18.3709
#
#
#
# Elastic Compliance Matrix: (Units=1/GPa)
#
#
# Indices 1 2 3 4 5 6 
#
# 1 0.029047 -0.001845 -0.005085 0.000000 0.000000 0.000000
# 2 -0.001845 0.010401 -0.003943 0.000000 0.000000 0.000000
# 3 -0.005085 -0.003943 0.009711 0.000000 0.000000 0.000000
# 4 0.000000 0.000000 0.000000 0.045353 0.000000 0.000000
# 5 0.000000 0.000000 0.000000 0.000000 0.055812 0.000000
# 6 0.000000 0.000000 0.000000 0.000000 0.000000 0.054434
#
#
# Mechanical properties :
#
#
# Convention : Reuss Voigt Hill
#
# Bulk Modulus (GPa) = 36.48211 57.21524 46.84868
# Shear Modulus (GPa) = 21.21848 24.90842 23.06345
#
# Velocity S-wave (km/s) = 3.36796 3.64907 3.51133
# Velocity P-wave (km/s) = 5.88448 6.95276 6.44081
#
# Compressibility (1/GPa) = 0.02741069
#
# Stress axis : x y z
#
# Youngs Moduli (GPa) = 34.42671 96.14669 102.97188
#
# Poissons Ratio (x) = 0.17743 0.52366
# Poissons Ratio (y) = 0.06353 0.40606
# Poissons Ratio (z) = 0.17508 0.37915
#
# Static dielectric constant tensor:
#      x y z
#    x 3.213760 0.000000 0.000000 
#    y 0.000000 3.466500 0.000000 
#    z 0.000000 0.000000 3.617910 
# 
# 
# High freq. dielectric constant tensor:
#      x y z
#    x 1.708670 0.000000 0.000000 
#    y 0.000000 1.729280 0.000000 
#    z 0.000000 0.000000 1.737050 
# 
# From -- ./inp_files/7227.got.cif
#   From: 2010.03.12/outbox.cif.g09.slc.cpg/sg47_4_cif.got.tgz:7227.got - 2010.04.14 03:12:58.
