data_PCOD8199508
_publ_section_title
;
Structure prediction by ZEFSAII (Michael W. Deem and Ramdas Pophale) SiO2 
 PCOD8199508
Probable space group: P M M M
;
_chemical_formula_sum "Si O2"
_cell_formula_units_Z 44
_cell_length_a 9.123195
_cell_length_b 9.241919
_cell_length_c 28.483131
_cell_angle_alpha 90.000000
_cell_angle_beta 90.000000
_cell_angle_gamma 90.000000
_cell_volume 2401.578809
_symmetry_space_group_name_H-M "P M M M"
_symmetry_group_IT_number 47
_symmetry_cell_setting 'orthorhombic'
loop_
_space_group_symop_operation_xyz
x,y,z
-x,-y,z
x,-y,-z
-x,y,-z
-x,-y,-z
x,y,-z
-x,y,z
x,-y,z
loop_
_atom_site_type_symbol
_atom_site_label
_atom_site_fract_x
_atom_site_fract_y
_atom_site_fract_z
Si Si1 0.325976 0.159873 0.637158
Si Si2 0.673649 0.668058 0.000000
Si Si3 0.828358 0.334575 0.822397
Si Si4 0.674192 0.338149 0.551123
Si Si5 0.828323 0.169138 0.916033
Si Si6 0.327762 0.833732 0.258446
O O1 0.500000 0.155902 0.632600
O O2 0.255400 0.252609 0.594916
O O3 0.284593 0.218680 0.688923
O O4 0.261126 0.000000 0.631404
O O5 0.736879 0.746614 0.954658
O O6 0.721449 0.500000 0.000000
O O7 0.500000 0.684253 0.000000
O O8 0.779095 0.500000 0.831546
O O9 0.781659 0.236210 0.866328
O O10 0.751290 0.274363 0.776449
O O11 0.000000 0.324673 0.813717
O O12 0.718401 0.271342 0.500000
O O13 0.500000 0.338537 0.555629
O O14 0.735532 0.500000 0.554245
O O15 0.000000 0.192260 0.926137
O O16 0.787139 0.000000 0.916594
O O17 0.500000 0.821026 0.250260
O O18 0.277547 0.000000 0.250460
#
# Coordination Sequence:
#
# PCOD8199508 Si02
#       6
#     8   4   8   8   8   8
#     4   8  14  24  37  55  81 113 150 191 234 282
#     4  11  24  39  56  82 114 143 170 203 244 288
#     4  10  21  36  54  77 103 131 166 207 248 291
#     4   8  13  20  30  47  74 109 148 188 230 278
#     4  10  21  38  60  82 103 133 172 208 246 293
#     4   9  18  32  49  70  97 129 164 202 246 296
#
# _framework density 18.321280999999999
#
# number of rings (size 3 to 8) (size 9 to 14) (size 15 to 20)
#    0.000    2.818    0.000    3.273    0.000    6.182 
#    0.000    3.636    0.000    0.000    0.000    0.000 
#    0.000    0.727    0.000    8.000    0.000   13.091 
#
# Total GULP energy -545371.688435 kJ/mol
# GULP energy per Si atom -12394.811101 kJ/mol
# Density = 1.827958 g / cm^3
# Si number density = 18.321281 Si / 1000 Ang^3
#
#
#
# Elastic Constant Matrix: (Units=GPa)
#
#
# Indices 1 2 3 4 5 6 
#
# 1 26.4942 36.9382 42.5887 0.0000 0.0000 0.0000
# 2 36.9382 131.4763 93.5572 0.0000 0.0000 0.0000
# 3 42.5887 93.5572 174.7442 0.0000 0.0000 0.0000
# 4 0.0000 0.0000 0.0000 19.1934 0.0000 0.0000
# 5 0.0000 0.0000 0.0000 0.0000 -528.7117 0.0000
# 6 0.0000 0.0000 0.0000 0.0000 0.0000 22.0969
#
#
#
# Elastic Compliance Matrix: (Units=1/GPa)
#
#
# Indices 1 2 3 4 5 6 
#
# 1 0.073212 -0.012716 -0.011035 0.000000 0.000000 0.000000
# 2 -0.012716 0.014496 -0.004662 0.000000 0.000000 0.000000
# 3 -0.011035 -0.004662 0.010908 0.000000 0.000000 0.000000
# 4 0.000000 0.000000 0.000000 0.052101 0.000000 0.000000
# 5 0.000000 0.000000 0.000000 0.000000 -0.001891 0.000000
# 6 0.000000 0.000000 0.000000 0.000000 0.000000 0.045255
#
#
# Mechanical properties :
#
#
# Convention : Reuss Voigt Hill
#
# Bulk Modulus (GPa) = 23.92959 75.43144 49.68051
# Shear Modulus (GPa) = 18.87960 -86.84223 -33.98132
#
# Velocity S-wave (km/s) = 3.21358 -6.89221 -4.31135
# Velocity P-wave (km/s) = 5.18256 4.69850 1.54646
#
# Compressibility (1/GPa) = 0.04178927
#
# Stress axis : x y z
#
# Youngs Moduli (GPa) = 13.65906 68.98509 91.67635
#
# Poissons Ratio (x) = 0.87725 1.01163
# Poissons Ratio (y) = 0.17370 0.42737
# Poissons Ratio (z) = 0.15072 0.32159
#
# Static dielectric constant tensor:
#      x y z
#    x 2.906530 0.000000 0.000000 
#    y 0.000000 3.611700 0.000000 
#    z 0.000000 0.000000 3.732750 
# 
# 
# High freq. dielectric constant tensor:
#      x y z
#    x 1.659310 0.000000 0.000000 
#    y 0.000000 1.713980 0.000000 
#    z 0.000000 0.000000 1.730830 
# 
# From -- ./inp_files/13603.got.cif
#   From: 2010.03.12/outbox.cif.g09.slc.cpg/sg47_7_cif.got.tgz:13603.got - 2010.04.14 03:12:58.
