data_PCOD8199005
_publ_section_title
;
Structure prediction by ZEFSAII (Michael W. Deem and Ramdas Pophale) SiO2 
 PCOD8199005
Probable space group: P M M M
;
_chemical_formula_sum "Si O2"
_cell_formula_units_Z 44
_cell_length_a 9.323160
_cell_length_b 7.932368
_cell_length_c 29.792044
_cell_angle_alpha 90.000000
_cell_angle_beta 90.000000
_cell_angle_gamma 90.000000
_cell_volume 2203.262750
_symmetry_space_group_name_H-M "P M M M"
_symmetry_group_IT_number 47
_symmetry_cell_setting 'orthorhombic'
loop_
_space_group_symop_operation_xyz
x,y,z
-x,-y,z
x,-y,-z
-x,y,-z
-x,-y,-z
x,y,-z
-x,y,z
x,-y,z
loop_
_atom_site_type_symbol
_atom_site_label
_atom_site_fract_x
_atom_site_fract_y
_atom_site_fract_z
Si Si1 0.165215 0.500000 0.053049
Si Si2 0.337667 0.301897 0.449453
Si Si3 0.339965 0.198637 0.713566
Si Si4 0.331147 0.809249 0.903244
Si Si5 0.669395 0.688677 0.808343
Si Si6 0.842825 0.194624 0.632462
O O1 0.242615 0.329351 0.069390
O O2 0.000000 0.500000 0.069609
O O3 0.173670 0.500000 0.000000
O O4 0.292154 0.251972 0.500000
O O5 0.500000 0.241741 0.440273
O O6 0.325112 0.500000 0.442486
O O7 0.233431 0.210157 0.415284
O O8 0.500000 0.276449 0.710102
O O9 0.265919 0.243531 0.761416
O O10 0.247622 0.279340 0.672970
O O11 0.348925 0.000000 0.708612
O O12 0.500000 0.768073 0.908697
O O13 0.284371 0.800898 0.850896
O O14 0.297583 0.000000 0.920328
O O15 0.500000 0.695883 0.803336
O O16 0.724774 0.500000 0.817453
O O17 0.000000 0.280474 0.630178
O O18 0.860622 0.000000 0.643858
#
# Coordination Sequence:
#
# PCOD8199005 Si02
#       6
#     4   8   8   8   8   8
#     4  11  25  43  61  85 123 167 207 249 298 359
#     4   9  19  36  56  76  97 124 164 215 268 323
#     4   9  17  30  49  73 102 139 181 221 265 320
#     4  10  20  37  64  94 122 155 199 253 308 358
#     4   9  16  29  53  84 114 143 181 233 287 337
#     4  10  21  35  50  72 105 141 175 214 262 318
#
# _framework density 19.970383000000002
#
# number of rings (size 3 to 8) (size 9 to 14) (size 15 to 20)
#    0.000    2.455    0.909    1.909    0.000    6.545 
#    0.000    7.273    0.000    2.182    0.000    0.000 
#    0.000    0.000    0.000    0.000    0.000    0.000 
#
# Total GULP energy -545386.811515 kJ/mol
# GULP energy per Si atom -12395.154807 kJ/mol
# Density = 1.992493 g / cm^3
# Si number density = 19.970383 Si / 1000 Ang^3
#
#
#
# Elastic Constant Matrix: (Units=GPa)
#
#
# Indices 1 2 3 4 5 6 
#
# 1 100.8302 39.2004 62.9914 0.0000 0.0000 0.0000
# 2 39.2004 75.4823 35.9328 0.0000 0.0000 0.0000
# 3 62.9914 35.9328 125.0672 0.0000 0.0000 0.0000
# 4 0.0000 0.0000 0.0000 31.4813 0.0000 0.0000
# 5 0.0000 0.0000 0.0000 0.0000 6.4040 0.0000
# 6 0.0000 0.0000 0.0000 0.0000 0.0000 14.4202
#
#
#
# Elastic Compliance Matrix: (Units=1/GPa)
#
#
# Indices 1 2 3 4 5 6 
#
# 1 0.016059 -0.005201 -0.006594 0.000000 0.000000 0.000000
# 2 -0.005201 0.017032 -0.002274 0.000000 0.000000 0.000000
# 3 -0.006594 -0.002274 0.011970 0.000000 0.000000 0.000000
# 4 0.000000 0.000000 0.000000 0.031765 0.000000 0.000000
# 5 0.000000 0.000000 0.000000 0.000000 0.156152 0.000000
# 6 0.000000 0.000000 0.000000 0.000000 0.000000 0.069347
#
#
# Mechanical properties :
#
#
# Convention : Reuss Voigt Hill
#
# Bulk Modulus (GPa) = 59.09041 64.18099 61.63570
# Shear Modulus (GPa) = 14.87635 21.34476 18.11056
#
# Velocity S-wave (km/s) = 2.73228 3.27283 3.01470
# Velocity P-wave (km/s) = 6.29342 6.81834 6.56113
#
# Compressibility (1/GPa) = 0.01692322
#
# Stress axis : x y z
#
# Youngs Moduli (GPa) = 62.26961 58.71438 83.54103
#
# Poissons Ratio (x) = 0.30537 0.55088
# Poissons Ratio (y) = 0.32386 0.18995
# Poissons Ratio (z) = 0.41061 0.13350
#
# Static dielectric constant tensor:
#      x y z
#    x 3.675800 0.000000 0.000000 
#    y 0.000000 3.490230 0.000000 
#    z 0.000000 0.000000 3.811130 
# 
# 
# High freq. dielectric constant tensor:
#      x y z
#    x 1.747770 0.000000 0.000000 
#    y 0.000000 1.770400 0.000000 
#    z 0.000000 0.000000 1.789500 
# 
# From -- ./inp_files/33912.got.cif
#   From: 2010.03.12/outbox.cif.g09.slc.cpg/sg47_17_cif.got.tgz:33912.got - 2010.04.14 03:12:58.
