data_PCOD8199395
_publ_section_title
;
Structure prediction by ZEFSAII (Michael W. Deem and Ramdas Pophale) SiO2 
 PCOD8199395
Probable space group: P M M M
;
_chemical_formula_sum "Si O2"
_cell_formula_units_Z 36
_cell_length_a 16.216593
_cell_length_b 9.025800
_cell_length_c 13.556242
_cell_angle_alpha 90.000000
_cell_angle_beta 90.000000
_cell_angle_gamma 90.000000
_cell_volume 1984.196302
_symmetry_space_group_name_H-M "P M M M"
_symmetry_group_IT_number 47
_symmetry_cell_setting 'orthorhombic'
loop_
_space_group_symop_operation_xyz
x,y,z
-x,-y,z
x,-y,-z
-x,y,-z
-x,-y,-z
x,y,-z
-x,y,z
x,-y,z
loop_
_atom_site_type_symbol
_atom_site_label
_atom_site_fract_x
_atom_site_fract_y
_atom_site_fract_z
Si Si1 0.592791 0.175123 0.195854
Si Si2 0.746849 0.670766 0.887503
Si Si3 0.000000 0.823596 0.611596
Si Si4 0.164964 0.825557 0.283577
Si Si5 0.671269 0.174107 0.607143
O O1 0.500000 0.217451 0.164474
O O2 0.656876 0.255316 0.124341
O O3 0.607801 0.229100 0.308892
O O4 0.608462 0.000000 0.187510
O O5 0.739092 0.500000 0.857488
O O6 0.816582 0.746834 0.820347
O O7 0.775396 0.690402 0.000000
O O8 0.079819 0.765850 0.670690
O O9 0.000000 0.759857 0.500000
O O10 0.000000 0.000000 0.606521
O O11 0.236094 0.783966 0.361241
O O12 0.161776 0.000000 0.263141
O O13 0.652074 0.247672 0.500000
O O14 0.662898 0.000000 0.596101
#
# Coordination Sequence:
#
# PCOD8199395 Si02
#       5
#     8   8   4   8   8
#     4   9  18  31  48  73 100 124 156 200 247 293
#     4  10  21  36  52  68  90 126 168 206 246 290
#     4   9  16  28  52  85 112 130 155 195 238 281
#     4   9  17  30  50  76 102 127 158 197 240 284
#     4   8  13  23  42  68  97 127 156 186 224 275
#
# _framework density 18.143366
#
# number of rings (size 3 to 8) (size 9 to 14) (size 15 to 20)
#    0.000    3.000    0.000    2.667    0.000    5.778 
#    0.000    5.556    0.000   20.667    0.000    6.222 
#    0.000    0.000    0.000    0.000    0.000    0.000 
#
# Total GULP energy -446227.849458 kJ/mol
# GULP energy per Si atom -12395.218040 kJ/mol
# Density = 1.810207 g / cm^3
# Si number density = 18.143366 Si / 1000 Ang^3
#
#
#
# Elastic Constant Matrix: (Units=GPa)
#
#
# Indices 1 2 3 4 5 6 
#
# 1 112.8570 32.2998 41.2532 0.0000 0.0000 0.0000
# 2 32.2998 46.1455 35.6836 0.0000 0.0000 0.0000
# 3 41.2532 35.6836 109.1793 0.0000 0.0000 0.0000
# 4 0.0000 0.0000 0.0000 5.3455 0.0000 0.0000
# 5 0.0000 0.0000 0.0000 0.0000 19.8704 0.0000
# 6 0.0000 0.0000 0.0000 0.0000 0.0000 9.8414
#
#
#
# Elastic Compliance Matrix: (Units=1/GPa)
#
#
# Indices 1 2 3 4 5 6 
#
# 1 0.011494 -0.006272 -0.002293 0.000000 0.000000 0.000000
# 2 -0.006272 0.032423 -0.008227 0.000000 0.000000 0.000000
# 3 -0.002293 -0.008227 0.012715 0.000000 0.000000 0.000000
# 4 0.000000 0.000000 0.000000 0.187072 0.000000 0.000000
# 5 0.000000 0.000000 0.000000 0.000000 0.050326 0.000000
# 6 0.000000 0.000000 0.000000 0.000000 0.000000 0.101612
#
#
# Mechanical properties :
#
#
# Convention : Reuss Voigt Hill
#
# Bulk Modulus (GPa) = 43.38975 54.07277 48.73126
# Shear Modulus (GPa) = 11.44407 17.60781 14.52594
#
# Velocity S-wave (km/s) = 2.51421 3.11864 2.83259
# Velocity P-wave (km/s) = 5.69168 6.54489 6.13314
#
# Compressibility (1/GPa) = 0.02304692
#
# Stress axis : x y z
#
# Youngs Moduli (GPa) = 87.00151 30.84272 78.65030
#
# Poissons Ratio (x) = 0.19345 0.18035
# Poissons Ratio (y) = 0.54569 0.64705
# Poissons Ratio (z) = 0.19950 0.25374
#
# Static dielectric constant tensor:
#      x y z
#    x 3.399920 0.000000 0.000000 
#    y 0.000000 2.974710 0.000000 
#    z 0.000000 0.000000 3.518880 
# 
# 
# High freq. dielectric constant tensor:
#      x y z
#    x 1.695880 0.000000 0.000000 
#    y 0.000000 1.660020 0.000000 
#    z 0.000000 0.000000 1.709390 
# 
# From -- ./inp_files/5553.got.cif
#   From: 2010.03.12/outbox.cif.g09.slc.cpg/sg47_3_cif.got.tgz:5553.got - 2010.04.14 03:12:58.
