data_PCOD8199778
_publ_section_title
;
Structure prediction by ZEFSAII (Michael W. Deem and Ramdas Pophale) SiO2 
 PCOD8199778
Probable space group: P M M M
;
_chemical_formula_sum "Si O2"
_cell_formula_units_Z 48
_cell_length_a 9.124544
_cell_length_b 14.466515
_cell_length_c 18.202976
_cell_angle_alpha 90.000000
_cell_angle_beta 90.000000
_cell_angle_gamma 90.000000
_cell_volume 2402.799251
_symmetry_space_group_name_H-M "P M M M"
_symmetry_group_IT_number 47
_symmetry_cell_setting 'orthorhombic'
loop_
_space_group_symop_operation_xyz
x,y,z
-x,-y,z
x,-y,-z
-x,y,-z
-x,-y,-z
x,y,-z
-x,y,z
x,-y,z
loop_
_atom_site_type_symbol
_atom_site_label
_atom_site_fract_x
_atom_site_fract_y
_atom_site_fract_z
Si Si1 0.835544 0.890669 0.500000
Si Si2 0.673150 0.893776 0.646036
Si Si3 0.331333 0.391683 0.416602
Si Si4 0.169543 0.271250 0.297249
Si Si5 0.831552 0.275997 0.134408
Si Si6 0.671158 0.103198 0.915616
Si Si7 0.174756 0.603321 0.000000
O O1 0.744960 0.857702 0.570445
O O2 0.000000 0.848205 0.500000
O O3 0.845068 0.000000 0.500000
O O4 0.500000 0.881149 0.640635
O O5 0.742003 0.825948 0.706471
O O6 0.714075 0.000000 0.664096
O O7 0.288358 0.363350 0.500000
O O8 0.500000 0.365559 0.401395
O O9 0.305960 0.500000 0.405581
O O10 0.229981 0.339444 0.358917
O O11 0.188507 0.317516 0.216487
O O12 0.000000 0.250482 0.314009
O O13 0.755154 0.176687 0.133403
O O14 0.000000 0.259011 0.115572
O O15 0.765240 0.345376 0.073239
O O16 0.500000 0.119805 0.905423
O O17 0.712901 0.000000 0.888835
O O18 0.717383 0.116201 0.000000
O O19 0.240079 0.500000 0.000000
O O20 0.000000 0.599208 0.000000
#
# Coordination Sequence:
#
# PCOD8199778 Si02
#       7
#     4   8   8   8   8   8   4
#     4   9  17  31  53  79 108 143 186 241 293 333
#     4  10  21  37  56  79 111 156 204 242 283 341
#     4   9  20  41  66  88 112 147 192 240 292 352
#     4  11  24  37  55  87 122 155 192 240 294 342
#     4  10  21  37  57  84 116 151 193 236 280 336
#     4   9  18  33  55  83 114 150 189 232 286 340
#     4   9  18  36  62  85 108 144 187 231 282 339
#
# _framework density 19.976699
#
# number of rings (size 3 to 8) (size 9 to 14) (size 15 to 20)
#    0.000    2.333    0.833    2.250    1.167    5.667 
#    0.000    6.667    0.000    1.000    0.000    0.000 
#    0.000    0.000    0.000    0.000    0.000    0.000 
#
# Total GULP energy -595122.556130 kJ/mol
# GULP energy per Si atom -12398.386586 kJ/mol
# Density = 1.993123 g / cm^3
# Si number density = 19.976699 Si / 1000 Ang^3
#
#
#
# Elastic Constant Matrix: (Units=GPa)
#
#
# Indices 1 2 3 4 5 6 
#
# 1 84.0844 39.8535 50.2045 0.0000 0.0000 0.0000
# 2 39.8535 100.0851 61.0896 0.0000 0.0000 0.0000
# 3 50.2045 61.0896 125.4998 0.0000 0.0000 0.0000
# 4 0.0000 0.0000 0.0000 20.9950 0.0000 0.0000
# 5 0.0000 0.0000 0.0000 0.0000 22.5319 0.0000
# 6 0.0000 0.0000 0.0000 0.0000 0.0000 28.7838
#
#
#
# Elastic Compliance Matrix: (Units=1/GPa)
#
#
# Indices 1 2 3 4 5 6 
#
# 1 0.016495 -0.003615 -0.004839 0.000000 0.000000 0.000000
# 2 -0.003615 0.015007 -0.005859 0.000000 0.000000 0.000000
# 3 -0.004839 -0.005859 0.012756 0.000000 0.000000 0.000000
# 4 0.000000 0.000000 0.000000 0.047630 0.000000 0.000000
# 5 0.000000 0.000000 0.000000 0.000000 0.044381 0.000000
# 6 0.000000 0.000000 0.000000 0.000000 0.000000 0.034742
#
#
# Mechanical properties :
#
#
# Convention : Reuss Voigt Hill
#
# Bulk Modulus (GPa) = 63.96863 67.99604 65.98234
# Shear Modulus (GPa) = 24.40824 25.03026 24.71925
#
# Velocity S-wave (km/s) = 3.49927 3.54358 3.52149
# Velocity P-wave (km/s) = 6.95828 7.13121 7.04527
#
# Compressibility (1/GPa) = 0.01563266
#
# Stress axis : x y z
#
# Youngs Moduli (GPa) = 60.62281 66.63555 78.39444
#
# Poissons Ratio (x) = 0.24086 0.37937
# Poissons Ratio (y) = 0.21913 0.45931
# Poissons Ratio (z) = 0.29337 0.39042
#
# Static dielectric constant tensor:
#      x y z
#    x 3.496870 0.000000 0.000000 
#    y 0.000000 3.605350 0.000000 
#    z 0.000000 0.000000 3.675420 
# 
# 
# High freq. dielectric constant tensor:
#      x y z
#    x 1.767770 0.000000 0.000000 
#    y 0.000000 1.774210 0.000000 
#    z 0.000000 0.000000 1.781920 
# 
# From -- ./inp_files/26494.got.cif
#   From: 2010.03.12/outbox.cif.g09.slc.cpg/sg47_14_cif.got.tgz:26494.got - 2010.04.14 03:12:58.
