data_PCOD8199108
_publ_section_title
;
Structure prediction by ZEFSAII (Michael W. Deem and Ramdas Pophale) SiO2 
 PCOD8199108
Probable space group: P M M M
;
_chemical_formula_sum "Si O2"
_cell_formula_units_Z 64
_cell_length_a 24.158212
_cell_length_b 14.928266
_cell_length_c 9.090952
_cell_angle_alpha 90.000000
_cell_angle_beta 90.000000
_cell_angle_gamma 90.000000
_cell_volume 3278.562882
_symmetry_space_group_name_H-M "P M M M"
_symmetry_group_IT_number 47
_symmetry_cell_setting 'orthorhombic'
loop_
_space_group_symop_operation_xyz
x,y,z
-x,-y,z
x,-y,-z
-x,y,-z
-x,-y,-z
x,y,-z
-x,y,z
x,-y,z
loop_
_atom_site_type_symbol
_atom_site_label
_atom_site_fract_x
_atom_site_fract_y
_atom_site_fract_z
Si Si1 0.887463 0.100663 0.171730
Si Si2 0.843673 0.602731 0.328849
Si Si3 0.760239 0.103488 0.831371
Si Si4 0.269747 0.603232 0.826404
Si Si5 0.564337 0.596517 0.839930
Si Si6 0.938036 0.263820 0.327721
Si Si7 0.440232 0.767998 0.670573
Si Si8 0.321627 0.766844 0.674384
O O1 0.823749 0.122164 0.208386
O O2 0.927094 0.167987 0.255920
O O3 0.901882 0.000000 0.223181
O O4 0.898385 0.110852 0.000000
O O5 0.830950 0.620222 0.500000
O O6 0.859806 0.500000 0.299979
O O7 0.789929 0.630987 0.237184
O O8 0.895043 0.661575 0.270523
O O9 0.724556 0.163656 0.722905
O O10 0.745337 0.000000 0.804852
O O11 0.747886 0.130104 0.000000
O O12 0.283743 0.500000 0.785001
O O13 0.314925 0.670530 0.756014
O O14 0.268259 0.617361 0.000000
O O15 0.500000 0.582532 0.860646
O O16 0.591701 0.500000 0.799694
O O17 0.574130 0.665476 0.708731
O O18 0.588580 0.628953 0.000000
O O19 0.931392 0.251094 0.500000
O O20 0.000000 0.295461 0.286251
O O21 0.449939 0.778228 0.500000
O O22 0.500000 0.799153 0.745311
O O23 0.381803 0.813989 0.715913
O O24 0.317854 0.750429 0.500000
#
# Coordination Sequence:
#
# PCOD8199108 Si02
#       8
#     8   8   8   8   8   8   8   8
#     4   9  19  36  56  77 102 134 170 207 253 309
#     4   9  18  34  55  76 101 136 177 221 266 309
#     4   9  19  37  60  84 108 133 165 211 266 319
#     4  10  21  36  54  77 106 140 177 218 266 318
#     4   8  14  25  41  61  85 115 155 202 245 284
#     4  10  21  34  49  75 109 142 177 215 255 301
#     4   9  19  34  48  65  94 132 170 205 245 297
#     4  11  22  34  53  80 107 136 171 214 261 310
#
# _framework density 19.520748999999999
#
# number of rings (size 3 to 8) (size 9 to 14) (size 15 to 20)
#    0.000    2.625    0.000    2.625    0.000    6.750 
#    0.000    7.500    0.000    0.375    0.000    5.250 
#    0.000    0.000    0.000    0.000    0.000    0.000 
#
# Total GULP energy -792919.809976 kJ/mol
# GULP energy per Si atom -12389.372031 kJ/mol
# Density = 1.947632 g / cm^3
# Si number density = 19.520749 Si / 1000 Ang^3
#
#
#
# Elastic Constant Matrix: (Units=GPa)
#
#
# Indices 1 2 3 4 5 6 
#
# 1 120.6085 32.3891 36.8428 0.0000 0.0000 0.0000
# 2 32.3891 53.2194 18.7168 0.0000 0.0000 0.0000
# 3 36.8428 18.7168 41.1353 0.0000 0.0000 0.0000
# 4 0.0000 0.0000 0.0000 29.2098 0.0000 0.0000
# 5 0.0000 0.0000 0.0000 0.0000 12.8034 0.0000
# 6 0.0000 0.0000 0.0000 0.0000 0.0000 5.8791
#
#
#
# Elastic Compliance Matrix: (Units=1/GPa)
#
#
# Indices 1 2 3 4 5 6 
#
# 1 0.012173 -0.004255 -0.008967 0.000000 0.000000 0.000000
# 2 -0.004255 0.023857 -0.007044 0.000000 0.000000 0.000000
# 3 -0.008967 -0.007044 0.035546 0.000000 0.000000 0.000000
# 4 0.000000 0.000000 0.000000 0.034235 0.000000 0.000000
# 5 0.000000 0.000000 0.000000 0.000000 0.078104 0.000000
# 6 0.000000 0.000000 0.000000 0.000000 0.000000 0.170094
#
#
# Mechanical properties :
#
#
# Convention : Reuss Voigt Hill
#
# Bulk Modulus (GPa) = 32.21175 43.42899 37.82037
# Shear Modulus (GPa) = 12.34904 18.04608 15.19756
#
# Velocity S-wave (km/s) = 2.51790 3.04379 2.79325
# Velocity P-wave (km/s) = 4.99902 5.88632 5.46072
#
# Compressibility (1/GPa) = 0.03104457
#
# Stress axis : x y z
#
# Youngs Moduli (GPa) = 82.14864 41.91634 28.13238
#
# Poissons Ratio (x) = 0.17835 0.25226
# Poissons Ratio (y) = 0.34954 0.19817
# Poissons Ratio (z) = 0.73661 0.29527
#
# Static dielectric constant tensor:
#      x y z
#    x 3.846080 0.000000 0.000000 
#    y 0.000000 3.484830 0.000000 
#    z 0.000000 0.000000 3.428420 
# 
# 
# High freq. dielectric constant tensor:
#      x y z
#    x 1.773840 0.000000 0.000000 
#    y 0.000000 1.737820 0.000000 
#    z 0.000000 0.000000 1.748710 
# 
# From -- ./inp_files/7866.got.cif
#   From: 2010.03.12/outbox.cif.g09.slc.cpg/sg47_4_cif.got.tgz:7866.got - 2010.04.14 03:12:58.
