data_PCOD8199802
_publ_section_title
;
Structure prediction by ZEFSAII (Michael W. Deem and Ramdas Pophale) SiO2 
 PCOD8199802
Probable space group: P M M M
;
_chemical_formula_sum "Si O2"
_cell_formula_units_Z 48
_cell_length_a 9.221712
_cell_length_b 9.258777
_cell_length_c 30.721851
_cell_angle_alpha 90.000000
_cell_angle_beta 90.000000
_cell_angle_gamma 90.000000
_cell_volume 2623.086169
_symmetry_space_group_name_H-M "P M M M"
_symmetry_group_IT_number 47
_symmetry_cell_setting 'orthorhombic'
loop_
_space_group_symop_operation_xyz
x,y,z
-x,-y,z
x,-y,-z
-x,y,-z
-x,-y,-z
x,y,-z
-x,y,z
x,-y,z
loop_
_atom_site_type_symbol
_atom_site_label
_atom_site_fract_x
_atom_site_fract_y
_atom_site_fract_z
Si Si1 0.830738 0.668682 0.301269
Si Si2 0.830816 0.834111 0.784874
Si Si3 0.331837 0.168113 0.129968
Si Si4 0.670977 0.832672 0.377758
Si Si5 0.327609 0.337018 0.047603
Si Si6 0.833084 0.334721 0.550629
O O1 0.794458 0.500000 0.300131
O O2 0.781163 0.738047 0.255774
O O3 0.740799 0.742787 0.339052
O O4 0.000000 0.697358 0.309936
O O5 0.748929 0.773617 0.827253
O O6 0.000000 0.818123 0.793971
O O7 0.787755 0.000000 0.775186
O O8 0.500000 0.206423 0.135543
O O9 0.263970 0.241466 0.086848
O O10 0.304044 0.000000 0.124191
O O11 0.500000 0.810193 0.376690
O O12 0.730633 0.773681 0.423380
O O13 0.713780 0.000000 0.372928
O O14 0.500000 0.329368 0.048568
O O15 0.273780 0.500000 0.054695
O O16 0.273621 0.280984 0.000000
O O17 0.803531 0.307972 0.500000
O O18 0.796420 0.500000 0.563209
O O19 0.000000 0.302052 0.562232
#
# Coordination Sequence:
#
# PCOD8199802 Si02
#       6
#     8   8   8   8   8   8
#     4  10  21  37  57  79 101 129 170 215 255 301
#     4   9  18  33  51  70  96 130 162 194 241 299
#     4   9  17  28  44  68  94 119 152 196 240 281
#     4  11  24  38  53  78 111 143 174 211 256 304
#     4   8  14  25  41  62  89 120 153 190 234 284
#     4   9  19  37  60  84 109 139 177 218 257 300
#
# _framework density 18.299054999999999
#
# number of rings (size 3 to 8) (size 9 to 14) (size 15 to 20)
#    0.000    2.667    0.000    2.500    0.000    7.000 
#    0.000    5.833    0.000    0.500    0.000    3.500 
#    0.000    0.000    0.000    0.000    0.000    0.000 
#
# Total GULP energy -595185.453837 kJ/mol
# GULP energy per Si atom -12399.696955 kJ/mol
# Density = 1.825741 g / cm^3
# Si number density = 18.299055 Si / 1000 Ang^3
#
#
#
# Elastic Constant Matrix: (Units=GPa)
#
#
# Indices 1 2 3 4 5 6 
#
# 1 48.3003 46.1036 54.5634 0.0000 0.0000 0.0000
# 2 46.1036 100.0589 79.7512 0.0000 0.0000 0.0000
# 3 54.5634 79.7512 155.6338 0.0000 0.0000 0.0000
# 4 0.0000 0.0000 0.0000 40.4601 0.0000 0.0000
# 5 0.0000 0.0000 0.0000 0.0000 61.1703 0.0000
# 6 0.0000 0.0000 0.0000 0.0000 0.0000 23.1879
#
#
#
# Elastic Compliance Matrix: (Units=1/GPa)
#
#
# Indices 1 2 3 4 5 6 
#
# 1 0.042356 -0.012983 -0.008197 0.000000 0.000000 0.000000
# 2 -0.012983 0.020874 -0.006145 0.000000 0.000000 0.000000
# 3 -0.008197 -0.006145 0.012448 0.000000 0.000000 0.000000
# 4 0.000000 0.000000 0.000000 0.024716 0.000000 0.000000
# 5 0.000000 0.000000 0.000000 0.000000 0.016348 0.000000
# 6 0.000000 0.000000 0.000000 0.000000 0.000000 0.043126
#
#
# Mechanical properties :
#
#
# Convention : Reuss Voigt Hill
#
# Bulk Modulus (GPa) = 47.55397 73.86993 60.71195
# Shear Modulus (GPa) = 22.57087 33.20200 27.88643
#
# Velocity S-wave (km/s) = 3.51585 4.26421 3.90799
# Velocity P-wave (km/s) = 6.52113 8.04366 7.32208
#
# Compressibility (1/GPa) = 0.02102874
#
# Stress axis : x y z
#
# Youngs Moduli (GPa) = 23.60956 47.90711 80.33660
#
# Poissons Ratio (x) = 0.62198 0.65848
# Poissons Ratio (y) = 0.30652 0.49364
# Poissons Ratio (z) = 0.19352 0.29437
#
# Static dielectric constant tensor:
#      x y z
#    x 3.143670 0.000000 0.000000 
#    y 0.000000 3.427040 0.000000 
#    z 0.000000 0.000000 3.681970 
# 
# 
# High freq. dielectric constant tensor:
#      x y z
#    x 1.682540 0.000000 0.000000 
#    y 0.000000 1.707960 0.000000 
#    z 0.000000 0.000000 1.726470 
# 
# From -- ./inp_files/2428.got.cif
#   From: 2010.03.12/outbox.cif.g09.slc.cpg/sg47_2_cif.got.tgz:2428.got - 2010.04.14 03:12:58.
