data_PCOD8199012
_publ_section_title
;
Structure prediction by ZEFSAII (Michael W. Deem and Ramdas Pophale) SiO2 
 PCOD8199012
Probable space group: P M M M
;
_chemical_formula_sum "Si O2"
_cell_formula_units_Z 48
_cell_length_a 15.278310
_cell_length_b 9.282362
_cell_length_c 17.350499
_cell_angle_alpha 90.000000
_cell_angle_beta 90.000000
_cell_angle_gamma 90.000000
_cell_volume 2460.627020
_symmetry_space_group_name_H-M "P M M M"
_symmetry_group_IT_number 47
_symmetry_cell_setting 'orthorhombic'
loop_
_space_group_symop_operation_xyz
x,y,z
-x,-y,z
x,-y,-z
-x,y,-z
-x,-y,-z
x,y,-z
-x,y,z
x,-y,z
loop_
_atom_site_type_symbol
_atom_site_label
_atom_site_fract_x
_atom_site_fract_y
_atom_site_fract_z
Si Si1 0.135523 0.164497 0.817689
Si Si2 0.600903 0.330459 0.000000
Si Si3 0.400980 0.833570 0.310574
Si Si4 0.098824 0.832701 0.643955
Si Si5 0.261719 0.334236 0.587926
Si Si6 0.000000 0.337151 0.909271
Si Si7 0.664402 0.164254 0.853262
O O1 0.105205 0.211549 0.733111
O O2 0.237840 0.189978 0.824758
O O3 0.087528 0.261472 0.879986
O O4 0.109146 0.000000 0.833648
O O5 0.645241 0.268212 0.923890
O O6 0.615270 0.500000 0.000000
O O7 0.500000 0.286181 0.000000
O O8 0.500000 0.803244 0.338474
O O9 0.334733 0.737552 0.358847
O O10 0.396355 0.796787 0.219652
O O11 0.374505 0.000000 0.323353
O O12 0.166932 0.739374 0.595353
O O13 0.000000 0.801663 0.614666
O O14 0.123200 0.000000 0.633216
O O15 0.293029 0.319010 0.500000
O O16 0.252676 0.500000 0.612616
O O17 0.000000 0.500000 0.879321
O O18 0.000000 0.328115 0.000000
O O19 0.648952 0.000000 0.880333
#
# Coordination Sequence:
#
# PCOD8199012 Si02
#       7
#     8   4   8   8   8   4   8
#     4  10  20  38  62  86 113 150 197 247 295 347
#     4  11  25  41  57  84 123 160 193 237 294 355
#     4  10  21  40  67  94 119 154 204 257 304 356
#     4  10  20  39  66  92 118 152 199 251 299 352
#     4  11  25  42  60  88 128 167 200 243 302 367
#     4  11  25  39  53  83 124 161 198 241 293 352
#     4  10  21  39  64  90 116 152 199 249 300 352
#
# _framework density 19.507221999999999
#
# number of rings (size 3 to 8) (size 9 to 14) (size 15 to 20)
#    0.000    1.667    2.500    1.500    1.167    6.667 
#    0.000    3.333    0.000    0.000    0.000    0.000 
#    0.000    0.000    0.000    0.000    0.000    0.000 
#
# Total GULP energy -595388.598145 kJ/mol
# GULP energy per Si atom -12403.929128 kJ/mol
# Density = 1.946282 g / cm^3
# Si number density = 19.507222 Si / 1000 Ang^3
#
#
#
# Elastic Constant Matrix: (Units=GPa)
#
#
# Indices 1 2 3 4 5 6 
#
# 1 101.9860 48.4494 36.7939 0.0000 0.0000 0.0000
# 2 48.4494 95.8998 51.6387 0.0000 0.0000 0.0000
# 3 36.7939 51.6387 78.0212 0.0000 0.0000 0.0000
# 4 0.0000 0.0000 0.0000 44.4110 0.0000 0.0000
# 5 0.0000 0.0000 0.0000 0.0000 22.4394 0.0000
# 6 0.0000 0.0000 0.0000 0.0000 0.0000 14.0880
#
#
#
# Elastic Compliance Matrix: (Units=1/GPa)
#
#
# Indices 1 2 3 4 5 6 
#
# 1 0.013293 -0.005190 -0.002834 0.000000 0.000000 0.000000
# 2 -0.005190 0.018228 -0.009617 0.000000 0.000000 0.000000
# 3 -0.002834 -0.009617 0.020518 0.000000 0.000000 0.000000
# 4 0.000000 0.000000 0.000000 0.022517 0.000000 0.000000
# 5 0.000000 0.000000 0.000000 0.000000 0.044564 0.000000
# 6 0.000000 0.000000 0.000000 0.000000 0.000000 0.070983
#
#
# Mechanical properties :
#
#
# Convention : Reuss Voigt Hill
#
# Bulk Modulus (GPa) = 59.67191 61.07454 60.37323
# Shear Modulus (GPa) = 21.64782 25.45601 23.55192
#
# Velocity S-wave (km/s) = 3.33488 3.61633 3.47845
# Velocity P-wave (km/s) = 6.74423 6.98669 6.86653
#
# Compressibility (1/GPa) = 0.01675830
#
# Stress axis : x y z
#
# Youngs Moduli (GPa) = 75.22664 54.86157 48.73691
#
# Poissons Ratio (x) = 0.28472 0.13812
# Poissons Ratio (y) = 0.39041 0.46868
# Poissons Ratio (z) = 0.21319 0.52758
#
# Static dielectric constant tensor:
#      x y z
#    x 3.702960 0.000000 0.000000 
#    y 0.000000 3.563390 0.000000 
#    z 0.000000 0.000000 3.520590 
# 
# 
# High freq. dielectric constant tensor:
#      x y z
#    x 1.773680 0.000000 0.000000 
#    y 0.000000 1.754220 0.000000 
#    z 0.000000 0.000000 1.759650 
# 
# From -- ./inp_files/6501.got.cif
#   From: 2010.03.12/outbox.cif.g09.slc.cpg/sg47_4_cif.got.tgz:6501.got - 2010.04.14 03:12:58.
