data_PCOD8199959
_publ_section_title
;
Structure prediction by ZEFSAII (Michael W. Deem and Ramdas Pophale) SiO2 
 PCOD8199959
Probable space group: P M M M
;
_chemical_formula_sum "Si O2"
_cell_formula_units_Z 44
_cell_length_a 9.006029
_cell_length_b 15.018342
_cell_length_c 16.664550
_cell_angle_alpha 90.000000
_cell_angle_beta 90.000000
_cell_angle_gamma 90.000000
_cell_volume 2253.974102
_symmetry_space_group_name_H-M "P M M M"
_symmetry_group_IT_number 47
_symmetry_cell_setting 'orthorhombic'
loop_
_space_group_symop_operation_xyz
x,y,z
-x,-y,z
x,-y,-z
-x,y,-z
-x,-y,-z
x,y,-z
-x,y,z
x,-y,z
loop_
_atom_site_type_symbol
_atom_site_label
_atom_site_fract_x
_atom_site_fract_y
_atom_site_fract_z
Si Si1 0.671821 0.256714 0.818930
Si Si2 0.824308 0.604511 0.500000
Si Si3 0.323917 0.905438 0.409635
Si Si4 0.675404 0.283888 0.359508
Si Si5 0.163858 0.402251 0.905655
Si Si6 0.824853 0.898532 0.909010
O O1 0.500000 0.232914 0.821143
O O2 0.714575 0.301266 0.733270
O O3 0.710873 0.332626 0.882057
O O4 0.753584 0.165235 0.842058
O O5 0.782574 0.500000 0.500000
O O6 0.758321 0.648864 0.580656
O O7 0.000000 0.618626 0.500000
O O8 0.265612 0.903337 0.500000
O O9 0.500000 0.902307 0.407106
O O10 0.262324 0.817026 0.368150
O O11 0.270019 0.000000 0.369933
O O12 0.500000 0.291667 0.378065
O O13 0.202020 0.500000 0.870310
O O14 0.000000 0.371948 0.874854
O O15 0.161322 0.407942 0.000000
O O16 0.000000 0.888208 0.902877
O O17 0.776577 0.000000 0.890302
O O18 0.774052 0.872896 0.000000
#
# Coordination Sequence:
#
# PCOD8199959 Si02
#       6
#     8   4   8   8   8   8
#     4  11  23  34  52  86 120 148 181 228 286 341
#     4  11  25  43  62  83 106 138 185 239 290 335
#     4   8  13  25  51  80 100 127 170 212 248 296
#     4  10  21  38  58  81 112 148 183 220 271 338
#     4   9  19  37  59  79 102 140 187 229 275 335
#     4   9  19  37  59  81 111 158 208 242 273 324
#
# _framework density 19.521075
#
# number of rings (size 3 to 8) (size 9 to 14) (size 15 to 20)
#    0.000    2.455    0.909    3.000    0.000    7.273 
#    0.000    7.273    0.000    1.091    0.000    0.000 
#    0.000    0.000    0.000    0.000    0.000    0.000 
#
# Total GULP energy -545148.864611 kJ/mol
# GULP energy per Si atom -12389.746923 kJ/mol
# Density = 1.947664 g / cm^3
# Si number density = 19.521075 Si / 1000 Ang^3
#
#
#
# Elastic Constant Matrix: (Units=GPa)
#
#
# Indices 1 2 3 4 5 6 
#
# 1 58.4125 45.4637 43.6061 0.0000 0.0000 0.0000
# 2 45.4637 140.5218 54.4430 0.0000 0.0000 0.0000
# 3 43.6061 54.4430 80.6303 0.0000 0.0000 0.0000
# 4 0.0000 0.0000 0.0000 14.4120 0.0000 0.0000
# 5 0.0000 0.0000 0.0000 0.0000 22.4905 0.0000
# 6 0.0000 0.0000 0.0000 0.0000 0.0000 19.2740
#
#
#
# Elastic Compliance Matrix: (Units=1/GPa)
#
#
# Indices 1 2 3 4 5 6 
#
# 1 0.030906 -0.004772 -0.013492 0.000000 0.000000 0.000000
# 2 -0.004772 0.010374 -0.004424 0.000000 0.000000 0.000000
# 3 -0.013492 -0.004424 0.022687 0.000000 0.000000 0.000000
# 4 0.000000 0.000000 0.000000 0.069387 0.000000 0.000000
# 5 0.000000 0.000000 0.000000 0.000000 0.044463 0.000000
# 6 0.000000 0.000000 0.000000 0.000000 0.000000 0.051883
#
#
# Mechanical properties :
#
#
# Convention : Reuss Voigt Hill
#
# Bulk Modulus (GPa) = 53.79273 62.95447 58.37360
# Shear Modulus (GPa) = 17.77629 20.30542 19.04085
#
# Velocity S-wave (km/s) = 3.02092 3.22868 3.12653
# Velocity P-wave (km/s) = 6.30746 6.79843 6.55754
#
# Compressibility (1/GPa) = 0.01858987
#
# Stress axis : x y z
#
# Youngs Moduli (GPa) = 32.35623 96.39239 44.07889
#
# Poissons Ratio (x) = 0.45995 0.59473
# Poissons Ratio (y) = 0.15439 0.19502
# Poissons Ratio (z) = 0.43657 0.42647
#
# Static dielectric constant tensor:
#      x y z
#    x 3.274330 0.000000 0.000000 
#    y 0.000000 3.789880 0.000000 
#    z 0.000000 0.000000 3.555700 
# 
# 
# High freq. dielectric constant tensor:
#      x y z
#    x 1.730620 0.000000 0.000000 
#    y 0.000000 1.776920 0.000000 
#    z 0.000000 0.000000 1.750630 
# 
# From -- ./inp_files/20916.got.cif
#   From: 2010.03.12/outbox.cif.g09.slc.cpg/sg47_11_cif.got.tgz:20916.got - 2010.04.14 03:12:58.
