data_PCOD8199630
_publ_section_title
;
Structure prediction by ZEFSAII (Michael W. Deem and Ramdas Pophale) SiO2 
 PCOD8199630
Probable space group: P M M M
;
_chemical_formula_sum "Si O2"
_cell_formula_units_Z 52
_cell_length_a 9.187509
_cell_length_b 15.319335
_cell_length_c 18.645697
_cell_angle_alpha 90.000000
_cell_angle_beta 90.000000
_cell_angle_gamma 90.000000
_cell_volume 2624.317118
_symmetry_space_group_name_H-M "P M M M"
_symmetry_group_IT_number 47
_symmetry_cell_setting 'orthorhombic'
loop_
_space_group_symop_operation_xyz
x,y,z
-x,-y,z
x,-y,-z
-x,y,-z
-x,-y,-z
x,y,-z
-x,y,z
x,-y,z
loop_
_atom_site_type_symbol
_atom_site_label
_atom_site_fract_x
_atom_site_fract_y
_atom_site_fract_z
Si Si1 0.169442 0.099311 0.170940
Si Si2 0.836044 0.814301 0.419412
Si Si3 0.663883 0.500000 0.584477
Si Si4 0.341626 0.899160 0.308168
Si Si5 0.671449 0.397753 0.185425
Si Si6 0.832992 0.359531 0.331680
Si Si7 0.168574 0.267092 0.083579
O O1 0.246698 0.136766 0.242143
O O2 0.207905 0.168333 0.108544
O O3 0.000000 0.099342 0.188798
O O4 0.218210 0.000000 0.149242
O O5 0.784249 0.789240 0.500000
O O6 0.733264 0.887868 0.385801
O O7 0.823517 0.736319 0.363252
O O8 0.000000 0.849909 0.422511
O O9 0.500000 0.500000 0.616667
O O10 0.658325 0.500000 0.500000
O O11 0.750533 0.583587 0.610071
O O12 0.500000 0.852666 0.307915
O O13 0.362517 0.000000 0.294793
O O14 0.500000 0.381382 0.193803
O O15 0.704436 0.500000 0.171780
O O16 0.752698 0.365105 0.256252
O O17 0.732249 0.340937 0.119837
O O18 0.000000 0.390274 0.322788
O O19 0.000000 0.287531 0.100952
O O20 0.202136 0.271401 0.000000
#
# Coordination Sequence:
#
# PCOD8199630 Si02
#       7
#     8   8   4   8   8   8   8
#     4   9  18  35  60  88 118 153 191 232 284 347
#     4  10  22  38  55  79 111 147 189 236 288 344
#     4  11  23  37  55  83 118 151 184 227 281 339
#     4  10  21  36  55  81 112 147 190 238 285 336
#     4  11  24  41  61  85 116 153 197 246 296 352
#     4  11  22  38  61  85 111 146 190 239 287 340
#     4  10  22  39  60  89 122 154 192 239 290 346
#
# _framework density 19.814678000000001
#
# number of rings (size 3 to 8) (size 9 to 14) (size 15 to 20)
#    0.000    1.769    0.769    3.000    0.000   10.154 
#    0.000    4.615    0.000    0.000    0.000    3.231 
#    0.000    0.000    0.000    0.000    0.000    0.000 
#
# Total GULP energy -644704.341732 kJ/mol
# GULP energy per Si atom -12398.160418 kJ/mol
# Density = 1.976958 g / cm^3
# Si number density = 19.814678 Si / 1000 Ang^3
#
#
#
# Elastic Constant Matrix: (Units=GPa)
#
#
# Indices 1 2 3 4 5 6 
#
# 1 114.9753 44.2329 69.2195 0.0000 0.0000 0.0000
# 2 44.2329 66.6441 54.8833 0.0000 0.0000 0.0000
# 3 69.2195 54.8833 138.4397 0.0000 0.0000 0.0000
# 4 0.0000 0.0000 0.0000 38.1624 0.0000 0.0000
# 5 0.0000 0.0000 0.0000 0.0000 23.1952 0.0000
# 6 0.0000 0.0000 0.0000 0.0000 0.0000 16.8531
#
#
#
# Elastic Compliance Matrix: (Units=1/GPa)
#
#
# Indices 1 2 3 4 5 6 
#
# 1 0.013498 -0.005049 -0.004747 0.000000 0.000000 0.000000
# 2 -0.005049 0.024168 -0.007056 0.000000 0.000000 0.000000
# 3 -0.004747 -0.007056 0.012394 0.000000 0.000000 0.000000
# 4 0.000000 0.000000 0.000000 0.026204 0.000000 0.000000
# 5 0.000000 0.000000 0.000000 0.000000 0.043112 0.000000
# 6 0.000000 0.000000 0.000000 0.000000 0.000000 0.059336
#
#
# Mechanical properties :
#
#
# Convention : Reuss Voigt Hill
#
# Bulk Modulus (GPa) = 61.14682 72.97004 67.05843
# Shear Modulus (GPa) = 22.94947 25.75703 24.35325
#
# Velocity S-wave (km/s) = 3.40693 3.60932 3.50959
# Velocity P-wave (km/s) = 6.81195 7.36721 7.09501
#
# Compressibility (1/GPa) = 0.01635408
#
# Stress axis : x y z
#
# Youngs Moduli (GPa) = 74.08435 41.37768 80.68175
#
# Poissons Ratio (x) = 0.20894 0.38301
# Poissons Ratio (y) = 0.37409 0.56932
# Poissons Ratio (z) = 0.35169 0.29197
#
# Static dielectric constant tensor:
#      x y z
#    x 3.977450 0.000000 0.000000 
#    y 0.000000 3.614640 0.000000 
#    z 0.000000 0.000000 3.579210 
# 
# 
# High freq. dielectric constant tensor:
#      x y z
#    x 1.778630 0.000000 0.000000 
#    y 0.000000 1.773950 0.000000 
#    z 0.000000 0.000000 1.772320 
# 
# From -- ./inp_files/26727.got.cif
#   From: 2010.03.12/outbox.cif.g09.slc.cpg/sg47_14_cif.got.tgz:26727.got - 2010.04.14 03:12:58.
