data_PCOD8199629
_publ_section_title
;
Structure prediction by ZEFSAII (Michael W. Deem and Ramdas Pophale) SiO2 
 PCOD8199629
Probable space group: P M M M
;
_chemical_formula_sum "Si O2"
_cell_formula_units_Z 48
_cell_length_a 8.989659
_cell_length_b 30.389082
_cell_length_c 9.186307
_cell_angle_alpha 90.000000
_cell_angle_beta 90.000000
_cell_angle_gamma 90.000000
_cell_volume 2509.584101
_symmetry_space_group_name_H-M "P M M M"
_symmetry_group_IT_number 47
_symmetry_cell_setting 'orthorhombic'
loop_
_space_group_symop_operation_xyz
x,y,z
-x,-y,z
x,-y,-z
-x,y,-z
-x,-y,-z
x,y,-z
-x,y,z
x,-y,z
loop_
_atom_site_type_symbol
_atom_site_label
_atom_site_fract_x
_atom_site_fract_y
_atom_site_fract_z
Si Si1 0.674083 0.579702 0.169139
Si Si2 0.826931 0.500000 0.329421
Si Si3 0.327386 0.844060 0.667655
Si Si4 0.174161 0.919950 0.830734
Si Si5 0.170526 0.668303 0.831323
Si Si6 0.666858 0.743228 0.669998
Si Si7 0.675722 0.000000 0.668161
O O1 0.500000 0.576690 0.198830
O O2 0.754962 0.543133 0.262379
O O3 0.731406 0.627170 0.222218
O O4 0.712703 0.572107 0.000000
O O5 0.795933 0.500000 0.500000
O O6 0.000000 0.500000 0.291726
O O7 0.290104 0.855000 0.500000
O O8 0.500000 0.854291 0.698616
O O9 0.224366 0.872551 0.772778
O O10 0.290203 0.793513 0.703101
O O11 0.000000 0.926155 0.804210
O O12 0.261012 0.956888 0.743347
O O13 0.214601 0.923878 0.000000
O O14 0.216127 0.712268 0.748747
O O15 0.000000 0.657301 0.796627
O O16 0.197910 0.677323 0.000000
O O17 0.675275 0.733764 0.500000
O O18 0.500000 0.733558 0.727135
O O19 0.500000 0.000000 0.685894
O O20 0.723643 0.000000 0.500000
#
# Coordination Sequence:
#
# PCOD8199629 Si02
#       7
#     8   4   8   8   8   8   4
#     4  10  21  38  60  83 107 141 185 227 270 324
#     4  11  24  39  56  82 114 145 178 219 270 326
#     4   9  19  37  59  82 109 144 188 231 271 323
#     4  11  24  39  56  83 117 148 181 224 273 325
#     4  10  21  36  55  81 112 145 182 225 273 325
#     4   9  19  36  57  81 110 145 185 229 275 323
#     4  11  24  41  62  86 110 141 184 229 272 324
#
# _framework density 19.126674000000001
#
# number of rings (size 3 to 8) (size 9 to 14) (size 15 to 20)
#    0.000    2.000    0.000    4.000    0.000   11.333 
#    0.000    5.000    0.000    0.000    0.000    0.000 
#    0.000    0.000    0.000    0.000    0.000    0.000 
#
# Total GULP energy -595409.921024 kJ/mol
# GULP energy per Si atom -12404.373355 kJ/mol
# Density = 1.908314 g / cm^3
# Si number density = 19.126674 Si / 1000 Ang^3
#
#
#
# Elastic Constant Matrix: (Units=GPa)
#
#
# Indices 1 2 3 4 5 6 
#
# 1 91.8229 63.1615 67.6955 0.0000 0.0000 0.0000
# 2 63.1615 130.6868 73.0183 0.0000 0.0000 0.0000
# 3 67.6955 73.0183 97.9223 0.0000 0.0000 0.0000
# 4 0.0000 0.0000 0.0000 36.8589 0.0000 0.0000
# 5 0.0000 0.0000 0.0000 0.0000 34.2137 0.0000
# 6 0.0000 0.0000 0.0000 0.0000 0.0000 147.2779
#
#
#
# Elastic Compliance Matrix: (Units=1/GPa)
#
#
# Indices 1 2 3 4 5 6 
#
# 1 0.023302 -0.003876 -0.013219 0.000000 0.000000 0.000000
# 2 -0.003876 0.013762 -0.007582 0.000000 0.000000 0.000000
# 3 -0.013219 -0.007582 0.025004 0.000000 0.000000 0.000000
# 4 0.000000 0.000000 0.000000 0.027131 0.000000 0.000000
# 5 0.000000 0.000000 0.000000 0.000000 0.029228 0.000000
# 6 0.000000 0.000000 0.000000 0.000000 0.000000 0.006790
#
#
# Mechanical properties :
#
#
# Convention : Reuss Voigt Hill
#
# Bulk Modulus (GPa) = 78.65346 80.90919 79.78133
# Shear Modulus (GPa) = 27.96281 51.44053 39.70167
#
# Velocity S-wave (km/s) = 3.82773 5.19163 4.56095
# Velocity P-wave (km/s) = 7.79404 8.85048 8.33901
#
# Compressibility (1/GPa) = 0.01271400
#
# Stress axis : x y z
#
# Youngs Moduli (GPa) = 42.91387 72.66627 39.99329
#
# Poissons Ratio (x) = 0.28169 0.52867
# Poissons Ratio (y) = 0.16635 0.30322
# Poissons Ratio (z) = 0.56727 0.55094
#
# Static dielectric constant tensor:
#      x y z
#    x 3.544140 0.000000 0.000000 
#    y 0.000000 3.570880 0.000000 
#    z 0.000000 0.000000 3.472010 
# 
# 
# High freq. dielectric constant tensor:
#      x y z
#    x 1.751180 0.000000 0.000000 
#    y 0.000000 1.757900 0.000000 
#    z 0.000000 0.000000 1.741250 
# 
# From -- ./inp_files/2700.got.cif
#   From: 2010.03.12/outbox.cif.g09.slc.cpg/sg47_2_cif.got.tgz:2700.got - 2010.04.14 03:12:58.
