data_PCOD8199539
_publ_section_title
;
Structure prediction by ZEFSAII (Michael W. Deem and Ramdas Pophale) SiO2 
 PCOD8199539
Probable space group: P M M M
;
_chemical_formula_sum "Si O2"
_cell_formula_units_Z 40
_cell_length_a 15.295410
_cell_length_b 9.334217
_cell_length_c 14.623604
_cell_angle_alpha 90.000000
_cell_angle_beta 90.000000
_cell_angle_gamma 90.000000
_cell_volume 2087.821829
_symmetry_space_group_name_H-M "P M M M"
_symmetry_group_IT_number 47
_symmetry_cell_setting 'orthorhombic'
loop_
_space_group_symop_operation_xyz
x,y,z
-x,-y,z
x,-y,-z
-x,y,-z
-x,-y,-z
x,y,-z
-x,y,z
x,-y,z
loop_
_atom_site_type_symbol
_atom_site_label
_atom_site_fract_x
_atom_site_fract_y
_atom_site_fract_z
Si Si1 0.768856 0.664963 0.897204
Si Si2 0.000000 0.829813 0.394754
Si Si3 0.597482 0.834966 0.856015
Si Si4 0.402990 0.332192 0.500000
Si Si5 0.657338 0.844280 0.660691
Si Si6 0.848298 0.161058 0.739033
O O1 0.758855 0.500000 0.866609
O O2 0.672219 0.735402 0.898408
O O3 0.838606 0.741359 0.829841
O O4 0.806586 0.676315 0.000000
O O5 0.916628 0.776296 0.335462
O O6 0.000000 0.767597 0.500000
O O7 0.000000 0.000000 0.402779
O O8 0.500000 0.794250 0.892595
O O9 0.595435 0.815031 0.746914
O O10 0.619710 0.000000 0.881047
O O11 0.404149 0.500000 0.500000
O O12 0.500000 0.266880 0.500000
O O13 0.353294 0.281382 0.589257
O O14 0.756789 0.842544 0.689621
O O15 0.634716 0.000000 0.617636
O O16 0.876062 0.000000 0.769402
#
# Coordination Sequence:
#
# PCOD8199539 Si02
#       6
#     8   4   8   4   8   8
#     4  10  21  36  54  77 109 150 188 223 269 323
#     4   9  18  34  62  93 116 136 169 221 276 329
#     4   9  18  33  53  77 104 137 181 232 280 321
#     4  11  23  33  43  66  99 136 180 223 261 305
#     4   9  18  32  51  72  98 134 175 215 262 319
#     4   9  19  36  59  85 109 138 175 220 273 326
#
# _framework density 19.158722000000001
#
# number of rings (size 3 to 8) (size 9 to 14) (size 15 to 20)
#    0.000    2.600    0.000    2.700    1.400    7.200 
#    0.000    3.000    0.000    3.600    0.000    0.000 
#    0.000    0.000    0.000    0.000    0.000    0.000 
#
# Total GULP energy -495747.013016 kJ/mol
# GULP energy per Si atom -12393.675325 kJ/mol
# Density = 1.911512 g / cm^3
# Si number density = 19.158722 Si / 1000 Ang^3
#
#
#
# Elastic Constant Matrix: (Units=GPa)
#
#
# Indices 1 2 3 4 5 6 
#
# 1 71.8318 24.7730 42.1283 0.0000 0.0000 0.0000
# 2 24.7730 87.3744 53.7139 0.0000 0.0000 0.0000
# 3 42.1283 53.7139 122.6762 0.0000 0.0000 0.0000
# 4 0.0000 0.0000 0.0000 41.6731 0.0000 0.0000
# 5 0.0000 0.0000 0.0000 0.0000 3.8236 0.0000
# 6 0.0000 0.0000 0.0000 0.0000 0.0000 3.1218
#
#
#
# Elastic Compliance Matrix: (Units=1/GPa)
#
#
# Indices 1 2 3 4 5 6 
#
# 1 0.017625 -0.001746 -0.005288 0.000000 0.000000 0.000000
# 2 -0.001746 0.015833 -0.006333 0.000000 0.000000 0.000000
# 3 -0.005288 -0.006333 0.012740 0.000000 0.000000 0.000000
# 4 0.000000 0.000000 0.000000 0.023996 0.000000 0.000000
# 5 0.000000 0.000000 0.000000 0.000000 0.261537 0.000000
# 6 0.000000 0.000000 0.000000 0.000000 0.000000 0.320331
#
#
# Mechanical properties :
#
#
# Convention : Reuss Voigt Hill
#
# Bulk Modulus (GPa) = 51.37635 58.12364 54.74999
# Shear Modulus (GPa) = 7.29623 20.47483 13.88553
#
# Velocity S-wave (km/s) = 1.95361 3.27264 2.69506
# Velocity P-wave (km/s) = 5.65360 6.68461 6.19060
#
# Compressibility (1/GPa) = 0.01946421
#
# Stress axis : x y z
#
# Youngs Moduli (GPa) = 56.73761 63.15784 78.49072
#
# Poissons Ratio (x) = 0.11030 0.41506
# Poissons Ratio (y) = 0.09908 0.49708
# Poissons Ratio (z) = 0.30003 0.39997
#
# Static dielectric constant tensor:
#      x y z
#    x 3.479640 0.000000 0.000000 
#    y 0.000000 3.430880 0.000000 
#    z 0.000000 0.000000 3.536000 
# 
# 
# High freq. dielectric constant tensor:
#      x y z
#    x 1.734440 0.000000 0.000000 
#    y 0.000000 1.726240 0.000000 
#    z 0.000000 0.000000 1.747640 
# 
# From -- ./inp_files/20669.got.cif
#   From: 2010.03.12/outbox.cif.g09.slc.cpg/sg47_11_cif.got.tgz:20669.got - 2010.04.14 03:12:58.
