data_PCOD8199462
_publ_section_title
;
Structure prediction by ZEFSAII (Michael W. Deem and Ramdas Pophale) SiO2 
 PCOD8199462
Probable space group: P M M M
;
_chemical_formula_sum "Si O2"
_cell_formula_units_Z 56
_cell_length_a 8.972793
_cell_length_b 22.636195
_cell_length_c 14.583553
_cell_angle_alpha 90.000000
_cell_angle_beta 90.000000
_cell_angle_gamma 90.000000
_cell_volume 2962.063875
_symmetry_space_group_name_H-M "P M M M"
_symmetry_group_IT_number 47
_symmetry_cell_setting 'orthorhombic'
loop_
_space_group_symop_operation_xyz
x,y,z
-x,-y,z
x,-y,-z
-x,y,-z
-x,-y,-z
x,y,-z
-x,y,z
x,-y,z
loop_
_atom_site_type_symbol
_atom_site_label
_atom_site_fract_x
_atom_site_fract_y
_atom_site_fract_z
Si Si1 0.321294 0.609792 0.299221
Si Si2 0.675352 0.933423 0.682524
Si Si3 0.670078 0.623894 0.098142
Si Si4 0.828677 0.824480 0.257176
Si Si5 0.835895 0.930452 0.500000
Si Si6 0.169350 0.500000 0.391534
Si Si7 0.825645 0.721668 0.393135
Si Si8 0.665728 0.236772 0.897834
O O1 0.500000 0.609203 0.301619
O O2 0.260744 0.600195 0.194020
O O3 0.255882 0.557570 0.359158
O O4 0.267590 0.671482 0.341511
O O5 0.500000 0.932275 0.673347
O O6 0.732948 0.884785 0.753656
O O7 0.745687 0.910211 0.588166
O O8 0.728694 0.000000 0.708624
O O9 0.500000 0.603146 0.095105
O O10 0.682180 0.693643 0.101809
O O11 0.744450 0.602160 0.000000
O O12 0.787587 0.784474 0.345769
O O13 0.794752 0.788439 0.165688
O O14 0.000000 0.842855 0.259495
O O15 0.000000 0.900417 0.500000
O O16 0.852930 0.000000 0.500000
O O17 0.169501 0.500000 0.500000
O O18 0.000000 0.500000 0.354146
O O19 0.779569 0.725171 0.500000
O O20 0.000000 0.706567 0.382370
O O21 0.500000 0.219610 0.861675
O O22 0.688655 0.211451 0.000000
#
# Coordination Sequence:
#
# PCOD8199462 Si02
#       8
#     8   8   8   8   4   4   8   8
#     4  11  21  36  61  88 111 139 186 239 274 313
#     4  10  21  36  53  74 104 144 190 236 279 330
#     4   8  15  30  54  83 113 143 174 215 273 332
#     4  11  22  34  54  82 112 146 185 230 279 335
#     4   9  17  31  51  73  99 135 179 224 273 328
#     4  11  25  43  60  77 108 156 195 225 272 333
#     4  10  22  38  53  75 113 154 184 218 274 335
#     4   9  17  33  57  82 111 146 181 221 274 338
#
# _framework density 18.905736000000001
#
# number of rings (size 3 to 8) (size 9 to 14) (size 15 to 20)
#    0.000    2.143    1.429    3.000    1.000    5.143 
#    0.000    0.357    0.000    4.286    0.000    3.000 
#    0.000    0.000    0.000    0.000    0.000    0.000 
#
# Total GULP energy -693990.642101 kJ/mol
# GULP energy per Si atom -12392.690038 kJ/mol
# Density = 1.886271 g / cm^3
# Si number density = 18.905736 Si / 1000 Ang^3
#
#
#
# Elastic Constant Matrix: (Units=GPa)
#
#
# Indices 1 2 3 4 5 6 
#
# 1 72.1418 38.4420 30.5028 0.0000 0.0000 0.0000
# 2 38.4420 71.8674 25.7734 0.0000 0.0000 0.0000
# 3 30.5028 25.7734 107.2945 0.0000 0.0000 0.0000
# 4 0.0000 0.0000 0.0000 32.8867 0.0000 0.0000
# 5 0.0000 0.0000 0.0000 0.0000 24.9309 0.0000
# 6 0.0000 0.0000 0.0000 0.0000 0.0000 18.8619
#
#
#
# Elastic Compliance Matrix: (Units=1/GPa)
#
#
# Indices 1 2 3 4 5 6 
#
# 1 0.020522 -0.009722 -0.003499 0.000000 0.000000 0.000000
# 2 -0.009722 0.019832 -0.002000 0.000000 0.000000 0.000000
# 3 -0.003499 -0.002000 0.010795 0.000000 0.000000 0.000000
# 4 0.000000 0.000000 0.000000 0.030407 0.000000 0.000000
# 5 0.000000 0.000000 0.000000 0.000000 0.040111 0.000000
# 6 0.000000 0.000000 0.000000 0.000000 0.000000 0.053017
#
#
# Mechanical properties :
#
#
# Convention : Reuss Voigt Hill
#
# Bulk Modulus (GPa) = 48.29266 48.97114 48.63190
# Shear Modulus (GPa) = 23.58171 25.77492 24.67832
#
# Velocity S-wave (km/s) = 3.53559 3.69635 3.61686
# Velocity P-wave (km/s) = 6.50127 6.64653 6.57430
#
# Compressibility (1/GPa) = 0.02070708
#
# Stress axis : x y z
#
# Youngs Moduli (GPa) = 48.72907 50.42291 92.63371
#
# Poissons Ratio (x) = 0.49023 0.32410
# Poissons Ratio (y) = 0.47376 0.18526
# Poissons Ratio (z) = 0.17049 0.10084
#
# Static dielectric constant tensor:
#      x y z
#    x 3.413160 0.000000 0.000000 
#    y 0.000000 3.389520 0.000000 
#    z 0.000000 0.000000 3.764160 
# 
# 
# High freq. dielectric constant tensor:
#      x y z
#    x 1.722840 0.000000 0.000000 
#    y 0.000000 1.722820 0.000000 
#    z 0.000000 0.000000 1.738260 
# 
# From -- ./inp_files/21694.got.cif
#   From: 2010.03.12/outbox.cif.g09.slc.cpg/sg47_11_cif.got.tgz:21694.got - 2010.04.14 03:12:58.
