data_PCOD8199677
_publ_section_title
;
Structure prediction by ZEFSAII (Michael W. Deem and Ramdas Pophale) SiO2 
 PCOD8199677
Probable space group: P M M M
;
_chemical_formula_sum "Si O2"
_cell_formula_units_Z 32
_cell_length_a 17.495333
_cell_length_b 8.736258
_cell_length_c 10.505716
_cell_angle_alpha 90.000000
_cell_angle_beta 90.000000
_cell_angle_gamma 90.000000
_cell_volume 1605.732955
_symmetry_space_group_name_H-M "P M M M"
_symmetry_group_IT_number 47
_symmetry_cell_setting 'orthorhombic'
loop_
_space_group_symop_operation_xyz
x,y,z
-x,-y,z
x,-y,-z
-x,y,-z
-x,-y,-z
x,y,-z
-x,y,z
x,-y,z
loop_
_atom_site_type_symbol
_atom_site_label
_atom_site_fract_x
_atom_site_fract_y
_atom_site_fract_z
Si Si1 0.000000 0.666185 0.642886
Si Si2 0.414417 0.681625 0.858001
Si Si3 0.702788 0.320383 0.645502
Si Si4 0.855022 0.820008 0.252522
Si Si5 0.911347 0.680248 0.000000
O O1 0.072688 0.769930 0.666759
O O2 0.000000 0.500000 0.719700
O O3 0.000000 0.615441 0.500000
O O4 0.500000 0.745228 0.833995
O O5 0.415942 0.500000 0.851891
O O6 0.359857 0.744335 0.745751
O O7 0.386323 0.733373 0.000000
O O8 0.676076 0.287623 0.500000
O O9 0.716839 0.500000 0.666314
O O10 0.780638 0.232439 0.671946
O O11 0.853651 0.000000 0.233920
O O12 0.862223 0.740134 0.117015
O O13 0.910740 0.500000 0.000000
O O14 0.000000 0.740859 0.000000
#
# Coordination Sequence:
#
# PCOD8199677 Si02
#       5
#     4   8   8   8   4
#     4  11  23  40  61  82 109 151 201 247 294 349
#     4   8  15  30  54  85 117 150 194 247 299 348
#     4  10  21  36  56  85 119 157 201 246 294 351
#     4  12  25  39  58  85 118 152 193 242 295 352
#     4  11  23  41  65  87 111 148 193 242 298 353
#
# _framework density 19.928594
#
# number of rings (size 3 to 8) (size 9 to 14) (size 15 to 20)
#    0.000    1.750    1.250    4.500    1.750    5.500 
#    0.000    2.500    0.000    0.750    0.000    3.500 
#    0.000    0.000    0.000    0.000    0.000    0.000 
#
# Total GULP energy -396663.537171 kJ/mol
# GULP energy per Si atom -12395.735537 kJ/mol
# Density = 1.988324 g / cm^3
# Si number density = 19.928594 Si / 1000 Ang^3
#
#
#
# Elastic Constant Matrix: (Units=GPa)
#
#
# Indices 1 2 3 4 5 6 
#
# 1 130.9686 27.7462 70.5519 0.0000 0.0000 0.0000
# 2 27.7462 68.4294 35.1526 0.0000 0.0000 0.0000
# 3 70.5519 35.1526 152.2508 0.0000 0.0000 0.0000
# 4 0.0000 0.0000 0.0000 21.3630 0.0000 0.0000
# 5 0.0000 0.0000 0.0000 0.0000 519.0044 0.0000
# 6 0.0000 0.0000 0.0000 0.0000 0.0000 31.0209
#
#
#
# Elastic Compliance Matrix: (Units=1/GPa)
#
#
# Indices 1 2 3 4 5 6 
#
# 1 0.010406 -0.001977 -0.004366 0.000000 0.000000 0.000000
# 2 -0.001977 0.016956 -0.002999 0.000000 0.000000 0.000000
# 3 -0.004366 -0.002999 0.009284 0.000000 0.000000 0.000000
# 4 0.000000 0.000000 0.000000 0.046810 0.000000 0.000000
# 5 0.000000 0.000000 0.000000 0.000000 0.001927 0.000000
# 6 0.000000 0.000000 0.000000 0.000000 0.000000 0.032236
#
#
# Mechanical properties :
#
#
# Convention : Reuss Voigt Hill
#
# Bulk Modulus (GPa) = 55.67075 68.72780 62.19928
# Shear Modulus (GPa) = 35.14000 128.82419 81.98209
#
# Velocity S-wave (km/s) = 4.20372 8.04880 6.42084
# Velocity P-wave (km/s) = 7.18035 10.99725 9.28701
#
# Compressibility (1/GPa) = 0.01796275
#
# Stress axis : x y z
#
# Youngs Moduli (GPa) = 96.09908 58.97753 107.71781
#
# Poissons Ratio (x) = 0.11658 0.47026
# Poissons Ratio (y) = 0.18995 0.32303
# Poissons Ratio (z) = 0.41954 0.17686
#
# Static dielectric constant tensor:
#      x y z
#    x 3.786250 0.000000 0.000000 
#    y 0.000000 3.320410 0.000000 
#    z 0.000000 0.000000 4.046800 
# 
# 
# High freq. dielectric constant tensor:
#      x y z
#    x 1.774540 0.000000 0.000000 
#    y 0.000000 1.749980 0.000000 
#    z 0.000000 0.000000 1.795430 
# 
# From -- ./inp_files/14712.got.cif
#   From: 2010.03.12/outbox.cif.g09.slc.cpg/sg47_8_cif.got.tgz:14712.got - 2010.04.14 03:12:58.
