data_PCOD8199641
_publ_section_title
;
Structure prediction by ZEFSAII (Michael W. Deem and Ramdas Pophale) SiO2 
 PCOD8199641
Probable space group: P M M M
;
_chemical_formula_sum "Si O2"
_cell_formula_units_Z 48
_cell_length_a 7.721491
_cell_length_b 34.082073
_cell_length_c 9.063787
_cell_angle_alpha 90.000000
_cell_angle_beta 90.000000
_cell_angle_gamma 90.000000
_cell_volume 2385.266248
_symmetry_space_group_name_H-M "P M M M"
_symmetry_group_IT_number 47
_symmetry_cell_setting 'orthorhombic'
loop_
_space_group_symop_operation_xyz
x,y,z
-x,-y,z
x,-y,-z
-x,y,-z
-x,-y,-z
x,y,-z
-x,y,z
x,-y,z
loop_
_atom_site_type_symbol
_atom_site_label
_atom_site_fract_x
_atom_site_fract_y
_atom_site_fract_z
Si Si1 0.301682 0.118386 0.839054
Si Si2 0.000000 0.756228 0.823423
Si Si3 0.802393 0.456588 0.173475
Si Si4 0.000000 0.326913 0.324616
Si Si5 0.704359 0.194459 0.673157
Si Si6 0.691323 0.382158 0.667532
Si Si7 0.795694 0.043760 0.665306
O O1 0.500000 0.127707 0.863495
O O2 0.231095 0.151437 0.727353
O O3 0.284361 0.074914 0.775593
O O4 0.208419 0.120884 0.000000
O O5 0.000000 0.711590 0.773094
O O6 0.176950 0.774711 0.759569
O O7 0.000000 0.759881 0.000000
O O8 0.737571 0.500000 0.221966
O O9 0.688092 0.423128 0.246752
O O10 0.000000 0.450784 0.223834
O O11 0.784694 0.452200 0.000000
O O12 0.168976 0.351151 0.273459
O O13 0.000000 0.317303 0.500000
O O14 0.742736 0.197484 0.500000
O O15 0.500000 0.202344 0.705375
O O16 0.737787 0.392272 0.500000
O O17 0.500000 0.363225 0.682900
O O18 0.726041 0.051634 0.500000
O O19 0.000000 0.047908 0.667639
O O20 0.740283 0.000000 0.716140
#
# Coordination Sequence:
#
# PCOD8199641 Si02
#       7
#     8   4   8   4   8   8   8
#     4  10  21  36  55  82 116 150 185 233 292 347
#     4  12  26  42  66  97 126 157 192 241 306 366
#     4   9  18  33  54  81 115 155 198 244 294 348
#     4  10  22  42  61  83 118 154 195 242 288 350
#     4  10  22  42  67  93 122 158 201 245 291 353
#     4  10  21  37  59  86 115 152 198 245 291 341
#     4   9  19  35  53  75 106 147 195 242 284 334
#
# _framework density 20.123539000000001
#
# number of rings (size 3 to 8) (size 9 to 14) (size 15 to 20)
#    0.000    2.167    0.833    2.750    1.167    5.333 
#    0.000    6.667    0.000    0.000    0.000    0.000 
#    0.000    0.000    0.000    0.000    0.000    0.000 
#
# Total GULP energy -595034.167280 kJ/mol
# GULP energy per Si atom -12396.545152 kJ/mol
# Density = 2.007774 g / cm^3
# Si number density = 20.123539 Si / 1000 Ang^3
#
#
#
# Elastic Constant Matrix: (Units=GPa)
#
#
# Indices 1 2 3 4 5 6 
#
# 1 88.2597 53.5958 43.6651 0.0000 0.0000 0.0000
# 2 53.5958 149.6553 69.1082 0.0000 0.0000 0.0000
# 3 43.6651 69.1082 114.8481 0.0000 0.0000 0.0000
# 4 0.0000 0.0000 0.0000 17.0066 0.0000 0.0000
# 5 0.0000 0.0000 0.0000 0.0000 23.4631 0.0000
# 6 0.0000 0.0000 0.0000 0.0000 0.0000 15.3428
#
#
#
# Elastic Compliance Matrix: (Units=1/GPa)
#
#
# Indices 1 2 3 4 5 6 
#
# 1 0.015444 -0.003904 -0.003522 0.000000 0.000000 0.000000
# 2 -0.003904 0.010240 -0.004678 0.000000 0.000000 0.000000
# 3 -0.003522 -0.004678 0.012861 0.000000 0.000000 0.000000
# 4 0.000000 0.000000 0.000000 0.058801 0.000000 0.000000
# 5 0.000000 0.000000 0.000000 0.000000 0.042620 0.000000
# 6 0.000000 0.000000 0.000000 0.000000 0.000000 0.065177
#
#
# Mechanical properties :
#
#
# Convention : Reuss Voigt Hill
#
# Bulk Modulus (GPa) = 69.75126 76.16681 72.95903
# Shear Modulus (GPa) = 21.35565 23.58876 22.47220
#
# Velocity S-wave (km/s) = 3.26118 3.42745 3.34535
# Velocity P-wave (km/s) = 6.99408 7.32086 7.15934
#
# Compressibility (1/GPa) = 0.01433666
#
# Stress axis : x y z
#
# Youngs Moduli (GPa) = 64.75131 97.65390 77.75457
#
# Poissons Ratio (x) = 0.38127 0.27388
# Poissons Ratio (y) = 0.25281 0.36370
# Poissons Ratio (z) = 0.22808 0.45678
#
# Static dielectric constant tensor:
#      x y z
#    x 3.648270 0.000000 0.000000 
#    y 0.000000 3.764580 0.000000 
#    z 0.000000 0.000000 3.761130 
# 
# 
# High freq. dielectric constant tensor:
#      x y z
#    x 1.785150 0.000000 0.000000 
#    y 0.000000 1.784480 0.000000 
#    z 0.000000 0.000000 1.781620 
# 
# From -- ./inp_files/2607.got.cif
#   From: 2010.03.12/outbox.cif.g09.slc.cpg/sg47_2_cif.got.tgz:2607.got - 2010.04.14 03:12:58.
