data_PCOD8199479
_publ_section_title
;
Structure prediction by ZEFSAII (Michael W. Deem and Ramdas Pophale) SiO2 
 PCOD8199479
Probable space group: P M M M
;
_chemical_formula_sum "Si O2"
_cell_formula_units_Z 48
_cell_length_a 9.147843
_cell_length_b 32.498696
_cell_length_c 7.754185
_cell_angle_alpha 90.000000
_cell_angle_beta 90.000000
_cell_angle_gamma 90.000000
_cell_volume 2305.264679
_symmetry_space_group_name_H-M "P M M M"
_symmetry_group_IT_number 47
_symmetry_cell_setting 'orthorhombic'
loop_
_space_group_symop_operation_xyz
x,y,z
-x,-y,z
x,-y,-z
-x,y,-z
-x,-y,-z
x,y,-z
-x,y,z
x,-y,z
loop_
_atom_site_type_symbol
_atom_site_label
_atom_site_fract_x
_atom_site_fract_y
_atom_site_fract_z
Si Si1 0.161193 0.419449 0.299241
Si Si2 0.831479 0.951418 0.500000
Si Si3 0.340090 0.655705 0.697002
Si Si4 0.328001 0.904264 0.798668
Si Si5 0.334560 0.500000 0.203215
Si Si6 0.838441 0.175996 0.203751
Si Si7 0.169374 0.266722 0.799686
O O1 0.141276 0.411339 0.500000
O O2 0.242492 0.379991 0.213086
O O3 0.253974 0.460117 0.272243
O O4 0.000000 0.424009 0.214093
O O5 0.753771 0.936222 0.324846
O O6 0.000000 0.936967 0.500000
O O7 0.818631 0.000000 0.500000
O O8 0.361408 0.643140 0.500000
O O9 0.500000 0.657400 0.786948
O O10 0.265252 0.700111 0.701476
O O11 0.500000 0.908032 0.768264
O O12 0.277744 0.858582 0.741162
O O13 0.287910 0.913035 0.000000
O O14 0.500000 0.500000 0.274198
O O15 0.332000 0.500000 0.000000
O O16 0.789642 0.221029 0.271738
O O17 0.000000 0.164499 0.276567
O O18 0.849494 0.179245 0.000000
O O19 0.000000 0.275611 0.762803
O O20 0.206050 0.270440 0.000000
#
# Coordination Sequence:
#
# PCOD8199479 Si02
#       7
#     8   4   8   8   4   8   8
#     4  10  21  38  60  81 102 135 178 220 265 320
#     4  11  25  43  63  89 121 159 207 257 303 360
#     4  10  21  36  53  76 107 143 182 223 269 322
#     4  10  21  38  62  91 123 160 200 248 309 369
#     4  11  24  39  56  82 112 137 166 209 262 320
#     4   8  15  31  55  81 111 149 193 237 280 336
#     4   9  18  33  54  80 109 144 186 229 275 327
#
# _framework density 20.821905000000001
#
# number of rings (size 3 to 8) (size 9 to 14) (size 15 to 20)
#    0.000    2.333    0.000    3.250    0.000    7.333 
#    1.500    3.333    0.000    0.000    0.000    0.000 
#    0.000    0.000    0.000    0.000    0.000    0.000 
#
# Total GULP energy -595012.802636 kJ/mol
# GULP energy per Si atom -12396.100055 kJ/mol
# Density = 2.077451 g / cm^3
# Si number density = 20.821905 Si / 1000 Ang^3
#
#
#
# Elastic Constant Matrix: (Units=GPa)
#
#
# Indices 1 2 3 4 5 6 
#
# 1 159.4668 83.9591 39.0073 0.0000 0.0000 0.0000
# 2 83.9591 147.8924 29.3130 0.0000 0.0000 0.0000
# 3 39.0073 29.3130 49.5313 0.0000 0.0000 0.0000
# 4 0.0000 0.0000 0.0000 32.3361 0.0000 0.0000
# 5 0.0000 0.0000 0.0000 0.0000 23.2934 0.0000
# 6 0.0000 0.0000 0.0000 0.0000 0.0000 19.1248
#
#
#
# Elastic Compliance Matrix: (Units=1/GPa)
#
#
# Indices 1 2 3 4 5 6 
#
# 1 0.009964 -0.004646 -0.005097 0.000000 0.000000 0.000000
# 2 -0.004646 0.009827 -0.002156 0.000000 0.000000 0.000000
# 3 -0.005097 -0.002156 0.025480 0.000000 0.000000 0.000000
# 4 0.000000 0.000000 0.000000 0.030925 0.000000 0.000000
# 5 0.000000 0.000000 0.000000 0.000000 0.042931 0.000000
# 6 0.000000 0.000000 0.000000 0.000000 0.000000 0.052288
#
#
# Mechanical properties :
#
#
# Convention : Reuss Voigt Hill
#
# Bulk Modulus (GPa) = 46.57555 73.49436 60.03496
# Shear Modulus (GPa) = 24.70706 28.59161 26.64933
#
# Velocity S-wave (km/s) = 3.44843 3.70962 3.58141
# Velocity P-wave (km/s) = 6.18649 7.32951 6.78212
#
# Compressibility (1/GPa) = 0.02147049
#
# Stress axis : x y z
#
# Youngs Moduli (GPa) = 100.36121 101.76219 39.24693
#
# Poissons Ratio (x) = 0.47282 0.20005
# Poissons Ratio (y) = 0.46631 0.08464
# Poissons Ratio (z) = 0.51156 0.21945
#
# Static dielectric constant tensor:
#      x y z
#    x 4.068610 0.000000 0.000000 
#    y 0.000000 3.914940 0.000000 
#    z 0.000000 0.000000 3.505880 
# 
# 
# High freq. dielectric constant tensor:
#      x y z
#    x 1.822510 0.000000 0.000000 
#    y 0.000000 1.821260 0.000000 
#    z 0.000000 0.000000 1.793160 
# 
# From -- ./inp_files/2784.got.cif
#   From: 2010.03.12/outbox.cif.g09.slc.cpg/sg47_2_cif.got.tgz:2784.got - 2010.04.14 03:12:58.
