data_PCOD8199760
_publ_section_title
;
Structure prediction by ZEFSAII (Michael W. Deem and Ramdas Pophale) SiO2 
 PCOD8199760
Probable space group: P M M M
;
_chemical_formula_sum "Si O2"
_cell_formula_units_Z 52
_cell_length_a 8.839454
_cell_length_b 21.615384
_cell_length_c 13.948005
_cell_angle_alpha 90.000000
_cell_angle_beta 90.000000
_cell_angle_gamma 90.000000
_cell_volume 2665.020105
_symmetry_space_group_name_H-M "P M M M"
_symmetry_group_IT_number 47
_symmetry_cell_setting 'orthorhombic'
loop_
_space_group_symop_operation_xyz
x,y,z
-x,-y,z
x,-y,-z
-x,y,-z
-x,-y,-z
x,y,-z
-x,y,z
x,-y,z
loop_
_atom_site_type_symbol
_atom_site_label
_atom_site_fract_x
_atom_site_fract_y
_atom_site_fract_z
Si Si1 0.327402 0.000000 0.613141
Si Si2 0.328072 0.071912 0.891568
Si Si3 0.676455 0.430049 0.230569
Si Si4 0.678691 0.755478 0.709800
Si Si5 0.321359 0.316630 0.106051
Si Si6 0.174954 0.357264 0.389844
Si Si7 0.177046 0.883520 0.711580
O O1 0.249743 0.938393 0.651310
O O2 0.500000 0.000000 0.648867
O O3 0.314398 0.000000 0.500000
O O4 0.500000 0.095207 0.877059
O O5 0.216760 0.109828 0.823778
O O6 0.317292 0.000000 0.865106
O O7 0.275384 0.083716 0.000000
O O8 0.500000 0.419891 0.253736
O O9 0.710817 0.500000 0.197866
O O10 0.728421 0.384182 0.145165
O O11 0.769524 0.415224 0.326802
O O12 0.500000 0.764936 0.704631
O O13 0.730961 0.735685 0.817750
O O14 0.727045 0.703009 0.635285
O O15 0.759320 0.818146 0.676212
O O16 0.500000 0.314386 0.096807
O O17 0.249136 0.305442 0.000000
O O18 0.201643 0.374963 0.500000
O O19 0.000000 0.343133 0.368216
O O20 0.000000 0.885680 0.695412
#
# Coordination Sequence:
#
# PCOD8199760 Si02
#       7
#     4   8   8   8   8   8   8
#     4  11  25  45  66  85 108 143 187 232 280 339
#     4   9  18  34  57  82 110 147 187 224 264 319
#     4   9  18  32  52  81 114 148 187 228 272 327
#     4  10  21  37  58  82 109 145 187 229 274 331
#     4   8  15  30  53  81 111 144 185 230 270 310
#     4  10  21  37  56  78 106 141 182 232 288 338
#     4  12  24  38  59  87 118 149 181 228 287 342
#
# _framework density 19.512046999999999
#
# number of rings (size 3 to 8) (size 9 to 14) (size 15 to 20)
#    0.000    2.231    0.769    3.923    0.000    4.308 
#    0.000    5.385    0.000   11.077    0.000    4.308 
#    0.000    0.000    0.000    0.000    0.000    0.000 
#
# Total GULP energy -644792.683107 kJ/mol
# GULP energy per Si atom -12399.859291 kJ/mol
# Density = 1.946764 g / cm^3
# Si number density = 19.512047 Si / 1000 Ang^3
#
#
#
# Elastic Constant Matrix: (Units=GPa)
#
#
# Indices 1 2 3 4 5 6 
#
# 1 92.8377 36.6788 27.2437 0.0000 0.0000 0.0000
# 2 36.6788 107.2180 17.7799 0.0000 0.0000 0.0000
# 3 27.2437 17.7799 73.3710 0.0000 0.0000 0.0000
# 4 0.0000 0.0000 0.0000 9.9561 0.0000 0.0000
# 5 0.0000 0.0000 0.0000 0.0000 20.8587 0.0000
# 6 0.0000 0.0000 0.0000 0.0000 0.0000 21.2753
#
#
#
# Elastic Compliance Matrix: (Units=1/GPa)
#
#
# Indices 1 2 3 4 5 6 
#
# 1 0.013526 -0.003953 -0.004064 0.000000 0.000000 0.000000
# 2 -0.003953 0.010873 -0.001167 0.000000 0.000000 0.000000
# 3 -0.004064 -0.001167 0.015421 0.000000 0.000000 0.000000
# 4 0.000000 0.000000 0.000000 0.100441 0.000000 0.000000
# 5 0.000000 0.000000 0.000000 0.000000 0.047942 0.000000
# 6 0.000000 0.000000 0.000000 0.000000 0.000000 0.047003
#
#
# Mechanical properties :
#
#
# Convention : Reuss Voigt Hill
#
# Bulk Modulus (GPa) = 46.61788 48.53683 47.57736
# Shear Modulus (GPa) = 19.17732 23.19964 21.18848
#
# Velocity S-wave (km/s) = 3.13844 3.45192 3.29890
# Velocity P-wave (km/s) = 6.08907 6.38881 6.24074
#
# Compressibility (1/GPa) = 0.02145100
#
# Stress axis : x y z
#
# Youngs Moduli (GPa) = 73.93136 91.97373 64.84530
#
# Poissons Ratio (x) = 0.36359 0.26356
# Poissons Ratio (y) = 0.29227 0.07567
# Poissons Ratio (z) = 0.30049 0.10732
#
# Static dielectric constant tensor:
#      x y z
#    x 3.418870 0.000000 0.000000 
#    y 0.000000 3.555930 0.000000 
#    z 0.000000 0.000000 3.733690 
# 
# 
# High freq. dielectric constant tensor:
#      x y z
#    x 1.742860 0.000000 0.000000 
#    y 0.000000 1.760290 0.000000 
#    z 0.000000 0.000000 1.760150 
# 
# From -- ./inp_files/21406.got.cif
#   From: 2010.03.12/outbox.cif.g09.slc.cpg/sg47_11_cif.got.tgz:21406.got - 2010.04.14 03:12:58.
