data_PCOD8199248
_publ_section_title
;
Structure prediction by ZEFSAII (Michael W. Deem and Ramdas Pophale) SiO2 
 PCOD8199248
Probable space group: P M M M
;
_chemical_formula_sum "Si O2"
_cell_formula_units_Z 56
_cell_length_a 14.188367
_cell_length_b 23.326676
_cell_length_c 9.090400
_cell_angle_alpha 90.000000
_cell_angle_beta 90.000000
_cell_angle_gamma 90.000000
_cell_volume 3008.626416
_symmetry_space_group_name_H-M "P M M M"
_symmetry_group_IT_number 47
_symmetry_cell_setting 'orthorhombic'
loop_
_space_group_symop_operation_xyz
x,y,z
-x,-y,z
x,-y,-z
-x,y,-z
-x,-y,-z
x,y,-z
-x,y,z
x,-y,z
loop_
_atom_site_type_symbol
_atom_site_label
_atom_site_fract_x
_atom_site_fract_y
_atom_site_fract_z
Si Si1 0.109791 0.781933 0.172323
Si Si2 0.393039 0.067081 0.830847
Si Si3 0.210963 0.564615 0.830052
Si Si4 0.888891 0.666267 0.667193
Si Si5 0.732716 0.156063 0.325841
Si Si6 0.606576 0.261847 0.672622
Si Si7 0.604830 0.374467 0.168949
O O1 0.144463 0.721761 0.241620
O O2 0.166175 0.834285 0.248311
O O3 0.000000 0.792662 0.204933
O O4 0.131355 0.780267 0.000000
O O5 0.500000 0.083091 0.782858
O O6 0.316728 0.098232 0.728911
O O7 0.376211 0.000000 0.809260
O O8 0.376998 0.084700 0.000000
O O9 0.186181 0.500000 0.781568
O O10 0.152486 0.608015 0.731691
O O11 0.323197 0.573338 0.805890
O O12 0.184008 0.574916 0.000000
O O13 0.853817 0.674537 0.500000
O O14 0.000000 0.659944 0.675622
O O15 0.746754 0.152602 0.500000
O O16 0.667259 0.208388 0.273944
O O17 0.612604 0.269580 0.500000
O O18 0.500000 0.251070 0.726273
O O19 0.645993 0.319956 0.743885
O O20 0.500000 0.392217 0.225110
O O21 0.600463 0.356265 0.000000
#
# Coordination Sequence:
#
# PCOD8199248 Si02
#       7
#     8   8   8   8   8   8   8
#     4  10  21  37  57  80 106 137 173 214 262 317
#     4   9  19  36  56  79 111 152 194 230 262 302
#     4  10  21  35  51  72  97 128 168 211 254 305
#     4  10  21  37  56  77 102 131 163 205 261 319
#     4  11  21  32  52  81 111 143 178 219 267 315
#     4   9  18  31  46  69 102 134 163 199 248 306
#     4   9  18  32  49  69  94 126 164 205 249 297
#
# _framework density 18.613144999999999
#
# number of rings (size 3 to 8) (size 9 to 14) (size 15 to 20)
#    0.000    2.286    0.000    3.000    0.000    7.714 
#    0.000    5.000    0.000    0.429    0.000    6.000 
#    0.000    0.000    0.000    0.000    0.000    0.000 
#
# Total GULP energy -694477.414879 kJ/mol
# GULP energy per Si atom -12401.382409 kJ/mol
# Density = 1.857078 g / cm^3
# Si number density = 18.613145 Si / 1000 Ang^3
#
#
#
# Elastic Constant Matrix: (Units=GPa)
#
#
# Indices 1 2 3 4 5 6 
#
# 1 65.5972 48.7911 47.7899 0.0000 0.0000 0.0000
# 2 48.7911 85.2235 48.8490 0.0000 0.0000 0.0000
# 3 47.7899 48.8490 88.2277 0.0000 0.0000 0.0000
# 4 0.0000 0.0000 0.0000 20.0857 0.0000 0.0000
# 5 0.0000 0.0000 0.0000 0.0000 28.5467 0.0000
# 6 0.0000 0.0000 0.0000 0.0000 0.0000 30.7154
#
#
#
# Elastic Compliance Matrix: (Units=1/GPa)
#
#
# Indices 1 2 3 4 5 6 
#
# 1 0.032114 -0.012327 -0.010570 0.000000 0.000000 0.000000
# 2 -0.012327 0.021920 -0.005460 0.000000 0.000000 0.000000
# 3 -0.010570 -0.005460 0.020083 0.000000 0.000000 0.000000
# 4 0.000000 0.000000 0.000000 0.049787 0.000000 0.000000
# 5 0.000000 0.000000 0.000000 0.000000 0.035030 0.000000
# 6 0.000000 0.000000 0.000000 0.000000 0.000000 0.032557
#
#
# Mechanical properties :
#
#
# Convention : Reuss Voigt Hill
#
# Bulk Modulus (GPa) = 57.45839 58.87870 58.16855
# Shear Modulus (GPa) = 19.68465 22.11079 20.89772
#
# Velocity S-wave (km/s) = 3.25555 3.45035 3.35437
# Velocity P-wave (km/s) = 6.71329 6.89745 6.80599
#
# Compressibility (1/GPa) = 0.01740390
#
# Stress axis : x y z
#
# Youngs Moduli (GPa) = 31.13924 45.61940 49.79452
#
# Poissons Ratio (x) = 0.56234 0.52633
# Poissons Ratio (y) = 0.38385 0.27186
# Poissons Ratio (z) = 0.32914 0.24907
#
# Static dielectric constant tensor:
#      x y z
#    x 3.543040 0.000000 0.000000 
#    y 0.000000 3.265690 0.000000 
#    z 0.000000 0.000000 3.401570 
# 
# 
# High freq. dielectric constant tensor:
#      x y z
#    x 1.727840 0.000000 0.000000 
#    y 0.000000 1.704490 0.000000 
#    z 0.000000 0.000000 1.723260 
# 
# From -- ./inp_files/7250.got.cif
#   From: 2010.03.12/outbox.cif.g09.slc.cpg/sg47_4_cif.got.tgz:7250.got - 2010.04.14 03:12:58.
