data_PCOD8199896
_publ_section_title
;
Structure prediction by ZEFSAII (Michael W. Deem and Ramdas Pophale) SiO2 
 PCOD8199896
Probable space group: P M M M
;
_chemical_formula_sum "Si O2"
_cell_formula_units_Z 48
_cell_length_a 7.707126
_cell_length_b 9.231656
_cell_length_c 33.673635
_cell_angle_alpha 90.000000
_cell_angle_beta 90.000000
_cell_angle_gamma 90.000000
_cell_volume 2395.863505
_symmetry_space_group_name_H-M "P M M M"
_symmetry_group_IT_number 47
_symmetry_cell_setting 'orthorhombic'
loop_
_space_group_symop_operation_xyz
x,y,z
-x,-y,z
x,-y,-z
-x,y,-z
-x,-y,-z
x,y,-z
-x,y,z
x,-y,z
loop_
_atom_site_type_symbol
_atom_site_label
_atom_site_fract_x
_atom_site_fract_y
_atom_site_fract_z
Si Si1 0.803390 0.338942 0.381460
Si Si2 0.000000 0.827523 0.090942
Si Si3 0.295844 0.836008 0.544771
Si Si4 0.699885 0.667487 0.233712
Si Si5 0.000000 0.331932 0.827055
Si Si6 0.697924 0.158120 0.308518
Si Si7 0.698559 0.666221 0.046490
O O1 0.721166 0.500000 0.382325
O O2 0.797383 0.272289 0.425357
O O3 0.703420 0.240257 0.350268
O O4 0.000000 0.346927 0.367072
O O5 0.000000 0.772968 0.135723
O O6 0.826526 0.771405 0.069725
O O7 0.000000 0.000000 0.089865
O O8 0.243810 0.791688 0.500000
O O9 0.500000 0.823727 0.550870
O O10 0.234566 0.000000 0.553407
O O11 0.500000 0.708342 0.222832
O O12 0.713070 0.500000 0.245183
O O13 0.824771 0.704623 0.197072
O O14 0.777127 0.751604 0.271964
O O15 0.000000 0.500000 0.840225
O O16 0.500000 0.134737 0.297600
O O17 0.789500 0.000000 0.312071
O O18 0.500000 0.703994 0.057947
O O19 0.739532 0.500000 0.057979
O O20 0.728572 0.689854 0.000000
#
# Coordination Sequence:
#
# PCOD8199896 Si02
#       7
#     8   4   8   8   4   8   8
#     4  11  24  37  51  77 111 143 176 216 261 311
#     4  12  25  37  54  87 128 166 202 247 309 370
#     4   9  19  37  59  80 103 134 173 216 262 315
#     4   9  19  37  60  84 110 143 186 239 294 342
#     4  10  22  39  59  82 112 155 205 247 286 348
#     4  10  21  37  58  83 109 138 174 219 273 332
#     4   9  19  38  64  90 117 157 210 262 309 361
#
# _framework density 20.034531000000001
#
# number of rings (size 3 to 8) (size 9 to 14) (size 15 to 20)
#    0.000    2.167    0.000    3.500    1.167    8.333 
#    0.000    5.000    0.000    0.000    0.000    0.000 
#    0.000    0.000    0.000    0.000    0.000    0.000 
#
# Total GULP energy -595148.606981 kJ/mol
# GULP energy per Si atom -12398.929312 kJ/mol
# Density = 1.998893 g / cm^3
# Si number density = 20.034531 Si / 1000 Ang^3
#
#
#
# Elastic Constant Matrix: (Units=GPa)
#
#
# Indices 1 2 3 4 5 6 
#
# 1 85.9871 51.2857 51.1917 0.0000 0.0000 0.0000
# 2 51.2857 152.0246 87.0133 0.0000 0.0000 0.0000
# 3 51.1917 87.0133 129.2443 0.0000 0.0000 0.0000
# 4 0.0000 0.0000 0.0000 29.2637 0.0000 0.0000
# 5 0.0000 0.0000 0.0000 0.0000 -57.1920 0.0000
# 6 0.0000 0.0000 0.0000 0.0000 0.0000 16.2345
#
#
#
# Elastic Compliance Matrix: (Units=1/GPa)
#
#
# Indices 1 2 3 4 5 6 
#
# 1 0.015953 -0.002872 -0.004385 0.000000 0.000000 0.000000
# 2 -0.002872 0.011219 -0.006415 0.000000 0.000000 0.000000
# 3 -0.004385 -0.006415 0.013793 0.000000 0.000000 0.000000
# 4 0.000000 0.000000 0.000000 0.034172 0.000000 0.000000
# 5 0.000000 0.000000 0.000000 0.000000 -0.017485 0.000000
# 6 0.000000 0.000000 0.000000 0.000000 0.000000 0.061597
#
#
# Mechanical properties :
#
#
# Convention : Reuss Voigt Hill
#
# Bulk Modulus (GPa) = 73.42102 82.91526 78.16814
# Shear Modulus (GPa) = 33.08301 9.51228 21.29764
#
# Velocity S-wave (km/s) = 4.06803 2.18134 3.26398
# Velocity P-wave (km/s) = 7.66759 6.91523 7.30111
#
# Compressibility (1/GPa) = 0.01362008
#
# Stress axis : x y z
#
# Youngs Moduli (GPa) = 62.68282 89.13723 72.49811
#
# Poissons Ratio (x) = 0.25599 0.31794
# Poissons Ratio (y) = 0.18001 0.46511
# Poissons Ratio (z) = 0.27489 0.57185
#
# Static dielectric constant tensor:
#      x y z
#    x 3.652790 0.000000 0.000000 
#    y 0.000000 3.821340 0.000000 
#    z 0.000000 0.000000 3.536660 
# 
# 
# High freq. dielectric constant tensor:
#      x y z
#    x 1.782960 0.000000 0.000000 
#    y 0.000000 1.779000 0.000000 
#    z 0.000000 0.000000 1.778450 
# 
# From -- ./inp_files/2590.got.cif
#   From: 2010.03.12/outbox.cif.g09.slc.cpg/sg47_2_cif.got.tgz:2590.got - 2010.04.14 03:12:58.
