data_PCOD8199893
_publ_section_title
;
Structure prediction by ZEFSAII (Michael W. Deem and Ramdas Pophale) SiO2 
 PCOD8199893
Probable space group: P M M M
;
_chemical_formula_sum "Si O2"
_cell_formula_units_Z 48
_cell_length_a 9.079346
_cell_length_b 31.010080
_cell_length_c 9.095843
_cell_angle_alpha 90.000000
_cell_angle_beta 90.000000
_cell_angle_gamma 90.000000
_cell_volume 2560.945928
_symmetry_space_group_name_H-M "P M M M"
_symmetry_group_IT_number 47
_symmetry_cell_setting 'orthorhombic'
loop_
_space_group_symop_operation_xyz
x,y,z
-x,-y,z
x,-y,-z
-x,y,-z
-x,-y,-z
x,y,-z
-x,y,z
x,-y,z
loop_
_atom_site_type_symbol
_atom_site_label
_atom_site_fract_x
_atom_site_fract_y
_atom_site_fract_z
Si Si1 0.171722 0.000000 0.669933
Si Si2 0.830539 0.664559 0.830422
Si Si3 0.825805 0.093276 0.328059
Si Si4 0.326887 0.828758 0.830653
Si Si5 0.328263 0.422300 0.829094
Si Si6 0.830886 0.500000 0.326436
Si Si7 0.170052 0.751309 0.327603
O O1 0.231291 0.045958 0.731285
O O2 0.208525 0.000000 0.500000
O O3 0.000000 0.000000 0.697634
O O4 0.731144 0.624404 0.781894
O O5 0.779992 0.705119 0.734163
O O6 0.000000 0.652378 0.800085
O O7 0.804549 0.676597 0.000000
O O8 0.787733 0.099482 0.500000
O O9 0.742771 0.128022 0.232232
O O10 0.000000 0.098312 0.304616
O O11 0.500000 0.831483 0.808717
O O12 0.268635 0.787646 0.744543
O O13 0.281752 0.824144 0.000000
O O14 0.500000 0.424571 0.793517
O O15 0.246004 0.457683 0.734680
O O16 0.295726 0.431158 0.000000
O O17 0.814790 0.500000 0.500000
O O18 0.000000 0.500000 0.275958
O O19 0.197827 0.751736 0.500000
O O20 0.000000 0.760345 0.288304
#
# Coordination Sequence:
#
# PCOD8199893 Si02
#       7
#     4   8   8   8   8   4   8
#     4   7  12  26  50  79 106 130 162 209 260 309
#     4   9  18  34  56  81 110 144 179 215 258 311
#     4   9  17  32  56  82 105 132 170 215 262 313
#     4  11  24  38  51  72 105 143 180 218 262 312
#     4  10  21  37  58  84 113 145 181 220 264 317
#     4  11  24  39  56  80 110 145 186 231 274 314
#     4  10  21  37  58  83 108 136 174 220 267 315
#
# _framework density 18.743072999999999
#
# number of rings (size 3 to 8) (size 9 to 14) (size 15 to 20)
#    0.000    2.333    0.000    3.500    0.000    8.667 
#    0.000    4.167    0.000    4.000    0.000    0.000 
#    0.000    0.000    0.000    0.000    0.000    0.000 
#
# Total GULP energy -595121.439509 kJ/mol
# GULP energy per Si atom -12398.363323 kJ/mol
# Density = 1.870041 g / cm^3
# Si number density = 18.743073 Si / 1000 Ang^3
#
#
#
# Elastic Constant Matrix: (Units=GPa)
#
#
# Indices 1 2 3 4 5 6 
#
# 1 79.9083 71.0400 46.3913 0.0000 0.0000 0.0000
# 2 71.0400 165.7888 68.8860 0.0000 0.0000 0.0000
# 3 46.3913 68.8860 74.2320 0.0000 0.0000 0.0000
# 4 0.0000 0.0000 0.0000 36.8880 0.0000 0.0000
# 5 0.0000 0.0000 0.0000 0.0000 26.5105 0.0000
# 6 0.0000 0.0000 0.0000 0.0000 0.0000 -151.9944
#
#
#
# Elastic Compliance Matrix: (Units=1/GPa)
#
#
# Indices 1 2 3 4 5 6 
#
# 1 0.023135 -0.006357 -0.008559 0.000000 0.000000 0.000000
# 2 -0.006357 0.011564 -0.006758 0.000000 0.000000 0.000000
# 3 -0.008559 -0.006758 0.025092 0.000000 0.000000 0.000000
# 4 0.000000 0.000000 0.000000 0.027109 0.000000 0.000000
# 5 0.000000 0.000000 0.000000 0.000000 0.037721 0.000000
# 6 0.000000 0.000000 0.000000 0.000000 0.000000 -0.006579
#
#
# Mechanical properties :
#
#
# Convention : Reuss Voigt Hill
#
# Bulk Modulus (GPa) = 60.81971 76.95151 68.88561
# Shear Modulus (GPa) = 29.96352 -8.81173 10.57590
#
# Velocity S-wave (km/s) = 4.00264 -2.17061 2.37798
# Velocity P-wave (km/s) = 7.34038 5.90449 6.66124
#
# Compressibility (1/GPa) = 0.01644204
#
# Stress axis : x y z
#
# Youngs Moduli (GPa) = 43.22523 86.47730 39.85379
#
# Poissons Ratio (x) = 0.54972 0.34111
# Poissons Ratio (y) = 0.27478 0.26934
# Poissons Ratio (z) = 0.36996 0.58443
#
# Static dielectric constant tensor:
#      x y z
#    x 3.367150 0.000000 0.000000 
#    y 0.000000 3.760370 0.000000 
#    z 0.000000 0.000000 3.381760 
# 
# 
# High freq. dielectric constant tensor:
#      x y z
#    x 1.717300 0.000000 0.000000 
#    y 0.000000 1.750350 0.000000 
#    z 0.000000 0.000000 1.717860 
# 
# From -- ./inp_files/2580.got.cif
#   From: 2010.03.12/outbox.cif.g09.slc.cpg/sg47_2_cif.got.tgz:2580.got - 2010.04.14 03:12:58.
