data_PCOD8199426
_publ_section_title
;
Structure prediction by ZEFSAII (Michael W. Deem and Ramdas Pophale) SiO2 
 PCOD8199426
Probable space group: P M M M
;
_chemical_formula_sum "Si O2"
_cell_formula_units_Z 64
_cell_length_a 14.499781
_cell_length_b 8.977053
_cell_length_c 29.311624
_cell_angle_alpha 90.000000
_cell_angle_beta 90.000000
_cell_angle_gamma 90.000000
_cell_volume 3815.356405
_symmetry_space_group_name_H-M "P M M M"
_symmetry_group_IT_number 47
_symmetry_cell_setting 'orthorhombic'
loop_
_space_group_symop_operation_xyz
x,y,z
-x,-y,z
x,-y,-z
-x,y,-z
-x,-y,-z
x,y,-z
-x,y,z
x,-y,z
loop_
_atom_site_type_symbol
_atom_site_label
_atom_site_fract_x
_atom_site_fract_y
_atom_site_fract_z
Si Si1 0.603440 0.675002 0.278950
Si Si2 0.106996 0.670716 0.682760
Si Si3 0.890572 0.666530 0.951721
Si Si4 0.607563 0.827826 0.372694
Si Si5 0.782091 0.675585 0.230737
Si Si6 0.727830 0.328445 0.448432
Si Si7 0.894765 0.824907 0.589727
Si Si8 0.104752 0.678626 0.146176
O O1 0.500000 0.726555 0.264980
O O2 0.606561 0.500000 0.288591
O O3 0.637460 0.753350 0.325140
O O4 0.673995 0.717703 0.237902
O O5 0.134694 0.500000 0.671885
O O6 0.161612 0.735922 0.725909
O O7 0.134579 0.772243 0.640073
O O8 0.000000 0.683619 0.694659
O O9 0.849845 0.500000 0.953387
O O10 0.860364 0.742322 0.903527
O O11 0.000000 0.658232 0.949919
O O12 0.860000 0.747292 0.000000
O O13 0.500000 0.802641 0.381159
O O14 0.658978 0.755214 0.414999
O O15 0.634562 0.000000 0.370237
O O16 0.795950 0.500000 0.228100
O O17 0.824918 0.744045 0.184266
O O18 0.691099 0.310289 0.500000
O O19 0.733269 0.500000 0.434013
O O20 0.829899 0.257656 0.446353
O O21 0.000000 0.779331 0.579057
O O22 0.879939 0.000000 0.585965
O O23 0.106804 0.500000 0.144344
O O24 0.000000 0.731334 0.157276
#
# Coordination Sequence:
#
# PCOD8199426 Si02
#       8
#     8   8   8   8   8   8   8   8
#     4   9  17  29  45  64  86 112 141 171 202 241
#     4   9  16  26  42  63  85 109 138 171 207 251
#     4   7   9  13  21  34  56  90 130 169 209 251
#     4  10  21  37  57  78  97 117 142 174 214 261
#     4   9  15  22  34  53  77 104 134 169 208 247
#     4  11  24  39  55  75  97 121 148 178 214 257
#     4  10  21  36  53  72  94 121 153 187 220 254
#     4   8  12  17  26  43  69  99 132 172 214 252
#
# _framework density 16.774318000000001
#
# number of rings (size 3 to 8) (size 9 to 14) (size 15 to 20)
#    0.000    2.875    0.000    3.375    0.000    5.500 
#    0.000    2.500    0.000    0.000    0.000    0.000 
#    0.000    0.500    0.000    7.000    0.000    2.750 
#
# Total GULP energy -793018.928780 kJ/mol
# GULP energy per Si atom -12390.920762 kJ/mol
# Density = 1.673614 g / cm^3
# Si number density = 16.774318 Si / 1000 Ang^3
#
#
#
# Elastic Constant Matrix: (Units=GPa)
#
#
# Indices 1 2 3 4 5 6 
#
# 1 69.4990 21.0977 59.3154 0.0000 0.0000 0.0000
# 2 21.0977 40.0602 26.4220 0.0000 0.0000 0.0000
# 3 59.3154 26.4220 121.5180 0.0000 0.0000 0.0000
# 4 0.0000 0.0000 0.0000 -0.1282 0.0000 0.0000
# 5 0.0000 0.0000 0.0000 0.0000 19.0770 0.0000
# 6 0.0000 0.0000 0.0000 0.0000 0.0000 16.4786
#
#
#
# Elastic Compliance Matrix: (Units=1/GPa)
#
#
# Indices 1 2 3 4 5 6 
#
# 1 0.025916 -0.006193 -0.011303 0.000000 0.000000 0.000000
# 2 -0.006193 0.030622 -0.003635 0.000000 0.000000 0.000000
# 3 -0.011303 -0.003635 0.014537 0.000000 0.000000 0.000000
# 4 0.000000 0.000000 0.000000 -7.799680 0.000000 0.000000
# 5 0.000000 0.000000 0.000000 0.000000 0.052419 0.000000
# 6 0.000000 0.000000 0.000000 0.000000 0.000000 0.060685
#
#
# Mechanical properties :
#
#
# Convention : Reuss Voigt Hill
#
# Bulk Modulus (GPa) = 34.70902 49.41638 42.06270
# Shear Modulus (GPa) = -0.66106 15.36827 7.35361
#
# Velocity S-wave (km/s) = -0.62845 3.03013 2.09604
# Velocity P-wave (km/s) = 4.49556 6.46264 5.56668
#
# Compressibility (1/GPa) = 0.02881095
#
# Stress axis : x y z
#
# Youngs Moduli (GPa) = 38.58622 32.65662 68.78969
#
# Poissons Ratio (x) = 0.20225 0.77756
# Poissons Ratio (y) = 0.23898 0.25005
# Poissons Ratio (z) = 0.43616 0.11871
#
# Static dielectric constant tensor:
#      x y z
#    x 3.187400 0.000000 0.000000 
#    y 0.000000 2.841020 0.000000 
#    z 0.000000 0.000000 3.515760 
# 
# 
# High freq. dielectric constant tensor:
#      x y z
#    x 1.629910 0.000000 0.000000 
#    y 0.000000 1.609340 0.000000 
#    z 0.000000 0.000000 1.644040 
# 
# From -- ./inp_files/22138.got.cif
#   From: 2010.03.12/outbox.cif.g09.slc.cpg/sg47_12_cif.got.tgz:22138.got - 2010.04.14 03:12:58.
