data_PCOD8199645
_publ_section_title
;
Structure prediction by ZEFSAII (Michael W. Deem and Ramdas Pophale) SiO2 
 PCOD8199645
Probable space group: P M M M
;
_chemical_formula_sum "Si O2"
_cell_formula_units_Z 56
_cell_length_a 13.965512
_cell_length_b 22.344526
_cell_length_c 9.790750
_cell_angle_alpha 90.000000
_cell_angle_beta 90.000000
_cell_angle_gamma 90.000000
_cell_volume 3055.230423
_symmetry_space_group_name_H-M "P M M M"
_symmetry_group_IT_number 47
_symmetry_cell_setting 'orthorhombic'
loop_
_space_group_symop_operation_xyz
x,y,z
-x,-y,z
x,-y,-z
-x,y,-z
-x,-y,-z
x,y,-z
-x,y,z
x,-y,z
loop_
_atom_site_type_symbol
_atom_site_label
_atom_site_fract_x
_atom_site_fract_y
_atom_site_fract_z
Si Si1 0.613308 0.932163 0.500000
Si Si2 0.613506 0.931257 0.000000
Si Si3 0.889541 0.652073 0.342346
Si Si4 0.232875 0.430038 0.841858
Si Si5 0.273553 0.742079 0.654891
Si Si6 0.388950 0.374326 0.342452
Si Si7 0.107923 0.931029 0.658668
Si Si8 0.710423 0.129701 0.749642
O O1 0.500000 0.933094 0.500000
O O2 0.650613 0.896625 0.372633
O O3 0.653886 0.000000 0.500000
O O4 0.655218 0.895330 0.876123
O O5 0.500000 0.928304 0.000000
O O6 0.648397 0.000000 0.000000
O O7 0.872754 0.631326 0.500000
O O8 0.854822 0.600916 0.238261
O O9 0.829159 0.712070 0.313181
O O10 0.000000 0.666410 0.313906
O O11 0.212797 0.500000 0.838325
O O12 0.331639 0.416418 0.762145
O O13 0.238892 0.407741 0.000000
O O14 0.275350 0.765915 0.500000
O O15 0.357690 0.694250 0.680436
O O16 0.290671 0.798257 0.753273
O O17 0.367359 0.392929 0.500000
O O18 0.500000 0.381078 0.307533
O O19 0.132783 0.921591 0.500000
O O20 0.179240 0.891403 0.748498
O O21 0.000000 0.909617 0.689381
O O22 0.120162 0.000000 0.699371
#
# Coordination Sequence:
#
# PCOD8199645 Si02
#       8
#     4   4   8   8   8   8   8   8
#     4  11  22  34  55  85 109 139 191 242 286 342
#     4  11  26  44  57  75 111 155 193 234 290 350
#     4   9  19  37  61  85 115 153 189 230 279 331
#     4  10  21  36  55  83 120 155 191 235 279 328
#     4   9  18  35  56  85 112 137 181 236 284 334
#     4   9  19  36  57  80 111 150 190 236 288 337
#     4   9  17  30  52  83 111 134 169 220 278 337
#     4  12  21  37  59  81 111 149 187 236 290 342
#
# _framework density 18.329224
#
# number of rings (size 3 to 8) (size 9 to 14) (size 15 to 20)
#    0.000    2.143    1.429    3.429    0.000    5.143 
#    5.143    4.643    0.000    1.286    0.000    0.000 
#    0.000    0.000    0.000    0.000    0.000    0.000 
#
# Total GULP energy -694320.459726 kJ/mol
# GULP energy per Si atom -12398.579638 kJ/mol
# Density = 1.828751 g / cm^3
# Si number density = 18.329224 Si / 1000 Ang^3
#
#
#
# Elastic Constant Matrix: (Units=GPa)
#
#
# Indices 1 2 3 4 5 6 
#
# 1 100.7753 32.3857 43.5309 0.0000 0.0000 0.0000
# 2 32.3857 103.7684 55.0256 0.0000 0.0000 0.0000
# 3 43.5309 55.0256 115.4957 0.0000 0.0000 0.0000
# 4 0.0000 0.0000 0.0000 36.6486 0.0000 0.0000
# 5 0.0000 0.0000 0.0000 0.0000 25.3585 0.0000
# 6 0.0000 0.0000 0.0000 0.0000 0.0000 8.6408
#
#
#
# Elastic Compliance Matrix: (Units=1/GPa)
#
#
# Indices 1 2 3 4 5 6 
#
# 1 0.012104 -0.001818 -0.003696 0.000000 0.000000 0.000000
# 2 -0.001818 0.013167 -0.005588 0.000000 0.000000 0.000000
# 3 -0.003696 -0.005588 0.012714 0.000000 0.000000 0.000000
# 4 0.000000 0.000000 0.000000 0.027286 0.000000 0.000000
# 5 0.000000 0.000000 0.000000 0.000000 0.039435 0.000000
# 6 0.000000 0.000000 0.000000 0.000000 0.000000 0.115730
#
#
# Mechanical properties :
#
#
# Convention : Reuss Voigt Hill
#
# Bulk Modulus (GPa) = 63.36679 64.65822 64.01250
# Shear Modulus (GPa) = 20.16942 26.73605 23.45273
#
# Velocity S-wave (km/s) = 3.32082 3.82338 3.58093
# Velocity P-wave (km/s) = 7.02498 7.40565 7.21782
#
# Compressibility (1/GPa) = 0.01578114
#
# Stress axis : x y z
#
# Youngs Moduli (GPa) = 82.61935 75.94483 78.65476
#
# Poissons Ratio (x) = 0.13804 0.29070
# Poissons Ratio (y) = 0.15017 0.43955
# Poissons Ratio (z) = 0.30536 0.42440
#
# Static dielectric constant tensor:
#      x y z
#    x 3.550300 0.000000 0.000000 
#    y 0.000000 3.290080 0.000000 
#    z 0.000000 0.000000 2.807950 
# 
# 
# High freq. dielectric constant tensor:
#      x y z
#    x 1.722780 0.000000 0.000000 
#    y 0.000000 1.705080 0.000000 
#    z 0.000000 0.000000 1.695090 
# 
# From -- ./inp_files/7450.got.cif
#   From: 2010.03.12/outbox.cif.g09.slc.cpg/sg47_4_cif.got.tgz:7450.got - 2010.04.14 03:12:58.
