data_PCOD8199366
_publ_section_title
;
Structure prediction by ZEFSAII (Michael W. Deem and Ramdas Pophale) SiO2 
 PCOD8199366
Probable space group: P M M M
;
_chemical_formula_sum "Si O2"
_cell_formula_units_Z 48
_cell_length_a 8.853751
_cell_length_b 9.615020
_cell_length_c 29.043021
_cell_angle_alpha 90.000000
_cell_angle_beta 90.000000
_cell_angle_gamma 90.000000
_cell_volume 2472.403130
_symmetry_space_group_name_H-M "P M M M"
_symmetry_group_IT_number 47
_symmetry_cell_setting 'orthorhombic'
loop_
_space_group_symop_operation_xyz
x,y,z
-x,-y,z
x,-y,-z
-x,y,-z
-x,-y,-z
x,y,-z
-x,y,z
x,-y,z
loop_
_atom_site_type_symbol
_atom_site_label
_atom_site_fract_x
_atom_site_fract_y
_atom_site_fract_z
Si Si1 0.167042 0.000000 0.946795
Si Si2 0.820801 0.659229 0.280573
Si Si3 0.822386 0.500000 0.052199
Si Si4 0.676779 0.840857 0.797171
Si Si5 0.819920 0.158079 0.633903
Si Si6 0.676257 0.754631 0.900576
Si Si7 0.820366 0.344116 0.551291
O O1 0.271393 0.872056 0.934827
O O2 0.000000 0.000000 0.922424
O O3 0.135042 0.000000 0.000000
O O4 0.759989 0.500000 0.283542
O O5 0.764522 0.732848 0.234562
O O6 0.759734 0.749858 0.323529
O O7 0.000000 0.657878 0.280422
O O8 0.771712 0.374899 0.083780
O O9 0.000000 0.500000 0.047141
O O10 0.752621 0.500000 0.000000
O O11 0.500000 0.826805 0.787423
O O12 0.716941 0.798941 0.848930
O O13 0.729972 0.000000 0.788213
O O14 0.756897 0.231383 0.587500
O O15 0.000000 0.155082 0.633685
O O16 0.756782 0.000000 0.637103
O O17 0.500000 0.723868 0.906247
O O18 0.763635 0.303799 0.500000
O O19 0.764037 0.500000 0.564188
O O20 0.000000 0.343026 0.552655
#
# Coordination Sequence:
#
# PCOD8199366 Si02
#       7
#     4   8   4   8   8   8   8
#     4  11  23  39  61  91 123 153 187 231 282 331
#     4  10  21  35  53  79 107 139 180 223 271 329
#     4  11  25  43  61  87 123 155 187 233 284 331
#     4  10  22  41  60  81 110 141 176 223 275 323
#     4   9  16  26  41  63  95 133 174 223 273 323
#     4  11  23  41  63  87 115 152 194 233 278 336
#     4   8  13  21  34  54  85 129 176 220 270 326
#
# _framework density 19.414311000000001
#
# number of rings (size 3 to 8) (size 9 to 14) (size 15 to 20)
#    0.000    2.167    0.833    3.000    1.167    8.333 
#    0.000    1.667    0.000    0.000    0.000    0.000 
#    0.000    0.667    0.000    7.000    0.000    9.667 
#
# Total GULP energy -595002.639232 kJ/mol
# GULP energy per Si atom -12395.888317 kJ/mol
# Density = 1.937012 g / cm^3
# Si number density = 19.414311 Si / 1000 Ang^3
#
#
#
# Elastic Constant Matrix: (Units=GPa)
#
#
# Indices 1 2 3 4 5 6 
#
# 1 24.7301 22.7651 26.4839 0.0000 0.0000 0.0000
# 2 22.7651 178.3010 70.1536 0.0000 0.0000 0.0000
# 3 26.4839 70.1536 110.5319 0.0000 0.0000 0.0000
# 4 0.0000 0.0000 0.0000 41.5051 0.0000 0.0000
# 5 0.0000 0.0000 0.0000 0.0000 0.4110 0.0000
# 6 0.0000 0.0000 0.0000 0.0000 0.0000 25.1389
#
#
#
# Elastic Compliance Matrix: (Units=1/GPa)
#
#
# Indices 1 2 3 4 5 6 
#
# 1 0.055190 -0.002457 -0.011664 0.000000 0.000000 0.000000
# 2 -0.002457 0.007585 -0.004225 0.000000 0.000000 0.000000
# 3 -0.011664 -0.004225 0.014524 0.000000 0.000000 0.000000
# 4 0.000000 0.000000 0.000000 0.024093 0.000000 0.000000
# 5 0.000000 0.000000 0.000000 0.000000 2.433289 0.000000
# 6 0.000000 0.000000 0.000000 0.000000 0.000000 0.039779
#
#
# Mechanical properties :
#
#
# Convention : Reuss Voigt Hill
#
# Bulk Modulus (GPa) = 24.62747 61.37425 43.00086
# Shear Modulus (GPa) = 1.90499 26.35502 14.13000
#
# Velocity S-wave (km/s) = 0.99164 3.68843 2.70073
# Velocity P-wave (km/s) = 3.74485 7.05839 5.64999
#
# Compressibility (1/GPa) = 0.04060506
#
# Stress axis : x y z
#
# Youngs Moduli (GPa) = 18.11928 131.84559 68.85342
#
# Poissons Ratio (x) = 0.32397 0.80312
# Poissons Ratio (y) = 0.04452 0.29092
# Poissons Ratio (z) = 0.21135 0.55707
#
# Static dielectric constant tensor:
#      x y z
#    x 3.164950 0.000000 0.000000 
#    y 0.000000 3.832630 0.000000 
#    z 0.000000 0.000000 3.757760 
# 
# 
# High freq. dielectric constant tensor:
#      x y z
#    x 1.713310 0.000000 0.000000 
#    y 0.000000 1.772120 0.000000 
#    z 0.000000 0.000000 1.767290 
# 
# From -- ./inp_files/34155.got.cif
#   From: 2010.03.12/outbox.cif.g09.slc.cpg/sg47_18_cif.got.tgz:34155.got - 2010.04.14 03:12:58.
