data_PCOD8199234
_publ_section_title
;
Structure prediction by ZEFSAII (Michael W. Deem and Ramdas Pophale) SiO2 
 PCOD8199234
Probable space group: P M M M
;
_chemical_formula_sum "Si O2"
_cell_formula_units_Z 44
_cell_length_a 9.557886
_cell_length_b 29.925127
_cell_length_c 7.890327
_cell_angle_alpha 90.000000
_cell_angle_beta 90.000000
_cell_angle_gamma 90.000000
_cell_volume 2256.798843
_symmetry_space_group_name_H-M "P M M M"
_symmetry_group_IT_number 47
_symmetry_cell_setting 'orthorhombic'
loop_
_space_group_symop_operation_xyz
x,y,z
-x,-y,z
x,-y,-z
-x,y,-z
-x,-y,-z
x,y,-z
-x,y,z
x,-y,z
loop_
_atom_site_type_symbol
_atom_site_label
_atom_site_fract_x
_atom_site_fract_y
_atom_site_fract_z
Si Si1 0.842436 0.050574 0.800331
Si Si2 0.844686 0.792924 0.302999
Si Si3 0.334373 0.450238 0.500000
Si Si4 0.664374 0.612271 0.195036
Si Si5 0.842855 0.697007 0.800751
Si Si6 0.345820 0.129682 0.695633
O O1 0.732008 0.082633 0.711914
O O2 0.000000 0.063323 0.743008
O O3 0.808424 0.000000 0.743757
O O4 0.828249 0.055478 0.000000
O O5 0.856864 0.803281 0.500000
O O6 0.783145 0.743276 0.274786
O O7 0.743882 0.830191 0.217938
O O8 0.000000 0.796107 0.219690
O O9 0.268977 0.500000 0.500000
O O10 0.500000 0.453037 0.500000
O O11 0.285497 0.425922 0.326334
O O12 0.500000 0.621254 0.210892
O O13 0.742006 0.657038 0.255431
O O14 0.703260 0.598879 0.000000
O O15 0.000000 0.687680 0.731804
O O16 0.843928 0.701659 0.000000
O O17 0.365109 0.140886 0.500000
O O18 0.500000 0.127187 0.781355
#
# Coordination Sequence:
#
# PCOD8199234 Si02
#       6
#     8   8   4   8   8   8
#     4   9  19  36  56  76  97 125 165 210 254 302
#     4   9  18  32  49  69  95 130 169 206 245 293
#     4   9  18  32  51  77 105 135 175 217 258 307
#     4   9  18  32  50  74 103 134 170 214 261 308
#     4   9  18  32  50  73 100 131 167 207 253 302
#     4  10  21  35  50  73 105 136 166 203 251 304
#
# _framework density 19.496642999999999
#
# number of rings (size 3 to 8) (size 9 to 14) (size 15 to 20)
#    0.000    2.818    0.000    1.091    1.273    4.000 
#    0.000    6.364    0.000    1.091    0.000    2.545 
#    0.000    0.000    0.000    0.000    0.000    0.000 
#
# Total GULP energy -545413.732047 kJ/mol
# GULP energy per Si atom -12395.766637 kJ/mol
# Density = 1.945227 g / cm^3
# Si number density = 19.496643 Si / 1000 Ang^3
#
#
#
# Elastic Constant Matrix: (Units=GPa)
#
#
# Indices 1 2 3 4 5 6 
#
# 1 100.7132 82.7016 24.5812 0.0000 0.0000 0.0000
# 2 82.7016 166.6399 40.4854 0.0000 0.0000 0.0000
# 3 24.5812 40.4854 46.0084 0.0000 0.0000 0.0000
# 4 0.0000 0.0000 0.0000 8.0168 0.0000 0.0000
# 5 0.0000 0.0000 0.0000 0.0000 15.6689 0.0000
# 6 0.0000 0.0000 0.0000 0.0000 0.0000 27.1926
#
#
#
# Elastic Compliance Matrix: (Units=1/GPa)
#
#
# Indices 1 2 3 4 5 6 
#
# 1 0.016917 -0.007886 -0.002099 0.000000 0.000000 0.000000
# 2 -0.007886 0.011309 -0.005738 0.000000 0.000000 0.000000
# 3 -0.002099 -0.005738 0.027906 0.000000 0.000000 0.000000
# 4 0.000000 0.000000 0.000000 0.124737 0.000000 0.000000
# 5 0.000000 0.000000 0.000000 0.000000 0.063821 0.000000
# 6 0.000000 0.000000 0.000000 0.000000 0.000000 0.036775
#
#
# Mechanical properties :
#
#
# Convention : Reuss Voigt Hill
#
# Bulk Modulus (GPa) = 40.50934 67.65529 54.08232
# Shear Modulus (GPa) = 15.56961 21.21524 18.39243
#
# Velocity S-wave (km/s) = 2.82898 3.30229 3.07475
# Velocity P-wave (km/s) = 5.61191 7.02257 6.35649
#
# Compressibility (1/GPa) = 0.02468566
#
# Stress axis : x y z
#
# Youngs Moduli (GPa) = 59.11231 88.42844 35.83476
#
# Poissons Ratio (x) = 0.69732 0.07523
# Poissons Ratio (y) = 0.46614 0.20562
# Poissons Ratio (z) = 0.12409 0.50740
#
# Static dielectric constant tensor:
#      x y z
#    x 3.760880 0.000000 0.000000 
#    y 0.000000 3.714790 0.000000 
#    z 0.000000 0.000000 3.395650 
# 
# 
# High freq. dielectric constant tensor:
#      x y z
#    x 1.743800 0.000000 0.000000 
#    y 0.000000 1.759590 0.000000 
#    z 0.000000 0.000000 1.747260 
# 
# From -- ./inp_files/2123.got.cif
#   From: 2010.03.12/outbox.cif.g09.slc.cpg/sg47_2_cif.got.tgz:2123.got - 2010.04.14 03:12:58.
