data_PCOD8199227
_publ_section_title
;
Structure prediction by ZEFSAII (Michael W. Deem and Ramdas Pophale) SiO2 
 PCOD8199227
Probable space group: P M M M
;
_chemical_formula_sum "Si O2"
_cell_formula_units_Z 44
_cell_length_a 9.144428
_cell_length_b 27.953078
_cell_length_c 9.577346
_cell_angle_alpha 90.000000
_cell_angle_beta 90.000000
_cell_angle_gamma 90.000000
_cell_volume 2448.112428
_symmetry_space_group_name_H-M "P M M M"
_symmetry_group_IT_number 47
_symmetry_cell_setting 'orthorhombic'
loop_
_space_group_symop_operation_xyz
x,y,z
-x,-y,z
x,-y,-z
-x,y,-z
-x,-y,-z
x,y,-z
-x,y,z
x,-y,z
loop_
_atom_site_type_symbol
_atom_site_label
_atom_site_fract_x
_atom_site_fract_y
_atom_site_fract_z
Si Si1 0.170926 0.079888 0.162516
Si Si2 0.832910 0.444729 0.838901
Si Si3 0.828589 0.273464 0.660910
Si Si4 0.672893 0.000000 0.337679
Si Si5 0.329323 0.631612 0.338607
Si Si6 0.173570 0.812704 0.154117
O O1 0.220032 0.133986 0.200045
O O2 0.000000 0.071668 0.192862
O O3 0.264102 0.046695 0.263134
O O4 0.203965 0.068602 0.000000
O O5 0.797903 0.500000 0.809897
O O6 0.724483 0.414164 0.745384
O O7 0.000000 0.433115 0.798305
O O8 0.805085 0.432207 0.000000
O O9 0.790948 0.265124 0.500000
O O10 0.749813 0.320821 0.718414
O O11 0.764591 0.227195 0.740735
O O12 0.000000 0.280103 0.687299
O O13 0.500000 0.000000 0.320476
O O14 0.719294 0.000000 0.500000
O O15 0.289741 0.623252 0.500000
O O16 0.500000 0.638223 0.314473
O O17 0.000000 0.810736 0.150895
O O18 0.235695 0.801462 0.000000
#
# Coordination Sequence:
#
# PCOD8199227 Si02
#       6
#     8   8   8   4   8   8
#     4   9  18  34  56  79 101 128 165 207 251 300
#     4   9  19  36  56  77 100 127 163 208 256 303
#     4   9  17  30  49  72  98 130 167 204 243 289
#     4  11  24  37  48  70 104 137 170 207 248 296
#     4  10  21  35  50  72 104 139 172 205 244 293
#     4   8  15  29  50  76 101 123 155 203 252 295
#
# _framework density 17.973030999999999
#
# number of rings (size 3 to 8) (size 9 to 14) (size 15 to 20)
#    0.000    2.818    0.000    2.727    0.000    5.818 
#    0.000    7.273    0.000    3.273    0.000    0.000 
#    0.000    0.000    0.000    0.000    0.000    0.000 
#
# Total GULP energy -545565.980104 kJ/mol
# GULP energy per Si atom -12399.226821 kJ/mol
# Density = 1.793212 g / cm^3
# Si number density = 17.973031 Si / 1000 Ang^3
#
#
#
# Elastic Constant Matrix: (Units=GPa)
#
#
# Indices 1 2 3 4 5 6 
#
# 1 54.4813 49.9522 45.7561 0.0000 0.0000 0.0000
# 2 49.9522 140.9944 78.4373 0.0000 0.0000 0.0000
# 3 45.7561 78.4373 91.0214 0.0000 0.0000 0.0000
# 4 0.0000 0.0000 0.0000 35.2639 0.0000 0.0000
# 5 0.0000 0.0000 0.0000 0.0000 24.7571 0.0000
# 6 0.0000 0.0000 0.0000 0.0000 0.0000 1.5683
#
#
#
# Elastic Compliance Matrix: (Units=1/GPa)
#
#
# Indices 1 2 3 4 5 6 
#
# 1 0.033365 -0.004783 -0.012651 0.000000 0.000000 0.000000
# 2 -0.004783 0.014309 -0.009927 0.000000 0.000000 0.000000
# 3 -0.012651 -0.009927 0.025900 0.000000 0.000000 0.000000
# 4 0.000000 0.000000 0.000000 0.028358 0.000000 0.000000
# 5 0.000000 0.000000 0.000000 0.000000 0.040392 0.000000
# 6 0.000000 0.000000 0.000000 0.000000 0.000000 0.637634
#
#
# Mechanical properties :
#
#
# Convention : Reuss Voigt Hill
#
# Bulk Modulus (GPa) = 53.03972 70.53201 61.78587
# Shear Modulus (GPa) = 5.94556 19.80798 12.87677
#
# Velocity S-wave (km/s) = 1.82078 3.32338 2.67956
# Velocity P-wave (km/s) = 5.83053 7.35221 6.63513
#
# Compressibility (1/GPa) = 0.01885379
#
# Stress axis : x y z
#
# Youngs Moduli (GPa) = 29.97157 69.88445 38.60972
#
# Poissons Ratio (x) = 0.33425 0.48844
# Poissons Ratio (y) = 0.14335 0.38327
# Poissons Ratio (z) = 0.37916 0.69372
#
# Static dielectric constant tensor:
#      x y z
#    x 3.060340 0.000000 0.000000 
#    y 0.000000 3.533310 0.000000 
#    z 0.000000 0.000000 3.386370 
# 
# 
# High freq. dielectric constant tensor:
#      x y z
#    x 1.671790 0.000000 0.000000 
#    y 0.000000 1.708860 0.000000 
#    z 0.000000 0.000000 1.692320 
# 
# From -- ./inp_files/2047.got.cif
#   From: 2010.03.12/outbox.cif.g09.slc.cpg/sg47_2_cif.got.tgz:2047.got - 2010.04.14 03:12:58.
