data_PCOD8199056
_publ_section_title
;
Structure prediction by ZEFSAII (Michael W. Deem and Ramdas Pophale) SiO2 
 PCOD8199056
Probable space group: P M M M
;
_chemical_formula_sum "Si O2"
_cell_formula_units_Z 64
_cell_length_a 20.707761
_cell_length_b 9.359852
_cell_length_c 18.835974
_cell_angle_alpha 90.000000
_cell_angle_beta 90.000000
_cell_angle_gamma 90.000000
_cell_volume 3650.818208
_symmetry_space_group_name_H-M "P M M M"
_symmetry_group_IT_number 47
_symmetry_cell_setting 'orthorhombic'
loop_
_space_group_symop_operation_xyz
x,y,z
-x,-y,z
x,-y,-z
-x,y,-z
-x,-y,-z
x,y,-z
-x,y,z
x,-y,z
loop_
_atom_site_type_symbol
_atom_site_label
_atom_site_fract_x
_atom_site_fract_y
_atom_site_fract_z
Si Si1 0.926857 0.165754 0.179471
Si Si2 0.692729 0.333533 0.668705
Si Si3 0.570995 0.833702 0.679972
Si Si4 0.187776 0.168212 0.920087
Si Si5 0.292665 0.661709 0.164830
Si Si6 0.185846 0.330261 0.420620
Si Si7 0.926578 0.667137 0.319888
Si Si8 0.568736 0.661285 0.178958
O O1 0.880560 0.210314 0.114855
O O2 0.905849 0.254001 0.248221
O O3 0.000000 0.202536 0.156332
O O4 0.919383 0.000000 0.198770
O O5 0.681844 0.500000 0.654532
O O6 0.628553 0.251577 0.640701
O O7 0.706755 0.302242 0.751431
O O8 0.752819 0.273537 0.623499
O O9 0.500000 0.809474 0.643916
O O10 0.567207 0.777763 0.759882
O O11 0.588822 0.000000 0.680952
O O12 0.246158 0.232912 0.875881
O O13 0.197820 0.000000 0.920074
O O14 0.187938 0.229193 0.000000
O O15 0.268813 0.500000 0.152166
O O16 0.365838 0.684765 0.133282
O O17 0.187376 0.265757 0.500000
O O18 0.187317 0.500000 0.423452
O O19 0.119858 0.279101 0.382813
O O20 0.917525 0.500000 0.305283
O O21 0.000000 0.704415 0.341711
O O22 0.500000 0.674313 0.135901
O O23 0.574029 0.500000 0.211928
#
# Coordination Sequence:
#
# PCOD8199056 Si02
#       8
#     8   8   8   8   8   8   8   8
#     4   9  18  33  52  71  91 118 152 189 228 270
#     4   9  17  29  46  67  91 121 155 190 227 268
#     4   9  16  25  40  65  93 117 146 188 234 276
#     4  10  21  34  47  66  92 121 153 189 228 270
#     4   9  17  29  47  70  93 119 151 186 227 273
#     4   9  17  29  46  69  96 124 155 191 227 264
#     4   9  17  30  50  74  97 121 150 186 227 270
#     4   8  14  26  44  66  92 119 148 185 227 269
#
# _framework density 17.530317
#
# number of rings (size 3 to 8) (size 9 to 14) (size 15 to 20)
#    0.000    3.000    0.000    1.875    0.000    5.000 
#    0.000    3.125    0.000    2.250    0.000    9.625 
#    0.000    0.000    0.000    0.000    0.000    0.000 
#
# Total GULP energy -793059.596654 kJ/mol
# GULP energy per Si atom -12391.556198 kJ/mol
# Density = 1.749042 g / cm^3
# Si number density = 17.530317 Si / 1000 Ang^3
#
#
#
# Elastic Constant Matrix: (Units=GPa)
#
#
# Indices 1 2 3 4 5 6 
#
# 1 155.4259 45.5001 70.5690 0.0000 0.0000 0.0000
# 2 45.5001 42.4273 30.0621 0.0000 0.0000 0.0000
# 3 70.5690 30.0621 86.2672 0.0000 0.0000 0.0000
# 4 0.0000 0.0000 0.0000 13.4408 0.0000 0.0000
# 5 0.0000 0.0000 0.0000 0.0000 5.1293 0.0000
# 6 0.0000 0.0000 0.0000 0.0000 0.0000 27.7732
#
#
#
# Elastic Compliance Matrix: (Units=1/GPa)
#
#
# Indices 1 2 3 4 5 6 
#
# 1 0.011902 -0.007789 -0.007022 0.000000 0.000000 0.000000
# 2 -0.007789 0.036394 -0.006311 0.000000 0.000000 0.000000
# 3 -0.007022 -0.006311 0.019536 0.000000 0.000000 0.000000
# 4 0.000000 0.000000 0.000000 0.074400 0.000000 0.000000
# 5 0.000000 0.000000 0.000000 0.000000 0.194960 0.000000
# 6 0.000000 0.000000 0.000000 0.000000 0.000000 0.036006
#
#
# Mechanical properties :
#
#
# Convention : Reuss Voigt Hill
#
# Bulk Modulus (GPa) = 39.08088 64.04252 51.56170
# Shear Modulus (GPa) = 11.79321 18.46793 15.13057
#
# Velocity S-wave (km/s) = 2.59652 3.24927 2.94106
# Velocity P-wave (km/s) = 5.59740 7.11960 6.40389
#
# Compressibility (1/GPa) = 0.02558796
#
# Stress axis : x y z
#
# Youngs Moduli (GPa) = 84.01634 27.47678 51.18851
#
# Poissons Ratio (x) = 0.21401 0.35946
# Poissons Ratio (y) = 0.65438 0.32306
# Poissons Ratio (z) = 0.58999 0.17341
#
# Static dielectric constant tensor:
#      x y z
#    x 3.757550 0.000000 0.000000 
#    y 0.000000 3.097870 0.000000 
#    z 0.000000 0.000000 3.031400 
# 
# 
# High freq. dielectric constant tensor:
#      x y z
#    x 1.703820 0.000000 0.000000 
#    y 0.000000 1.660790 0.000000 
#    z 0.000000 0.000000 1.631150 
# 
# From -- ./inp_files/28791.got.cif
#   From: 2010.03.12/outbox.cif.g09.slc.cpg/sg47_15_cif.got.tgz:28791.got - 2010.04.14 03:12:58.
