data_PCOD8199693
_publ_section_title
;
Structure prediction by ZEFSAII (Michael W. Deem and Ramdas Pophale) SiO2 
 PCOD8199693
Probable space group: P M M M
;
_chemical_formula_sum "Si O2"
_cell_formula_units_Z 40
_cell_length_a 12.866165
_cell_length_b 19.295280
_cell_length_c 9.236289
_cell_angle_alpha 90.000000
_cell_angle_beta 90.000000
_cell_angle_gamma 90.000000
_cell_volume 2292.966528
_symmetry_space_group_name_H-M "P M M M"
_symmetry_group_IT_number 47
_symmetry_cell_setting 'orthorhombic'
loop_
_space_group_symop_operation_xyz
x,y,z
-x,-y,z
x,-y,-z
-x,y,-z
-x,-y,-z
x,y,-z
-x,y,z
x,-y,z
loop_
_atom_site_type_symbol
_atom_site_label
_atom_site_fract_x
_atom_site_fract_y
_atom_site_fract_z
Si Si1 0.119038 0.918972 0.833988
Si Si2 0.305234 0.852304 0.671787
Si Si3 0.696602 0.576601 0.834695
Si Si4 0.616800 0.706133 0.666268
Si Si5 0.112171 0.500000 0.829469
Si Si6 0.500000 0.082130 0.833374
O O1 0.193365 0.877598 0.725895
O O2 0.000000 0.898662 0.799035
O O3 0.136483 0.000000 0.807838
O O4 0.145932 0.900080 0.000000
O O5 0.317018 0.864898 0.500000
O O6 0.310507 0.770551 0.710073
O O7 0.396854 0.892300 0.752962
O O8 0.644030 0.500000 0.812195
O O9 0.642782 0.635039 0.743376
O O10 0.819308 0.568477 0.790159
O O11 0.685860 0.599733 0.000000
O O12 0.629204 0.688400 0.500000
O O13 0.500000 0.729007 0.705222
O O14 0.000000 0.500000 0.749442
O O15 0.095366 0.500000 0.000000
O O16 0.500000 0.000000 0.828186
O O17 0.500000 0.108317 0.000000
#
# Coordination Sequence:
#
# PCOD8199693 Si02
#       6
#     8   8   8   8   4   4
#     4   9  19  37  59  82 110 143 181 228 278 330
#     4  11  22  37  55  79 112 147 186 230 273 327
#     4   8  17  32  52  80 104 128 171 219 257 305
#     4  10  21  37  52  70 105 147 179 213 265 322
#     4   7  12  28  52  75 102 130 159 207 262 305
#     4  11  23  37  55  81 110 143 184 229 281 334
#
# _framework density 17.444651
#
# number of rings (size 3 to 8) (size 9 to 14) (size 15 to 20)
#    0.600    2.000    1.000    2.100    0.000    6.800 
#    0.000    4.000    0.000    4.800    0.000    0.000 
#    0.000    0.000    0.000    0.000    0.000    0.000 
#
# Total GULP energy -495604.735979 kJ/mol
# GULP energy per Si atom -12390.118399 kJ/mol
# Density = 1.740495 g / cm^3
# Si number density = 17.444651 Si / 1000 Ang^3
#
#
#
# Elastic Constant Matrix: (Units=GPa)
#
#
# Indices 1 2 3 4 5 6 
#
# 1 36.1370 53.0801 75.3262 0.0000 0.0000 0.0000
# 2 53.0801 96.4584 56.1306 0.0000 0.0000 0.0000
# 3 75.3262 56.1306 78.0674 0.0000 0.0000 0.0000
# 4 0.0000 0.0000 0.0000 29.6676 0.0000 0.0000
# 5 0.0000 0.0000 0.0000 0.0000 25.5179 0.0000
# 6 0.0000 0.0000 0.0000 0.0000 0.0000 4.9579
#
#
#
# Elastic Compliance Matrix: (Units=1/GPa)
#
#
# Indices 1 2 3 4 5 6 
#
# 1 -0.027349 -0.000526 0.026767 0.000000 0.000000 0.000000
# 2 -0.000526 0.017815 -0.012301 0.000000 0.000000 0.000000
# 3 0.026767 -0.012301 -0.004173 0.000000 0.000000 0.000000
# 4 0.000000 0.000000 0.000000 0.033707 0.000000 0.000000
# 5 0.000000 0.000000 0.000000 0.000000 0.039188 0.000000
# 6 0.000000 0.000000 0.000000 0.000000 0.000000 0.201698
#
#
# Mechanical properties :
#
#
# Convention : Reuss Voigt Hill
#
# Bulk Modulus (GPa) = 70.56164 64.41518 67.48841
# Shear Modulus (GPa) = 21.03201 13.77041 17.40121
#
# Velocity S-wave (km/s) = 3.47600 2.81263 3.16176
# Velocity P-wave (km/s) = 7.52641 6.89590 7.21804
#
# Compressibility (1/GPa) = 0.01417201
#
# Stress axis : x y z
#
# Youngs Moduli (GPa) = -36.56494 56.13226 -239.65083
#
# Poissons Ratio (x) = 0.02954 6.41466
# Poissons Ratio (y) = -0.01924 -2.94801
# Poissons Ratio (z) = 0.97872 0.69050
#
# Static dielectric constant tensor:
#      x y z
#    x 3.582870 0.000000 0.000000 
#    y 0.000000 3.078180 0.000000 
#    z 0.000000 0.000000 3.165650 
# 
# 
# High freq. dielectric constant tensor:
#      x y z
#    x 1.674480 0.000000 0.000000 
#    y 0.000000 1.666960 0.000000 
#    z 0.000000 0.000000 1.667470 
# 
# From -- ./inp_files/4105.got.cif
#   From: 2010.03.12/outbox.cif.g09.slc.cpg/sg47_3_cif.got.tgz:4105.got - 2010.04.14 03:12:58.
