data_PCOD8199469
_publ_section_title
;
Structure prediction by ZEFSAII (Michael W. Deem and Ramdas Pophale) SiO2 
 PCOD8199469
Probable space group: P M M M
;
_chemical_formula_sum "Si O2"
_cell_formula_units_Z 52
_cell_length_a 8.855320
_cell_length_b 13.356059
_cell_length_c 22.834994
_cell_angle_alpha 90.000000
_cell_angle_beta 90.000000
_cell_angle_gamma 90.000000
_cell_volume 2700.744438
_symmetry_space_group_name_H-M "P M M M"
_symmetry_group_IT_number 47
_symmetry_cell_setting 'orthorhombic'
loop_
_space_group_symop_operation_xyz
x,y,z
-x,-y,z
x,-y,-z
-x,y,-z
-x,-y,-z
x,y,-z
-x,y,z
x,-y,z
loop_
_atom_site_type_symbol
_atom_site_label
_atom_site_fract_x
_atom_site_fract_y
_atom_site_fract_z
Si Si1 0.174829 0.500000 0.930893
Si Si2 0.322445 0.795343 0.564974
Si Si3 0.822891 0.295516 0.254151
Si Si4 0.672755 0.611356 0.359274
Si Si5 0.173568 0.111070 0.329378
Si Si6 0.679273 0.110664 0.933891
Si Si7 0.320609 0.309193 0.129904
O O1 0.251688 0.599817 0.906459
O O2 0.000000 0.500000 0.912388
O O3 0.196474 0.500000 0.000000
O O4 0.252264 0.808706 0.500000
O O5 0.500000 0.808293 0.561533
O O6 0.276393 0.685935 0.589193
O O7 0.260003 0.878529 0.609177
O O8 0.779349 0.377534 0.302651
O O9 0.770247 0.187517 0.279503
O O10 0.728916 0.319241 0.196624
O O11 0.000000 0.300219 0.239957
O O12 0.500000 0.633353 0.340363
O O13 0.691530 0.500000 0.384411
O O14 0.000000 0.132967 0.343291
O O15 0.201218 0.000000 0.304632
O O16 0.500000 0.112980 0.933309
O O17 0.741439 0.202105 0.894397
O O18 0.734041 0.000000 0.911273
O O19 0.738474 0.126980 0.000000
O O20 0.500000 0.315808 0.124946
#
# Coordination Sequence:
#
# PCOD8199469 Si02
#       7
#     4   8   8   8   8   8   8
#     4  11  25  43  61  83 115 153 190 231 278 327
#     4   9  18  32  50  76 107 135 169 217 273 330
#     4  10  21  36  53  75 105 139 176 221 270 318
#     4   9  18  33  53  74  99 133 173 217 264 319
#     4   9  19  36  55  74 101 142 186 224 267 320
#     4   8  15  30  53  81 111 140 172 215 267 320
#     4  11  22  36  58  86 114 146 186 229 274 330
#
# _framework density 19.253948999999999
#
# number of rings (size 3 to 8) (size 9 to 14) (size 15 to 20)
#    0.000    2.538    0.000    2.077    1.077    4.000 
#    0.000    3.077    0.000    1.385    0.000    9.692 
#    0.000    0.000    0.000    0.000    0.000    0.000 
#
# Total GULP energy -644674.322010 kJ/mol
# GULP energy per Si atom -12397.583116 kJ/mol
# Density = 1.921013 g / cm^3
# Si number density = 19.253949 Si / 1000 Ang^3
#
#
#
# Elastic Constant Matrix: (Units=GPa)
#
#
# Indices 1 2 3 4 5 6 
#
# 1 51.1792 28.1398 30.0728 0.0000 0.0000 0.0000
# 2 28.1398 104.6457 22.9451 0.0000 0.0000 0.0000
# 3 30.0728 22.9451 85.6660 0.0000 0.0000 0.0000
# 4 0.0000 0.0000 0.0000 16.6012 0.0000 0.0000
# 5 0.0000 0.0000 0.0000 0.0000 22.2571 0.0000
# 6 0.0000 0.0000 0.0000 0.0000 0.0000 21.9962
#
#
#
# Elastic Compliance Matrix: (Units=1/GPa)
#
#
# Indices 1 2 3 4 5 6 
#
# 1 0.027377 -0.005582 -0.008115 0.000000 0.000000 0.000000
# 2 -0.005582 0.011291 -0.001064 0.000000 0.000000 0.000000
# 3 -0.008115 -0.001064 0.014807 0.000000 0.000000 0.000000
# 4 0.000000 0.000000 0.000000 0.060237 0.000000 0.000000
# 5 0.000000 0.000000 0.000000 0.000000 0.044929 0.000000
# 6 0.000000 0.000000 0.000000 0.000000 0.000000 0.045462
#
#
# Mechanical properties :
#
#
# Convention : Reuss Voigt Hill
#
# Bulk Modulus (GPa) = 41.75296 44.86738 43.31017
# Shear Modulus (GPa) = 20.69436 22.85978 21.77707
#
# Velocity S-wave (km/s) = 3.28199 3.44943 3.36675
# Velocity P-wave (km/s) = 6.00786 6.26245 6.13648
#
# Compressibility (1/GPa) = 0.02395040
#
# Stress axis : x y z
#
# Youngs Moduli (GPa) = 36.52674 88.56928 67.53450
#
# Poissons Ratio (x) = 0.49443 0.54807
# Poissons Ratio (y) = 0.20391 0.07188
# Poissons Ratio (z) = 0.29643 0.09427
#
# Static dielectric constant tensor:
#      x y z
#    x 3.352250 0.000000 0.000000 
#    y 0.000000 3.757830 0.000000 
#    z 0.000000 0.000000 3.523060 
# 
# 
# High freq. dielectric constant tensor:
#      x y z
#    x 1.730430 0.000000 0.000000 
#    y 0.000000 1.760130 0.000000 
#    z 0.000000 0.000000 1.743420 
# 
# From -- ./inp_files/29604.got.cif
#   From: 2010.03.12/outbox.cif.g09.slc.cpg/sg47_15_cif.got.tgz:29604.got - 2010.04.14 03:12:58.
