data_PCOD8199132
_publ_section_title
;
Structure prediction by ZEFSAII (Michael W. Deem and Ramdas Pophale) SiO2 
 PCOD8199132
Probable space group: P M M M
;
_chemical_formula_sum "Si O2"
_cell_formula_units_Z 56
_cell_length_a 9.209990
_cell_length_b 14.476904
_cell_length_c 20.963002
_cell_angle_alpha 90.000000
_cell_angle_beta 90.000000
_cell_angle_gamma 90.000000
_cell_volume 2795.041940
_symmetry_space_group_name_H-M "P M M M"
_symmetry_group_IT_number 47
_symmetry_cell_setting 'orthorhombic'
loop_
_space_group_symop_operation_xyz
x,y,z
-x,-y,z
x,-y,-z
-x,y,-z
-x,-y,-z
x,y,-z
-x,y,z
x,-y,z
loop_
_atom_site_type_symbol
_atom_site_label
_atom_site_fract_x
_atom_site_fract_y
_atom_site_fract_z
Si Si1 0.669462 0.392265 0.674985
Si Si2 0.840121 0.891322 0.739194
Si Si3 0.171489 0.289934 0.929885
Si Si4 0.329817 0.106995 0.382616
Si Si5 0.664114 0.609182 0.181821
Si Si6 0.172112 0.101061 0.120656
Si Si7 0.832551 0.728211 0.570935
O O1 0.500000 0.371627 0.664288
O O2 0.702483 0.500000 0.665915
O O3 0.715541 0.361035 0.746891
O O4 0.760920 0.338196 0.622699
O O5 0.724057 0.858392 0.686950
O O6 0.776988 0.866275 0.808833
O O7 0.000000 0.846150 0.727221
O O8 0.858604 0.000000 0.735088
O O9 0.237950 0.348896 0.873386
O O10 0.221715 0.182151 0.926844
O O11 0.000000 0.296628 0.921658
O O12 0.219122 0.326866 0.000000
O O13 0.500000 0.124646 0.387583
O O14 0.245739 0.171690 0.432238
O O15 0.291683 0.000000 0.396365
O O16 0.500000 0.642688 0.170567
O O17 0.674340 0.500000 0.176295
O O18 0.000000 0.090709 0.121909
O O19 0.238347 0.000000 0.101592
O O20 0.816900 0.684756 0.500000
O O21 0.000000 0.742591 0.589090
#
# Coordination Sequence:
#
# PCOD8199132 Si02
#       7
#     8   8   8   8   8   8   8
#     4   9  20  41  67  92 116 144 184 236 291 346
#     4   8  14  27  48  73 101 136 182 234 284 333
#     4  10  21  34  51  82 119 152 191 238 284 331
#     4  10  21  36  55  81 114 152 195 242 289 336
#     4   9  20  40  63  85 110 143 185 232 284 344
#     4   8  15  29  49  74 107 148 190 230 275 329
#     4  11  25  41  58  85 120 157 194 232 279 339
#
# _framework density 20.035478000000001
#
# number of rings (size 3 to 8) (size 9 to 14) (size 15 to 20)
#    0.000    2.714    0.000    2.571    2.000    4.571 
#    0.000    7.143    0.000    0.429    0.000    1.000 
#    0.000    0.000    0.000    0.000    0.000    0.000 
#
# Total GULP energy -693988.804683 kJ/mol
# GULP energy per Si atom -12392.657226 kJ/mol
# Density = 1.998988 g / cm^3
# Si number density = 20.035478 Si / 1000 Ang^3
#
#
#
# Elastic Constant Matrix: (Units=GPa)
#
#
# Indices 1 2 3 4 5 6 
#
# 1 86.7627 39.3661 63.9806 0.0000 0.0000 0.0000
# 2 39.3661 59.8408 56.6150 0.0000 0.0000 0.0000
# 3 63.9806 56.6150 146.0396 0.0000 0.0000 0.0000
# 4 0.0000 0.0000 0.0000 24.3094 0.0000 0.0000
# 5 0.0000 0.0000 0.0000 0.0000 10.9060 0.0000
# 6 0.0000 0.0000 0.0000 0.0000 0.0000 26.8867
#
#
#
# Elastic Compliance Matrix: (Units=1/GPa)
#
#
# Indices 1 2 3 4 5 6 
#
# 1 0.018820 -0.007233 -0.005441 0.000000 0.000000 0.000000
# 2 -0.007233 0.029170 -0.008140 0.000000 0.000000 0.000000
# 3 -0.005441 -0.008140 0.012387 0.000000 0.000000 0.000000
# 4 0.000000 0.000000 0.000000 0.041136 0.000000 0.000000
# 5 0.000000 0.000000 0.000000 0.000000 0.091692 0.000000
# 6 0.000000 0.000000 0.000000 0.000000 0.000000 0.037193
#
#
# Mechanical properties :
#
#
# Convention : Reuss Voigt Hill
#
# Bulk Modulus (GPa) = 53.33478 68.06294 60.69886
# Shear Modulus (GPa) = 17.96787 21.26585 19.61686
#
# Velocity S-wave (km/s) = 2.99792 3.26146 3.13246
# Velocity P-wave (km/s) = 6.21782 6.94462 6.59125
#
# Compressibility (1/GPa) = 0.01874949
#
# Stress axis : x y z
#
# Youngs Moduli (GPa) = 53.13580 34.28207 80.73190
#
# Poissons Ratio (x) = 0.24795 0.43927
# Poissons Ratio (y) = 0.38431 0.65712
# Poissons Ratio (z) = 0.28912 0.27904
#
# Static dielectric constant tensor:
#      x y z
#    x 3.494780 0.000000 0.000000 
#    y 0.000000 3.633410 0.000000 
#    z 0.000000 0.000000 3.879590 
# 
# 
# High freq. dielectric constant tensor:
#      x y z
#    x 1.757460 0.000000 0.000000 
#    y 0.000000 1.777500 0.000000 
#    z 0.000000 0.000000 1.786620 
# 
# From -- ./inp_files/7211.got.cif
#   From: 2010.03.12/outbox.cif.g09.slc.cpg/sg47_4_cif.got.tgz:7211.got - 2010.04.14 03:12:58.
