data_PCOD8199872
_publ_section_title
;
Structure prediction by ZEFSAII (Michael W. Deem and Ramdas Pophale) SiO2 
 PCOD8199872
Probable space group: P M M M
;
_chemical_formula_sum "Si O2"
_cell_formula_units_Z 64
_cell_length_a 15.409373
_cell_length_b 24.021690
_cell_length_c 8.802332
_cell_angle_alpha 90.000000
_cell_angle_beta 90.000000
_cell_angle_gamma 90.000000
_cell_volume 3258.264007
_symmetry_space_group_name_H-M "P M M M"
_symmetry_group_IT_number 47
_symmetry_cell_setting 'orthorhombic'
loop_
_space_group_symop_operation_xyz
x,y,z
-x,-y,z
x,-y,-z
-x,y,-z
-x,-y,-z
x,y,-z
-x,y,z
x,-y,z
loop_
_atom_site_type_symbol
_atom_site_label
_atom_site_fract_x
_atom_site_fract_y
_atom_site_fract_z
Si Si1 0.402266 0.131211 0.673898
Si Si2 0.748981 0.937491 0.820049
Si Si3 0.596109 0.637418 0.819452
Si Si4 0.098994 0.632813 0.323406
Si Si5 0.096496 0.859271 0.824913
Si Si6 0.348239 0.241837 0.179170
Si Si7 0.163793 0.754459 0.677245
Si Si8 0.751990 0.562666 0.180195
O O1 0.372006 0.133784 0.500000
O O2 0.500000 0.107854 0.689073
O O3 0.338911 0.090358 0.762643
O O4 0.401427 0.193113 0.741389
O O5 0.833425 0.903694 0.763403
O O6 0.755344 0.000000 0.754653
O O7 0.745790 0.938305 0.000000
O O8 0.500000 0.618760 0.764742
O O9 0.614920 0.699535 0.759865
O O10 0.668466 0.595509 0.752393
O O11 0.601410 0.637086 0.000000
O O12 0.116098 0.622129 0.500000
O O13 0.118757 0.696424 0.280501
O O14 0.159317 0.591628 0.229260
O O15 0.000000 0.619519 0.279211
O O16 0.099103 0.803869 0.722606
O O17 0.000000 0.885074 0.808133
O O18 0.115975 0.843825 0.000000
O O19 0.248009 0.237078 0.220585
O O20 0.360009 0.235855 0.000000
O O21 0.187638 0.757482 0.500000
O O22 0.749361 0.500000 0.244677
O O23 0.748241 0.562564 0.000000
#
# Coordination Sequence:
#
# PCOD8199872 Si02
#       8
#     8   8   8   8   8   8   8   8
#     4  11  24  40  59  86 119 154 191 235 290 345
#     4  10  22  40  61  85 115 154 198 241 283 332
#     4   9  18  33  55  84 115 146 181 224 278 338
#     4  10  22  39  58  81 112 151 190 229 280 342
#     4  10  21  37  59  88 119 152 189 230 282 342
#     4  11  20  34  59  87 117 151 187 231 285 343
#     4  11  21  35  58  86 117 151 187 231 286 344
#     4  10  21  37  57  82 112 146 189 240 286 329
#
# _framework density 19.642364000000001
#
# number of rings (size 3 to 8) (size 9 to 14) (size 15 to 20)
#    0.000    1.750    2.500    1.875    0.000    4.500 
#    0.000    5.000    0.000    1.125    0.000    2.625 
#    0.000    0.000    0.000    0.000    0.000    0.000 
#
# Total GULP energy -793738.656381 kJ/mol
# GULP energy per Si atom -12402.166506 kJ/mol
# Density = 1.959766 g / cm^3
# Si number density = 19.642364 Si / 1000 Ang^3
#
#
#
# Elastic Constant Matrix: (Units=GPa)
#
#
# Indices 1 2 3 4 5 6 
#
# 1 131.9741 60.1461 9.2576 0.0000 0.0000 0.0000
# 2 60.1461 154.2513 19.5096 0.0000 0.0000 0.0000
# 3 9.2576 19.5096 10.2513 0.0000 0.0000 0.0000
# 4 0.0000 0.0000 0.0000 18.2159 0.0000 0.0000
# 5 0.0000 0.0000 0.0000 0.0000 21.3900 0.0000
# 6 0.0000 0.0000 0.0000 0.0000 0.0000 14.9960
#
#
#
# Elastic Compliance Matrix: (Units=1/GPa)
#
#
# Indices 1 2 3 4 5 6 
#
# 1 0.009245 -0.003357 -0.001960 0.000000 0.000000 0.000000
# 2 -0.003357 0.009757 -0.015538 0.000000 0.000000 0.000000
# 3 -0.001960 -0.015538 0.128889 0.000000 0.000000 0.000000
# 4 0.000000 0.000000 0.000000 0.054897 0.000000 0.000000
# 5 0.000000 0.000000 0.000000 0.000000 0.046751 0.000000
# 6 0.000000 0.000000 0.000000 0.000000 0.000000 0.066684
#
#
# Mechanical properties :
#
#
# Convention : Reuss Voigt Hill
#
# Bulk Modulus (GPa) = 9.41780 52.70037 31.05909
# Shear Modulus (GPa) = 12.71212 24.75794 18.73503
#
# Velocity S-wave (km/s) = 2.54673 3.55411 3.09173
# Velocity P-wave (km/s) = 3.66781 6.61290 5.34712
#
# Compressibility (1/GPa) = 0.10618185
#
# Stress axis : x y z
#
# Youngs Moduli (GPa) = 108.17184 102.49059 7.75861
#
# Poissons Ratio (x) = 0.34404 0.01521
# Poissons Ratio (y) = 0.36311 0.12055
# Poissons Ratio (z) = 0.21202 1.59245
#
# Static dielectric constant tensor:
#      x y z
#    x 3.709020 0.000000 0.000000 
#    y 0.000000 3.758630 0.000000 
#    z 0.000000 0.000000 3.363650 
# 
# 
# High freq. dielectric constant tensor:
#      x y z
#    x 1.779380 0.000000 0.000000 
#    y 0.000000 1.764240 0.000000 
#    z 0.000000 0.000000 1.745180 
# 
# From -- ./inp_files/7841.got.cif
#   From: 2010.03.12/outbox.cif.g09.slc.cpg/sg47_4_cif.got.tgz:7841.got - 2010.04.14 03:12:58.
