data_PCOD8199683
_publ_section_title
;
Structure prediction by ZEFSAII (Michael W. Deem and Ramdas Pophale) SiO2 
 PCOD8199683
Probable space group: P M M M
;
_chemical_formula_sum "Si O2"
_cell_formula_units_Z 48
_cell_length_a 18.751703
_cell_length_b 8.895104
_cell_length_c 15.327210
_cell_angle_alpha 90.000000
_cell_angle_beta 90.000000
_cell_angle_gamma 90.000000
_cell_volume 2556.553313
_symmetry_space_group_name_H-M "P M M M"
_symmetry_group_IT_number 47
_symmetry_cell_setting 'orthorhombic'
loop_
_space_group_symop_operation_xyz
x,y,z
-x,-y,z
x,-y,-z
-x,y,-z
-x,-y,-z
x,y,-z
-x,y,z
x,-y,z
loop_
_atom_site_type_symbol
_atom_site_label
_atom_site_fract_x
_atom_site_fract_y
_atom_site_fract_z
Si Si1 0.582379 0.825492 0.500000
Si Si2 0.915291 0.830140 0.403977
Si Si3 0.420891 0.321432 0.000000
Si Si4 0.915653 0.327854 0.230606
Si Si5 0.186282 0.822014 0.899532
Si Si6 0.583727 0.822177 0.688249
Si Si7 0.329218 0.322188 0.838913
O O1 0.500000 0.789797 0.500000
O O2 0.611574 0.764603 0.592525
O O3 0.596943 0.000000 0.500000
O O4 0.888770 0.772497 0.500000
O O5 0.885727 0.728761 0.324656
O O6 0.000000 0.826051 0.403066
O O7 0.888091 0.000000 0.389053
O O8 0.379395 0.261693 0.083935
O O9 0.425153 0.500000 0.000000
O O10 0.500000 0.251158 0.000000
O O11 0.892497 0.500000 0.220372
O O12 0.884129 0.233427 0.150333
O O13 0.000000 0.306603 0.225862
O O14 0.252771 0.753605 0.848007
O O15 0.190263 0.000000 0.895623
O O16 0.184389 0.765678 0.000000
O O17 0.500000 0.784909 0.702584
O O18 0.633011 0.726106 0.750749
O O19 0.596187 0.000000 0.700982
O O20 0.319216 0.500000 0.841945
#
# Coordination Sequence:
#
# PCOD8199683 Si02
#       7
#     4   8   4   8   8   8   8
#     4   7  12  26  49  75 105 143 182 219 264 315
#     4   8  14  27  50  80 113 147 180 215 259 312
#     4   9  18  32  51  77 108 141 176 213 261 324
#     4  10  21  36  57  86 116 145 180 224 273 325
#     4  11  24  41  60  79 104 141 185 230 278 333
#     4   9  17  31  53  81 111 144 184 227 268 316
#     4  11  21  35  55  78 109 146 181 222 275 332
#
# _framework density 18.775278
#
# number of rings (size 3 to 8) (size 9 to 14) (size 15 to 20)
#    0.000    2.500    0.833    3.500    0.000    3.667 
#    0.000    3.750    1.833    3.500    0.000    0.000 
#    0.000    0.000    0.000    0.000    0.000    0.000 
#
# Total GULP energy -594885.534409 kJ/mol
# GULP energy per Si atom -12393.448634 kJ/mol
# Density = 1.873254 g / cm^3
# Si number density = 18.775278 Si / 1000 Ang^3
#
#
#
# Elastic Constant Matrix: (Units=GPa)
#
#
# Indices 1 2 3 4 5 6 
#
# 1 52.7197 27.3320 42.6967 0.0000 0.0000 0.0000
# 2 27.3320 70.1839 47.1241 0.0000 0.0000 0.0000
# 3 42.6967 47.1241 160.4147 0.0000 0.0000 0.0000
# 4 0.0000 0.0000 0.0000 25.8551 0.0000 0.0000
# 5 0.0000 0.0000 0.0000 0.0000 -630.5472 0.0000
# 6 0.0000 0.0000 0.0000 0.0000 0.0000 25.0107
#
#
#
# Elastic Compliance Matrix: (Units=1/GPa)
#
#
# Indices 1 2 3 4 5 6 
#
# 1 0.026686 -0.007005 -0.005045 0.000000 0.000000 0.000000
# 2 -0.007005 0.019588 -0.003890 0.000000 0.000000 0.000000
# 3 -0.005045 -0.003890 0.008719 0.000000 0.000000 0.000000
# 4 0.000000 0.000000 0.000000 0.038677 0.000000 0.000000
# 5 0.000000 0.000000 0.000000 0.000000 -0.001586 0.000000
# 6 0.000000 0.000000 0.000000 0.000000 0.000000 0.039983
#
#
# Mechanical properties :
#
#
# Convention : Reuss Voigt Hill
#
# Bulk Modulus (GPa) = 43.26455 57.51376 50.38916
# Shear Modulus (GPa) = 29.12885 -104.85858 -37.86487
#
# Velocity S-wave (km/s) = 3.94311 -7.48135 -4.49569
# Velocity P-wave (km/s) = 6.61999 6.62783 0.22793
#
# Compressibility (1/GPa) = 0.02311361
#
# Stress axis : x y z
#
# Youngs Moduli (GPa) = 37.47319 51.05166 114.68789
#
# Poissons Ratio (x) = 0.35761 0.57860
# Poissons Ratio (y) = 0.26250 0.44611
# Poissons Ratio (z) = 0.18905 0.19858
#
# Static dielectric constant tensor:
#      x y z
#    x 3.173260 0.000000 0.000000 
#    y 0.000000 3.292580 0.000000 
#    z 0.000000 0.000000 3.939040 
# 
# 
# High freq. dielectric constant tensor:
#      x y z
#    x 1.699560 0.000000 0.000000 
#    y 0.000000 1.713600 0.000000 
#    z 0.000000 0.000000 1.750890 
# 
# From -- ./inp_files/24468.got.cif
#   From: 2010.03.12/outbox.cif.g09.slc.cpg/sg47_13_cif.got.tgz:24468.got - 2010.04.14 03:12:58.
