data_PCOD8199549
_publ_section_title
;
Structure prediction by ZEFSAII (Michael W. Deem and Ramdas Pophale) SiO2 
 PCOD8199549
Probable space group: P M M M
;
_chemical_formula_sum "Si O2"
_cell_formula_units_Z 44
_cell_length_a 8.869850
_cell_length_b 9.457963
_cell_length_c 27.821710
_cell_angle_alpha 90.000000
_cell_angle_beta 90.000000
_cell_angle_gamma 90.000000
_cell_volume 2333.983092
_symmetry_space_group_name_H-M "P M M M"
_symmetry_group_IT_number 47
_symmetry_cell_setting 'orthorhombic'
loop_
_space_group_symop_operation_xyz
x,y,z
-x,-y,z
x,-y,-z
-x,y,-z
-x,-y,-z
x,y,-z
-x,y,z
x,-y,z
loop_
_atom_site_type_symbol
_atom_site_label
_atom_site_fract_x
_atom_site_fract_y
_atom_site_fract_z
Si Si1 0.677893 0.836918 0.500000
Si Si2 0.822918 0.662655 0.584491
Si Si3 0.828304 0.335472 0.945043
Si Si4 0.674575 0.662497 0.683963
Si Si5 0.326263 0.162693 0.864687
Si Si6 0.173143 0.166336 0.767116
O O1 0.500000 0.820988 0.500000
O O2 0.741401 0.763123 0.547146
O O3 0.728421 0.000000 0.500000
O O4 0.779046 0.500000 0.573655
O O5 0.769811 0.707053 0.637410
O O6 0.000000 0.686306 0.580244
O O7 0.807484 0.500000 0.934221
O O8 0.715236 0.250129 0.911695
O O9 0.000000 0.289222 0.934594
O O10 0.785959 0.301581 0.000000
O O11 0.500000 0.690123 0.672731
O O12 0.705313 0.500000 0.697484
O O13 0.725213 0.757305 0.728079
O O14 0.500000 0.187827 0.851689
O O15 0.227378 0.215174 0.819686
O O16 0.292106 0.000000 0.876160
O O17 0.000000 0.211172 0.760592
O O18 0.196909 0.000000 0.760632
#
# Coordination Sequence:
#
# PCOD8199549 Si02
#       6
#     4   8   8   8   8   8
#     4  11  24  39  56  82 114 147 184 225 270 320
#     4  10  21  38  60  84 110 143 183 225 270 320
#     4   9  19  36  56  78 105 138 177 220 266 317
#     4  10  21  37  58  84 112 143 180 221 267 320
#     4  10  21  36  54  78 108 141 178 220 266 318
#     4  10  21  37  57  80 107 142 182 222 267 318
#
# _framework density 18.851893
#
# number of rings (size 3 to 8) (size 9 to 14) (size 15 to 20)
#    0.000    2.091    0.000    3.273    0.000    8.727 
#    0.000    2.727    0.000    0.000    0.000    0.000 
#    0.000    0.000    0.000    0.000    0.000    0.000 
#
# Total GULP energy -545811.159154 kJ/mol
# GULP energy per Si atom -12404.799072 kJ/mol
# Density = 1.880899 g / cm^3
# Si number density = 18.851893 Si / 1000 Ang^3
#
#
#
# Elastic Constant Matrix: (Units=GPa)
#
#
# Indices 1 2 3 4 5 6 
#
# 1 66.3133 39.9207 35.5366 0.0000 0.0000 0.0000
# 2 39.9207 71.4690 61.5871 0.0000 0.0000 0.0000
# 3 35.5366 61.5871 112.4272 0.0000 0.0000 0.0000
# 4 0.0000 0.0000 0.0000 42.7953 0.0000 0.0000
# 5 0.0000 0.0000 0.0000 0.0000 52.7258 0.0000
# 6 0.0000 0.0000 0.0000 0.0000 0.0000 32.9764
#
#
#
# Elastic Compliance Matrix: (Units=1/GPa)
#
#
# Indices 1 2 3 4 5 6 
#
# 1 0.022731 -0.012322 -0.000435 0.000000 0.000000 0.000000
# 2 -0.012322 0.033182 -0.014282 0.000000 0.000000 0.000000
# 3 -0.000435 -0.014282 0.016856 0.000000 0.000000 0.000000
# 4 0.000000 0.000000 0.000000 0.023367 0.000000 0.000000
# 5 0.000000 0.000000 0.000000 0.000000 0.018966 0.000000
# 6 0.000000 0.000000 0.000000 0.000000 0.000000 0.030325
#
#
# Mechanical properties :
#
#
# Convention : Reuss Voigt Hill
#
# Bulk Modulus (GPa) = 53.50302 58.25536 55.87919
# Shear Modulus (GPa) = 24.30300 33.24384 28.77342
#
# Velocity S-wave (km/s) = 3.59437 4.20387 3.91101
# Velocity P-wave (km/s) = 6.75784 7.38458 7.07815
#
# Compressibility (1/GPa) = 0.01869053
#
# Stress axis : x y z
#
# Youngs Moduli (GPa) = 43.99297 30.13644 59.32639
#
# Poissons Ratio (x) = 0.37134 0.02580
# Poissons Ratio (y) = 0.54209 0.84732
# Poissons Ratio (z) = 0.01913 0.43042
#
# Static dielectric constant tensor:
#      x y z
#    x 3.538080 0.000000 0.000000 
#    y 0.000000 3.397150 0.000000 
#    z 0.000000 0.000000 3.487230 
# 
# 
# High freq. dielectric constant tensor:
#      x y z
#    x 1.744660 0.000000 0.000000 
#    y 0.000000 1.726110 0.000000 
#    z 0.000000 0.000000 1.742040 
# 
# From -- ./inp_files/33948.got.cif
#   From: 2010.03.12/outbox.cif.g09.slc.cpg/sg47_17_cif.got.tgz:33948.got - 2010.04.14 03:12:58.
