data_PCOD8199072
_publ_section_title
;
Structure prediction by ZEFSAII (Michael W. Deem and Ramdas Pophale) SiO2 
 PCOD8199072
Probable space group: P M M M
;
_chemical_formula_sum "Si O2"
_cell_formula_units_Z 64
_cell_length_a 14.483989
_cell_length_b 29.046146
_cell_length_c 8.878734
_cell_angle_alpha 90.000000
_cell_angle_beta 90.000000
_cell_angle_gamma 90.000000
_cell_volume 3735.319434
_symmetry_space_group_name_H-M "P M M M"
_symmetry_group_IT_number 47
_symmetry_cell_setting 'orthorhombic'
loop_
_space_group_symop_operation_xyz
x,y,z
-x,-y,z
x,-y,-z
-x,y,-z
-x,-y,-z
x,y,-z
-x,y,z
x,-y,z
loop_
_atom_site_type_symbol
_atom_site_label
_atom_site_fract_x
_atom_site_fract_y
_atom_site_fract_z
Si Si1 0.106867 0.134945 0.325936
Si Si2 0.725163 0.727800 0.677026
Si Si3 0.604533 0.091075 0.174255
Si Si4 0.894223 0.230417 0.177460
Si Si5 0.225738 0.949416 0.322252
Si Si6 0.394157 0.351811 0.180052
Si Si7 0.393648 0.802902 0.172402
Si Si8 0.390588 0.548664 0.831906
O O1 0.132312 0.144347 0.500000
O O2 0.135776 0.179579 0.231050
O O3 0.160334 0.090840 0.257323
O O4 0.000000 0.123534 0.306347
O O5 0.731625 0.721255 0.500000
O O6 0.828587 0.731976 0.743804
O O7 0.674980 0.684172 0.747957
O O8 0.668256 0.773571 0.715271
O O9 0.500000 0.077036 0.211778
O O10 0.669316 0.058954 0.273302
O O11 0.621399 0.144216 0.215942
O O12 0.626451 0.082730 0.000000
O O13 0.000000 0.240665 0.225084
O O14 0.880979 0.233337 0.000000
O O15 0.219782 0.948492 0.500000
O O16 0.194309 0.000000 0.263282
O O17 0.500000 0.341161 0.228933
O O18 0.361183 0.402526 0.242468
O O19 0.386770 0.350001 0.000000
O O20 0.500000 0.788651 0.193187
O O21 0.363481 0.793321 0.000000
O O22 0.500000 0.550077 0.841629
O O23 0.359746 0.500000 0.749784
O O24 0.349523 0.547135 0.000000
#
# Coordination Sequence:
#
# PCOD8199072 Si02
#       8
#     8   8   8   8   8   8   8   8
#     4   9  18  34  55  76  97 119 143 175 218 269
#     4  12  23  31  44  68  99 130 157 190 232 279
#     4   9  19  35  52  68  86 113 151 191 228 265
#     4  10  21  37  56  74  91 115 150 191 233 279
#     4  10  21  34  48  70  97 122 148 177 213 260
#     4   9  17  29  45  66  96 134 171 205 240 277
#     4   9  18  33  51  69  91 121 157 194 230 271
#     4   7  10  19  38  63  88 118 162 211 248 274
#
# _framework density 17.133742000000002
#
# number of rings (size 3 to 8) (size 9 to 14) (size 15 to 20)
#    0.000    2.625    0.000    4.500    0.000    6.750 
#    0.000    3.750    0.000    0.375    0.000    4.375 
#    0.000    0.500    0.000    5.750    0.000    1.875 
#
# Total GULP energy -793170.760969 kJ/mol
# GULP energy per Si atom -12393.293140 kJ/mol
# Density = 1.709474 g / cm^3
# Si number density = 17.133742 Si / 1000 Ang^3
#
#
#
# Elastic Constant Matrix: (Units=GPa)
#
#
# Indices 1 2 3 4 5 6 
#
# 1 80.4918 60.0661 28.3451 0.0000 0.0000 0.0000
# 2 60.0661 114.4717 34.8800 0.0000 0.0000 0.0000
# 3 28.3451 34.8800 42.3276 0.0000 0.0000 0.0000
# 4 0.0000 0.0000 0.0000 5.3087 0.0000 0.0000
# 5 0.0000 0.0000 0.0000 0.0000 22.6562 0.0000
# 6 0.0000 0.0000 0.0000 0.0000 0.0000 15.6371
#
#
#
# Elastic Compliance Matrix: (Units=1/GPa)
#
#
# Indices 1 2 3 4 5 6 
#
# 1 0.021838 -0.009351 -0.006918 0.000000 0.000000 0.000000
# 2 -0.009351 0.015669 -0.006650 0.000000 0.000000 0.000000
# 3 -0.006918 -0.006650 0.033738 0.000000 0.000000 0.000000
# 4 0.000000 0.000000 0.000000 0.188369 0.000000 0.000000
# 5 0.000000 0.000000 0.000000 0.000000 0.044138 0.000000
# 6 0.000000 0.000000 0.000000 0.000000 0.000000 0.063950
#
#
# Mechanical properties :
#
#
# Convention : Reuss Voigt Hill
#
# Bulk Modulus (GPa) = 39.36023 53.76373 46.56198
# Shear Modulus (GPa) = 11.84810 16.32041 14.08426
#
# Velocity S-wave (km/s) = 2.63251 3.08966 2.87020
# Velocity P-wave (km/s) = 5.67999 6.64642 6.18212
#
# Compressibility (1/GPa) = 0.02540635
#
# Stress axis : x y z
#
# Youngs Moduli (GPa) = 45.79206 63.82203 29.64014
#
# Poissons Ratio (x) = 0.59678 0.20506
# Poissons Ratio (y) = 0.42819 0.19710
# Poissons Ratio (z) = 0.31681 0.42440
#
# Static dielectric constant tensor:
#      x y z
#    x 3.138040 0.000000 0.000000 
#    y 0.000000 3.599350 0.000000 
#    z 0.000000 0.000000 2.974470 
# 
# 
# High freq. dielectric constant tensor:
#      x y z
#    x 1.641980 0.000000 0.000000 
#    y 0.000000 1.660660 0.000000 
#    z 0.000000 0.000000 1.640360 
# 
# From -- ./inp_files/8311.got.cif
#   From: 2010.03.12/outbox.cif.g09.slc.cpg/sg47_5_cif.got.tgz:8311.got - 2010.04.14 03:12:58.
