data_PCOD8199007
_publ_section_title
;
Structure prediction by ZEFSAII (Michael W. Deem and Ramdas Pophale) SiO2 
 PCOD8199007
Probable space group: P M M M
;
_chemical_formula_sum "Si O2"
_cell_formula_units_Z 56
_cell_length_a 22.363847
_cell_length_b 8.950935
_cell_length_c 14.922643
_cell_angle_alpha 90.000000
_cell_angle_beta 90.000000
_cell_angle_gamma 90.000000
_cell_volume 2987.174994
_symmetry_space_group_name_H-M "P M M M"
_symmetry_group_IT_number 47
_symmetry_cell_setting 'orthorhombic'
loop_
_space_group_symop_operation_xyz
x,y,z
-x,-y,z
x,-y,-z
-x,y,-z
-x,-y,-z
x,y,-z
-x,y,z
x,-y,z
loop_
_atom_site_type_symbol
_atom_site_label
_atom_site_fract_x
_atom_site_fract_y
_atom_site_fract_z
Si Si1 0.216567 0.822822 0.098266
Si Si2 0.348939 0.829765 0.863526
Si Si3 0.567907 0.676410 0.000000
Si Si4 0.266540 0.669898 0.399488
Si Si5 0.500000 0.325115 0.605011
Si Si6 0.379814 0.828833 0.342029
Si Si7 0.167096 0.823053 0.282834
Si Si8 0.069279 0.672866 0.601281
O O1 0.283913 0.762344 0.112103
O O2 0.173252 0.767736 0.179030
O O3 0.219310 0.000000 0.102502
O O4 0.192773 0.769116 0.000000
O O5 0.399850 0.734246 0.911022
O O6 0.357056 0.817908 0.758486
O O7 0.354333 0.000000 0.897067
O O8 0.569725 0.500000 0.000000
O O9 0.500000 0.735864 0.000000
O O10 0.240274 0.672977 0.500000
O O11 0.270124 0.500000 0.364035
O O12 0.332286 0.741563 0.402852
O O13 0.223918 0.765358 0.336704
O O14 0.500000 0.500000 0.626311
O O15 0.500000 0.292103 0.500000
O O16 0.443093 0.250468 0.650356
O O17 0.384939 0.000000 0.374314
O O18 0.105985 0.763146 0.324914
O O19 0.166829 0.000000 0.289122
O O20 0.083251 0.728800 0.500000
O O21 0.086968 0.500000 0.609021
O O22 0.000000 0.697703 0.623416
#
# Coordination Sequence:
#
# PCOD8199007 Si02
#       8
#     8   8   4   8   4   8   8   8
#     4   9  17  34  58  81 108 143 181 226 280 336
#     4  10  20  38  60  79 103 140 181 223 279 342
#     4  11  25  39  53  81 113 139 176 229 286 341
#     4  11  23  37  54  79 114 153 186 222 279 344
#     4  11  25  43  59  76 103 142 183 221 276 349
#     4  11  23  39  59  83 106 135 183 236 282 330
#     4  11  21  34  56  88 118 147 191 241 285 330
#     4   9  19  37  59  83 117 162 202 233 277 339
#
# _framework density 18.746811000000001
#
# number of rings (size 3 to 8) (size 9 to 14) (size 15 to 20)
#    0.000    1.714    2.143    3.000    1.000    7.429 
#    0.000    0.714    0.000    0.429    0.000    3.000 
#    0.000    0.000    0.000    0.000    0.000    0.000 
#
# Total GULP energy -694425.899623 kJ/mol
# GULP energy per Si atom -12400.462493 kJ/mol
# Density = 1.870414 g / cm^3
# Si number density = 18.746811 Si / 1000 Ang^3
#
#
#
# Elastic Constant Matrix: (Units=GPa)
#
#
# Indices 1 2 3 4 5 6 
#
# 1 98.5933 43.9911 55.6182 0.0000 0.0000 0.0000
# 2 43.9911 79.8869 42.2560 0.0000 0.0000 0.0000
# 3 55.6182 42.2560 124.7456 0.0000 0.0000 0.0000
# 4 0.0000 0.0000 0.0000 7.3795 0.0000 0.0000
# 5 0.0000 0.0000 0.0000 0.0000 30.4087 0.0000
# 6 0.0000 0.0000 0.0000 0.0000 0.0000 27.4426
#
#
#
# Elastic Compliance Matrix: (Units=1/GPa)
#
#
# Indices 1 2 3 4 5 6 
#
# 1 0.015589 -0.005979 -0.004925 0.000000 0.000000 0.000000
# 2 -0.005979 0.017543 -0.003277 0.000000 0.000000 0.000000
# 3 -0.004925 -0.003277 0.011322 0.000000 0.000000 0.000000
# 4 0.000000 0.000000 0.000000 0.135511 0.000000 0.000000
# 5 0.000000 0.000000 0.000000 0.000000 0.032885 0.000000
# 6 0.000000 0.000000 0.000000 0.000000 0.000000 0.036440
#
#
# Mechanical properties :
#
#
# Convention : Reuss Voigt Hill
#
# Bulk Modulus (GPa) = 62.14070 65.21738 63.67904
# Shear Modulus (GPa) = 17.66681 23.80352 20.73517
#
# Velocity S-wave (km/s) = 3.07317 3.56720 3.32936
# Velocity P-wave (km/s) = 6.76844 7.19935 6.98722
#
# Compressibility (1/GPa) = 0.01609251
#
# Stress axis : x y z
#
# Youngs Moduli (GPa) = 64.14882 57.00117 88.32298
#
# Poissons Ratio (x) = 0.34082 0.43498
# Poissons Ratio (y) = 0.38356 0.28942
# Poissons Ratio (z) = 0.31593 0.18678
#
# Static dielectric constant tensor:
#      x y z
#    x 3.483010 0.000000 0.000000 
#    y 0.000000 3.394070 0.000000 
#    z 0.000000 0.000000 3.648190 
# 
# 
# High freq. dielectric constant tensor:
#      x y z
#    x 1.718300 0.000000 0.000000 
#    y 0.000000 1.719800 0.000000 
#    z 0.000000 0.000000 1.736920 
# 
# From -- ./inp_files/25218.got.cif
#   From: 2010.03.12/outbox.cif.g09.slc.cpg/sg47_13_cif.got.tgz:25218.got - 2010.04.14 03:12:58.
