data_PCOD8199197
_publ_section_title
;
Structure prediction by ZEFSAII (Michael W. Deem and Ramdas Pophale) SiO2 
 PCOD8199197
Probable space group: P M M M
;
_chemical_formula_sum "Si O2"
_cell_formula_units_Z 44
_cell_length_a 17.847166
_cell_length_b 9.303561
_cell_length_c 14.934500
_cell_angle_alpha 90.000000
_cell_angle_beta 90.000000
_cell_angle_gamma 90.000000
_cell_volume 2479.757199
_symmetry_space_group_name_H-M "P M M M"
_symmetry_group_IT_number 47
_symmetry_cell_setting 'orthorhombic'
loop_
_space_group_symop_operation_xyz
x,y,z
-x,-y,z
x,-y,-z
-x,y,-z
-x,-y,-z
x,y,-z
-x,y,z
x,-y,z
loop_
_atom_site_type_symbol
_atom_site_label
_atom_site_fract_x
_atom_site_fract_y
_atom_site_fract_z
Si Si1 0.416121 0.831058 0.500000
Si Si2 0.361876 0.658146 0.660601
Si Si3 0.915255 0.670794 0.400218
Si Si4 0.728509 0.165156 0.899076
Si Si5 0.200913 0.336777 0.255366
Si Si6 0.583849 0.665879 0.851620
O O1 0.500000 0.768885 0.500000
O O2 0.373750 0.778783 0.587491
O O3 0.415267 0.000000 0.500000
O O4 0.380060 0.500000 0.621150
O O5 0.276294 0.665626 0.688670
O O6 0.414802 0.690126 0.745054
O O7 0.891343 0.726302 0.500000
O O8 0.908994 0.500000 0.400189
O O9 0.862540 0.731538 0.320657
O O10 0.000000 0.720542 0.379832
O O11 0.788412 0.243055 0.834424
O O12 0.645777 0.235296 0.898116
O O13 0.720683 0.000000 0.868710
O O14 0.759799 0.176871 0.000000
O O15 0.180621 0.500000 0.226581
O O16 0.500000 0.704942 0.885985
O O17 0.603282 0.500000 0.874049
#
# Coordination Sequence:
#
# PCOD8199197 Si02
#       6
#     4   8   8   8   8   8
#     4  11  23  33  41  59  88 123 164 206 245 283
#     4   9  18  31  47  66  89 121 160 200 240 286
#     4   8  14  26  49  82 113 135 157 193 243 295
#     4  10  21  35  50  70  98 132 169 208 252 300
#     4   9  18  32  53  77 100 129 164 203 244 291
#     4   9  18  33  52  72  93 120 159 208 259 306
#
# _framework density 17.743673999999999
#
# number of rings (size 3 to 8) (size 9 to 14) (size 15 to 20)
#    0.000    2.818    0.000    3.000    1.273    6.545 
#    0.000    1.818    0.000    1.091    0.000    5.091 
#    0.000    0.000    0.000    0.000    0.000    0.000 
#
# Total GULP energy -545402.915441 kJ/mol
# GULP energy per Si atom -12395.520805 kJ/mol
# Density = 1.770329 g / cm^3
# Si number density = 17.743674 Si / 1000 Ang^3
#
#
#
# Elastic Constant Matrix: (Units=GPa)
#
#
# Indices 1 2 3 4 5 6 
#
# 1 77.3011 26.3832 49.1424 0.0000 0.0000 0.0000
# 2 26.3832 72.7159 49.0081 0.0000 0.0000 0.0000
# 3 49.1424 49.0081 109.9879 0.0000 0.0000 0.0000
# 4 0.0000 0.0000 0.0000 14.9765 0.0000 0.0000
# 5 0.0000 0.0000 0.0000 0.0000 14.5363 0.0000
# 6 0.0000 0.0000 0.0000 0.0000 0.0000 7.4530
#
#
#
# Elastic Compliance Matrix: (Units=1/GPa)
#
#
# Indices 1 2 3 4 5 6 
#
# 1 0.018199 -0.001605 -0.007416 0.000000 0.000000 0.000000
# 2 -0.001605 0.019796 -0.008104 0.000000 0.000000 0.000000
# 3 -0.007416 -0.008104 0.016016 0.000000 0.000000 0.000000
# 4 0.000000 0.000000 0.000000 0.066771 0.000000 0.000000
# 5 0.000000 0.000000 0.000000 0.000000 0.068793 0.000000
# 6 0.000000 0.000000 0.000000 0.000000 0.000000 0.134175
#
#
# Mechanical properties :
#
#
# Convention : Reuss Voigt Hill
#
# Bulk Modulus (GPa) = 50.60236 56.56358 53.58297
# Shear Modulus (GPa) = 13.71415 16.42456 15.06936
#
# Velocity S-wave (km/s) = 2.78313 3.04576 2.91740
# Velocity P-wave (km/s) = 6.23764 6.65705 6.45075
#
# Compressibility (1/GPa) = 0.01976192
#
# Stress axis : x y z
#
# Youngs Moduli (GPa) = 54.94873 50.51538 62.43674
#
# Poissons Ratio (x) = 0.08106 0.46304
# Poissons Ratio (y) = 0.08818 0.50596
# Poissons Ratio (z) = 0.40751 0.40936
#
# Static dielectric constant tensor:
#      x y z
#    x 3.298010 0.000000 0.000000 
#    y 0.000000 3.113970 0.000000 
#    z 0.000000 0.000000 1.121630 
# 
# 
# High freq. dielectric constant tensor:
#      x y z
#    x 1.669000 0.000000 0.000000 
#    y 0.000000 1.662430 0.000000 
#    z 0.000000 0.000000 1.687340 
# 
# From -- ./inp_files/6090.got.cif
#   From: 2010.03.12/outbox.cif.g09.slc.cpg/sg47_4_cif.got.tgz:6090.got - 2010.04.14 03:12:58.
