data_PCOD8199594
_publ_section_title
;
Structure prediction by ZEFSAII (Michael W. Deem and Ramdas Pophale) SiO2 
 PCOD8199594
Probable space group: P M M M
;
_chemical_formula_sum "Si O2"
_cell_formula_units_Z 52
_cell_length_a 14.934761
_cell_length_b 8.698215
_cell_length_c 20.373642
_cell_angle_alpha 90.000000
_cell_angle_beta 90.000000
_cell_angle_gamma 90.000000
_cell_volume 2646.653492
_symmetry_space_group_name_H-M "P M M M"
_symmetry_group_IT_number 47
_symmetry_cell_setting 'orthorhombic'
loop_
_space_group_symop_operation_xyz
x,y,z
-x,-y,z
x,-y,-z
-x,y,-z
-x,-y,-z
x,y,-z
-x,y,z
x,-y,z
loop_
_atom_site_type_symbol
_atom_site_label
_atom_site_fract_x
_atom_site_fract_y
_atom_site_fract_z
Si Si1 0.174303 0.175387 0.425699
Si Si2 0.900205 0.682461 0.926975
Si Si3 0.770030 0.317783 0.813614
Si Si4 0.395416 0.181197 0.766836
Si Si5 0.500000 0.823825 0.430960
Si Si6 0.340359 0.676114 0.363760
Si Si7 0.099468 0.822905 0.289045
O O1 0.139379 0.215351 0.500000
O O2 0.252352 0.291608 0.405462
O O3 0.100473 0.197734 0.368784
O O4 0.210082 0.000000 0.424940
O O5 0.901758 0.500000 0.924244
O O6 0.829809 0.745004 0.873924
O O7 0.000000 0.744926 0.910380
O O8 0.871821 0.737767 0.000000
O O9 0.754361 0.500000 0.815541
O O10 0.673241 0.230643 0.824718
O O11 0.824544 0.277889 0.746463
O O12 0.500000 0.232655 0.777138
O O13 0.340574 0.278474 0.712271
O O14 0.392574 0.000000 0.753017
O O15 0.500000 0.731856 0.500000
O O16 0.414753 0.787795 0.389650
O O17 0.500000 0.000000 0.446587
O O18 0.367164 0.500000 0.372132
O O19 0.000000 0.771868 0.266211
O O20 0.118038 0.000000 0.271017
#
# Coordination Sequence:
#
# PCOD8199594 Si02
#       7
#     8   8   8   8   4   8   8
#     4  10  21  37  55  73 101 144 188 229 280 343
#     4   8  15  30  54  87 126 162 191 220 264 325
#     4  11  21  34  58  89 118 148 185 234 284 330
#     4  11  23  39  59  79 107 147 188 230 281 345
#     4  11  23  37  53  73 101 139 178 219 280 355
#     4  12  23  35  54  78 103 133 176 234 292 340
#     4  10  21  36  55  79 109 148 191 233 279 336
#
# _framework density 19.647452000000001
#
# number of rings (size 3 to 8) (size 9 to 14) (size 15 to 20)
#    0.000    1.615    2.308    3.923    0.000    4.923 
#    0.000    1.538    0.000    2.308    0.000   10.769 
#    0.000    0.000    0.000    0.000    0.000    0.000 
#
# Total GULP energy -644198.807011 kJ/mol
# GULP energy per Si atom -12388.438596 kJ/mol
# Density = 1.960273 g / cm^3
# Si number density = 19.647452 Si / 1000 Ang^3
#
#
#
# Elastic Constant Matrix: (Units=GPa)
#
#
# Indices 1 2 3 4 5 6 
#
# 1 124.4085 30.7322 42.3039 0.0000 0.0000 0.0000
# 2 30.7322 64.4502 15.5271 0.0000 0.0000 0.0000
# 3 42.3039 15.5271 99.7118 0.0000 0.0000 0.0000
# 4 0.0000 0.0000 0.0000 16.2288 0.0000 0.0000
# 5 0.0000 0.0000 0.0000 0.0000 26.3461 0.0000
# 6 0.0000 0.0000 0.0000 0.0000 0.0000 70.6235
#
#
#
# Elastic Compliance Matrix: (Units=1/GPa)
#
#
# Indices 1 2 3 4 5 6 
#
# 1 0.010303 -0.004010 -0.003747 0.000000 0.000000 0.000000
# 2 -0.004010 0.017681 -0.001052 0.000000 0.000000 0.000000
# 3 -0.003747 -0.001052 0.011782 0.000000 0.000000 0.000000
# 4 0.000000 0.000000 0.000000 0.061619 0.000000 0.000000
# 5 0.000000 0.000000 0.000000 0.000000 0.037956 0.000000
# 6 0.000000 0.000000 0.000000 0.000000 0.000000 0.014160
#
#
# Mechanical properties :
#
#
# Convention : Reuss Voigt Hill
#
# Bulk Modulus (GPa) = 45.14877 51.74411 48.44644
# Shear Modulus (GPa) = 28.01098 35.97348 31.99223
#
# Velocity S-wave (km/s) = 3.77991 4.28360 4.03962
# Velocity P-wave (km/s) = 6.48688 7.13156 6.81685
#
# Compressibility (1/GPa) = 0.02214900
#
# Stress axis : x y z
#
# Youngs Moduli (GPa) = 97.06288 56.55647 84.87346
#
# Poissons Ratio (x) = 0.22679 0.31798
# Poissons Ratio (y) = 0.38923 0.08929
# Poissons Ratio (z) = 0.36365 0.05950
#
# Static dielectric constant tensor:
#      x y z
#    x 3.726560 0.000000 0.000000 
#    y 0.000000 3.340530 0.000000 
#    z 0.000000 0.000000 3.898780 
# 
# 
# High freq. dielectric constant tensor:
#      x y z
#    x 1.768520 0.000000 0.000000 
#    y 0.000000 1.747530 0.000000 
#    z 0.000000 0.000000 1.751400 
# 
# From -- ./inp_files/30891.got.cif
#   From: 2010.03.12/outbox.cif.g09.slc.cpg/sg47_16_cif.got.tgz:30891.got - 2010.04.14 03:12:58.
