data_PCOD8199616
_publ_section_title
;
Structure prediction by ZEFSAII (Michael W. Deem and Ramdas Pophale) SiO2 
 PCOD8199616
Probable space group: P M M M
;
_chemical_formula_sum "Si O2"
_cell_formula_units_Z 48
_cell_length_a 30.619342
_cell_length_b 9.547713
_cell_length_c 9.004089
_cell_angle_alpha 90.000000
_cell_angle_beta 90.000000
_cell_angle_gamma 90.000000
_cell_volume 2632.297604
_symmetry_space_group_name_H-M "P M M M"
_symmetry_group_IT_number 47
_symmetry_cell_setting 'orthorhombic'
loop_
_space_group_symop_operation_xyz
x,y,z
-x,-y,z
x,-y,-z
-x,y,-z
-x,-y,-z
x,y,-z
-x,y,z
x,-y,z
loop_
_atom_site_type_symbol
_atom_site_label
_atom_site_fract_x
_atom_site_fract_y
_atom_site_fract_z
Si Si1 0.835586 0.836896 0.168420
Si Si2 0.335236 0.338936 0.670660
Si Si3 0.575253 0.661706 0.825439
Si Si4 0.736085 0.836614 0.830225
Si Si5 0.000000 0.666354 0.337358
Si Si6 0.500000 0.163620 0.675345
Si Si7 0.093496 0.343486 0.323435
O O1 0.785896 0.801158 0.212350
O O2 0.867895 0.756923 0.275934
O O3 0.844415 0.000000 0.188056
O O4 0.844536 0.790070 0.000000
O O5 0.346931 0.307024 0.500000
O O6 0.322396 0.500000 0.694042
O O7 0.376499 0.298564 0.771357
O O8 0.294179 0.247723 0.718593
O O9 0.564200 0.500000 0.786524
O O10 0.542487 0.763834 0.742292
O O11 0.571768 0.688593 0.000000
O O12 0.726619 0.000000 0.809316
O O13 0.726651 0.792086 0.000000
O O14 0.046002 0.708555 0.257399
O O15 0.000000 0.500000 0.354434
O O16 0.000000 0.736763 0.500000
O O17 0.500000 0.185621 0.500000
O O18 0.500000 0.000000 0.718123
O O19 0.090076 0.343013 0.500000
O O20 0.103932 0.500000 0.265643
#
# Coordination Sequence:
#
# PCOD8199616 Si02
#       7
#     8   8   8   8   4   4   8
#     4   9  19  35  51  69  98 134 169 205 248 300
#     4  10  21  36  55  81 110 137 168 210 258 305
#     4  10  21  38  60  83 107 140 180 216 255 306
#     4   9  19  36  55  73  97 134 175 210 249 300
#     4   7  12  26  46  67  94 126 158 197 246 297
#     4  11  24  39  56  82 114 145 178 217 260 304
#     4   9  17  30  50  74  97 124 162 206 250 298
#
# _framework density 18.235019000000001
#
# number of rings (size 3 to 8) (size 9 to 14) (size 15 to 20)
#    0.000    2.667    0.000    3.500    0.000    6.667 
#    0.000    5.833    0.000    4.000    0.000    0.000 
#    0.000    0.000    0.000    0.000    0.000    0.000 
#
# Total GULP energy -595024.960732 kJ/mol
# GULP energy per Si atom -12396.353349 kJ/mol
# Density = 1.819352 g / cm^3
# Si number density = 18.235019 Si / 1000 Ang^3
#
#
#
# Elastic Constant Matrix: (Units=GPa)
#
#
# Indices 1 2 3 4 5 6 
#
# 1 128.6208 67.4484 47.5695 0.0000 0.0000 0.0000
# 2 67.4484 71.2470 41.3218 0.0000 0.0000 0.0000
# 3 47.5695 41.3218 64.3004 0.0000 0.0000 0.0000
# 4 0.0000 0.0000 0.0000 29.1697 0.0000 0.0000
# 5 0.0000 0.0000 0.0000 0.0000 70.8236 0.0000
# 6 0.0000 0.0000 0.0000 0.0000 0.0000 101.7089
#
#
#
# Elastic Compliance Matrix: (Units=1/GPa)
#
#
# Indices 1 2 3 4 5 6 
#
# 1 0.015874 -0.013098 -0.003326 0.000000 0.000000 0.000000
# 2 -0.013098 0.033184 -0.011635 0.000000 0.000000 0.000000
# 3 -0.003326 -0.011635 0.025489 0.000000 0.000000 0.000000
# 4 0.000000 0.000000 0.000000 0.034282 0.000000 0.000000
# 5 0.000000 0.000000 0.000000 0.000000 0.014120 0.000000
# 6 0.000000 0.000000 0.000000 0.000000 0.000000 0.009832
#
#
# Mechanical properties :
#
#
# Convention : Reuss Voigt Hill
#
# Bulk Modulus (GPa) = 54.26339 64.09417 59.17878
# Shear Modulus (GPa) = 25.63561 47.52899 36.58230
#
# Velocity S-wave (km/s) = 3.75353 5.11090 4.48387
# Velocity P-wave (km/s) = 6.97192 8.36980 7.70264
#
# Compressibility (1/GPa) = 0.01842863
#
# Stress axis : x y z
#
# Youngs Moduli (GPa) = 62.99784 30.13536 39.23198
#
# Poissons Ratio (x) = 0.39472 0.13048
# Poissons Ratio (y) = 0.82517 0.45646
# Poissons Ratio (z) = 0.20952 0.35062
#
# Static dielectric constant tensor:
#      x y z
#    x 3.540350 0.000000 0.000000 
#    y 0.000000 3.221540 0.000000 
#    z 0.000000 0.000000 3.239800 
# 
# 
# High freq. dielectric constant tensor:
#      x y z
#    x 1.722560 0.000000 0.000000 
#    y 0.000000 1.692920 0.000000 
#    z 0.000000 0.000000 1.696740 
# 
# From -- ./inp_files/2746.got.cif
#   From: 2010.03.12/outbox.cif.g09.slc.cpg/sg47_2_cif.got.tgz:2746.got - 2010.04.14 03:12:58.
