data_PCOD8199863
_publ_section_title
;
Structure prediction by ZEFSAII (Michael W. Deem and Ramdas Pophale) SiO2 
 PCOD8199863
Probable space group: P M M M
;
_chemical_formula_sum "Si O2"
_cell_formula_units_Z 64
_cell_length_a 24.173587
_cell_length_b 14.828363
_cell_length_c 8.767168
_cell_angle_alpha 90.000000
_cell_angle_beta 90.000000
_cell_angle_gamma 90.000000
_cell_volume 3142.632777
_symmetry_space_group_name_H-M "P M M M"
_symmetry_group_IT_number 47
_symmetry_cell_setting 'orthorhombic'
loop_
_space_group_symop_operation_xyz
x,y,z
-x,-y,z
x,-y,-z
-x,y,-z
-x,-y,-z
x,y,-z
-x,y,z
x,-y,z
loop_
_atom_site_type_symbol
_atom_site_label
_atom_site_fract_x
_atom_site_fract_y
_atom_site_fract_z
Si Si1 0.882342 0.102311 0.322479
Si Si2 0.849829 0.604910 0.322668
Si Si3 0.766168 0.104524 0.824482
Si Si4 0.266688 0.603217 0.820600
Si Si5 0.564278 0.596921 0.833401
Si Si6 0.937150 0.263746 0.176256
Si Si7 0.440265 0.774292 0.675228
Si Si8 0.322482 0.768933 0.680448
O O1 0.869851 0.116070 0.500000
O O2 0.827555 0.127542 0.229399
O O3 0.929706 0.169860 0.266728
O O4 0.901506 0.000000 0.288240
O O5 0.850781 0.629603 0.500000
O O6 0.860883 0.500000 0.292454
O O7 0.790540 0.633936 0.257120
O O8 0.897967 0.658474 0.239031
O O9 0.724382 0.161161 0.723467
O O10 0.752693 0.000000 0.798460
O O11 0.759940 0.132880 0.000000
O O12 0.281661 0.500000 0.775387
O O13 0.314186 0.671606 0.762438
O O14 0.259169 0.613115 0.000000
O O15 0.500000 0.582548 0.855122
O O16 0.591403 0.500000 0.788292
O O17 0.573494 0.668829 0.699919
O O18 0.588666 0.627970 0.000000
O O19 0.000000 0.295928 0.200695
O O20 0.923756 0.246511 0.000000
O O21 0.449066 0.795542 0.500000
O O22 0.500000 0.801963 0.756216
O O23 0.381772 0.816523 0.731748
O O24 0.322692 0.752286 0.500000
#
# Coordination Sequence:
#
# PCOD8199863 Si02
#       8
#     8   8   8   8   8   8   8   8
#     4  10  21  38  61  87 115 147 182 223 273 328
#     4  10  21  38  60  83 109 144 187 237 288 332
#     4  10  21  38  61  87 113 140 174 220 273 331
#     4  10  21  37  57  81 111 147 186 228 275 330
#     4   8  14  25  41  61  86 119 161 207 251 295
#     4  11  24  39  56  81 115 155 195 233 273 322
#     4   9  19  34  49  68  97 135 177 216 259 315
#     4  11  22  35  55  81 110 143 178 224 276 325
#
# _framework density 20.365091
#
# number of rings (size 3 to 8) (size 9 to 14) (size 15 to 20)
#    0.000    2.125    0.000    3.375    0.000    6.250 
#    0.000    6.250    0.000    0.375    0.000    2.625 
#    0.000    0.000    0.000    0.000    0.000    0.000 
#
# Total GULP energy -793064.084041 kJ/mol
# GULP energy per Si atom -12391.626313 kJ/mol
# Density = 2.031874 g / cm^3
# Si number density = 20.365091 Si / 1000 Ang^3
#
#
#
# Elastic Constant Matrix: (Units=GPa)
#
#
# Indices 1 2 3 4 5 6 
#
# 1 107.2531 33.3051 22.3012 0.0000 0.0000 0.0000
# 2 33.3051 48.5771 23.4124 0.0000 0.0000 0.0000
# 3 22.3012 23.4124 50.9433 0.0000 0.0000 0.0000
# 4 0.0000 0.0000 0.0000 29.8939 0.0000 0.0000
# 5 0.0000 0.0000 0.0000 0.0000 19.4731 0.0000
# 6 0.0000 0.0000 0.0000 0.0000 0.0000 8.5315
#
#
#
# Elastic Compliance Matrix: (Units=1/GPa)
#
#
# Indices 1 2 3 4 5 6 
#
# 1 0.011986 -0.007307 -0.001889 0.000000 0.000000 0.000000
# 2 -0.007307 0.030898 -0.011001 0.000000 0.000000 0.000000
# 3 -0.001889 -0.011001 0.025512 0.000000 0.000000 0.000000
# 4 0.000000 0.000000 0.000000 0.033452 0.000000 0.000000
# 5 0.000000 0.000000 0.000000 0.000000 0.051353 0.000000
# 6 0.000000 0.000000 0.000000 0.000000 0.000000 0.117212
#
#
# Mechanical properties :
#
#
# Convention : Reuss Voigt Hill
#
# Bulk Modulus (GPa) = 35.71198 40.53455 38.12327
# Shear Modulus (GPa) = 15.61815 20.09669 17.85742
#
# Velocity S-wave (km/s) = 2.77231 3.14478 2.96440
# Velocity P-wave (km/s) = 5.27462 5.75616 5.52064
#
# Compressibility (1/GPa) = 0.02800181
#
# Stress axis : x y z
#
# Youngs Moduli (GPa) = 83.43396 32.36466 39.19667
#
# Poissons Ratio (x) = 0.23649 0.07403
# Poissons Ratio (y) = 0.60967 0.43121
# Poissons Ratio (z) = 0.15758 0.35605
#
# Static dielectric constant tensor:
#      x y z
#    x 3.877020 0.000000 0.000000 
#    y 0.000000 3.634730 0.000000 
#    z 0.000000 0.000000 3.699620 
# 
# 
# High freq. dielectric constant tensor:
#      x y z
#    x 1.806460 0.000000 0.000000 
#    y 0.000000 1.775170 0.000000 
#    z 0.000000 0.000000 1.796940 
# 
# From -- ./inp_files/12662.got.cif
#   From: 2010.03.12/outbox.cif.g09.slc.cpg/sg47_7_cif.got.tgz:12662.got - 2010.04.14 03:12:58.
