data_PCOD8199327
_publ_section_title
;
Structure prediction by ZEFSAII (Michael W. Deem and Ramdas Pophale) SiO2 
 PCOD8199327
Probable space group: P M M M
;
_chemical_formula_sum "Si O2"
_cell_formula_units_Z 40
_cell_length_a 27.612117
_cell_length_b 9.203199
_cell_length_c 7.956875
_cell_angle_alpha 90.000000
_cell_angle_beta 90.000000
_cell_angle_gamma 90.000000
_cell_volume 2021.999544
_symmetry_space_group_name_H-M "P M M M"
_symmetry_group_IT_number 47
_symmetry_cell_setting 'orthorhombic'
loop_
_space_group_symop_operation_xyz
x,y,z
-x,-y,z
x,-y,-z
-x,y,-z
-x,-y,-z
x,y,-z
-x,y,z
x,-y,z
loop_
_atom_site_type_symbol
_atom_site_label
_atom_site_fract_x
_atom_site_fract_y
_atom_site_fract_z
Si Si1 0.281576 0.834535 0.804252
Si Si2 0.000000 0.166285 0.196580
Si Si3 0.379937 0.329722 0.192202
Si Si4 0.190536 0.340174 0.305831
Si Si5 0.898335 0.162140 0.696288
Si Si6 0.553953 0.327986 0.500000
O O1 0.331692 0.756426 0.761371
O O2 0.239003 0.752591 0.709770
O O3 0.284423 0.000000 0.739696
O O4 0.270247 0.827638 0.000000
O O5 0.049427 0.237762 0.267908
O O6 0.000000 0.000000 0.258257
O O7 0.000000 0.184146 0.000000
O O8 0.368917 0.500000 0.212071
O O9 0.419737 0.276931 0.327861
O O10 0.397149 0.295278 0.000000
O O11 0.179031 0.361262 0.500000
O O12 0.196717 0.500000 0.221692
O O13 0.144720 0.257599 0.221198
O O14 0.889403 0.149565 0.500000
O O15 0.896616 0.000000 0.777460
O O16 0.550977 0.500000 0.500000
O O17 0.500000 0.260344 0.500000
#
# Coordination Sequence:
#
# PCOD8199327 Si02
#       6
#     8   4   8   8   8   4
#     4  10  21  36  54  77 105 138 176 218 266 319
#     4   9  17  29  48  73  96 122 162 211 258 303
#     4   9  18  33  53  78 110 146 183 226 275 323
#     4  10  21  35  52  76 105 136 171 213 262 315
#     4   9  17  31  50  71  97 130 168 208 254 309
#     4   9  18  32  53  83 113 143 185 230 271 320
#
# _framework density 19.782399000000002
#
# number of rings (size 3 to 8) (size 9 to 14) (size 15 to 20)
#    0.000    2.600    0.000    1.500    1.400    4.800 
#    0.000    4.500    0.000    4.200    0.000    2.800 
#    0.000    0.000    0.000    0.000    0.000    0.000 
#
# Total GULP energy -495827.807459 kJ/mol
# GULP energy per Si atom -12395.695186 kJ/mol
# Density = 1.973737 g / cm^3
# Si number density = 19.782399 Si / 1000 Ang^3
#
#
#
# Elastic Constant Matrix: (Units=GPa)
#
#
# Indices 1 2 3 4 5 6 
#
# 1 179.2125 70.4290 53.5333 0.0000 0.0000 0.0000
# 2 70.4290 97.5496 25.6444 0.0000 0.0000 0.0000
# 3 53.5333 25.6444 59.7091 0.0000 0.0000 0.0000
# 4 0.0000 0.0000 0.0000 14.5126 0.0000 0.0000
# 5 0.0000 0.0000 0.0000 0.0000 4.4123 0.0000
# 6 0.0000 0.0000 0.0000 0.0000 0.0000 17.9578
#
#
#
# Elastic Compliance Matrix: (Units=1/GPa)
#
#
# Indices 1 2 3 4 5 6 
#
# 1 0.009505 -0.005210 -0.006284 0.000000 0.000000 0.000000
# 2 -0.005210 0.014412 -0.001519 0.000000 0.000000 0.000000
# 3 -0.006284 -0.001519 0.023034 0.000000 0.000000 0.000000
# 4 0.000000 0.000000 0.000000 0.068905 0.000000 0.000000
# 5 0.000000 0.000000 0.000000 0.000000 0.226642 0.000000
# 6 0.000000 0.000000 0.000000 0.000000 0.000000 0.055686
#
#
# Mechanical properties :
#
#
# Convention : Reuss Voigt Hill
#
# Bulk Modulus (GPa) = 47.78850 70.63161 59.21005
# Shear Modulus (GPa) = 11.59598 19.83417 15.71508
#
# Velocity S-wave (km/s) = 2.42373 3.16985 2.82156
# Velocity P-wave (km/s) = 5.66058 7.01278 6.37264
#
# Compressibility (1/GPa) = 0.02092554
#
# Stress axis : x y z
#
# Youngs Moduli (GPa) = 105.21227 69.38627 43.41428
#
# Poissons Ratio (x) = 0.36152 0.27281
# Poissons Ratio (y) = 0.54818 0.06592
# Poissons Ratio (z) = 0.66113 0.10536
#
# Static dielectric constant tensor:
#      x y z
#    x 3.754540 0.000000 0.000000 
#    y 0.000000 3.692090 0.000000 
#    z 0.000000 0.000000 3.463730 
# 
# 
# High freq. dielectric constant tensor:
#      x y z
#    x 1.777400 0.000000 0.000000 
#    y 0.000000 1.745620 0.000000 
#    z 0.000000 0.000000 1.761170 
# 
# From -- ./inp_files/13046.got.cif
#   From: 2010.03.12/outbox.cif.g09.slc.cpg/sg47_7_cif.got.tgz:13046.got - 2010.04.14 03:12:58.
