data_PCOD8199660
_publ_section_title
;
Structure prediction by ZEFSAII (Michael W. Deem and Ramdas Pophale) SiO2 
 PCOD8199660
Probable space group: P M M M
;
_chemical_formula_sum "Si O2"
_cell_formula_units_Z 64
_cell_length_a 25.702652
_cell_length_b 8.970740
_cell_length_c 14.110510
_cell_angle_alpha 90.000000
_cell_angle_beta 90.000000
_cell_angle_gamma 90.000000
_cell_volume 3253.485808
_symmetry_space_group_name_H-M "P M M M"
_symmetry_group_IT_number 47
_symmetry_cell_setting 'orthorhombic'
loop_
_space_group_symop_operation_xyz
x,y,z
-x,-y,z
x,-y,-z
-x,y,-z
-x,-y,-z
x,y,-z
-x,y,z
x,-y,z
loop_
_atom_site_type_symbol
_atom_site_label
_atom_site_fract_x
_atom_site_fract_y
_atom_site_fract_z
Si Si1 0.744587 0.827702 0.387948
Si Si2 0.350954 0.324815 0.715895
Si Si3 0.097535 0.326361 0.890973
Si Si4 0.198847 0.163752 0.112108
Si Si5 0.685689 0.174752 0.892229
Si Si6 0.849297 0.327771 0.388558
Si Si7 0.058382 0.171770 0.281279
Si Si8 0.440282 0.829802 0.390071
O O1 0.740959 0.804199 0.500000
O O2 0.695228 0.748954 0.342994
O O3 0.798490 0.757637 0.348580
O O4 0.743889 0.000000 0.359015
O O5 0.343292 0.500000 0.714485
O O6 0.352530 0.266179 0.824162
O O7 0.405963 0.283031 0.670393
O O8 0.088263 0.500000 0.875083
O O9 0.156250 0.285684 0.857087
O O10 0.058098 0.232937 0.826629
O O11 0.088304 0.280449 0.000000
O O12 0.256147 0.207361 0.148858
O O13 0.182286 0.000000 0.150769
O O14 0.203766 0.155249 0.000000
O O15 0.673294 0.000000 0.886694
O O16 0.678684 0.232096 0.000000
O O17 0.853814 0.303059 0.500000
O O18 0.843942 0.500000 0.361065
O O19 0.902005 0.264961 0.344324
O O20 0.000000 0.191888 0.321695
O O21 0.075030 0.000000 0.282230
O O22 0.432069 0.793057 0.500000
O O23 0.500000 0.805260 0.360894
O O24 0.423326 0.000000 0.369436
#
# Coordination Sequence:
#
# PCOD8199660 Si02
#       8
#     8   8   8   8   8   8   8   8
#     4  10  21  38  60  85 116 154 193 232 276 334
#     4  12  24  34  53  87 125 162 195 236 291 346
#     4  10  21  36  56  82 112 145 180 226 284 340
#     4   8  15  30  52  76 102 136 180 227 274 329
#     4   9  19  36  56  78 109 153 202 246 286 333
#     4  10  22  41  64  88 114 143 178 228 290 347
#     4  11  25  42  60  82 108 144 189 232 275 334
#     4   9  19  38  63  88 116 154 201 250 295 342
#
# _framework density 19.671209000000001
#
# number of rings (size 3 to 8) (size 9 to 14) (size 15 to 20)
#    0.000    2.125    0.000    4.125    1.750    6.500 
#    0.000    4.375    0.000    0.375    0.000    2.625 
#    0.000    0.000    0.000    0.000    0.000    0.000 
#
# Total GULP energy -793682.505718 kJ/mol
# GULP energy per Si atom -12401.289152 kJ/mol
# Density = 1.962644 g / cm^3
# Si number density = 19.671209 Si / 1000 Ang^3
#
#
#
# Elastic Constant Matrix: (Units=GPa)
#
#
# Indices 1 2 3 4 5 6 
#
# 1 101.5575 53.1085 44.7968 0.0000 0.0000 0.0000
# 2 53.1085 118.3130 52.2237 0.0000 0.0000 0.0000
# 3 44.7968 52.2237 42.3976 0.0000 0.0000 0.0000
# 4 0.0000 0.0000 0.0000 27.3075 0.0000 0.0000
# 5 0.0000 0.0000 0.0000 0.0000 30.7970 0.0000
# 6 0.0000 0.0000 0.0000 0.0000 0.0000 20.1132
#
#
#
# Elastic Compliance Matrix: (Units=1/GPa)
#
#
# Indices 1 2 3 4 5 6 
#
# 1 0.018468 0.000708 -0.020386 0.000000 0.000000 0.000000
# 2 0.000708 0.018550 -0.023598 0.000000 0.000000 0.000000
# 3 -0.020386 -0.023598 0.074193 0.000000 0.000000 0.000000
# 4 0.000000 0.000000 0.000000 0.036620 0.000000 0.000000
# 5 0.000000 0.000000 0.000000 0.000000 0.032471 0.000000
# 6 0.000000 0.000000 0.000000 0.000000 0.000000 0.049719
#
#
# Mechanical properties :
#
#
# Convention : Reuss Voigt Hill
#
# Bulk Modulus (GPa) = 40.55090 62.50292 51.52691
# Shear Modulus (GPa) = 15.39441 23.11948 19.25695
#
# Velocity S-wave (km/s) = 2.80051 3.43198 3.13220
# Velocity P-wave (km/s) = 5.57819 6.89546 6.27151
#
# Compressibility (1/GPa) = 0.02466037
#
# Stress axis : x y z
#
# Youngs Moduli (GPa) = 54.14628 53.90691 13.47833
#
# Poissons Ratio (x) = -0.03818 0.27477
# Poissons Ratio (y) = -0.03835 0.31806
# Poissons Ratio (z) = 1.10383 1.27210
#
# Static dielectric constant tensor:
#      x y z
#    x 3.526370 0.000000 0.000000 
#    y 0.000000 3.570100 0.000000 
#    z 0.000000 0.000000 3.617970 
# 
# 
# High freq. dielectric constant tensor:
#      x y z
#    x 1.753820 0.000000 0.000000 
#    y 0.000000 1.766300 0.000000 
#    z 0.000000 0.000000 1.769630 
# 
# From -- ./inp_files/7828.got.cif
#   From: 2010.03.12/outbox.cif.g09.slc.cpg/sg47_4_cif.got.tgz:7828.got - 2010.04.14 03:12:58.
