data_PCOD8199556
_publ_section_title
;
Structure prediction by ZEFSAII (Michael W. Deem and Ramdas Pophale) SiO2 
 PCOD8199556
Probable space group: P M M M
;
_chemical_formula_sum "Si O2"
_cell_formula_units_Z 64
_cell_length_a 14.230111
_cell_length_b 9.303727
_cell_length_c 25.756044
_cell_angle_alpha 90.000000
_cell_angle_beta 90.000000
_cell_angle_gamma 90.000000
_cell_volume 3409.921683
_symmetry_space_group_name_H-M "P M M M"
_symmetry_group_IT_number 47
_symmetry_cell_setting 'orthorhombic'
loop_
_space_group_symop_operation_xyz
x,y,z
-x,-y,z
x,-y,-z
-x,y,-z
-x,-y,-z
x,y,-z
-x,y,z
x,-y,z
loop_
_atom_site_type_symbol
_atom_site_label
_atom_site_fract_x
_atom_site_fract_y
_atom_site_fract_z
Si Si1 0.891574 0.164488 0.060110
Si Si2 0.890356 0.666919 0.343836
Si Si3 0.388842 0.157406 0.291301
Si Si4 0.111034 0.167070 0.757735
Si Si5 0.395509 0.335110 0.805351
Si Si6 0.205454 0.667544 0.852345
Si Si7 0.225564 0.665246 0.557024
Si Si8 0.606202 0.170341 0.405992
O O1 0.826903 0.271867 0.092473
O O2 0.000000 0.196343 0.072960
O O3 0.867757 0.000000 0.074671
O O4 0.870445 0.193470 0.000000
O O5 0.869290 0.500000 0.332142
O O6 0.851185 0.761208 0.295701
O O7 0.843048 0.720443 0.397473
O O8 0.000000 0.694885 0.351371
O O9 0.500000 0.144288 0.288715
O O10 0.352664 0.259412 0.245675
O O11 0.362326 0.218519 0.347876
O O12 0.343646 0.000000 0.282646
O O13 0.155845 0.246004 0.806613
O O14 0.000000 0.188121 0.762028
O O15 0.139307 0.000000 0.758188
O O16 0.500000 0.277138 0.821709
O O17 0.403969 0.500000 0.790096
O O18 0.318979 0.311069 0.850596
O O19 0.178466 0.500000 0.847699
O O20 0.178016 0.685953 0.500000
O O21 0.250672 0.500000 0.566815
O O22 0.322763 0.752970 0.555250
O O23 0.500000 0.220571 0.418431
O O24 0.613504 0.000000 0.411795
#
# Coordination Sequence:
#
# PCOD8199556 Si02
#       8
#     8   8   8   8   8   8   8   8
#     4   9  19  37  59  82 111 147 185 225 269 317
#     4   9  19  37  58  77 101 133 168 211 263 317
#     4   8  15  29  48  70  95 125 166 212 255 303
#     4  10  21  36  54  78 109 142 173 208 258 320
#     4   9  19  34  49  70 105 145 181 217 259 307
#     4  11  22  33  52  83 114 145 182 223 265 311
#     4  10  22  37  53  76 102 129 168 216 263 316
#     4   9  19  35  53  74 101 133 169 210 258 313
#
# _framework density 18.768758999999999
#
# number of rings (size 3 to 8) (size 9 to 14) (size 15 to 20)
#    0.000    2.625    0.000    2.250    1.750    5.750 
#    0.000    4.375    0.000    0.375    0.000    5.250 
#    0.000    0.000    0.000    0.000    0.000    0.000 
#
# Total GULP energy -793397.531153 kJ/mol
# GULP energy per Si atom -12396.836424 kJ/mol
# Density = 1.872604 g / cm^3
# Si number density = 18.768759 Si / 1000 Ang^3
#
#
#
# Elastic Constant Matrix: (Units=GPa)
#
#
# Indices 1 2 3 4 5 6 
#
# 1 56.2430 39.1371 48.7243 0.0000 0.0000 0.0000
# 2 39.1371 79.7711 54.0233 0.0000 0.0000 0.0000
# 3 48.7243 54.0233 110.1608 0.0000 0.0000 0.0000
# 4 0.0000 0.0000 0.0000 28.2587 0.0000 0.0000
# 5 0.0000 0.0000 0.0000 0.0000 29.0928 0.0000
# 6 0.0000 0.0000 0.0000 0.0000 0.0000 21.4266
#
#
#
# Elastic Compliance Matrix: (Units=1/GPa)
#
#
# Indices 1 2 3 4 5 6 
#
# 1 0.032969 -0.009432 -0.009957 0.000000 0.000000 0.000000
# 2 -0.009432 0.021468 -0.006356 0.000000 0.000000 0.000000
# 3 -0.009957 -0.006356 0.016599 0.000000 0.000000 0.000000
# 4 0.000000 0.000000 0.000000 0.035387 0.000000 0.000000
# 5 0.000000 0.000000 0.000000 0.000000 0.034373 0.000000
# 6 0.000000 0.000000 0.000000 0.000000 0.000000 0.046671
#
#
# Mechanical properties :
#
#
# Convention : Reuss Voigt Hill
#
# Bulk Modulus (GPa) = 51.16235 58.88267 55.02251
# Shear Modulus (GPa) = 20.36892 22.70832 21.53862
#
# Velocity S-wave (km/s) = 3.29790 3.48213 3.39127
# Velocity P-wave (km/s) = 6.46684 6.89984 6.68685
#
# Compressibility (1/GPa) = 0.01954562
#
# Stress axis : x y z
#
# Youngs Moduli (GPa) = 30.33141 46.58083 60.24627
#
# Poissons Ratio (x) = 0.43936 0.59985
# Poissons Ratio (y) = 0.28609 0.38293
# Poissons Ratio (z) = 0.30200 0.29607
#
# Static dielectric constant tensor:
#      x y z
#    x 3.466200 0.000000 0.000000 
#    y 0.000000 3.491630 0.000000 
#    z 0.000000 0.000000 3.434770 
# 
# 
# High freq. dielectric constant tensor:
#      x y z
#    x 1.726220 0.000000 0.000000 
#    y 0.000000 1.725890 0.000000 
#    z 0.000000 0.000000 1.717130 
# 
# From -- ./inp_files/7809.got.cif
#   From: 2010.03.12/outbox.cif.g09.slc.cpg/sg47_4_cif.got.tgz:7809.got - 2010.04.14 03:12:58.
