data_PCOD8199473
_publ_section_title
;
Structure prediction by ZEFSAII (Michael W. Deem and Ramdas Pophale) SiO2 
 PCOD8199473
Probable space group: P M M M
;
_chemical_formula_sum "Si O2"
_cell_formula_units_Z 44
_cell_length_a 14.953650
_cell_length_b 17.218052
_cell_length_c 8.965244
_cell_angle_alpha 90.000000
_cell_angle_beta 90.000000
_cell_angle_gamma 90.000000
_cell_volume 2308.305788
_symmetry_space_group_name_H-M "P M M M"
_symmetry_group_IT_number 47
_symmetry_cell_setting 'orthorhombic'
loop_
_space_group_symop_operation_xyz
x,y,z
-x,-y,z
x,-y,-z
-x,y,-z
-x,-y,-z
x,y,-z
-x,y,z
x,-y,z
loop_
_atom_site_type_symbol
_atom_site_label
_atom_site_fract_x
_atom_site_fract_y
_atom_site_fract_z
Si Si1 0.394431 0.000000 0.832710
Si Si2 0.675623 0.413833 0.171266
Si Si3 0.500000 0.408076 0.336157
Si Si4 0.246776 0.256233 0.826458
Si Si5 0.103847 0.844333 0.674956
Si Si6 0.106079 0.000000 0.831906
Si Si7 0.395664 0.157315 0.675627
O O1 0.362430 0.924459 0.742997
O O2 0.500000 0.000000 0.842804
O O3 0.353138 0.000000 0.000000
O O4 0.705623 0.500000 0.229354
O O5 0.588891 0.380350 0.254154
O O6 0.753473 0.350108 0.194560
O O7 0.648130 0.419979 0.000000
O O8 0.500000 0.500000 0.345075
O O9 0.500000 0.369731 0.500000
O O10 0.157915 0.226815 0.744970
O O11 0.336863 0.223326 0.752867
O O12 0.244188 0.233025 0.000000
O O13 0.121242 0.848769 0.500000
O O14 0.000000 0.831062 0.712496
O O15 0.141003 0.923853 0.746764
O O16 0.000000 0.000000 0.830540
O O17 0.143829 0.000000 0.000000
O O18 0.377296 0.155871 0.500000
O O19 0.500000 0.173575 0.710696
#
# Coordination Sequence:
#
# PCOD8199473 Si02
#       7
#     4   8   4   8   8   4   8
#     4   9  17  32  53  74 100 139 185 228 265 308
#     4   9  19  36  55  76 106 143 181 223 274 328
#     4   9  17  29  49  77 105 136 175 218 265 319
#     4  11  23  36  55  82 108 140 182 227 273 323
#     4  10  21  38  59  83 113 146 180 222 274 329
#     4   9  17  32  57  86 114 143 177 220 269 322
#     4  10  21  36  53  75 107 145 181 221 267 318
#
# _framework density 19.061598
#
# number of rings (size 3 to 8) (size 9 to 14) (size 15 to 20)
#    0.000    2.273    0.000    2.455    1.273    7.636 
#    0.000    3.636    0.000    0.545    0.000    3.818 
#    0.000    0.000    0.000    0.000    0.000    0.000 
#
# Total GULP energy -545539.882065 kJ/mol
# GULP energy per Si atom -12398.633683 kJ/mol
# Density = 1.901821 g / cm^3
# Si number density = 19.061598 Si / 1000 Ang^3
#
#
#
# Elastic Constant Matrix: (Units=GPa)
#
#
# Indices 1 2 3 4 5 6 
#
# 1 78.4461 52.2246 47.5017 0.0000 0.0000 0.0000
# 2 52.2246 122.5473 58.1406 0.0000 0.0000 0.0000
# 3 47.5017 58.1406 125.8115 0.0000 0.0000 0.0000
# 4 0.0000 0.0000 0.0000 18.7895 0.0000 0.0000
# 5 0.0000 0.0000 0.0000 0.0000 28.8210 0.0000
# 6 0.0000 0.0000 0.0000 0.0000 0.0000 24.1925
#
#
#
# Elastic Compliance Matrix: (Units=1/GPa)
#
#
# Indices 1 2 3 4 5 6 
#
# 1 0.019634 -0.006212 -0.004542 0.000000 0.000000 0.000000
# 2 -0.006212 0.012417 -0.003393 0.000000 0.000000 0.000000
# 3 -0.004542 -0.003393 0.011231 0.000000 0.000000 0.000000
# 4 0.000000 0.000000 0.000000 0.053221 0.000000 0.000000
# 5 0.000000 0.000000 0.000000 0.000000 0.034697 0.000000
# 6 0.000000 0.000000 0.000000 0.000000 0.000000 0.041335
#
#
# Mechanical properties :
#
#
# Convention : Reuss Voigt Hill
#
# Bulk Modulus (GPa) = 66.72052 71.39318 69.05685
# Shear Modulus (GPa) = 24.29241 25.62312 24.95777
#
# Velocity S-wave (km/s) = 3.57377 3.67035 3.62238
# Velocity P-wave (km/s) = 7.21856 7.44964 7.33501
#
# Compressibility (1/GPa) = 0.01498789
#
# Stress axis : x y z
#
# Youngs Moduli (GPa) = 50.93289 80.53404 89.03731
#
# Poissons Ratio (x) = 0.50028 0.40442
# Poissons Ratio (y) = 0.31640 0.30209
# Poissons Ratio (z) = 0.23135 0.27324
#
# Static dielectric constant tensor:
#      x y z
#    x 3.214710 0.000000 0.000000 
#    y 0.000000 3.610270 0.000000 
#    z 0.000000 0.000000 3.696470 
# 
# 
# High freq. dielectric constant tensor:
#      x y z
#    x 1.713550 0.000000 0.000000 
#    y 0.000000 1.741170 0.000000 
#    z 0.000000 0.000000 1.755160 
# 
# From -- ./inp_files/6303.got.cif
#   From: 2010.03.12/outbox.cif.g09.slc.cpg/sg47_4_cif.got.tgz:6303.got - 2010.04.14 03:12:58.
