data_PCOD8199143
_publ_section_title
;
Structure prediction by ZEFSAII (Michael W. Deem and Ramdas Pophale) SiO2 
 PCOD8199143
Probable space group: P M M M
;
_chemical_formula_sum "Si O2"
_cell_formula_units_Z 40
_cell_length_a 18.985621
_cell_length_b 9.021143
_cell_length_c 13.747704
_cell_angle_alpha 90.000000
_cell_angle_beta 90.000000
_cell_angle_gamma 90.000000
_cell_volume 2354.596787
_symmetry_space_group_name_H-M "P M M M"
_symmetry_group_IT_number 47
_symmetry_cell_setting 'orthorhombic'
loop_
_space_group_symop_operation_xyz
x,y,z
-x,-y,z
x,-y,-z
-x,y,-z
-x,-y,-z
x,y,-z
-x,y,z
x,-y,z
loop_
_atom_site_type_symbol
_atom_site_label
_atom_site_fract_x
_atom_site_fract_y
_atom_site_fract_z
Si Si1 0.921834 0.176060 0.608865
Si Si2 0.292135 0.328864 0.888314
Si Si3 0.653944 0.173931 0.606212
Si Si4 0.579604 0.175527 0.795669
Si Si5 0.210584 0.174547 0.725139
O O1 0.906986 0.237576 0.500000
O O2 0.864094 0.236151 0.685273
O O3 0.000000 0.225790 0.643209
O O4 0.916547 0.000000 0.605243
O O5 0.298910 0.500000 0.859845
O O6 0.367818 0.252951 0.870703
O O7 0.229912 0.255715 0.825309
O O8 0.270979 0.306857 0.000000
O O9 0.641220 0.248794 0.500000
O O10 0.597066 0.229687 0.685542
O O11 0.731876 0.213945 0.643319
O O12 0.646136 0.000000 0.594165
O O13 0.500000 0.221451 0.821537
O O14 0.591171 0.000000 0.804293
O O15 0.208697 0.000000 0.746618
#
# Coordination Sequence:
#
# PCOD8199143 Si02
#       5
#     8   8   8   8   8
#     4   8  13  22  41  73 107 130 148 176 216 260
#     4  10  21  35  49  64  83 112 151 192 234 276
#     4   8  13  22  39  64  91 117 145 175 206 246
#     4   9  18  31  47  69  93 115 143 181 224 269
#     4   9  16  27  46  70  93 118 150 186 221 259
#
# _framework density 16.988047000000002
#
# number of rings (size 3 to 8) (size 9 to 14) (size 15 to 20)
#    0.000    3.200    0.000    3.000    0.000    5.200 
#    0.000    4.000    0.000   16.200    0.000   11.200 
#    0.000    0.000    0.000    0.000    0.000    0.000 
#
# Total GULP energy -495734.597130 kJ/mol
# GULP energy per Si atom -12393.364928 kJ/mol
# Density = 1.694938 g / cm^3
# Si number density = 16.988047 Si / 1000 Ang^3
#
#
#
# Elastic Constant Matrix: (Units=GPa)
#
#
# Indices 1 2 3 4 5 6 
#
# 1 133.6539 34.8767 53.2681 0.0000 0.0000 0.0000
# 2 34.8767 39.6681 33.6545 0.0000 0.0000 0.0000
# 3 53.2681 33.6545 97.1729 0.0000 0.0000 0.0000
# 4 0.0000 0.0000 0.0000 3.2206 0.0000 0.0000
# 5 0.0000 0.0000 0.0000 0.0000 23.6641 0.0000
# 6 0.0000 0.0000 0.0000 0.0000 0.0000 7.0672
#
#
#
# Elastic Compliance Matrix: (Units=1/GPa)
#
#
# Indices 1 2 3 4 5 6 
#
# 1 0.010546 -0.006185 -0.003639 0.000000 0.000000 0.000000
# 2 -0.006185 0.039326 -0.010229 0.000000 0.000000 0.000000
# 3 -0.003639 -0.010229 0.015829 0.000000 0.000000 0.000000
# 4 0.000000 0.000000 0.000000 0.310505 0.000000 0.000000
# 5 0.000000 0.000000 0.000000 0.000000 0.042258 0.000000
# 6 0.000000 0.000000 0.000000 0.000000 0.000000 0.141498
#
#
# Mechanical properties :
#
#
# Convention : Reuss Voigt Hill
#
# Bulk Modulus (GPa) = 39.07239 57.12151 48.09695
# Shear Modulus (GPa) = 8.21557 16.70342 12.45949
#
# Velocity S-wave (km/s) = 2.20150 3.13908 2.71112
# Velocity P-wave (km/s) = 5.43249 6.84368 6.17851
#
# Compressibility (1/GPa) = 0.02559352
#
# Stress axis : x y z
#
# Youngs Moduli (GPa) = 94.81918 25.42863 63.17639
#
# Poissons Ratio (x) = 0.15728 0.22991
# Poissons Ratio (y) = 0.58646 0.64626
# Poissons Ratio (z) = 0.34507 0.26012
#
# Static dielectric constant tensor:
#      x y z
#    x 3.339940 0.000000 0.000000 
#    y 0.000000 2.785500 0.000000 
#    z 0.000000 0.000000 3.249820 
# 
# 
# High freq. dielectric constant tensor:
#      x y z
#    x 1.650980 0.000000 0.000000 
#    y 0.000000 1.610720 0.000000 
#    z 0.000000 0.000000 1.651150 
# 
# From -- ./inp_files/5954.got.cif
#   From: 2010.03.12/outbox.cif.g09.slc.cpg/sg47_3_cif.got.tgz:5954.got - 2010.04.14 03:12:58.
