data_PCOD8199231
_publ_section_title
;
Structure prediction by ZEFSAII (Michael W. Deem and Ramdas Pophale) SiO2 
 PCOD8199231
Probable space group: P M M M
;
_chemical_formula_sum "Si O2"
_cell_formula_units_Z 52
_cell_length_a 27.993815
_cell_length_b 9.005371
_cell_length_c 11.574868
_cell_angle_alpha 90.000000
_cell_angle_beta 90.000000
_cell_angle_gamma 90.000000
_cell_volume 2917.962758
_symmetry_space_group_name_H-M "P M M M"
_symmetry_group_IT_number 47
_symmetry_cell_setting 'orthorhombic'
loop_
_space_group_symop_operation_xyz
x,y,z
-x,-y,z
x,-y,-z
-x,y,-z
-x,-y,-z
x,y,-z
-x,y,z
x,-y,z
loop_
_atom_site_type_symbol
_atom_site_label
_atom_site_fract_x
_atom_site_fract_y
_atom_site_fract_z
Si Si1 0.712355 0.676342 0.500000
Si Si2 0.500000 0.324990 0.125565
Si Si3 0.055042 0.172667 0.868719
Si Si4 0.779195 0.829347 0.132948
Si Si5 0.137442 0.324396 0.741034
Si Si6 0.603268 0.330043 0.137780
Si Si7 0.178777 0.676290 0.500000
Si Si8 0.685556 0.174479 0.729075
O O1 0.710834 0.500000 0.500000
O O2 0.766927 0.736890 0.500000
O O3 0.684035 0.737356 0.390226
O O4 0.500000 0.500000 0.106712
O O5 0.550319 0.283525 0.187457
O O6 0.500000 0.247362 0.000000
O O7 0.085765 0.263824 0.776626
O O8 0.000000 0.204949 0.840239
O O9 0.066963 0.000000 0.854817
O O10 0.066800 0.222766 0.000000
O O11 0.823976 0.729288 0.166443
O O12 0.733378 0.777525 0.204445
O O13 0.792391 0.000000 0.157773
O O14 0.766849 0.802768 0.000000
O O15 0.135775 0.500000 0.742155
O O16 0.151329 0.264200 0.613517
O O17 0.615569 0.500000 0.171477
O O18 0.640437 0.218700 0.194477
O O19 0.604387 0.311167 0.000000
O O20 0.180086 0.500000 0.500000
O O21 0.684144 0.000000 0.705343
#
# Coordination Sequence:
#
# PCOD8199231 Si02
#       8
#     4   4   8   8   8   8   4   8
#     4  11  21  39  59  73  99 141 186 225 262 315
#     4   7  12  26  49  76 105 138 179 221 259 311
#     4   9  19  37  58  79 107 141 172 206 256 316
#     4  10  21  35  50  72 106 142 170 203 255 316
#     4  11  21  35  55  79 104 134 174 220 261 302
#     4   9  17  31  53  80 109 143 181 220 265 317
#     4   9  20  37  54  74 104 137 172 215 264 308
#     4  11  22  35  52  77 108 140 178 221 268 320
#
# _framework density 17.820651999999999
#
# number of rings (size 3 to 8) (size 9 to 14) (size 15 to 20)
#    0.000    2.231    1.538    3.462    0.000    4.308 
#    0.000    3.077    0.000    4.154    0.000    3.231 
#    0.000    0.000    0.000    0.000    0.000    0.000 
#
# Total GULP energy -644727.881552 kJ/mol
# GULP energy per Si atom -12398.613107 kJ/mol
# Density = 1.778009 g / cm^3
# Si number density = 17.820652 Si / 1000 Ang^3
#
#
#
# Elastic Constant Matrix: (Units=GPa)
#
#
# Indices 1 2 3 4 5 6 
#
# 1 107.1407 37.5635 35.9911 0.0000 0.0000 0.0000
# 2 37.5635 59.1364 31.2747 0.0000 0.0000 0.0000
# 3 35.9911 31.2747 79.8267 0.0000 0.0000 0.0000
# 4 0.0000 0.0000 0.0000 25.8458 0.0000 0.0000
# 5 0.0000 0.0000 0.0000 0.0000 10.4579 0.0000
# 6 0.0000 0.0000 0.0000 0.0000 0.0000 30.8290
#
#
#
# Elastic Compliance Matrix: (Units=1/GPa)
#
#
# Indices 1 2 3 4 5 6 
#
# 1 0.012631 -0.006321 -0.003218 0.000000 0.000000 0.000000
# 2 -0.006321 0.024493 -0.006746 0.000000 0.000000 0.000000
# 3 -0.003218 -0.006746 0.016621 0.000000 0.000000 0.000000
# 4 0.000000 0.000000 0.000000 0.038691 0.000000 0.000000
# 5 0.000000 0.000000 0.000000 0.000000 0.095621 0.000000
# 6 0.000000 0.000000 0.000000 0.000000 0.000000 0.032437
#
#
# Mechanical properties :
#
#
# Convention : Reuss Voigt Hill
#
# Bulk Modulus (GPa) = 47.22743 50.64030 48.93386
# Shear Modulus (GPa) = 19.22169 22.84483 21.03326
#
# Velocity S-wave (km/s) = 3.28780 3.58429 3.43924
# Velocity P-wave (km/s) = 6.40093 6.75336 6.57950
#
# Compressibility (1/GPa) = 0.02117414
#
# Stress axis : x y z
#
# Youngs Moduli (GPa) = 79.17156 40.82825 60.16454
#
# Poissons Ratio (x) = 0.25808 0.19363
# Poissons Ratio (y) = 0.50045 0.40586
# Poissons Ratio (z) = 0.25480 0.27542
#
# Static dielectric constant tensor:
#      x y z
#    x 3.465120 0.000000 0.000000 
#    y 0.000000 3.129520 0.000000 
#    z 0.000000 0.000000 3.257440 
# 
# 
# High freq. dielectric constant tensor:
#      x y z
#    x 1.696220 0.000000 0.000000 
#    y 0.000000 1.676800 0.000000 
#    z 0.000000 0.000000 1.676980 
# 
# From -- ./inp_files/19918.got.cif
#   From: 2010.03.12/outbox.cif.g09.slc.cpg/sg47_10_cif.got.tgz:19918.got - 2010.04.14 03:12:58.
