data_PCOD8199467
_publ_section_title
;
Structure prediction by ZEFSAII (Michael W. Deem and Ramdas Pophale) SiO2 
 PCOD8199467
Probable space group: P M M M
;
_chemical_formula_sum "Si O2"
_cell_formula_units_Z 64
_cell_length_a 23.224916
_cell_length_b 9.410463
_cell_length_c 14.939744
_cell_angle_alpha 90.000000
_cell_angle_beta 90.000000
_cell_angle_gamma 90.000000
_cell_volume 3265.188807
_symmetry_space_group_name_H-M "P M M M"
_symmetry_group_IT_number 47
_symmetry_cell_setting 'orthorhombic'
loop_
_space_group_symop_operation_xyz
x,y,z
-x,-y,z
x,-y,-z
-x,y,-z
-x,-y,-z
x,y,-z
-x,y,z
x,-y,z
loop_
_atom_site_type_symbol
_atom_site_label
_atom_site_fract_x
_atom_site_fract_y
_atom_site_fract_z
Si Si1 0.257668 0.658607 0.596967
Si Si2 0.935419 0.658470 0.397394
Si Si3 0.063651 0.658376 0.105406
Si Si4 0.160800 0.155478 0.346178
Si Si5 0.698458 0.167022 0.101469
Si Si6 0.824591 0.843025 0.854167
Si Si7 0.353763 0.329827 0.734798
Si Si8 0.568012 0.162498 0.398215
O O1 0.288991 0.664827 0.500000
O O2 0.236520 0.500000 0.618799
O O3 0.201917 0.756770 0.588920
O O4 0.299548 0.711460 0.674023
O O5 0.932213 0.707947 0.500000
O O6 0.910361 0.500000 0.387414
O O7 0.900323 0.766803 0.336416
O O8 0.000000 0.663274 0.361299
O O9 0.072577 0.500000 0.145773
O O10 0.118034 0.752391 0.132669
O O11 0.000000 0.716439 0.137085
O O12 0.063092 0.649114 0.000000
O O13 0.189864 0.146644 0.249960
O O14 0.151521 0.000000 0.387758
O O15 0.765514 0.219756 0.103687
O O16 0.657321 0.257620 0.168206
O O17 0.695248 0.000000 0.127513
O O18 0.675824 0.191731 0.000000
O O19 0.836619 0.000000 0.894384
O O20 0.362319 0.500000 0.745722
O O21 0.407295 0.263659 0.680325
O O22 0.586221 0.208879 0.500000
O O23 0.500000 0.173440 0.389343
O O24 0.588405 0.000000 0.381764
#
# Coordination Sequence:
#
# PCOD8199467 Si02
#       8
#     8   8   8   8   8   8   8   8
#     4  10  21  36  53  76 110 150 186 221 269 333
#     4   9  19  36  54  69  90 127 173 217 267 333
#     4   9  19  35  53  74  99 127 165 217 278 346
#     4  11  22  34  50  74 103 132 170 224 277 327
#     4  10  21  39  61  82 111 154 201 248 298 354
#     4  10  21  36  53  75 105 138 177 227 283 345
#     4  11  22  36  58  89 124 158 196 245 294 341
#     4   9  19  37  62  93 130 172 212 245 281 332
#
# _framework density 19.600704
#
# number of rings (size 3 to 8) (size 9 to 14) (size 15 to 20)
#    0.000    2.125    1.250    3.000    0.000    7.000 
#    0.000    4.375    0.000    0.375    0.000    2.625 
#    0.000    0.000    0.000    0.000    0.000    0.000 
#
# Total GULP energy -793080.391697 kJ/mol
# GULP energy per Si atom -12391.881120 kJ/mol
# Density = 1.955609 g / cm^3
# Si number density = 19.600704 Si / 1000 Ang^3
#
#
#
# Elastic Constant Matrix: (Units=GPa)
#
#
# Indices 1 2 3 4 5 6 
#
# 1 75.3111 49.0491 32.4645 0.0000 0.0000 0.0000
# 2 49.0491 102.1670 39.8645 0.0000 0.0000 0.0000
# 3 32.4645 39.8645 98.0995 0.0000 0.0000 0.0000
# 4 0.0000 0.0000 0.0000 26.9015 0.0000 0.0000
# 5 0.0000 0.0000 0.0000 0.0000 30.5236 0.0000
# 6 0.0000 0.0000 0.0000 0.0000 0.0000 30.6946
#
#
#
# Elastic Compliance Matrix: (Units=1/GPa)
#
#
# Indices 1 2 3 4 5 6 
#
# 1 0.020156 -0.008407 -0.003254 0.000000 0.000000 0.000000
# 2 -0.008407 0.015139 -0.003370 0.000000 0.000000 0.000000
# 3 -0.003254 -0.003370 0.012640 0.000000 0.000000 0.000000
# 4 0.000000 0.000000 0.000000 0.037173 0.000000 0.000000
# 5 0.000000 0.000000 0.000000 0.000000 0.032762 0.000000
# 6 0.000000 0.000000 0.000000 0.000000 0.000000 0.032579
#
#
# Mechanical properties :
#
#
# Convention : Reuss Voigt Hill
#
# Bulk Modulus (GPa) = 55.94911 57.59266 56.77088
# Shear Modulus (GPa) = 26.81420 27.90390 27.35905
#
# Velocity S-wave (km/s) = 3.70269 3.77718 3.74012
# Velocity P-wave (km/s) = 6.84736 6.96200 6.90492
#
# Compressibility (1/GPa) = 0.01787339
#
# Stress axis : x y z
#
# Youngs Moduli (GPa) = 49.61183 66.05495 79.11412
#
# Poissons Ratio (x) = 0.55534 0.25744
# Poissons Ratio (y) = 0.41710 0.26659
# Poissons Ratio (z) = 0.16144 0.22259
#
# Static dielectric constant tensor:
#      x y z
#    x 3.417190 0.000000 0.000000 
#    y 0.000000 3.701940 0.000000 
#    z 0.000000 0.000000 3.570090 
# 
# 
# High freq. dielectric constant tensor:
#      x y z
#    x 1.743360 0.000000 0.000000 
#    y 0.000000 1.758660 0.000000 
#    z 0.000000 0.000000 1.764310 
# 
# From -- ./inp_files/7861.got.cif
#   From: 2010.03.12/outbox.cif.g09.slc.cpg/sg47_4_cif.got.tgz:7861.got - 2010.04.14 03:12:58.
