data_PCOD8199767
_publ_section_title
;
Structure prediction by ZEFSAII (Michael W. Deem and Ramdas Pophale) SiO2 
 PCOD8199767
Probable space group: P M M M
;
_chemical_formula_sum "Si O2"
_cell_formula_units_Z 64
_cell_length_a 25.577824
_cell_length_b 8.957482
_cell_length_c 14.353589
_cell_angle_alpha 90.000000
_cell_angle_beta 90.000000
_cell_angle_gamma 90.000000
_cell_volume 3288.592374
_symmetry_space_group_name_H-M "P M M M"
_symmetry_group_IT_number 47
_symmetry_cell_setting 'orthorhombic'
loop_
_space_group_symop_operation_xyz
x,y,z
-x,-y,z
x,-y,-z
-x,y,-z
-x,-y,-z
x,y,-z
-x,y,z
x,-y,z
loop_
_atom_site_type_symbol
_atom_site_label
_atom_site_fract_x
_atom_site_fract_y
_atom_site_fract_z
Si Si1 0.143247 0.169613 0.109694
Si Si2 0.352868 0.324607 0.221734
Si Si3 0.209774 0.332748 0.610327
Si Si4 0.105470 0.175872 0.393948
Si Si5 0.261718 0.826118 0.108335
Si Si6 0.941725 0.328442 0.230757
Si Si7 0.684534 0.176436 0.393815
Si Si8 0.559914 0.829570 0.108107
O O1 0.202381 0.217716 0.136600
O O2 0.100900 0.275160 0.156878
O O3 0.133231 0.000000 0.142538
O O4 0.135840 0.183393 0.000000
O O5 0.350188 0.500000 0.235306
O O6 0.301301 0.271351 0.168087
O O7 0.357549 0.248114 0.323840
O O8 0.404892 0.282787 0.166311
O O9 0.207001 0.338947 0.500000
O O10 0.213170 0.500000 0.652131
O O11 0.158358 0.249258 0.647090
O O12 0.259648 0.237409 0.641198
O O13 0.093519 0.224991 0.500000
O O14 0.059935 0.235282 0.327213
O O15 0.111432 0.000000 0.386957
O O16 0.272019 0.000000 0.128587
O O17 0.271481 0.791313 0.000000
O O18 0.930664 0.500000 0.254566
O O19 0.000000 0.306470 0.188904
O O20 0.672015 0.225713 0.500000
O O21 0.684592 0.000000 0.384542
O O22 0.500000 0.804762 0.137575
O O23 0.576952 0.000000 0.128061
O O24 0.567682 0.792461 0.000000
#
# Coordination Sequence:
#
# PCOD8199767 Si02
#       8
#     8   8   8   8   8   8   8   8
#     4   9  20  40  64  86 108 140 183 232 284 336
#     4  12  24  34  53  87 124 160 193 235 292 345
#     4   9  17  31  52  78 108 140 176 222 277 335
#     4  10  21  37  58  82 108 142 183 227 276 333
#     4   9  19  37  59  83 114 150 187 229 279 338
#     4  11  25  41  57  80 110 144 182 229 286 344
#     4  10  21  37  56  78 109 153 202 245 284 331
#     4   9  19  38  63  88 117 157 203 248 291 337
#
# _framework density 19.461213999999998
#
# number of rings (size 3 to 8) (size 9 to 14) (size 15 to 20)
#    0.000    2.125    0.000    4.125    1.750    7.500 
#    0.000    4.375    0.000    0.375    0.000    2.625 
#    0.000    0.000    0.000    0.000    0.000    0.000 
#
# Total GULP energy -793670.598757 kJ/mol
# GULP energy per Si atom -12401.103106 kJ/mol
# Density = 1.941692 g / cm^3
# Si number density = 19.461214 Si / 1000 Ang^3
#
#
#
# Elastic Constant Matrix: (Units=GPa)
#
#
# Indices 1 2 3 4 5 6 
#
# 1 95.9754 46.0122 47.5474 0.0000 0.0000 0.0000
# 2 46.0122 108.5838 39.8068 0.0000 0.0000 0.0000
# 3 47.5474 39.8068 71.5761 0.0000 0.0000 0.0000
# 4 0.0000 0.0000 0.0000 27.1960 0.0000 0.0000
# 5 0.0000 0.0000 0.0000 0.0000 29.2641 0.0000
# 6 0.0000 0.0000 0.0000 0.0000 0.0000 29.4240
#
#
#
# Elastic Compliance Matrix: (Units=1/GPa)
#
#
# Indices 1 2 3 4 5 6 
#
# 1 0.016678 -0.003775 -0.008979 0.000000 0.000000 0.000000
# 2 -0.003775 0.012423 -0.004401 0.000000 0.000000 0.000000
# 3 -0.008979 -0.004401 0.022383 0.000000 0.000000 0.000000
# 4 0.000000 0.000000 0.000000 0.036770 0.000000 0.000000
# 5 0.000000 0.000000 0.000000 0.000000 0.034172 0.000000
# 6 0.000000 0.000000 0.000000 0.000000 0.000000 0.033986
#
#
# Mechanical properties :
#
#
# Convention : Reuss Voigt Hill
#
# Bulk Modulus (GPa) = 58.23110 60.31868 59.27489
# Shear Modulus (GPa) = 25.45223 26.69476 26.07350
#
# Velocity S-wave (km/s) = 3.62034 3.70765 3.66425
# Velocity P-wave (km/s) = 6.88929 7.02784 6.95891
#
# Compressibility (1/GPa) = 0.01717296
#
# Stress axis : x y z
#
# Youngs Moduli (GPa) = 59.96018 80.49818 44.67585
#
# Poissons Ratio (x) = 0.30391 0.40115
# Poissons Ratio (y) = 0.22637 0.19661
# Poissons Ratio (z) = 0.53839 0.35426
#
# Static dielectric constant tensor:
#      x y z
#    x 3.470090 0.000000 0.000000 
#    y 0.000000 3.526490 0.000000 
#    z 0.000000 0.000000 3.576820 
# 
# 
# High freq. dielectric constant tensor:
#      x y z
#    x 1.743590 0.000000 0.000000 
#    y 0.000000 1.759860 0.000000 
#    z 0.000000 0.000000 1.758970 
# 
# From -- ./inp_files/21951.got.cif
#   From: 2010.03.12/outbox.cif.g09.slc.cpg/sg47_11_cif.got.tgz:21951.got - 2010.04.14 03:12:58.
