data_PCOD8199216
_publ_section_title
;
Structure prediction by ZEFSAII (Michael W. Deem and Ramdas Pophale) SiO2 
 PCOD8199216
Probable space group: P M M M
;
_chemical_formula_sum "Si O2"
_cell_formula_units_Z 52
_cell_length_a 12.755140
_cell_length_b 7.947052
_cell_length_c 31.878441
_cell_angle_alpha 90.000000
_cell_angle_beta 90.000000
_cell_angle_gamma 90.000000
_cell_volume 3231.382427
_symmetry_space_group_name_H-M "P M M M"
_symmetry_group_IT_number 47
_symmetry_cell_setting 'orthorhombic'
loop_
_space_group_symop_operation_xyz
x,y,z
-x,-y,z
x,-y,-z
-x,y,-z
-x,-y,-z
x,y,-z
-x,y,z
x,-y,z
loop_
_atom_site_type_symbol
_atom_site_label
_atom_site_fract_x
_atom_site_fract_y
_atom_site_fract_z
Si Si1 0.376439 0.000000 0.371125
Si Si2 0.753310 0.305049 0.661561
Si Si3 0.116592 0.692944 0.739465
Si Si4 0.877373 0.689411 0.578357
Si Si5 0.119295 0.806770 0.173250
Si Si6 0.882275 0.196799 0.000000
Si Si7 0.117549 0.304397 0.913187
Si Si8 0.752017 0.000000 0.453345
O O1 0.338565 0.172722 0.348920
O O2 0.500000 0.000000 0.369346
O O3 0.340817 0.000000 0.419576
O O4 0.711323 0.500000 0.665126
O O5 0.804881 0.234589 0.704553
O O6 0.842945 0.293796 0.626528
O O7 0.102788 0.500000 0.728364
O O8 0.167769 0.714515 0.785982
O O9 0.000000 0.779012 0.738067
O O10 0.850566 0.500000 0.561785
O O11 0.820958 0.830721 0.550684
O O12 0.000000 0.724061 0.575953
O O13 0.176104 0.767948 0.128507
O O14 0.000000 0.742430 0.168057
O O15 0.127430 0.000000 0.183905
O O16 0.824115 0.257950 0.042867
O O17 0.000000 0.275338 0.000000
O O18 0.884657 0.000000 0.000000
O O19 0.113745 0.500000 0.907263
O O20 0.000000 0.225530 0.915858
O O21 0.702956 0.000000 0.500000
#
# Coordination Sequence:
#
# PCOD8199216 Si02
#       8
#     4   8   8   8   8   4   8   4
#     4  10  22  38  55  72  88 113 149 188 230 265
#     4   9  18  32  50  71  94 118 147 183 218 259
#     4   9  16  26  41  62  88 116 141 167 206 257
#     4   9  17  30  48  71 100 131 156 179 212 255
#     4   9  16  23  31  47  72 101 131 164 203 247
#     4   9  15  21  29  39  51  73 113 169 223 258
#     4   9  15  22  30  39  55  83 122 167 212 253
#     4  10  21  35  50  71  97 122 153 189 221 259
#
# _framework density 16.092184
#
# number of rings (size 3 to 8) (size 9 to 14) (size 15 to 20)
#    0.000    2.846    0.000    1.846    1.077    7.846 
#    0.000    1.538    0.000    0.000    0.000    4.308 
#    0.000    0.000    0.000    0.000    0.000    0.000 
#
# Total GULP energy -644211.929412 kJ/mol
# GULP energy per Si atom -12388.690950 kJ/mol
# Density = 1.605556 g / cm^3
# Si number density = 16.092184 Si / 1000 Ang^3
#
#
#
# Elastic Constant Matrix: (Units=GPa)
#
#
# Indices 1 2 3 4 5 6 
#
# 1 54.8671 28.3404 36.6733 0.0000 0.0000 0.0000
# 2 28.3404 76.2079 36.8668 0.0000 0.0000 0.0000
# 3 36.6733 36.8668 144.7829 0.0000 0.0000 0.0000
# 4 0.0000 0.0000 0.0000 22.9102 0.0000 0.0000
# 5 0.0000 0.0000 0.0000 0.0000 7.2351 0.0000
# 6 0.0000 0.0000 0.0000 0.0000 0.0000 11.9999
#
#
#
# Elastic Compliance Matrix: (Units=1/GPa)
#
#
# Indices 1 2 3 4 5 6 
#
# 1 0.024892 -0.007079 -0.004503 0.000000 0.000000 0.000000
# 2 -0.007079 0.016978 -0.002530 0.000000 0.000000 0.000000
# 3 -0.004503 -0.002530 0.008692 0.000000 0.000000 0.000000
# 4 0.000000 0.000000 0.000000 0.043649 0.000000 0.000000
# 5 0.000000 0.000000 0.000000 0.000000 0.138216 0.000000
# 6 0.000000 0.000000 0.000000 0.000000 0.000000 0.083334
#
#
# Mechanical properties :
#
#
# Convention : Reuss Voigt Hill
#
# Bulk Modulus (GPa) = 44.76495 53.29098 49.02797
# Shear Modulus (GPa) = 14.22760 20.02753 17.12757
#
# Velocity S-wave (km/s) = 2.97666 3.53165 3.26596
# Velocity P-wave (km/s) = 6.30018 7.05819 6.68993
#
# Compressibility (1/GPa) = 0.02233890
#
# Stress axis : x y z
#
# Youngs Moduli (GPa) = 40.17408 58.89808 115.05237
#
# Poissons Ratio (x) = 0.41691 0.51803
# Poissons Ratio (y) = 0.28438 0.29112
# Poissons Ratio (z) = 0.18089 0.14903
#
# Static dielectric constant tensor:
#      x y z
#    x 2.373270 0.000000 0.000000 
#    y 0.000000 3.166800 0.000000 
#    z 0.000000 0.000000 3.430700 
# 
# 
# High freq. dielectric constant tensor:
#      x y z
#    x 1.518700 0.000000 0.000000 
#    y 0.000000 1.633620 0.000000 
#    z 0.000000 0.000000 1.642190 
# 
# From -- ./inp_files/4849.got.cif
#   From: 2010.03.12/outbox.cif.g09.slc.cpg/sg47_3_cif.got.tgz:4849.got - 2010.04.14 03:12:58.
