data_PCOD8199860
_publ_section_title
;
Structure prediction by ZEFSAII (Michael W. Deem and Ramdas Pophale) SiO2 
 PCOD8199860
Probable space group: P M M M
;
_chemical_formula_sum "Si O2"
_cell_formula_units_Z 52
_cell_length_a 22.844144
_cell_length_b 13.094280
_cell_length_c 9.000806
_cell_angle_alpha 90.000000
_cell_angle_beta 90.000000
_cell_angle_gamma 90.000000
_cell_volume 2692.389658
_symmetry_space_group_name_H-M "P M M M"
_symmetry_group_IT_number 47
_symmetry_cell_setting 'orthorhombic'
loop_
_space_group_symop_operation_xyz
x,y,z
-x,-y,z
x,-y,-z
-x,y,-z
-x,-y,-z
x,y,-z
-x,y,z
x,-y,z
loop_
_atom_site_type_symbol
_atom_site_label
_atom_site_fract_x
_atom_site_fract_y
_atom_site_fract_z
Si Si1 0.933155 0.296329 0.826032
Si Si2 0.152648 0.883663 0.172066
Si Si3 0.563066 0.314236 0.172870
Si Si4 0.623098 0.112549 0.830500
Si Si5 0.686377 0.386061 0.174452
Si Si6 0.069544 0.500000 0.669128
Si Si7 0.266388 0.195502 0.675139
O O1 0.898121 0.194777 0.778808
O O2 0.906253 0.396837 0.746431
O O3 0.000000 0.277771 0.776405
O O4 0.928546 0.317222 0.000000
O O5 0.209164 0.862450 0.270299
O O6 0.131103 0.000000 0.200362
O O7 0.169012 0.867466 0.000000
O O8 0.500000 0.345686 0.246001
O O9 0.571987 0.193473 0.202465
O O10 0.619528 0.374205 0.237111
O O11 0.558802 0.339098 0.000000
O O12 0.677946 0.129581 0.723445
O O13 0.597132 0.000000 0.802423
O O14 0.645497 0.125538 0.000000
O O15 0.708511 0.500000 0.207283
O O16 0.730254 0.309280 0.255894
O O17 0.686945 0.360330 0.000000
O O18 0.090998 0.500000 0.500000
O O19 0.000000 0.500000 0.684260
O O20 0.264551 0.205487 0.500000
#
# Coordination Sequence:
#
# PCOD8199860 Si02
#       7
#     8   8   8   8   8   4   8
#     4   9  18  34  57  84 112 143 180 220 264 315
#     4  10  21  37  57  81 110 143 178 218 266 320
#     4   8  14  25  44  74 106 129 157 203 256 309
#     4   9  17  30  49  71  97 132 171 210 254 304
#     4   9  18  34  55  76 100 132 169 211 261 315
#     4   9  17  31  53  79 109 145 181 217 256 301
#     4  11  22  35  52  74 101 133 173 218 262 311
#
# _framework density 19.313697000000001
#
# number of rings (size 3 to 8) (size 9 to 14) (size 15 to 20)
#    0.000    2.692    0.000    3.000    0.000    5.231 
#    1.385    4.615    0.000    7.385    0.000   11.846 
#    0.000    0.000    0.000    0.000    0.000    0.000 
#
# Total GULP energy -644547.109207 kJ/mol
# GULP energy per Si atom -12395.136716 kJ/mol
# Density = 1.926974 g / cm^3
# Si number density = 19.313697 Si / 1000 Ang^3
#
#
#
# Elastic Constant Matrix: (Units=GPa)
#
#
# Indices 1 2 3 4 5 6 
#
# 1 58.4858 24.4229 22.7659 0.0000 0.0000 0.0000
# 2 24.4229 128.8852 37.1426 0.0000 0.0000 0.0000
# 3 22.7659 37.1426 65.0887 0.0000 0.0000 0.0000
# 4 0.0000 0.0000 0.0000 12.1348 0.0000 0.0000
# 5 0.0000 0.0000 0.0000 0.0000 7.6637 0.0000
# 6 0.0000 0.0000 0.0000 0.0000 0.0000 19.7178
#
#
#
# Elastic Compliance Matrix: (Units=1/GPa)
#
#
# Indices 1 2 3 4 5 6 
#
# 1 0.020280 -0.002153 -0.005865 0.000000 0.000000 0.000000
# 2 -0.002153 0.009514 -0.004676 0.000000 0.000000 0.000000
# 3 -0.005865 -0.004676 0.020084 0.000000 0.000000 0.000000
# 4 0.000000 0.000000 0.000000 0.082408 0.000000 0.000000
# 5 0.000000 0.000000 0.000000 0.000000 0.130486 0.000000
# 6 0.000000 0.000000 0.000000 0.000000 0.000000 0.050716
#
#
# Mechanical properties :
#
#
# Convention : Reuss Voigt Hill
#
# Bulk Modulus (GPa) = 40.83295 46.79138 43.81216
# Shear Modulus (GPa) = 14.40762 19.11180 16.75971
#
# Velocity S-wave (km/s) = 2.73423 3.14912 2.94898
# Velocity P-wave (km/s) = 5.58174 6.12391 5.85910
#
# Compressibility (1/GPa) = 0.02449003
#
# Stress axis : x y z
#
# Youngs Moduli (GPa) = 49.30950 105.10331 49.79204
#
# Poissons Ratio (x) = 0.22627 0.29202
# Poissons Ratio (y) = 0.10615 0.23285
# Poissons Ratio (z) = 0.28919 0.49151
#
# Static dielectric constant tensor:
#      x y z
#    x 3.471180 0.000000 0.000000 
#    y 0.000000 3.726170 0.000000 
#    z 0.000000 0.000000 3.218270 
# 
# 
# High freq. dielectric constant tensor:
#      x y z
#    x 1.733050 0.000000 0.000000 
#    y 0.000000 1.764830 0.000000 
#    z 0.000000 0.000000 1.715920 
# 
# From -- ./inp_files/11076.got.cif
#   From: 2010.03.12/outbox.cif.g09.slc.cpg/sg47_6_cif.got.tgz:11076.got - 2010.04.14 03:12:58.
