data_PCOD8199139
_publ_section_title
;
Structure prediction by ZEFSAII (Michael W. Deem and Ramdas Pophale) SiO2 
 PCOD8199139
Probable space group: P M M M
;
_chemical_formula_sum "Si O2"
_cell_formula_units_Z 52
_cell_length_a 9.234294
_cell_length_b 13.579596
_cell_length_c 26.962064
_cell_angle_alpha 90.000000
_cell_angle_beta 90.000000
_cell_angle_gamma 90.000000
_cell_volume 3380.988413
_symmetry_space_group_name_H-M "P M M M"
_symmetry_group_IT_number 47
_symmetry_cell_setting 'orthorhombic'
loop_
_space_group_symop_operation_xyz
x,y,z
-x,-y,z
x,-y,-z
-x,y,-z
-x,-y,-z
x,y,-z
-x,y,z
x,-y,z
loop_
_atom_site_type_symbol
_atom_site_label
_atom_site_fract_x
_atom_site_fract_y
_atom_site_fract_z
Si Si1 0.669552 0.392979 0.104784
Si Si2 0.670163 0.723533 0.201283
Si Si3 0.833146 0.887111 0.853669
Si Si4 0.837526 0.382347 0.393959
Si Si5 0.172371 0.391816 0.500000
Si Si6 0.329241 0.197385 0.056224
Si Si7 0.670761 0.612113 0.701166
O O1 0.500000 0.406190 0.099075
O O2 0.743514 0.500000 0.094679
O O3 0.708035 0.358382 0.160239
O O4 0.722243 0.310301 0.065739
O O5 0.500000 0.748059 0.201283
O O6 0.756500 0.823182 0.189104
O O7 0.723304 0.680634 0.253733
O O8 0.756255 0.874116 0.906989
O O9 0.000000 0.855002 0.858691
O O10 0.818847 0.000000 0.837378
O O11 0.832829 0.500000 0.397589
O O12 0.782753 0.338977 0.447779
O O13 0.736505 0.343985 0.349583
O O14 0.000000 0.345926 0.382624
O O15 0.243832 0.500000 0.500000
O O16 0.000000 0.402196 0.500000
O O17 0.500000 0.186952 0.067402
O O18 0.292123 0.167676 0.000000
O O19 0.500000 0.614888 0.696254
O O20 0.724075 0.500000 0.710414
#
# Coordination Sequence:
#
# PCOD8199139 Si02
#       7
#     8   8   8   8   4   8   8
#     4   8  13  23  41  63  84 106 133 162 189 220
#     4   9  17  29  45  63  82 106 135 165 198 239
#     4  10  21  35  49  64  81 102 129 163 205 247
#     4   8  13  21  33  49  71 104 145 181 209 237
#     4   7  10  18  31  45  65  99 144 185 210 231
#     4   9  18  31  47  68  89 108 133 162 191 229
#     4   9  16  25  38  59  86 111 136 169 206 240
#
# _framework density 15.380118
#
# number of rings (size 3 to 8) (size 9 to 14) (size 15 to 20)
#    0.000    3.308    0.000    2.769    0.000    4.615 
#    0.000    3.462    0.000   13.385    0.000    4.308 
#    0.000    0.000    0.000    0.692    0.000   13.615 
#
# Total GULP energy -644288.999863 kJ/mol
# GULP energy per Si atom -12390.173074 kJ/mol
# Density = 1.534511 g / cm^3
# Si number density = 15.380118 Si / 1000 Ang^3
#
#
#
# Elastic Constant Matrix: (Units=GPa)
#
#
# Indices 1 2 3 4 5 6 
#
# 1 42.9474 25.8959 39.9412 0.0000 0.0000 0.0000
# 2 25.8959 59.2026 29.7277 0.0000 0.0000 0.0000
# 3 39.9412 29.7277 130.1763 0.0000 0.0000 0.0000
# 4 0.0000 0.0000 0.0000 14.3714 0.0000 0.0000
# 5 0.0000 0.0000 0.0000 0.0000 22.5982 0.0000
# 6 0.0000 0.0000 0.0000 0.0000 0.0000 14.3469
#
#
#
# Elastic Compliance Matrix: (Units=1/GPa)
#
#
# Indices 1 2 3 4 5 6 
#
# 1 0.039488 -0.012638 -0.009230 0.000000 0.000000 0.000000
# 2 -0.012638 0.023124 -0.001403 0.000000 0.000000 0.000000
# 3 -0.009230 -0.001403 0.010834 0.000000 0.000000 0.000000
# 4 0.000000 0.000000 0.000000 0.069582 0.000000 0.000000
# 5 0.000000 0.000000 0.000000 0.000000 0.044251 0.000000
# 6 0.000000 0.000000 0.000000 0.000000 0.000000 0.069701
#
#
# Mechanical properties :
#
#
# Convention : Reuss Voigt Hill
#
# Bulk Modulus (GPa) = 37.16853 47.05066 42.10960
# Shear Modulus (GPa) = 16.00044 19.38074 17.69059
#
# Velocity S-wave (km/s) = 3.22892 3.55366 3.39518
# Velocity P-wave (km/s) = 6.17416 6.89176 6.54281
#
# Compressibility (1/GPa) = 0.02690448
#
# Stress axis : x y z
#
# Youngs Moduli (GPa) = 25.32389 43.24576 92.30000
#
# Poissons Ratio (x) = 0.54654 0.85192
# Poissons Ratio (y) = 0.32004 0.12950
# Poissons Ratio (z) = 0.23374 0.06067
#
# Static dielectric constant tensor:
#      x y z
#    x 2.760840 0.000000 0.000000 
#    y 0.000000 2.739240 0.000000 
#    z 0.000000 0.000000 3.226200 
# 
# 
# High freq. dielectric constant tensor:
#      x y z
#    x 1.567180 0.000000 0.000000 
#    y 0.000000 1.548060 0.000000 
#    z 0.000000 0.000000 1.593800 
# 
# From -- ./inp_files/33405.got.cif
#   From: 2010.03.12/outbox.cif.g09.slc.cpg/sg47_17_cif.got.tgz:33405.got - 2010.04.14 03:12:58.
