data_PCOD8199935
_publ_section_title
;
Structure prediction by ZEFSAII (Michael W. Deem and Ramdas Pophale) SiO2 
 PCOD8199935
Probable space group: P M M M
;
_chemical_formula_sum "Si O2"
_cell_formula_units_Z 64
_cell_length_a 23.813606
_cell_length_b 8.603687
_cell_length_c 15.405846
_cell_angle_alpha 90.000000
_cell_angle_beta 90.000000
_cell_angle_gamma 90.000000
_cell_volume 3156.423867
_symmetry_space_group_name_H-M "P M M M"
_symmetry_group_IT_number 47
_symmetry_cell_setting 'orthorhombic'
loop_
_space_group_symop_operation_xyz
x,y,z
-x,-y,z
x,-y,-z
-x,y,-z
-x,-y,-z
x,y,-z
-x,y,z
x,-y,z
loop_
_atom_site_type_symbol
_atom_site_label
_atom_site_fract_x
_atom_site_fract_y
_atom_site_fract_z
Si Si1 0.435204 0.816618 0.755512
Si Si2 0.127079 0.679918 0.401915
Si Si3 0.364133 0.817389 0.405297
Si Si4 0.250358 0.320596 0.348403
Si Si5 0.064593 0.819220 0.756821
Si Si6 0.249549 0.180024 0.837004
Si Si7 0.361341 0.321624 0.901549
Si Si8 0.859491 0.678286 0.096982
O O1 0.500000 0.773392 0.744911
O O2 0.402819 0.747727 0.671246
O O3 0.411851 0.733713 0.840761
O O4 0.425606 0.000000 0.765157
O O5 0.106728 0.713846 0.500000
O O6 0.118486 0.500000 0.377080
O O7 0.192471 0.724432 0.395110
O O8 0.090954 0.783181 0.336734
O O9 0.382516 0.751216 0.500000
O O10 0.299153 0.780856 0.390227
O O11 0.372283 0.000000 0.405013
O O12 0.265405 0.500000 0.362668
O O13 0.244678 0.286430 0.247208
O O14 0.093886 0.724902 0.833505
O O15 0.000000 0.768927 0.754716
O O16 0.072279 0.000000 0.776538
O O17 0.306267 0.217855 0.888073
O O18 0.196020 0.216494 0.896372
O O19 0.249841 0.000000 0.810055
O O20 0.346290 0.500000 0.881124
O O21 0.382220 0.300509 0.000000
O O22 0.842403 0.500000 0.113365
O O23 0.884250 0.701331 0.000000
#
# Coordination Sequence:
#
# PCOD8199935 Si02
#       8
#     8   8   8   8   8   8   8   8
#     4  10  22  40  61  86 119 161 206 252 302 356
#     4  10  22  40  63  91 123 162 205 249 302 363
#     4  10  21  37  59  89 123 160 202 247 299 359
#     4  11  21  36  61  91 124 161 199 242 299 363
#     4  11  25  43  63  89 122 162 207 255 306 358
#     4  12  23  37  62  94 126 159 196 242 302 364
#     4  11  24  41  62  89 121 159 201 247 302 360
#     4  11  24  42  65  93 124 160 202 247 300 362
#
# _framework density 20.276109999999999
#
# number of rings (size 3 to 8) (size 9 to 14) (size 15 to 20)
#    0.000    1.250    2.500    3.375    0.000    7.250 
#    0.000    5.000    0.000    0.000    0.000    1.750 
#    0.000    0.000    0.000    0.000    0.000    0.000 
#
# Total GULP energy -793875.125211 kJ/mol
# GULP energy per Si atom -12404.298831 kJ/mol
# Density = 2.022996 g / cm^3
# Si number density = 20.276110 Si / 1000 Ang^3
#
#
#
# Elastic Constant Matrix: (Units=GPa)
#
#
# Indices 1 2 3 4 5 6 
#
# 1 110.9744 28.8477 49.8049 0.0000 0.0000 0.0000
# 2 28.8477 38.9173 25.7368 0.0000 0.0000 0.0000
# 3 49.8049 25.7368 143.0498 0.0000 0.0000 0.0000
# 4 0.0000 0.0000 0.0000 25.5696 0.0000 0.0000
# 5 0.0000 0.0000 0.0000 0.0000 10.0739 0.0000
# 6 0.0000 0.0000 0.0000 0.0000 0.0000 19.4356
#
#
#
# Elastic Compliance Matrix: (Units=1/GPa)
#
#
# Indices 1 2 3 4 5 6 
#
# 1 0.012180 -0.007065 -0.002970 0.000000 0.000000 0.000000
# 2 -0.007065 0.033263 -0.003525 0.000000 0.000000 0.000000
# 3 -0.002970 -0.003525 0.008659 0.000000 0.000000 0.000000
# 4 0.000000 0.000000 0.000000 0.039109 0.000000 0.000000
# 5 0.000000 0.000000 0.000000 0.000000 0.099266 0.000000
# 6 0.000000 0.000000 0.000000 0.000000 0.000000 0.051452
#
#
# Mechanical properties :
#
#
# Convention : Reuss Voigt Hill
#
# Bulk Modulus (GPa) = 37.05942 55.74671 46.40307
# Shear Modulus (GPa) = 17.85440 23.58596 20.72018
#
# Velocity S-wave (km/s) = 2.97065 3.41433 3.20019
# Velocity P-wave (km/s) = 5.48483 6.56483 6.04898
#
# Compressibility (1/GPa) = 0.02698369
#
# Stress axis : x y z
#
# Youngs Moduli (GPa) = 82.09919 30.06298 115.49084
#
# Poissons Ratio (x) = 0.21239 0.34297
# Poissons Ratio (y) = 0.58002 0.40709
# Poissons Ratio (z) = 0.24381 0.10597
#
# Static dielectric constant tensor:
#      x y z
#    x 3.630950 0.000000 0.000000 
#    y 0.000000 3.613360 0.000000 
#    z 0.000000 0.000000 3.912060 
# 
# 
# High freq. dielectric constant tensor:
#      x y z
#    x 1.785540 0.000000 0.000000 
#    y 0.000000 1.789270 0.000000 
#    z 0.000000 0.000000 1.807750 
# 
# From -- ./inp_files/7912.got.cif
#   From: 2010.03.12/outbox.cif.g09.slc.cpg/sg47_4_cif.got.tgz:7912.got - 2010.04.14 03:12:58.
