data_PCOD8199463
_publ_section_title
;
Structure prediction by ZEFSAII (Michael W. Deem and Ramdas Pophale) SiO2 
 PCOD8199463
Probable space group: P M M M
;
_chemical_formula_sum "Si O2"
_cell_formula_units_Z 52
_cell_length_a 17.697796
_cell_length_b 17.558286
_cell_length_c 9.226415
_cell_angle_alpha 90.000000
_cell_angle_beta 90.000000
_cell_angle_gamma 90.000000
_cell_volume 2867.043542
_symmetry_space_group_name_H-M "P M M M"
_symmetry_group_IT_number 47
_symmetry_cell_setting 'orthorhombic'
loop_
_space_group_symop_operation_xyz
x,y,z
-x,-y,z
x,-y,-z
-x,y,-z
-x,-y,-z
x,y,-z
-x,y,z
x,-y,z
loop_
_atom_site_type_symbol
_atom_site_label
_atom_site_fract_x
_atom_site_fract_y
_atom_site_fract_z
Si Si1 0.212169 0.352581 0.841165
Si Si2 0.917044 0.584870 0.329568
Si Si3 0.000000 0.090349 0.339286
Si Si4 0.630441 0.585952 0.169521
Si Si5 0.165144 0.910535 0.669536
Si Si6 0.414500 0.732927 0.666712
Si Si7 0.284520 0.189755 0.164233
O O1 0.143805 0.357123 0.730484
O O2 0.280619 0.407750 0.794546
O O3 0.237945 0.266538 0.839332
O O4 0.183260 0.376324 0.000000
O O5 0.911216 0.584779 0.500000
O O6 0.901384 0.500000 0.269590
O O7 0.000000 0.612280 0.280100
O O8 0.918914 0.115175 0.268133
O O9 0.000000 0.125058 0.500000
O O10 0.000000 0.000000 0.349366
O O11 0.603182 0.500000 0.207661
O O12 0.586449 0.648309 0.263608
O O13 0.616261 0.604259 0.000000
O O14 0.171273 0.888795 0.500000
O O15 0.233165 0.872539 0.757132
O O16 0.175296 0.000000 0.691367
O O17 0.387529 0.726744 0.500000
O O18 0.500000 0.763530 0.676314
O O19 0.362432 0.794306 0.749829
O O20 0.303401 0.162934 0.000000
#
# Coordination Sequence:
#
# PCOD8199463 Si02
#       7
#     8   8   4   8   8   8   8
#     4   9  18  32  47  65  92 126 165 205 245 294
#     4   9  18  31  45  63  88 119 160 210 258 300
#     4   7  12  26  49  77 107 137 168 201 240 289
#     4   9  18  32  50  73 101 132 166 206 255 312
#     4   9  17  32  56  83 110 140 174 211 250 297
#     4  10  21  36  54  76 102 133 171 216 262 309
#     4  10  21  36  53  75 104 137 171 208 253 309
#
# _framework density 18.137150999999999
#
# number of rings (size 3 to 8) (size 9 to 14) (size 15 to 20)
#    0.000    2.846    0.000    3.692    0.000    6.462 
#    1.385    2.692    0.000    1.846    0.000    3.231 
#    0.000    0.000    0.000    0.000    0.000    0.000 
#
# Total GULP energy -644361.213147 kJ/mol
# GULP energy per Si atom -12391.561791 kJ/mol
# Density = 1.809587 g / cm^3
# Si number density = 18.137151 Si / 1000 Ang^3
#
#
#
# Elastic Constant Matrix: (Units=GPa)
#
#
# Indices 1 2 3 4 5 6 
#
# 1 119.3124 36.7563 59.3499 0.0000 0.0000 0.0000
# 2 36.7563 44.3665 32.2161 0.0000 0.0000 0.0000
# 3 59.3499 32.2161 87.5303 0.0000 0.0000 0.0000
# 4 0.0000 0.0000 0.0000 26.8083 0.0000 0.0000
# 5 0.0000 0.0000 0.0000 0.0000 -30.3917 0.0000
# 6 0.0000 0.0000 0.0000 0.0000 0.0000 15.6600
#
#
#
# Elastic Compliance Matrix: (Units=1/GPa)
#
#
# Indices 1 2 3 4 5 6 
#
# 1 0.013845 -0.006351 -0.007050 0.000000 0.000000 0.000000
# 2 -0.006351 0.033674 -0.008088 0.000000 0.000000 0.000000
# 3 -0.007050 -0.008088 0.019182 0.000000 0.000000 0.000000
# 4 0.000000 0.000000 0.000000 0.037302 0.000000 0.000000
# 5 0.000000 0.000000 0.000000 0.000000 -0.032904 0.000000
# 6 0.000000 0.000000 0.000000 0.000000 0.000000 0.063857
#
#
# Mechanical properties :
#
#
# Convention : Reuss Voigt Hill
#
# Bulk Modulus (GPa) = 42.15287 56.42819 49.29053
# Shear Modulus (GPa) = 26.90490 10.60778 18.75634
#
# Velocity S-wave (km/s) = 3.85569 2.42102 3.21929
# Velocity P-wave (km/s) = 6.56608 6.24457 6.40734
#
# Compressibility (1/GPa) = 0.02372318
#
# Stress axis : x y z
#
# Youngs Moduli (GPa) = 72.22989 29.69679 52.13330
#
# Poissons Ratio (x) = 0.18859 0.36754
# Poissons Ratio (y) = 0.45871 0.42164
# Poissons Ratio (z) = 0.50922 0.24018
#
# Static dielectric constant tensor:
#      x y z
#    x 3.457470 0.000000 0.000000 
#    y 0.000000 3.148890 0.000000 
#    z 0.000000 0.000000 3.374630 
# 
# 
# High freq. dielectric constant tensor:
#      x y z
#    x 1.708300 0.000000 0.000000 
#    y 0.000000 1.673660 0.000000 
#    z 0.000000 0.000000 1.693150 
# 
# From -- ./inp_files/9508.got.cif
#   From: 2010.03.12/outbox.cif.g09.slc.cpg/sg47_5_cif.got.tgz:9508.got - 2010.04.14 03:12:58.
