data_PCOD8199943
_publ_section_title
;
Structure prediction by ZEFSAII (Michael W. Deem and Ramdas Pophale) SiO2 
 PCOD8199943
Probable space group: P M M M
;
_chemical_formula_sum "Si O2"
_cell_formula_units_Z 56
_cell_length_a 22.743103
_cell_length_b 8.886088
_cell_length_c 14.961341
_cell_angle_alpha 90.000000
_cell_angle_beta 90.000000
_cell_angle_gamma 90.000000
_cell_volume 3023.645344
_symmetry_space_group_name_H-M "P M M M"
_symmetry_group_IT_number 47
_symmetry_cell_setting 'orthorhombic'
loop_
_space_group_symop_operation_xyz
x,y,z
-x,-y,z
x,-y,-z
-x,y,-z
-x,-y,-z
x,y,-z
-x,y,z
x,-y,z
loop_
_atom_site_type_symbol
_atom_site_label
_atom_site_fract_x
_atom_site_fract_y
_atom_site_fract_z
Si Si1 0.246711 0.826423 0.602036
Si Si2 0.175642 0.173633 0.901096
Si Si3 0.113605 0.827117 0.660769
Si Si4 0.067534 0.677891 0.835500
Si Si5 0.272586 0.677965 0.779561
Si Si6 0.065218 0.661731 0.500000
Si Si7 0.500000 0.830692 0.893812
Si Si8 0.617835 0.322816 0.898047
O O1 0.258541 0.768162 0.500000
O O2 0.179149 0.803870 0.625793
O O3 0.282354 0.732997 0.677245
O O4 0.265467 0.000000 0.608769
O O5 0.110099 0.244770 0.908241
O O6 0.214794 0.252184 0.825263
O O7 0.170319 0.000000 0.872787
O O8 0.204080 0.191403 0.000000
O O9 0.098196 0.722119 0.743278
O O10 0.072761 0.769070 0.583473
O O11 0.100166 0.000000 0.684507
O O12 0.068764 0.500000 0.847954
O O13 0.000000 0.736256 0.843464
O O14 0.265450 0.500000 0.780932
O O15 0.328499 0.732065 0.836825
O O16 0.101577 0.500000 0.500000
O O17 0.000000 0.604902 0.500000
O O18 0.441456 0.749531 0.858035
O O19 0.500000 0.000000 0.857626
O O20 0.500000 0.822636 0.000000
O O21 0.609776 0.500000 0.893904
O O22 0.629803 0.269776 0.000000
#
# Coordination Sequence:
#
# PCOD8199943 Si02
#       8
#     8   8   8   8   8   4   4   8
#     4  10  21  38  57  78 107 141 178 222 275 333
#     4  11  24  40  58  80 107 141 181 225 274 330
#     4  11  21  36  56  76 100 132 170 214 270 336
#     4  11  24  40  57  77 101 131 171 221 277 335
#     4  11  22  36  58  86 114 146 186 230 275 326
#     4  11  23  35  49  73 103 131 165 212 267 330
#     4   9  17  29  49  81 118 155 196 235 265 302
#     4   9  18  33  53  80 118 160 193 223 266 318
#
# _framework density 18.520689999999998
#
# number of rings (size 3 to 8) (size 9 to 14) (size 15 to 20)
#    0.000    1.571    2.143    3.000    0.000    8.286 
#    0.000    2.857    0.000    0.000    0.000    0.500 
#    0.000    4.000    0.000    0.000    0.000    0.000 
#
# Total GULP energy -694129.868613 kJ/mol
# GULP energy per Si atom -12395.176225 kJ/mol
# Density = 1.847854 g / cm^3
# Si number density = 18.520690 Si / 1000 Ang^3
#
#
#
# Elastic Constant Matrix: (Units=GPa)
#
#
# Indices 1 2 3 4 5 6 
#
# 1 108.9387 44.8327 42.6132 0.0000 0.0000 0.0000
# 2 44.8327 64.1261 36.7462 0.0000 0.0000 0.0000
# 3 42.6132 36.7462 113.7681 0.0000 0.0000 0.0000
# 4 0.0000 0.0000 0.0000 25.7378 0.0000 0.0000
# 5 0.0000 0.0000 0.0000 0.0000 18.4052 0.0000
# 6 0.0000 0.0000 0.0000 0.0000 0.0000 17.9806
#
#
#
# Elastic Compliance Matrix: (Units=1/GPa)
#
#
# Indices 1 2 3 4 5 6 
#
# 1 0.013422 -0.007980 -0.002450 0.000000 0.000000 0.000000
# 2 -0.007980 0.023880 -0.004724 0.000000 0.000000 0.000000
# 3 -0.002450 -0.004724 0.011233 0.000000 0.000000 0.000000
# 4 0.000000 0.000000 0.000000 0.038853 0.000000 0.000000
# 5 0.000000 0.000000 0.000000 0.000000 0.054333 0.000000
# 6 0.000000 0.000000 0.000000 0.000000 0.000000 0.055615
#
#
# Mechanical properties :
#
#
# Convention : Reuss Voigt Hill
#
# Bulk Modulus (GPa) = 54.86166 59.46858 57.16512
# Shear Modulus (GPa) = 21.39306 23.26742 22.33024
#
# Velocity S-wave (km/s) = 3.40235 3.54827 3.47607
# Velocity P-wave (km/s) = 6.71720 6.99757 6.85881
#
# Compressibility (1/GPa) = 0.01822767
#
# Stress axis : x y z
#
# Youngs Moduli (GPa) = 74.50570 41.87540 89.02065
#
# Poissons Ratio (x) = 0.33416 0.21809
# Poissons Ratio (y) = 0.59454 0.42056
# Poissons Ratio (z) = 0.18253 0.19783
#
# Static dielectric constant tensor:
#      x y z
#    x 3.378140 0.000000 0.000000 
#    y 0.000000 3.448130 0.000000 
#    z 0.000000 0.000000 3.601110 
# 
# 
# High freq. dielectric constant tensor:
#      x y z
#    x 1.695580 0.000000 0.000000 
#    y 0.000000 1.728200 0.000000 
#    z 0.000000 0.000000 1.714050 
# 
# From -- ./inp_files/25237.got.cif
#   From: 2010.03.12/outbox.cif.g09.slc.cpg/sg47_13_cif.got.tgz:25237.got - 2010.04.14 03:12:58.
