data_PCOD8199137
_publ_section_title
;
Structure prediction by ZEFSAII (Michael W. Deem and Ramdas Pophale) SiO2 
 PCOD8199137
Probable space group: P M M M
;
_chemical_formula_sum "Si O2"
_cell_formula_units_Z 64
_cell_length_a 14.613303
_cell_length_b 8.927954
_cell_length_c 28.214005
_cell_angle_alpha 90.000000
_cell_angle_beta 90.000000
_cell_angle_gamma 90.000000
_cell_volume 3680.993684
_symmetry_space_group_name_H-M "P M M M"
_symmetry_group_IT_number 47
_symmetry_cell_setting 'orthorhombic'
loop_
_space_group_symop_operation_xyz
x,y,z
-x,-y,z
x,-y,-z
-x,y,-z
-x,-y,-z
x,y,-z
-x,y,z
x,-y,z
loop_
_atom_site_type_symbol
_atom_site_label
_atom_site_fract_x
_atom_site_fract_y
_atom_site_fract_z
Si Si1 0.103907 0.827245 0.944767
Si Si2 0.100497 0.678133 0.319093
Si Si3 0.604400 0.823689 0.171272
Si Si4 0.284651 0.321562 0.359940
Si Si5 0.393752 0.328717 0.730956
Si Si6 0.898491 0.322282 0.213149
Si Si7 0.397014 0.678266 0.552441
Si Si8 0.228892 0.322691 0.870121
O O1 0.176586 0.725587 0.917429
O O2 0.000000 0.779345 0.931730
O O3 0.119513 0.000000 0.931316
O O4 0.121585 0.800875 0.000000
O O5 0.096996 0.500000 0.318688
O O6 0.179082 0.733692 0.355389
O O7 0.126458 0.733603 0.266110
O O8 0.000000 0.740317 0.334280
O O9 0.500000 0.775837 0.159918
O O10 0.632966 0.767329 0.223340
O O11 0.669789 0.748559 0.131956
O O12 0.616497 0.000000 0.169307
O O13 0.290769 0.500000 0.361441
O O14 0.340077 0.263554 0.314264
O O15 0.328261 0.254002 0.408090
O O16 0.500000 0.316354 0.718486
O O17 0.364934 0.500000 0.741642
O O18 0.896548 0.500000 0.211324
O O19 0.826896 0.258340 0.175191
O O20 0.000000 0.264454 0.199689
O O21 0.366477 0.733483 0.500000
O O22 0.500000 0.734141 0.563361
O O23 0.395094 0.500000 0.554080
O O24 0.238204 0.500000 0.869689
#
# Coordination Sequence:
#
# PCOD8199137 Si02
#       8
#     8   8   8   8   8   8   8   8
#     4   9  19  36  55  75 103 137 166 192 229 280
#     4   8  13  20  29  43  68 102 135 164 196 242
#     4  10  21  35  48  64  92 129 162 190 226 278
#     4   9  14  20  33  52  74 100 131 170 217 263
#     4   9  16  26  42  64  86 107 138 182 226 265
#     4   8  14  24  38  61  92 118 140 172 217 266
#     4   8  13  20  29  43  66  96 128 164 213 272
#     4  11  20  30  50  76  98 122 157 201 241 274
#
# _framework density 17.386609
#
# number of rings (size 3 to 8) (size 9 to 14) (size 15 to 20)
#    0.000    3.000    0.000    3.750    0.000    5.250 
#    0.000    0.625    0.000    0.750    0.000    5.250 
#    0.000    0.500    0.000    4.625    0.000    4.500 
#
# Total GULP energy -793245.032262 kJ/mol
# GULP energy per Si atom -12394.453629 kJ/mol
# Density = 1.734704 g / cm^3
# Si number density = 17.386609 Si / 1000 Ang^3
#
#
#
# Elastic Constant Matrix: (Units=GPa)
#
#
# Indices 1 2 3 4 5 6 
#
# 1 121.1464 30.2148 73.9743 0.0000 0.0000 0.0000
# 2 30.2148 33.6502 25.8323 0.0000 0.0000 0.0000
# 3 73.9743 25.8323 93.6726 0.0000 0.0000 0.0000
# 4 0.0000 0.0000 0.0000 6.6245 0.0000 0.0000
# 5 0.0000 0.0000 0.0000 0.0000 32.6954 0.0000
# 6 0.0000 0.0000 0.0000 0.0000 0.0000 15.2527
#
#
#
# Elastic Compliance Matrix: (Units=1/GPa)
#
#
# Indices 1 2 3 4 5 6 
#
# 1 0.016921 -0.006261 -0.011636 0.000000 0.000000 0.000000
# 2 -0.006261 0.040015 -0.006091 0.000000 0.000000 0.000000
# 3 -0.011636 -0.006091 0.021545 0.000000 0.000000 0.000000
# 4 0.000000 0.000000 0.000000 0.150954 0.000000 0.000000
# 5 0.000000 0.000000 0.000000 0.000000 0.030585 0.000000
# 6 0.000000 0.000000 0.000000 0.000000 0.000000 0.065562
#
#
# Mechanical properties :
#
#
# Convention : Reuss Voigt Hill
#
# Bulk Modulus (GPa) = 32.78177 56.50132 44.64155
# Shear Modulus (GPa) = 13.03011 18.81106 15.92059
#
# Velocity S-wave (km/s) = 2.74055 3.29284 3.02930
# Velocity P-wave (km/s) = 5.37677 6.85745 6.16175
#
# Compressibility (1/GPa) = 0.03050476
#
# Stress axis : x y z
#
# Youngs Moduli (GPa) = 59.09671 24.99071 46.41541
#
# Poissons Ratio (x) = 0.15646 0.54011
# Poissons Ratio (y) = 0.37000 0.28270
# Poissons Ratio (z) = 0.68768 0.15221
#
# Static dielectric constant tensor:
#      x y z
#    x 3.537780 0.000000 0.000000 
#    y 0.000000 2.724050 0.000000 
#    z 0.000000 0.000000 3.264400 
# 
# 
# High freq. dielectric constant tensor:
#      x y z
#    x 1.679490 0.000000 0.000000 
#    y 0.000000 1.618690 0.000000 
#    z 0.000000 0.000000 1.654880 
# 
# From -- ./inp_files/34687.got.cif
#   From: 2010.03.12/outbox.cif.g09.slc.cpg/sg47_18_cif.got.tgz:34687.got - 2010.04.14 03:12:58.
