data_PCOD8199548
_publ_section_title
;
Structure prediction by ZEFSAII (Michael W. Deem and Ramdas Pophale) SiO2 
 PCOD8199548
Probable space group: P M M M
;
_chemical_formula_sum "Si O2"
_cell_formula_units_Z 64
_cell_length_a 19.690145
_cell_length_b 9.106625
_cell_length_c 19.687527
_cell_angle_alpha 90.000000
_cell_angle_beta 90.000000
_cell_angle_gamma 90.000000
_cell_volume 3530.185561
_symmetry_space_group_name_H-M "P M M M"
_symmetry_group_IT_number 47
_symmetry_cell_setting 'orthorhombic'
loop_
_space_group_symop_operation_xyz
x,y,z
-x,-y,z
x,-y,-z
-x,y,-z
-x,-y,-z
x,y,-z
-x,y,z
x,-y,z
loop_
_atom_site_type_symbol
_atom_site_label
_atom_site_fract_x
_atom_site_fract_y
_atom_site_fract_z
Si Si1 0.579575 0.829585 0.821851
Si Si2 0.185432 0.170538 0.078712
Si Si3 0.578705 0.670544 0.314609
Si Si4 0.920937 0.331935 0.167583
Si Si5 0.822799 0.171832 0.423764
Si Si6 0.076287 0.328305 0.677178
Si Si7 0.678129 0.329592 0.079588
Si Si8 0.332332 0.168079 0.420911
O O1 0.500000 0.804149 0.832630
O O2 0.604079 0.759197 0.751155
O O3 0.616178 0.750032 0.883822
O O4 0.599120 0.000000 0.821164
O O5 0.120171 0.222951 0.119836
O O6 0.251169 0.259255 0.104087
O O7 0.198608 0.000000 0.092796
O O8 0.170911 0.202231 0.000000
O O9 0.500000 0.702227 0.329108
O O10 0.592807 0.500000 0.301473
O O11 0.619793 0.723070 0.379877
O O12 0.900981 0.500000 0.151521
O O13 0.903715 0.293315 0.245381
O O14 0.000000 0.306496 0.152922
O O15 0.837754 0.228942 0.500000
O O16 0.871851 0.249539 0.371711
O O17 0.745411 0.207426 0.403781
O O18 0.836239 0.000000 0.420093
O O19 0.080251 0.500000 0.663305
O O20 0.000000 0.271513 0.662381
O O21 0.678788 0.500000 0.099154
O O22 0.667362 0.304186 0.000000
O O23 0.347092 0.192988 0.500000
O O24 0.348119 0.000000 0.400756
#
# Coordination Sequence:
#
# PCOD8199548 Si02
#       8
#     8   8   8   8   8   8   8   8
#     4  10  21  37  57  80 107 140 177 216 259 310
#     4  10  21  36  54  78 108 139 173 216 263 311
#     4  10  21  36  54  78 108 139 173 216 263 311
#     4   9  19  36  55  75 103 139 177 217 262 314
#     4   9  19  35  53  75 103 134 170 211 254 303
#     4   9  19  35  53  75 103 134 170 211 254 303
#     4  10  21  37  57  80 107 140 177 216 259 310
#     4   9  19  36  55  75 103 139 177 217 262 314
#
# _framework density 18.129359000000001
#
# number of rings (size 3 to 8) (size 9 to 14) (size 15 to 20)
#    0.000    2.500    0.000    3.000    0.000    7.000 
#    0.000   10.000    0.000    0.000    0.000    0.000 
#    0.000    0.000    0.000    0.000    0.000    0.000 
#
# Total GULP energy -793775.703087 kJ/mol
# GULP energy per Si atom -12402.745361 kJ/mol
# Density = 1.808810 g / cm^3
# Si number density = 18.129359 Si / 1000 Ang^3
#
#
#
# Elastic Constant Matrix: (Units=GPa)
#
#
# Indices 1 2 3 4 5 6 
#
# 1 86.1119 61.1986 64.7504 0.0000 0.0000 0.0000
# 2 61.1986 103.0305 60.5259 0.0000 0.0000 0.0000
# 3 64.7504 60.5259 85.0039 0.0000 0.0000 0.0000
# 4 0.0000 0.0000 0.0000 37.9383 0.0000 0.0000
# 5 0.0000 0.0000 0.0000 0.0000 48.6674 0.0000
# 6 0.0000 0.0000 0.0000 0.0000 0.0000 37.9466
#
#
#
# Elastic Compliance Matrix: (Units=1/GPa)
#
#
# Indices 1 2 3 4 5 6 
#
# 1 0.030314 -0.007634 -0.017655 0.000000 0.000000 0.000000
# 2 -0.007634 0.018608 -0.007434 0.000000 0.000000 0.000000
# 3 -0.017655 -0.007434 0.030506 0.000000 0.000000 0.000000
# 4 0.000000 0.000000 0.000000 0.026359 0.000000 0.000000
# 5 0.000000 0.000000 0.000000 0.000000 0.020548 0.000000
# 6 0.000000 0.000000 0.000000 0.000000 0.000000 0.026353
#
#
# Mechanical properties :
#
#
# Convention : Reuss Voigt Hill
#
# Bulk Modulus (GPa) = 71.52820 71.89956 71.71388
# Shear Modulus (GPa) = 22.44220 30.75520 26.59870
#
# Velocity S-wave (km/s) = 3.52219 4.12324 3.83451
# Velocity P-wave (km/s) = 7.48873 7.90022 7.69722
#
# Compressibility (1/GPa) = 0.01398050
#
# Stress axis : x y z
#
# Youngs Moduli (GPa) = 32.98799 53.74104 32.78034
#
# Poissons Ratio (x) = 0.41028 0.57875
# Poissons Ratio (y) = 0.25184 0.24369
# Poissons Ratio (z) = 0.58241 0.39951
#
# Static dielectric constant tensor:
#      x y z
#    x 3.457640 0.000000 0.000000 
#    y 0.000000 3.344780 0.000000 
#    z 0.000000 0.000000 3.486800 
# 
# 
# High freq. dielectric constant tensor:
#      x y z
#    x 1.704050 0.000000 0.000000 
#    y 0.000000 1.707500 0.000000 
#    z 0.000000 0.000000 1.704030 
# 
# From -- ./inp_files/11605.got.cif
#   From: 2010.03.12/outbox.cif.g09.slc.cpg/sg47_6_cif.got.tgz:11605.got - 2010.04.14 03:12:58.
