data_PCOD8199196
_publ_section_title
;
Structure prediction by ZEFSAII (Michael W. Deem and Ramdas Pophale) SiO2 
 PCOD8199196
Probable space group: P M M M
;
_chemical_formula_sum "Si O2"
_cell_formula_units_Z 44
_cell_length_a 9.331791
_cell_length_b 14.495734
_cell_length_c 17.527460
_cell_angle_alpha 90.000000
_cell_angle_beta 90.000000
_cell_angle_gamma 90.000000
_cell_volume 2370.959847
_symmetry_space_group_name_H-M "P M M M"
_symmetry_group_IT_number 47
_symmetry_cell_setting 'orthorhombic'
loop_
_space_group_symop_operation_xyz
x,y,z
-x,-y,z
x,-y,-z
-x,y,-z
-x,-y,-z
x,y,-z
-x,y,z
x,-y,z
loop_
_atom_site_type_symbol
_atom_site_label
_atom_site_fract_x
_atom_site_fract_y
_atom_site_fract_z
Si Si1 0.329536 0.710410 0.147608
Si Si2 0.834662 0.724021 0.410013
Si Si3 0.670926 0.396164 0.000000
Si Si4 0.332774 0.392937 0.297203
Si Si5 0.670310 0.100700 0.913891
Si Si6 0.339408 0.898255 0.409376
O O1 0.500000 0.704827 0.147247
O O2 0.272287 0.664950 0.225322
O O3 0.274922 0.816755 0.140947
O O4 0.269033 0.654297 0.075231
O O5 0.812485 0.713696 0.500000
O O6 0.754462 0.638111 0.371620
O O7 0.767584 0.819986 0.378645
O O8 0.000000 0.723101 0.387008
O O9 0.729592 0.500000 0.000000
O O10 0.500000 0.394256 0.000000
O O11 0.500000 0.374048 0.311813
O O12 0.303656 0.500000 0.281253
O O13 0.500000 0.102294 0.915592
O O14 0.723871 0.000000 0.884064
O O15 0.726691 0.117467 0.000000
O O16 0.339163 0.898085 0.500000
O O17 0.500000 0.876741 0.379293
O O18 0.290719 0.000000 0.380214
#
# Coordination Sequence:
#
# PCOD8199196 Si02
#       6
#     8   8   4   8   8   8
#     4   9  15  25  40  62  93 126 159 199 247 301
#     4  10  21  36  54  75  98 129 172 218 262 311
#     4   9  14  20  35  59  86 118 155 194 238 291
#     4  10  21  35  50  70  98 131 167 214 272 324
#     4   8  12  19  34  58  90 128 163 191 228 283
#     4   8  14  27  50  79 107 132 158 193 242 299
#
# _framework density 18.557884999999999
#
# number of rings (size 3 to 8) (size 9 to 14) (size 15 to 20)
#    0.000    3.000    0.909    2.182    0.000    4.364 
#    0.000    4.545    0.000    3.273    0.000    0.636 
#    0.000    2.182    0.000    2.000    0.000    1.818 
#
# Total GULP energy -545332.036524 kJ/mol
# GULP energy per Si atom -12393.909921 kJ/mol
# Density = 1.851565 g / cm^3
# Si number density = 18.557885 Si / 1000 Ang^3
#
#
#
# Elastic Constant Matrix: (Units=GPa)
#
#
# Indices 1 2 3 4 5 6 
#
# 1 53.6391 45.2944 33.6948 0.0000 0.0000 0.0000
# 2 45.2944 163.5123 56.6443 0.0000 0.0000 0.0000
# 3 33.6948 56.6443 64.2707 0.0000 0.0000 0.0000
# 4 0.0000 0.0000 0.0000 33.2337 0.0000 0.0000
# 5 0.0000 0.0000 0.0000 0.0000 6.7566 0.0000
# 6 0.0000 0.0000 0.0000 0.0000 0.0000 12.5788
#
#
#
# Elastic Compliance Matrix: (Units=1/GPa)
#
#
# Indices 1 2 3 4 5 6 
#
# 1 0.029558 -0.004059 -0.011919 0.000000 0.000000 0.000000
# 2 -0.004059 0.009361 -0.006122 0.000000 0.000000 0.000000
# 3 -0.011919 -0.006122 0.027204 0.000000 0.000000 0.000000
# 4 0.000000 0.000000 0.000000 0.030090 0.000000 0.000000
# 5 0.000000 0.000000 0.000000 0.000000 0.148003 0.000000
# 6 0.000000 0.000000 0.000000 0.000000 0.000000 0.079499
#
#
# Mechanical properties :
#
#
# Convention : Reuss Voigt Hill
#
# Bulk Modulus (GPa) = 45.61550 61.40990 53.51270
# Shear Modulus (GPa) = 13.32547 20.23306 16.77926
#
# Velocity S-wave (km/s) = 2.68255 3.30550 3.01018
# Velocity P-wave (km/s) = 5.85049 6.90878 6.40154
#
# Compressibility (1/GPa) = 0.02192237
#
# Stress axis : x y z
#
# Youngs Moduli (GPa) = 33.83226 106.82643 36.75981
#
# Poissons Ratio (x) = 0.43359 0.43813
# Poissons Ratio (y) = 0.13732 0.22506
# Poissons Ratio (z) = 0.40324 0.65403
#
# Static dielectric constant tensor:
#      x y z
#    x 2.881800 0.000000 0.000000 
#    y 0.000000 3.837700 0.000000 
#    z 0.000000 0.000000 3.263270 
# 
# 
# High freq. dielectric constant tensor:
#      x y z
#    x 1.653690 0.000000 0.000000 
#    y 0.000000 1.740400 0.000000 
#    z 0.000000 0.000000 1.699770 
# 
# From -- ./inp_files/6163.got.cif
#   From: 2010.03.12/outbox.cif.g09.slc.cpg/sg47_4_cif.got.tgz:6163.got - 2010.04.14 03:12:58.
