data_PCOD8199303
_publ_section_title
;
Structure prediction by ZEFSAII (Michael W. Deem and Ramdas Pophale) SiO2 
 PCOD8199303
Probable space group: P M M M
;
_chemical_formula_sum "Si O2"
_cell_formula_units_Z 40
_cell_length_a 9.284798
_cell_length_b 9.370119
_cell_length_c 25.255758
_cell_angle_alpha 90.000000
_cell_angle_beta 90.000000
_cell_angle_gamma 90.000000
_cell_volume 2197.242413
_symmetry_space_group_name_H-M "P M M M"
_symmetry_group_IT_number 47
_symmetry_cell_setting 'orthorhombic'
loop_
_space_group_symop_operation_xyz
x,y,z
-x,-y,z
x,-y,-z
-x,y,-z
-x,-y,-z
x,y,-z
-x,y,z
x,-y,z
loop_
_atom_site_type_symbol
_atom_site_label
_atom_site_fract_x
_atom_site_fract_y
_atom_site_fract_z
Si Si1 0.666212 0.836136 0.413093
Si Si2 0.663313 0.165703 0.290980
Si Si3 0.166410 0.666512 0.205281
Si Si4 0.328697 0.838593 0.000000
Si Si5 0.668234 0.334707 0.898881
Si Si6 0.831311 0.333799 0.500000
O O1 0.500000 0.804744 0.426310
O O2 0.699224 0.803511 0.351996
O O3 0.765596 0.734268 0.447402
O O4 0.702446 0.000000 0.426587
O O5 0.500000 0.213410 0.278178
O O6 0.774257 0.254306 0.256445
O O7 0.682972 0.000000 0.277921
O O8 0.192592 0.500000 0.214233
O O9 0.248959 0.719377 0.152991
O O10 0.000000 0.704489 0.198147
O O11 0.272108 0.756940 0.948036
O O12 0.500000 0.836149 0.000000
O O13 0.269071 0.000000 0.000000
O O14 0.500000 0.308102 0.889166
O O15 0.700498 0.500000 0.911156
O O16 0.794311 0.500000 0.500000
O O17 0.000000 0.304166 0.500000
#
# Coordination Sequence:
#
# PCOD8199303 Si02
#       6
#     8   8   8   4   8   4
#     4   9  19  37  59  80 102 132 173 217 258 304
#     4   9  19  36  57  80 104 132 170 215 260 305
#     4  10  21  35  51  75 107 140 173 210 254 304
#     4   9  17  29  48  75 100 122 158 211 262 301
#     4   9  17  31  51  72  96 130 170 208 249 301
#     4  11  24  37  50  76 112 143 172 209 254 304
#
# _framework density 18.204637000000002
#
# number of rings (size 3 to 8) (size 9 to 14) (size 15 to 20)
#    0.000    2.600    0.000    2.700    0.000    7.600 
#    0.000    8.500    0.000    3.000    0.000    0.000 
#    0.000    0.000    0.000    0.000    0.000    0.000 
#
# Total GULP energy -496095.162509 kJ/mol
# GULP energy per Si atom -12402.379063 kJ/mol
# Density = 1.816320 g / cm^3
# Si number density = 18.204637 Si / 1000 Ang^3
#
#
#
# Elastic Constant Matrix: (Units=GPa)
#
#
# Indices 1 2 3 4 5 6 
#
# 1 86.5155 60.5404 71.6023 0.0000 0.0000 0.0000
# 2 60.5404 92.6168 76.1452 0.0000 0.0000 0.0000
# 3 71.6023 76.1452 138.4085 0.0000 0.0000 0.0000
# 4 0.0000 0.0000 0.0000 33.2382 0.0000 0.0000
# 5 0.0000 0.0000 0.0000 0.0000 4.5016 0.0000
# 6 0.0000 0.0000 0.0000 0.0000 0.0000 27.0146
#
#
#
# Elastic Compliance Matrix: (Units=1/GPa)
#
#
# Indices 1 2 3 4 5 6 
#
# 1 0.024596 -0.010255 -0.007083 0.000000 0.000000 0.000000
# 2 -0.010255 0.023989 -0.007893 0.000000 0.000000 0.000000
# 3 -0.007083 -0.007893 0.015231 0.000000 0.000000 0.000000
# 4 0.000000 0.000000 0.000000 0.030086 0.000000 0.000000
# 5 0.000000 0.000000 0.000000 0.000000 0.222142 0.000000
# 6 0.000000 0.000000 0.000000 0.000000 0.000000 0.037017
#
#
# Mechanical properties :
#
#
# Convention : Reuss Voigt Hill
#
# Bulk Modulus (GPa) = 74.86887 81.56850 78.21868
# Shear Modulus (GPa) = 12.25568 20.23442 16.24505
#
# Velocity S-wave (km/s) = 2.59746 3.33753 2.99048
# Velocity P-wave (km/s) = 7.08599 7.73019 7.41509
#
# Compressibility (1/GPa) = 0.01335669
#
# Stress axis : x y z
#
# Youngs Moduli (GPa) = 40.65654 41.68531 65.65488
#
# Poissons Ratio (x) = 0.42747 0.46501
# Poissons Ratio (y) = 0.41692 0.51819
# Poissons Ratio (z) = 0.28796 0.32901
#
# Static dielectric constant tensor:
#      x y z
#    x 3.209710 0.000000 0.000000 
#    y 0.000000 3.312780 0.000000 
#    z 0.000000 0.000000 3.419330 
# 
# 
# High freq. dielectric constant tensor:
#      x y z
#    x 1.691260 0.000000 0.000000 
#    y 0.000000 1.701490 0.000000 
#    z 0.000000 0.000000 1.717860 
# 
# From -- ./inp_files/13017.got.cif
#   From: 2010.03.12/outbox.cif.g09.slc.cpg/sg47_7_cif.got.tgz:13017.got - 2010.04.14 03:12:58.
