data_PCOD8199074
_publ_section_title
;
Structure prediction by ZEFSAII (Michael W. Deem and Ramdas Pophale) SiO2 
 PCOD8199074
Probable space group: P M M M
;
_chemical_formula_sum "Si O2"
_cell_formula_units_Z 52
_cell_length_a 35.065080
_cell_length_b 8.238633
_cell_length_c 9.858162
_cell_angle_alpha 90.000000
_cell_angle_beta 90.000000
_cell_angle_gamma 90.000000
_cell_volume 2847.907910
_symmetry_space_group_name_H-M "P M M M"
_symmetry_group_IT_number 47
_symmetry_cell_setting 'orthorhombic'
loop_
_space_group_symop_operation_xyz
x,y,z
-x,-y,z
x,-y,-z
-x,y,-z
-x,-y,-z
x,y,-z
-x,y,z
x,-y,z
loop_
_atom_site_type_symbol
_atom_site_label
_atom_site_fract_x
_atom_site_fract_y
_atom_site_fract_z
Si Si1 0.456528 0.500000 0.161505
Si Si2 0.958871 0.315431 0.839246
Si Si3 0.736743 0.313047 0.651820
Si Si4 0.816672 0.189590 0.651064
Si Si5 0.673884 0.187234 0.846578
Si Si6 0.119878 0.811075 0.848828
Si Si7 0.587102 0.819010 0.160967
O O1 0.500000 0.500000 0.210957
O O2 0.437470 0.332981 0.219088
O O3 0.453232 0.500000 0.000000
O O4 0.954063 0.500000 0.791800
O O5 0.922283 0.216942 0.784445
O O6 0.000000 0.248101 0.784207
O O7 0.959611 0.301902 0.000000
O O8 0.726434 0.250734 0.500000
O O9 0.747370 0.500000 0.649296
O O10 0.774115 0.220688 0.707883
O O11 0.700975 0.287310 0.748734
O O12 0.820574 0.266712 0.500000
O O13 0.848086 0.269023 0.751476
O O14 0.824359 0.000000 0.642560
O O15 0.630669 0.211848 0.795458
O O16 0.685568 0.000000 0.840267
O O17 0.678318 0.253196 0.000000
O O18 0.127619 0.000000 0.860739
O O19 0.122994 0.732559 0.000000
O O20 0.573806 0.000000 0.214155
O O21 0.583980 0.822561 0.000000
#
# Coordination Sequence:
#
# PCOD8199074 Si02
#       7
#     4   8   8   8   8   8   8
#     4   9  16  24  38  62  91 129 169 199 239 293
#     4   8  14  25  41  62  88 115 140 169 212 264
#     4  10  21  34  48  70  97 123 156 198 240 285
#     4   9  18  33  49  62  84 121 154 180 222 277
#     4   9  18  32  50  71  94 125 163 199 241 290
#     4   9  17  28  44  67  89 109 141 186 225 257
#     4   8  15  27  41  61  91 124 160 202 244 290
#
# _framework density 18.259017
#
# number of rings (size 3 to 8) (size 9 to 14) (size 15 to 20)
#    0.000    3.154    0.000    1.846    1.077    3.077 
#    0.000    4.615    0.000    0.462    0.000    3.231 
#    0.000    1.231    0.000    3.385    0.000    3.385 
#
# Total GULP energy -644298.972904 kJ/mol
# GULP energy per Si atom -12390.364864 kJ/mol
# Density = 1.821746 g / cm^3
# Si number density = 18.259017 Si / 1000 Ang^3
#
#
#
# Elastic Constant Matrix: (Units=GPa)
#
#
# Indices 1 2 3 4 5 6 
#
# 1 140.4922 46.5206 48.9900 0.0000 0.0000 0.0000
# 2 46.5206 61.5897 21.5826 0.0000 0.0000 0.0000
# 3 48.9900 21.5826 46.0858 0.0000 0.0000 0.0000
# 4 0.0000 0.0000 0.0000 12.6386 0.0000 0.0000
# 5 0.0000 0.0000 0.0000 0.0000 3.5038 0.0000
# 6 0.0000 0.0000 0.0000 0.0000 0.0000 25.6805
#
#
#
# Elastic Compliance Matrix: (Units=1/GPa)
#
#
# Indices 1 2 3 4 5 6 
#
# 1 0.012884 -0.005901 -0.010932 0.000000 0.000000 0.000000
# 2 -0.005901 0.022126 -0.004090 0.000000 0.000000 0.000000
# 3 -0.010932 -0.004090 0.035235 0.000000 0.000000 0.000000
# 4 0.000000 0.000000 0.000000 0.079123 0.000000 0.000000
# 5 0.000000 0.000000 0.000000 0.000000 0.285403 0.000000
# 6 0.000000 0.000000 0.000000 0.000000 0.000000 0.038940
#
#
# Mechanical properties :
#
#
# Convention : Reuss Voigt Hill
#
# Bulk Modulus (GPa) = 35.21107 53.59492 44.40300
# Shear Modulus (GPa) = 9.52338 17.10289 13.31313
#
# Velocity S-wave (km/s) = 2.28627 3.06385 2.70316
# Velocity P-wave (km/s) = 5.12791 6.47553 5.84072
#
# Compressibility (1/GPa) = 0.02840016
#
# Stress axis : x y z
#
# Youngs Moduli (GPa) = 77.61674 45.19468 28.38065
#
# Poissons Ratio (x) = 0.26667 0.31027
# Poissons Ratio (y) = 0.45798 0.11607
# Poissons Ratio (z) = 0.84854 0.18484
#
# Static dielectric constant tensor:
#      x y z
#    x 3.870970 0.000000 0.000000 
#    y 0.000000 3.371340 0.000000 
#    z 0.000000 0.000000 3.154900 
# 
# 
# High freq. dielectric constant tensor:
#      x y z
#    x 1.715440 0.000000 0.000000 
#    y 0.000000 1.700900 0.000000 
#    z 0.000000 0.000000 1.651340 
# 
# From -- ./inp_files/20047.got.cif
#   From: 2010.03.12/outbox.cif.g09.slc.cpg/sg47_11_cif.got.tgz:20047.got - 2010.04.14 03:12:58.
