data_PCOD8199083
_publ_section_title
;
Structure prediction by ZEFSAII (Michael W. Deem and Ramdas Pophale) SiO2 
 PCOD8199083
Probable space group: P M M M
;
_chemical_formula_sum "Si O2"
_cell_formula_units_Z 56
_cell_length_a 19.785207
_cell_length_b 15.579188
_cell_length_c 9.528668
_cell_angle_alpha 90.000000
_cell_angle_beta 90.000000
_cell_angle_gamma 90.000000
_cell_volume 2937.092416
_symmetry_space_group_name_H-M "P M M M"
_symmetry_group_IT_number 47
_symmetry_cell_setting 'orthorhombic'
loop_
_space_group_symop_operation_xyz
x,y,z
-x,-y,z
x,-y,-z
-x,y,-z
-x,-y,-z
x,y,-z
-x,y,z
x,-y,z
loop_
_atom_site_type_symbol
_atom_site_label
_atom_site_fract_x
_atom_site_fract_y
_atom_site_fract_z
Si Si1 0.924864 0.163497 0.337379
Si Si2 0.335516 0.598394 0.663268
Si Si3 0.809457 0.098272 0.151718
Si Si4 0.578598 0.238808 0.663058
Si Si5 0.660541 0.099490 0.834563
Si Si6 0.786075 0.401655 0.847643
Si Si7 0.926781 0.333426 0.838915
O O1 0.907036 0.173855 0.500000
O O2 0.867964 0.105489 0.266595
O O3 0.922033 0.254525 0.264717
O O4 0.000000 0.122615 0.318322
O O5 0.319429 0.599813 0.500000
O O6 0.355353 0.500000 0.708364
O O7 0.393820 0.666091 0.703824
O O8 0.267441 0.634910 0.736978
O O9 0.736613 0.134061 0.201905
O O10 0.795049 0.000000 0.124000
O O11 0.830654 0.139742 0.000000
O O12 0.592922 0.219906 0.500000
O O13 0.500000 0.241088 0.698118
O O14 0.610347 0.161563 0.751587
O O15 0.649223 0.000000 0.787463
O O16 0.646751 0.108429 0.000000
O O17 0.769470 0.500000 0.864438
O O18 0.863952 0.393439 0.797610
O O19 0.776168 0.356245 0.000000
O O20 0.000000 0.379952 0.816612
O O21 0.921212 0.302360 0.000000
#
# Coordination Sequence:
#
# PCOD8199083 Si02
#       7
#     8   8   8   8   8   8   8
#     4  10  21  34  48  71 104 139 175 218 266 314
#     4   9  19  36  56  79 110 147 184 223 268 321
#     4   9  19  36  56  77 101 133 175 219 264 316
#     4  10  22  38  57  85 115 144 182 223 268 323
#     4   9  20  39  60  83 112 145 182 224 271 326
#     4   9  18  32  51  76 103 133 173 221 269 314
#     4   9  18  32  49  70  99 137 178 218 263 314
#
# _framework density 19.066475000000001
#
# number of rings (size 3 to 8) (size 9 to 14) (size 15 to 20)
#    0.000    2.714    0.000    1.286    2.000    4.571 
#    0.000    7.143    0.000    0.000    0.000    7.000 
#    0.000    0.000    0.000    0.000    0.000    0.000 
#
# Total GULP energy -693767.831707 kJ/mol
# GULP energy per Si atom -12388.711280 kJ/mol
# Density = 1.902308 g / cm^3
# Si number density = 19.066475 Si / 1000 Ang^3
#
#
#
# Elastic Constant Matrix: (Units=GPa)
#
#
# Indices 1 2 3 4 5 6 
#
# 1 155.9529 56.8725 70.5120 0.0000 0.0000 0.0000
# 2 56.8725 76.1129 41.4343 0.0000 0.0000 0.0000
# 3 70.5120 41.4343 81.7417 0.0000 0.0000 0.0000
# 4 0.0000 0.0000 0.0000 24.2218 0.0000 0.0000
# 5 0.0000 0.0000 0.0000 0.0000 32.4329 0.0000
# 6 0.0000 0.0000 0.0000 0.0000 0.0000 30.7029
#
#
#
# Elastic Compliance Matrix: (Units=1/GPa)
#
#
# Indices 1 2 3 4 5 6 
#
# 1 0.011491 -0.004406 -0.007679 0.000000 0.000000 0.000000
# 2 -0.004406 0.019835 -0.006254 0.000000 0.000000 0.000000
# 3 -0.007679 -0.006254 0.022028 0.000000 0.000000 0.000000
# 4 0.000000 0.000000 0.000000 0.041285 0.000000 0.000000
# 5 0.000000 0.000000 0.000000 0.000000 0.030833 0.000000
# 6 0.000000 0.000000 0.000000 0.000000 0.000000 0.032570
#
#
# Mechanical properties :
#
#
# Convention : Reuss Voigt Hill
#
# Bulk Modulus (GPa) = 59.96459 72.38279 66.17369
# Shear Modulus (GPa) = 24.96542 27.13741 26.05142
#
# Velocity S-wave (km/s) = 3.62247 3.77676 3.70042
# Velocity P-wave (km/s) = 7.00107 7.55410 7.28283
#
# Compressibility (1/GPa) = 0.01667651
#
# Stress axis : x y z
#
# Youngs Moduli (GPa) = 87.02604 50.41645 45.39770
#
# Poissons Ratio (x) = 0.22213 0.34861
# Poissons Ratio (y) = 0.38342 0.28390
# Poissons Ratio (z) = 0.66827 0.31528
#
# Static dielectric constant tensor:
#      x y z
#    x 3.731080 0.000000 0.000000 
#    y 0.000000 3.333600 0.000000 
#    z 0.000000 0.000000 3.317010 
# 
# 
# High freq. dielectric constant tensor:
#      x y z
#    x 1.747820 0.000000 0.000000 
#    y 0.000000 1.726700 0.000000 
#    z 0.000000 0.000000 1.735800 
# 
# From -- ./inp_files/7234.got.cif
#   From: 2010.03.12/outbox.cif.g09.slc.cpg/sg47_4_cif.got.tgz:7234.got - 2010.04.14 03:12:58.
