data_PCOD8199280
_publ_section_title
;
Structure prediction by ZEFSAII (Michael W. Deem and Ramdas Pophale) SiO2 
 PCOD8199280
Probable space group: P M M M
;
_chemical_formula_sum "Si O2"
_cell_formula_units_Z 64
_cell_length_a 19.858753
_cell_length_b 19.517403
_cell_length_c 9.122057
_cell_angle_alpha 90.000000
_cell_angle_beta 90.000000
_cell_angle_gamma 90.000000
_cell_volume 3535.629798
_symmetry_space_group_name_H-M "P M M M"
_symmetry_group_IT_number 47
_symmetry_cell_setting 'orthorhombic'
loop_
_space_group_symop_operation_xyz
x,y,z
-x,-y,z
x,-y,-z
-x,y,-z
-x,-y,-z
x,y,-z
-x,y,z
x,-y,z
loop_
_atom_site_type_symbol
_atom_site_label
_atom_site_fract_x
_atom_site_fract_y
_atom_site_fract_z
Si Si1 0.921531 0.826008 0.170543
Si Si2 0.578223 0.169734 0.331857
Si Si3 0.814892 0.422212 0.671065
Si Si4 0.421818 0.326939 0.332390
Si Si5 0.683778 0.920582 0.829183
Si Si6 0.923027 0.688318 0.669975
Si Si7 0.319664 0.578577 0.828218
Si Si8 0.181330 0.080585 0.331102
O O1 0.899483 0.752887 0.234970
O O2 0.881933 0.885618 0.252193
O O3 0.000000 0.839362 0.199764
O O4 0.903588 0.827365 0.000000
O O5 0.594715 0.150960 0.500000
O O6 0.500000 0.157193 0.298790
O O7 0.597523 0.248369 0.300371
O O8 0.619617 0.121583 0.224046
O O9 0.799419 0.416151 0.500000
O O10 0.832304 0.500000 0.716474
O O11 0.878274 0.376285 0.717351
O O12 0.749125 0.395254 0.754747
O O13 0.404647 0.345496 0.500000
O O14 0.500000 0.339188 0.300289
O O15 0.381281 0.375866 0.225221
O O16 0.749666 0.894391 0.743695
O O17 0.669734 0.000000 0.795287
O O18 0.695678 0.907337 0.000000
O O19 0.912973 0.707205 0.500000
O O20 0.000000 0.668382 0.703851
O O21 0.333984 0.500000 0.783778
O O22 0.311717 0.587516 0.000000
O O23 0.183277 0.102986 0.500000
O O24 0.172245 0.000000 0.312133
#
# Coordination Sequence:
#
# PCOD8199280 Si02
#       8
#     8   8   8   8   8   8   8   8
#     4  10  21  36  54  77 106 139 173 210 254 306
#     4   9  19  36  56  78 105 137 174 215 257 304
#     4   9  18  33  53  76 102 134 172 213 257 304
#     4   9  19  36  56  77 101 131 169 211 254 302
#     4  10  21  36  54  78 108 139 172 212 257 306
#     4   9  18  33  53  77 105 136 171 213 258 303
#     4  10  21  35  51  74 104 136 170 209 253 303
#     4  10  21  37  57  79 103 134 173 215 258 306
#
# _framework density 18.101441999999999
#
# number of rings (size 3 to 8) (size 9 to 14) (size 15 to 20)
#    0.000    2.500    0.000    2.250    0.000    6.500 
#    0.000    7.500    0.000    0.000    0.000    3.500 
#    0.000    0.000    0.000    0.000    0.000    0.000 
#
# Total GULP energy -793829.031746 kJ/mol
# GULP energy per Si atom -12403.578621 kJ/mol
# Density = 1.806024 g / cm^3
# Si number density = 18.101442 Si / 1000 Ang^3
#
#
#
# Elastic Constant Matrix: (Units=GPa)
#
#
# Indices 1 2 3 4 5 6 
#
# 1 94.7183 59.5238 56.1455 0.0000 0.0000 0.0000
# 2 59.5238 75.1083 51.3191 0.0000 0.0000 0.0000
# 3 56.1455 51.3191 92.4236 0.0000 0.0000 0.0000
# 4 0.0000 0.0000 0.0000 29.9634 0.0000 0.0000
# 5 0.0000 0.0000 0.0000 0.0000 29.2058 0.0000
# 6 0.0000 0.0000 0.0000 0.0000 0.0000 31.1372
#
#
#
# Elastic Compliance Matrix: (Units=1/GPa)
#
#
# Indices 1 2 3 4 5 6 
#
# 1 0.023057 -0.014023 -0.006221 0.000000 0.000000 0.000000
# 2 -0.014023 0.029982 -0.008129 0.000000 0.000000 0.000000
# 3 -0.006221 -0.008129 0.019112 0.000000 0.000000 0.000000
# 4 0.000000 0.000000 0.000000 0.033374 0.000000 0.000000
# 5 0.000000 0.000000 0.000000 0.000000 0.034240 0.000000
# 6 0.000000 0.000000 0.000000 0.000000 0.000000 0.032116
#
#
# Mechanical properties :
#
#
# Convention : Reuss Voigt Hill
#
# Bulk Modulus (GPa) = 64.90766 66.24746 65.57756
# Shear Modulus (GPa) = 21.38938 24.41207 22.90072
#
# Velocity S-wave (km/s) = 3.44123 3.67635 3.56073
# Velocity P-wave (km/s) = 7.19201 7.39581 7.29462
#
# Compressibility (1/GPa) = 0.01540650
#
# Stress axis : x y z
#
# Youngs Moduli (GPa) = 43.37035 33.35388 52.32225
#
# Poissons Ratio (x) = 0.46771 0.32547
# Poissons Ratio (y) = 0.60817 0.42533
# Poissons Ratio (z) = 0.26979 0.27113
#
# Static dielectric constant tensor:
#      x y z
#    x 3.334160 0.000000 0.000000 
#    y 0.000000 3.314760 0.000000 
#    z 0.000000 0.000000 3.361750 
# 
# 
# High freq. dielectric constant tensor:
#      x y z
#    x 1.704220 0.000000 0.000000 
#    y 0.000000 1.699070 0.000000 
#    z 0.000000 0.000000 1.705280 
# 
# From -- ./inp_files/9968.got.cif
#   From: 2010.03.12/outbox.cif.g09.slc.cpg/sg47_5_cif.got.tgz:9968.got - 2010.04.14 03:12:58.
