data_PCOD8199472
_publ_section_title
;
Structure prediction by ZEFSAII (Michael W. Deem and Ramdas Pophale) SiO2 
 PCOD8199472
Probable space group: P M M M
;
_chemical_formula_sum "Si O2"
_cell_formula_units_Z 32
_cell_length_a 15.145177
_cell_length_b 12.612651
_cell_length_c 9.054142
_cell_angle_alpha 90.000000
_cell_angle_beta 90.000000
_cell_angle_gamma 90.000000
_cell_volume 1729.529736
_symmetry_space_group_name_H-M "P M M M"
_symmetry_group_IT_number 47
_symmetry_cell_setting 'orthorhombic'
loop_
_space_group_symop_operation_xyz
x,y,z
-x,-y,z
x,-y,-z
-x,y,-z
-x,-y,-z
x,y,-z
-x,y,z
x,-y,z
loop_
_atom_site_type_symbol
_atom_site_label
_atom_site_fract_x
_atom_site_fract_y
_atom_site_fract_z
Si Si1 0.500000 0.624527 0.162757
Si Si2 0.096262 0.877154 0.661943
Si Si3 0.602603 0.000000 0.175129
Si Si4 0.263489 0.816399 0.173123
Si Si5 0.674276 0.379361 0.674166
O O1 0.500000 0.500000 0.143103
O O2 0.583516 0.661169 0.254819
O O3 0.500000 0.679057 0.000000
O O4 0.126057 0.831021 0.500000
O O5 0.167734 0.862351 0.790722
O O6 0.000000 0.827564 0.706246
O O7 0.082668 0.000000 0.642405
O O8 0.657532 0.895508 0.228363
O O9 0.500000 0.000000 0.235028
O O10 0.600861 0.000000 0.000000
O O11 0.257795 0.704379 0.259693
O O12 0.272910 0.795696 0.000000
O O13 0.666821 0.370915 0.500000
O O14 0.698499 0.500000 0.721276
#
# Coordination Sequence:
#
# PCOD8199472 Si02
#       5
#     4   8   4   8   8
#     4   9  17  31  51  74  99 132 179 229 273 314
#     4   9  18  34  56  80 108 142 178 221 273 328
#     4   9  20  36  50  73 112 152 184 216 263 320
#     4  11  21  34  56  82 110 145 184 228 274 321
#     4  10  21  36  53  75 106 144 185 229 274 321
#
# _framework density 18.502137999999999
#
# number of rings (size 3 to 8) (size 9 to 14) (size 15 to 20)
#    0.000    2.250    1.250    2.625    1.750    3.500 
#    0.000    1.250    0.000    3.750    0.000    5.250 
#    0.000    0.000    0.000    0.000    0.000    0.000 
#
# Total GULP energy -396420.669457 kJ/mol
# GULP energy per Si atom -12388.145921 kJ/mol
# Density = 1.846003 g / cm^3
# Si number density = 18.502138 Si / 1000 Ang^3
#
#
#
# Elastic Constant Matrix: (Units=GPa)
#
#
# Indices 1 2 3 4 5 6 
#
# 1 106.8121 32.9887 29.9306 0.0000 0.0000 0.0000
# 2 32.9887 88.5658 38.4797 0.0000 0.0000 0.0000
# 3 29.9306 38.4797 75.5189 0.0000 0.0000 0.0000
# 4 0.0000 0.0000 0.0000 26.4546 0.0000 0.0000
# 5 0.0000 0.0000 0.0000 0.0000 40.0085 0.0000
# 6 0.0000 0.0000 0.0000 0.0000 0.0000 9.5667
#
#
#
# Elastic Compliance Matrix: (Units=1/GPa)
#
#
# Indices 1 2 3 4 5 6 
#
# 1 0.011064 -0.002846 -0.002935 0.000000 0.000000 0.000000
# 2 -0.002846 0.015233 -0.006634 0.000000 0.000000 0.000000
# 3 -0.002935 -0.006634 0.017785 0.000000 0.000000 0.000000
# 4 0.000000 0.000000 0.000000 0.037801 0.000000 0.000000
# 5 0.000000 0.000000 0.000000 0.000000 0.024995 0.000000
# 6 0.000000 0.000000 0.000000 0.000000 0.000000 0.104530
#
#
# Mechanical properties :
#
#
# Convention : Reuss Voigt Hill
#
# Bulk Modulus (GPa) = 51.94072 52.63277 52.28675
# Shear Modulus (GPa) = 20.60546 26.50580 23.55563
#
# Velocity S-wave (km/s) = 3.34080 3.78905 3.57197
# Velocity P-wave (km/s) = 6.55859 6.90298 6.73299
#
# Compressibility (1/GPa) = 0.01925272
#
# Stress axis : x y z
#
# Youngs Moduli (GPa) = 90.38704 65.64531 56.22655
#
# Poissons Ratio (x) = 0.18681 0.16501
# Poissons Ratio (y) = 0.25722 0.37301
# Poissons Ratio (z) = 0.26527 0.43550
#
# Static dielectric constant tensor:
#      x y z
#    x 3.598850 0.000000 0.000000 
#    y 0.000000 3.323310 0.000000 
#    z 0.000000 0.000000 3.327600 
# 
# 
# High freq. dielectric constant tensor:
#      x y z
#    x 1.709290 0.000000 0.000000 
#    y 0.000000 1.701210 0.000000 
#    z 0.000000 0.000000 1.712240 
# 
# From -- ./inp_files/3397.got.cif
#   From: 2010.03.12/outbox.cif.g09.slc.cpg/sg47_2_cif.got.tgz:3397.got - 2010.04.14 03:12:58.
