data_PCOD8199914
_publ_section_title
;
Structure prediction by ZEFSAII (Michael W. Deem and Ramdas Pophale) SiO2 
 PCOD8199914
Probable space group: P M M M
;
_chemical_formula_sum "Si O2"
_cell_formula_units_Z 52
_cell_length_a 9.400712
_cell_length_b 13.702089
_cell_length_c 21.657518
_cell_angle_alpha 90.000000
_cell_angle_beta 90.000000
_cell_angle_gamma 90.000000
_cell_volume 2789.691736
_symmetry_space_group_name_H-M "P M M M"
_symmetry_group_IT_number 47
_symmetry_cell_setting 'orthorhombic'
loop_
_space_group_symop_operation_xyz
x,y,z
-x,-y,z
x,-y,-z
-x,y,-z
-x,-y,-z
x,y,-z
-x,y,z
x,-y,z
loop_
_atom_site_type_symbol
_atom_site_label
_atom_site_fract_x
_atom_site_fract_y
_atom_site_fract_z
Si Si1 0.329846 0.218315 0.123435
Si Si2 0.500000 0.886774 0.431228
Si Si3 0.833928 0.611353 0.825312
Si Si4 0.664635 0.389507 0.699911
Si Si5 0.000000 0.110715 0.571915
Si Si6 0.332093 0.890904 0.000000
Si Si7 0.246998 0.798758 0.359723
Si Si8 0.163159 0.113812 0.229528
O O1 0.500000 0.230825 0.128481
O O2 0.251145 0.323108 0.125295
O O3 0.281579 0.167400 0.060150
O O4 0.272660 0.152200 0.178810
O O5 0.500000 0.836256 0.500000
O O6 0.372541 0.859780 0.387593
O O7 0.500000 0.000000 0.443755
O O8 0.816211 0.500000 0.846720
O O9 0.763607 0.629526 0.758881
O O10 0.000000 0.640984 0.821547
O O11 0.500000 0.369981 0.718343
O O12 0.684512 0.500000 0.675486
O O13 0.713385 0.316129 0.645647
O O14 0.872806 0.180377 0.590850
O O15 0.000000 0.094438 0.500000
O O16 0.000000 0.000000 0.602203
O O17 0.500000 0.900405 0.000000
O O18 0.264913 0.000000 0.000000
O O19 0.201414 0.836247 0.293285
O O20 0.000000 0.138585 0.211323
O O21 0.186918 0.000000 0.236762
#
# Coordination Sequence:
#
# PCOD8199914 Si02
#       8
#     8   4   8   8   4   4   8   8
#     4  11  22  37  61  88 118 156 199 248 296 349
#     4  11  24  40  59  85 119 156 199 246 292 357
#     4  10  21  37  58  86 120 156 194 242 300 356
#     4  10  21  38  60  89 121 154 196 247 306 363
#     4  11  24  42  63  85 117 164 205 238 288 357
#     4   9  20  40  60  83 118 162 205 239 284 351
#     4  12  22  38  60  87 118 154 198 245 302 353
#     4  11  23  37  55  85 122 156 192 246 303 354
#
# _framework density 18.640052000000001
#
# number of rings (size 3 to 8) (size 9 to 14) (size 15 to 20)
#    0.000    1.308    3.077    3.231    2.154    3.077 
#    0.000    1.923    0.000    7.846    0.000    0.000 
#    0.000    0.000    0.000    0.000    0.000    0.000 
#
# Total GULP energy -644590.918605 kJ/mol
# GULP energy per Si atom -12395.979204 kJ/mol
# Density = 1.859763 g / cm^3
# Si number density = 18.640052 Si / 1000 Ang^3
#
#
#
# Elastic Constant Matrix: (Units=GPa)
#
#
# Indices 1 2 3 4 5 6 
#
# 1 125.3147 52.3147 25.2684 0.0000 0.0000 0.0000
# 2 52.3147 139.5899 49.1433 0.0000 0.0000 0.0000
# 3 25.2684 49.1433 63.0862 0.0000 0.0000 0.0000
# 4 0.0000 0.0000 0.0000 78.0182 0.0000 0.0000
# 5 0.0000 0.0000 0.0000 0.0000 26.9209 0.0000
# 6 0.0000 0.0000 0.0000 0.0000 0.0000 22.3564
#
#
#
# Elastic Compliance Matrix: (Units=1/GPa)
#
#
# Indices 1 2 3 4 5 6 
#
# 1 0.009553 -0.003077 -0.001429 0.000000 0.000000 0.000000
# 2 -0.003077 0.010862 -0.007229 0.000000 0.000000 0.000000
# 3 -0.001429 -0.007229 0.022055 0.000000 0.000000 0.000000
# 4 0.000000 0.000000 0.000000 0.012818 0.000000 0.000000
# 5 0.000000 0.000000 0.000000 0.000000 0.037146 0.000000
# 6 0.000000 0.000000 0.000000 0.000000 0.000000 0.044730
#
#
# Mechanical properties :
#
#
# Convention : Reuss Voigt Hill
#
# Bulk Modulus (GPa) = 52.63332 64.60484 58.61908
# Shear Modulus (GPa) = 29.94617 38.87673 34.41145
#
# Velocity S-wave (km/s) = 4.01253 4.57185 4.30129
# Velocity P-wave (km/s) = 7.05444 7.91224 7.49562
#
# Compressibility (1/GPa) = 0.01899937
#
# Stress axis : x y z
#
# Youngs Moduli (GPa) = 104.68342 92.06452 45.34113
#
# Poissons Ratio (x) = 0.28327 0.06481
# Poissons Ratio (y) = 0.32210 0.32777
# Poissons Ratio (z) = 0.14963 0.66553
#
# Static dielectric constant tensor:
#      x y z
#    x 3.298380 0.000000 0.000000 
#    y 0.000000 3.785330 0.000000 
#    z 0.000000 0.000000 3.466380 
# 
# 
# High freq. dielectric constant tensor:
#      x y z
#    x 1.736480 0.000000 0.000000 
#    y 0.000000 1.736510 0.000000 
#    z 0.000000 0.000000 1.705960 
# 
# From -- ./inp_files/29661.got.cif
#   From: 2010.03.12/outbox.cif.g09.slc.cpg/sg47_15_cif.got.tgz:29661.got - 2010.04.14 03:12:58.
