data_PCOD8199368
_publ_section_title
;
Structure prediction by ZEFSAII (Michael W. Deem and Ramdas Pophale) SiO2 
 PCOD8199368
Probable space group: P M M M
;
_chemical_formula_sum "Si O2"
_cell_formula_units_Z 48
_cell_length_a 7.949058
_cell_length_b 32.681131
_cell_length_c 9.259885
_cell_angle_alpha 90.000000
_cell_angle_beta 90.000000
_cell_angle_gamma 90.000000
_cell_volume 2405.571871
_symmetry_space_group_name_H-M "P M M M"
_symmetry_group_IT_number 47
_symmetry_cell_setting 'orthorhombic'
loop_
_space_group_symop_operation_xyz
x,y,z
-x,-y,z
x,-y,-z
-x,y,-z
-x,-y,-z
x,y,-z
-x,y,z
x,-y,z
loop_
_atom_site_type_symbol
_atom_site_label
_atom_site_fract_x
_atom_site_fract_y
_atom_site_fract_z
Si Si1 0.805291 0.256034 0.662940
Si Si2 0.198127 0.500000 0.663253
Si Si3 0.693798 0.180727 0.841608
Si Si4 0.697763 0.578879 0.160857
Si Si5 0.300424 0.344295 0.663556
Si Si6 0.694680 0.897806 0.330070
Si Si7 0.000000 0.954349 0.671115
O O1 0.732267 0.252734 0.500000
O O2 0.713496 0.224108 0.764808
O O3 0.772692 0.301604 0.723199
O O4 0.000000 0.245466 0.664879
O O5 0.270301 0.500000 0.500000
O O6 0.262581 0.539582 0.745058
O O7 0.000000 0.500000 0.661295
O O8 0.500000 0.172298 0.864183
O O9 0.762747 0.143623 0.744595
O O10 0.782242 0.181278 0.000000
O O11 0.500000 0.583778 0.148746
O O12 0.773258 0.619157 0.238156
O O13 0.776154 0.574601 0.000000
O O14 0.237768 0.351943 0.500000
O O15 0.500000 0.342669 0.670514
O O16 0.707896 0.890285 0.500000
O O17 0.500000 0.909354 0.288894
O O18 0.826323 0.932548 0.277904
O O19 0.000000 0.956254 0.500000
O O20 0.000000 0.000000 0.737421
#
# Coordination Sequence:
#
# PCOD8199368 Si02
#       7
#     8   4   8   8   8   8   4
#     4  10  21  35  53  79 110 143 179 221 268 320
#     4  11  24  39  56  80 108 139 176 219 266 316
#     4  10  21  36  54  77 106 141 182 229 276 322
#     4  10  21  37  58  83 109 138 174 217 265 318
#     4   9  18  34  55  77 104 141 181 218 258 309
#     4   9  18  33  54  79 108 144 184 228 280 335
#     4   9  18  32  53  83 113 141 181 233 283 334
#
# _framework density 19.953676000000002
#
# number of rings (size 3 to 8) (size 9 to 14) (size 15 to 20)
#    0.000    2.333    0.000    2.000    1.167    6.333 
#    0.000    5.000    0.000    1.000    0.000    2.333 
#    0.000    0.000    0.000    0.000    0.000    0.000 
#
# Total GULP energy -595078.708853 kJ/mol
# GULP energy per Si atom -12397.473101 kJ/mol
# Density = 1.990826 g / cm^3
# Si number density = 19.953676 Si / 1000 Ang^3
#
#
#
# Elastic Constant Matrix: (Units=GPa)
#
#
# Indices 1 2 3 4 5 6 
#
# 1 48.0427 36.8374 23.1367 0.0000 0.0000 0.0000
# 2 36.8374 178.0479 80.2604 0.0000 0.0000 0.0000
# 3 23.1367 80.2604 114.2786 0.0000 0.0000 0.0000
# 4 0.0000 0.0000 0.0000 2.0135 0.0000 0.0000
# 5 0.0000 0.0000 0.0000 0.0000 12.3786 0.0000
# 6 0.0000 0.0000 0.0000 0.0000 0.0000 13.3374
#
#
#
# Elastic Compliance Matrix: (Units=1/GPa)
#
#
# Indices 1 2 3 4 5 6 
#
# 1 0.025078 -0.004243 -0.002097 0.000000 0.000000 0.000000
# 2 -0.004243 0.008936 -0.005417 0.000000 0.000000 0.000000
# 3 -0.002097 -0.005417 0.012980 0.000000 0.000000 0.000000
# 4 0.000000 0.000000 0.000000 0.496656 0.000000 0.000000
# 5 0.000000 0.000000 0.000000 0.000000 0.080785 0.000000
# 6 0.000000 0.000000 0.000000 0.000000 0.000000 0.074977
#
#
# Mechanical properties :
#
#
# Convention : Reuss Voigt Hill
#
# Bulk Modulus (GPa) = 42.59077 68.98203 55.78640
# Shear Modulus (GPa) = 6.84225 18.88820 12.86523
#
# Velocity S-wave (km/s) = 1.85378 3.08003 2.54196
# Velocity P-wave (km/s) = 5.09639 6.87713 6.05261
#
# Compressibility (1/GPa) = 0.02347927
#
# Stress axis : x y z
#
# Youngs Moduli (GPa) = 39.87503 111.90342 77.04349
#
# Poissons Ratio (x) = 0.47483 0.16158
# Poissons Ratio (y) = 0.16920 0.41735
# Poissons Ratio (z) = 0.08363 0.60619
#
# Static dielectric constant tensor:
#      x y z
#    x 3.557280 0.000000 0.000000 
#    y 0.000000 3.747760 0.000000 
#    z 0.000000 0.000000 3.917150 
# 
# 
# High freq. dielectric constant tensor:
#      x y z
#    x 1.769940 0.000000 0.000000 
#    y 0.000000 1.783040 0.000000 
#    z 0.000000 0.000000 1.768220 
# 
# From -- ./inp_files/2632.got.cif
#   From: 2010.03.12/outbox.cif.g09.slc.cpg/sg47_2_cif.got.tgz:2632.got - 2010.04.14 03:12:58.
