data_PCOD8199736
_publ_section_title
;
Structure prediction by ZEFSAII (Michael W. Deem and Ramdas Pophale) SiO2 
 PCOD8199736
Probable space group: P M M M
;
_chemical_formula_sum "Si O2"
_cell_formula_units_Z 48
_cell_length_a 32.249637
_cell_length_b 9.427256
_cell_length_c 8.162424
_cell_angle_alpha 90.000000
_cell_angle_beta 90.000000
_cell_angle_gamma 90.000000
_cell_volume 2481.585723
_symmetry_space_group_name_H-M "P M M M"
_symmetry_group_IT_number 47
_symmetry_cell_setting 'orthorhombic'
loop_
_space_group_symop_operation_xyz
x,y,z
-x,-y,z
x,-y,-z
-x,y,-z
-x,-y,-z
x,y,-z
-x,y,z
x,-y,z
loop_
_atom_site_type_symbol
_atom_site_label
_atom_site_fract_x
_atom_site_fract_y
_atom_site_fract_z
Si Si1 0.763424 0.660365 0.688069
Si Si2 0.309895 0.838914 0.189344
Si Si3 0.404139 0.831557 0.182152
Si Si4 0.000000 0.340897 0.304022
Si Si5 0.075514 0.157971 0.690666
Si Si6 0.547173 0.830937 0.500000
Si Si7 0.162403 0.841466 0.811569
O O1 0.776540 0.662358 0.500000
O O2 0.759654 0.500000 0.754336
O O3 0.719309 0.736485 0.707404
O O4 0.798655 0.740205 0.788252
O O5 0.356858 0.785205 0.214339
O O6 0.305021 0.000000 0.253777
O O7 0.296961 0.831361 0.000000
O O8 0.431653 0.770791 0.332769
O O9 0.406969 0.000000 0.179124
O O10 0.418549 0.776011 0.000000
O O11 0.040733 0.261209 0.233504
O O12 0.000000 0.500000 0.233462
O O13 0.000000 0.344250 0.500000
O O14 0.066922 0.147242 0.500000
O O15 0.121664 0.219482 0.720829
O O16 0.072011 0.000000 0.769263
O O17 0.500000 0.777851 0.500000
O O18 0.550135 0.000000 0.500000
O O19 0.173382 0.000000 0.745963
O O20 0.150914 0.847409 0.000000
#
# Coordination Sequence:
#
# PCOD8199736 Si02
#       7
#     8   8   8   4   8   4   8
#     4  11  24  37  50  74 105 134 167 208 255 308
#     4   9  18  33  53  75  98 130 173 215 255 304
#     4   8  15  27  42  64  95 129 169 215 259 309
#     4   9  17  29  48  75 102 128 162 205 250 295
#     4   9  17  31  52  75  99 128 163 203 247 296
#     4   9  16  24  38  64  97 135 175 211 259 318
#     4  10  21  37  56  77 101 132 171 211 253 304
#
# _framework density 19.342471
#
# number of rings (size 3 to 8) (size 9 to 14) (size 15 to 20)
#    0.000    2.667    0.000    2.750    1.167    6.667 
#    0.000    3.750    0.000    2.500    0.000    0.000 
#    0.000    1.333    0.000    3.667    0.000    3.667 
#
# Total GULP energy -595032.704842 kJ/mol
# GULP energy per Si atom -12396.514684 kJ/mol
# Density = 1.929845 g / cm^3
# Si number density = 19.342471 Si / 1000 Ang^3
#
#
#
# Elastic Constant Matrix: (Units=GPa)
#
#
# Indices 1 2 3 4 5 6 
#
# 1 136.9029 55.0582 44.1901 0.0000 0.0000 0.0000
# 2 55.0582 81.7624 24.9439 0.0000 0.0000 0.0000
# 3 44.1901 24.9439 70.0150 0.0000 0.0000 0.0000
# 4 0.0000 0.0000 0.0000 14.6349 0.0000 0.0000
# 5 0.0000 0.0000 0.0000 0.0000 8.9697 0.0000
# 6 0.0000 0.0000 0.0000 0.0000 0.0000 2.9536
#
#
#
# Elastic Compliance Matrix: (Units=1/GPa)
#
#
# Indices 1 2 3 4 5 6 
#
# 1 0.011389 -0.006144 -0.004999 0.000000 0.000000 0.000000
# 2 -0.006144 0.017037 -0.002192 0.000000 0.000000 0.000000
# 3 -0.004999 -0.002192 0.018219 0.000000 0.000000 0.000000
# 4 0.000000 0.000000 0.000000 0.068330 0.000000 0.000000
# 5 0.000000 0.000000 0.000000 0.000000 0.111486 0.000000
# 6 0.000000 0.000000 0.000000 0.000000 0.000000 0.338564
#
#
# Mechanical properties :
#
#
# Convention : Reuss Voigt Hill
#
# Bulk Modulus (GPa) = 50.06441 59.67386 54.86914
# Shear Modulus (GPa) = 8.35627 16.27752 12.31689
#
# Velocity S-wave (km/s) = 2.08076 2.90408 2.52619
# Velocity P-wave (km/s) = 5.63135 6.49331 6.07763
#
# Compressibility (1/GPa) = 0.01997427
#
# Stress axis : x y z
#
# Youngs Moduli (GPa) = 87.80278 58.69700 54.88834
#
# Poissons Ratio (x) = 0.36065 0.27440
# Poissons Ratio (y) = 0.53948 0.12030
# Poissons Ratio (z) = 0.43896 0.12864
#
# Static dielectric constant tensor:
#      x y z
#    x 3.542560 0.000000 0.000000 
#    y 0.000000 3.353960 0.000000 
#    z 0.000000 0.000000 3.519440 
# 
# 
# High freq. dielectric constant tensor:
#      x y z
#    x 1.756600 0.000000 0.000000 
#    y 0.000000 1.712380 0.000000 
#    z 0.000000 0.000000 1.746050 
# 
# From -- ./inp_files/2796.got.cif
#   From: 2010.03.12/outbox.cif.g09.slc.cpg/sg47_2_cif.got.tgz:2796.got - 2010.04.14 03:12:58.
