data_PCOD8199014
_publ_section_title
;
Structure prediction by ZEFSAII (Michael W. Deem and Ramdas Pophale) SiO2 
 PCOD8199014
Probable space group: P M M M
;
_chemical_formula_sum "Si O2"
_cell_formula_units_Z 44
_cell_length_a 8.086659
_cell_length_b 33.779007
_cell_length_c 7.599155
_cell_angle_alpha 90.000000
_cell_angle_beta 90.000000
_cell_angle_gamma 90.000000
_cell_volume 2075.779944
_symmetry_space_group_name_H-M "P M M M"
_symmetry_group_IT_number 47
_symmetry_cell_setting 'orthorhombic'
loop_
_space_group_symop_operation_xyz
x,y,z
-x,-y,z
x,-y,-z
-x,y,-z
-x,-y,-z
x,y,-z
-x,y,z
x,-y,z
loop_
_atom_site_type_symbol
_atom_site_label
_atom_site_fract_x
_atom_site_fract_y
_atom_site_fract_z
Si Si1 0.808578 0.323848 0.698553
Si Si2 0.808878 0.874895 0.694862
Si Si3 0.198027 0.819047 0.000000
Si Si4 0.316782 0.407719 0.291362
Si Si5 0.308977 0.730314 0.000000
Si Si6 0.000000 0.544990 0.290157
Si Si7 0.312688 0.957431 0.708464
O O1 0.755518 0.311942 0.500000
O O2 0.708930 0.362214 0.766035
O O3 0.000000 0.335506 0.703310
O O4 0.774126 0.287060 0.824814
O O5 0.724989 0.870908 0.500000
O O6 0.735298 0.842498 0.828308
O O7 0.786239 0.919071 0.776454
O O8 0.000000 0.866383 0.675244
O O9 0.282895 0.776842 0.000000
O O10 0.000000 0.815367 0.000000
O O11 0.310086 0.410693 0.500000
O O12 0.500000 0.421382 0.223716
O O13 0.167635 0.434577 0.213848
O O14 0.500000 0.719469 0.000000
O O15 0.000000 0.500000 0.223839
O O16 0.000000 0.547710 0.500000
O O17 0.302472 0.958244 0.500000
O O18 0.500000 0.952836 0.773422
O O19 0.241993 0.000000 0.779247
#
# Coordination Sequence:
#
# PCOD8199014 Si02
#       7
#     8   8   4   8   4   4   8
#     4  10  20  38  63  87 115 152 193 240 296 353
#     4   9  18  33  54  76  99 135 178 217 265 321
#     4  10  22  40  55  73 106 139 175 225 272 329
#     4   9  16  28  48  75 109 150 196 244 293 347
#     4  12  26  40  58  89 119 145 187 238 293 356
#     4   9  16  26  42  71 113 157 200 243 291 348
#     4   8  14  26  46  73 103 133 168 211 257 309
#
# _framework density 21.196853000000001
#
# number of rings (size 3 to 8) (size 9 to 14) (size 15 to 20)
#    0.000    2.636    0.909    1.909    0.000    3.273 
#    0.000    5.909    0.000    2.727    0.000    1.273 
#    0.000    2.182    0.000    0.182    0.000    0.000 
#
# Total GULP energy -545259.850695 kJ/mol
# GULP energy per Si atom -12392.269334 kJ/mol
# Density = 2.114861 g / cm^3
# Si number density = 21.196853 Si / 1000 Ang^3
#
#
#
# Elastic Constant Matrix: (Units=GPa)
#
#
# Indices 1 2 3 4 5 6 
#
# 1 92.2176 47.3424 21.0674 0.0000 0.0000 0.0000
# 2 47.3424 160.8576 53.7842 0.0000 0.0000 0.0000
# 3 21.0674 53.7842 80.3962 0.0000 0.0000 0.0000
# 4 0.0000 0.0000 0.0000 -31.5497 0.0000 0.0000
# 5 0.0000 0.0000 0.0000 0.0000 9.2359 0.0000
# 6 0.0000 0.0000 0.0000 0.0000 0.0000 29.3745
#
#
#
# Elastic Compliance Matrix: (Units=1/GPa)
#
#
# Indices 1 2 3 4 5 6 
#
# 1 0.012846 -0.003420 -0.001078 0.000000 0.000000 0.000000
# 2 -0.003420 0.008919 -0.005070 0.000000 0.000000 0.000000
# 3 -0.001078 -0.005070 0.016113 0.000000 0.000000 0.000000
# 4 0.000000 0.000000 0.000000 -0.031696 0.000000 0.000000
# 5 0.000000 0.000000 0.000000 0.000000 0.108273 0.000000
# 6 0.000000 0.000000 0.000000 0.000000 0.000000 0.034043
#
#
# Mechanical properties :
#
#
# Convention : Reuss Voigt Hill
#
# Bulk Modulus (GPa) = 53.36082 64.20659 58.78371
# Shear Modulus (GPa) = 28.75519 15.49729 22.12624
#
# Velocity S-wave (km/s) = 3.68717 2.70684 3.23436
# Velocity P-wave (km/s) = 6.58449 6.33449 6.46070
#
# Compressibility (1/GPa) = 0.01874034
#
# Stress axis : x y z
#
# Youngs Moduli (GPa) = 77.84450 112.12563 62.06242
#
# Poissons Ratio (x) = 0.38350 0.06691
# Poissons Ratio (y) = 0.26625 0.31467
# Poissons Ratio (z) = 0.08393 0.56849
#
# Static dielectric constant tensor:
#      x y z
#    x 3.856250 0.000000 0.000000 
#    y 0.000000 4.234750 0.000000 
#    z 0.000000 0.000000 3.809170 
# 
# 
# High freq. dielectric constant tensor:
#      x y z
#    x 1.821980 0.000000 0.000000 
#    y 0.000000 1.826570 0.000000 
#    z 0.000000 0.000000 1.806530 
# 
# From -- ./inp_files/2330.got.cif
#   From: 2010.03.12/outbox.cif.g09.slc.cpg/sg47_2_cif.got.tgz:2330.got - 2010.04.14 03:12:58.
