data_PCOD8199299
_publ_section_title
;
Structure prediction by ZEFSAII (Michael W. Deem and Ramdas Pophale) SiO2 
 PCOD8199299
Probable space group: P M M M
;
_chemical_formula_sum "Si O2"
_cell_formula_units_Z 56
_cell_length_a 14.121007
_cell_length_b 13.694439
_cell_length_c 14.513477
_cell_angle_alpha 90.000000
_cell_angle_beta 90.000000
_cell_angle_gamma 90.000000
_cell_volume 2806.605573
_symmetry_space_group_name_H-M "P M M M"
_symmetry_group_IT_number 47
_symmetry_cell_setting 'orthorhombic'
loop_
_space_group_symop_operation_xyz
x,y,z
-x,-y,z
x,-y,-z
-x,y,-z
-x,-y,-z
x,y,-z
-x,y,z
x,-y,z
loop_
_atom_site_type_symbol
_atom_site_label
_atom_site_fract_x
_atom_site_fract_y
_atom_site_fract_z
Si Si1 0.387617 0.890281 0.604037
Si Si2 0.612181 0.712374 0.270297
Si Si3 0.744649 0.390809 0.395243
Si Si4 0.888725 0.893957 0.228615
Si Si5 0.891532 0.229748 0.395816
Si Si6 0.106373 0.280772 0.894591
Si Si7 0.291108 0.612148 0.893729
O O1 0.351891 0.861921 0.500000
O O2 0.500000 0.886832 0.603616
O O3 0.350373 0.814278 0.682466
O O4 0.353113 0.000000 0.629400
O O5 0.500000 0.709313 0.266965
O O6 0.650967 0.626034 0.334852
O O7 0.651101 0.690918 0.167535
O O8 0.715708 0.370706 0.500000
O O9 0.781485 0.500000 0.380208
O O10 0.830161 0.321798 0.362807
O O11 0.865699 0.863441 0.333690
O O12 0.849984 0.811784 0.159647
O O13 0.000000 0.902298 0.213011
O O14 0.841532 0.000000 0.209842
O O15 0.869394 0.198636 0.500000
O O16 0.000000 0.261822 0.382516
O O17 0.178268 0.370847 0.879903
O O18 0.000000 0.309771 0.860207
O O19 0.102421 0.248432 0.000000
O O20 0.313284 0.500000 0.865545
O O21 0.320010 0.630609 0.000000
#
# Coordination Sequence:
#
# PCOD8199299 Si02
#       7
#     8   8   8   8   8   8   8
#     4   8  15  31  57  86 111 136 171 217 269 322
#     4  11  22  36  56  79 106 142 180 217 261 314
#     4  10  21  35  51  75 106 136 171 219 270 319
#     4   9  17  29  47  73 105 140 175 209 248 301
#     4   9  18  33  52  73 100 137 178 216 256 306
#     4   9  18  34  57  82 105 131 166 211 265 320
#     4  10  22  39  57  79 108 140 178 225 269 312
#
# _framework density 19.952928
#
# number of rings (size 3 to 8) (size 9 to 14) (size 15 to 20)
#    0.000    2.571    0.000    2.143    0.000    3.429 
#    0.000   10.000    0.000    6.429    0.000    2.000 
#    0.000    0.000    0.000    0.000    0.000    0.000 
#
# Total GULP energy -694032.505680 kJ/mol
# GULP energy per Si atom -12393.437601 kJ/mol
# Density = 1.990751 g / cm^3
# Si number density = 19.952928 Si / 1000 Ang^3
#
#
#
# Elastic Constant Matrix: (Units=GPa)
#
#
# Indices 1 2 3 4 5 6 
#
# 1 63.6178 29.6131 28.1998 0.0000 0.0000 0.0000
# 2 29.6131 110.8338 52.2304 0.0000 0.0000 0.0000
# 3 28.1998 52.2304 99.8516 0.0000 0.0000 0.0000
# 4 0.0000 0.0000 0.0000 28.8745 0.0000 0.0000
# 5 0.0000 0.0000 0.0000 0.0000 26.5086 0.0000
# 6 0.0000 0.0000 0.0000 0.0000 0.0000 25.7266
#
#
#
# Elastic Compliance Matrix: (Units=1/GPa)
#
#
# Indices 1 2 3 4 5 6 
#
# 1 0.018865 -0.003357 -0.003572 0.000000 0.000000 0.000000
# 2 -0.003357 0.012572 -0.005628 0.000000 0.000000 0.000000
# 3 -0.003572 -0.005628 0.013967 0.000000 0.000000 0.000000
# 4 0.000000 0.000000 0.000000 0.034633 0.000000 0.000000
# 5 0.000000 0.000000 0.000000 0.000000 0.037724 0.000000
# 6 0.000000 0.000000 0.000000 0.000000 0.000000 0.038870
#
#
# Mechanical properties :
#
#
# Convention : Reuss Voigt Hill
#
# Bulk Modulus (GPa) = 49.28445 54.93220 52.10832
# Shear Modulus (GPa) = 26.52419 27.17261 26.84840
#
# Velocity S-wave (km/s) = 3.64996 3.69431 3.67220
# Velocity P-wave (km/s) = 6.52050 6.76667 6.64473
#
# Compressibility (1/GPa) = 0.02029038
#
# Stress axis : x y z
#
# Youngs Moduli (GPa) = 53.00872 79.54413 71.59554
#
# Poissons Ratio (x) = 0.26705 0.25571
# Poissons Ratio (y) = 0.17796 0.40293
# Poissons Ratio (z) = 0.18933 0.44766
#
# Static dielectric constant tensor:
#      x y z
#    x 3.454930 0.000000 0.000000 
#    y 0.000000 3.911640 0.000000 
#    z 0.000000 0.000000 3.767120 
# 
# 
# High freq. dielectric constant tensor:
#      x y z
#    x 1.761370 0.000000 0.000000 
#    y 0.000000 1.771600 0.000000 
#    z 0.000000 0.000000 1.780330 
# 
# From -- ./inp_files/17678.got.cif
#   From: 2010.03.12/outbox.cif.g09.slc.cpg/sg47_9_cif.got.tgz:17678.got - 2010.04.14 03:12:58.
