data_PCOD8199545
_publ_section_title
;
Structure prediction by ZEFSAII (Michael W. Deem and Ramdas Pophale) SiO2 
 PCOD8199545
Probable space group: P M M M
;
_chemical_formula_sum "Si O2"
_cell_formula_units_Z 40
_cell_length_a 20.321243
_cell_length_b 11.797141
_cell_length_c 8.999978
_cell_angle_alpha 90.000000
_cell_angle_beta 90.000000
_cell_angle_gamma 90.000000
_cell_volume 2157.587847
_symmetry_space_group_name_H-M "P M M M"
_symmetry_group_IT_number 47
_symmetry_cell_setting 'orthorhombic'
loop_
_space_group_symop_operation_xyz
x,y,z
-x,-y,z
x,-y,-z
-x,y,-z
-x,-y,-z
x,y,-z
-x,y,z
x,-y,z
loop_
_atom_site_type_symbol
_atom_site_label
_atom_site_fract_x
_atom_site_fract_y
_atom_site_fract_z
Si Si1 0.302792 0.130588 0.825824
Si Si2 0.596826 0.500000 0.676066
Si Si3 0.256076 0.500000 0.324198
Si Si4 0.192368 0.729639 0.676340
Si Si5 0.571675 0.727457 0.170784
Si Si6 0.924399 0.629257 0.826705
O O1 0.236546 0.170001 0.742701
O O2 0.368309 0.195645 0.767398
O O3 0.313955 0.000000 0.786695
O O4 0.292469 0.149701 0.000000
O O5 0.590835 0.500000 0.500000
O O6 0.670678 0.500000 0.736449
O O7 0.563350 0.387466 0.737173
O O8 0.253837 0.500000 0.500000
O O9 0.222234 0.387725 0.262623
O O10 0.191739 0.742131 0.500000
O O11 0.117853 0.724170 0.738055
O O12 0.500000 0.789910 0.185648
O O13 0.585988 0.697367 0.000000
O O14 0.909622 0.500000 0.772456
O O15 0.000000 0.658946 0.794248
O O16 0.908503 0.639670 0.000000
#
# Coordination Sequence:
#
# PCOD8199545 Si02
#       6
#     8   4   4   8   8   8
#     4  10  22  39  57  77 101 136 184 230 274 323
#     4  11  20  34  53  77 111 143 173 211 262 326
#     4   9  18  30  47  76 108 138 171 213 260 311
#     4  11  20  34  55  80 111 143 179 221 267 316
#     4  10  21  36  54  78 107 138 175 221 271 323
#     4   9  18  32  51  80 117 151 180 211 254 312
#
# _framework density 18.539221999999999
#
# number of rings (size 3 to 8) (size 9 to 14) (size 15 to 20)
#    0.000    2.000    3.000    1.800    0.000    2.800 
#    0.000    3.000    0.000    0.600    0.000    7.000 
#    0.000    0.000    0.000    0.000    0.000    0.000 
#
# Total GULP energy -495853.018048 kJ/mol
# GULP energy per Si atom -12396.325451 kJ/mol
# Density = 1.849703 g / cm^3
# Si number density = 18.539222 Si / 1000 Ang^3
#
#
#
# Elastic Constant Matrix: (Units=GPa)
#
#
# Indices 1 2 3 4 5 6 
#
# 1 136.7897 52.8222 47.3566 0.0000 0.0000 0.0000
# 2 52.8222 94.4483 40.8329 0.0000 0.0000 0.0000
# 3 47.3566 40.8329 62.0791 0.0000 0.0000 0.0000
# 4 0.0000 0.0000 0.0000 19.4102 0.0000 0.0000
# 5 0.0000 0.0000 0.0000 0.0000 22.2751 0.0000
# 6 0.0000 0.0000 0.0000 0.0000 0.0000 -0.1368
#
#
#
# Elastic Compliance Matrix: (Units=1/GPa)
#
#
# Indices 1 2 3 4 5 6 
#
# 1 0.010671 -0.003422 -0.005889 0.000000 0.000000 0.000000
# 2 -0.003422 0.015892 -0.007843 0.000000 0.000000 0.000000
# 3 -0.005889 -0.007843 0.025760 0.000000 0.000000 0.000000
# 4 0.000000 0.000000 0.000000 0.051519 0.000000 0.000000
# 5 0.000000 0.000000 0.000000 0.000000 0.044893 0.000000
# 6 0.000000 0.000000 0.000000 0.000000 0.000000 -7.309840
#
#
# Mechanical properties :
#
#
# Convention : Reuss Voigt Hill
#
# Bulk Modulus (GPa) = 55.51032 63.92673 59.71852
# Shear Modulus (GPa) = -0.70217 18.46339 8.88061
#
# Velocity S-wave (km/s) = -0.61609 3.15923 2.19102
# Velocity P-wave (km/s) = 5.43148 6.91841 6.21954
#
# Compressibility (1/GPa) = 0.01801467
#
# Stress axis : x y z
#
# Youngs Moduli (GPa) = 93.71458 62.92396 38.81981
#
# Poissons Ratio (x) = 0.21530 0.22863
# Poissons Ratio (y) = 0.32065 0.30447
# Poissons Ratio (z) = 0.55193 0.49352
#
# Static dielectric constant tensor:
#      x y z
#    x 3.624880 0.000000 0.000000 
#    y 0.000000 3.198040 0.000000 
#    z 0.000000 0.000000 3.173310 
# 
# 
# High freq. dielectric constant tensor:
#      x y z
#    x 1.737110 0.000000 0.000000 
#    y 0.000000 1.686830 0.000000 
#    z 0.000000 0.000000 1.707950 
# 
# From -- ./inp_files/4077.got.cif
#   From: 2010.03.12/outbox.cif.g09.slc.cpg/sg47_3_cif.got.tgz:4077.got - 2010.04.14 03:12:58.
