data_PCOD8199019
_publ_section_title
;
Structure prediction by ZEFSAII (Michael W. Deem and Ramdas Pophale) SiO2 
 PCOD8199019
Probable space group: P M M M
;
_chemical_formula_sum "Si O2"
_cell_formula_units_Z 52
_cell_length_a 14.197255
_cell_length_b 18.349129
_cell_length_c 11.422673
_cell_angle_alpha 90.000000
_cell_angle_beta 90.000000
_cell_angle_gamma 90.000000
_cell_volume 2975.689284
_symmetry_space_group_name_H-M "P M M M"
_symmetry_group_IT_number 47
_symmetry_cell_setting 'orthorhombic'
loop_
_space_group_symop_operation_xyz
x,y,z
-x,-y,z
x,-y,-z
-x,y,-z
-x,-y,-z
x,y,-z
-x,y,z
x,-y,z
loop_
_atom_site_type_symbol
_atom_site_label
_atom_site_fract_x
_atom_site_fract_y
_atom_site_fract_z
Si Si1 0.111401 0.000000 0.126952
Si Si2 0.893810 0.585969 0.634784
Si Si3 0.607226 0.500000 0.861894
Si Si4 0.611244 0.583703 0.500000
Si Si5 0.710925 0.776824 0.137740
Si Si6 0.393952 0.920216 0.861224
Si Si7 0.102573 0.154753 0.138541
Si Si8 0.702899 0.368947 0.265942
O O1 0.137082 0.076170 0.192817
O O2 0.000000 0.000000 0.109209
O O3 0.163060 0.000000 0.000000
O O4 0.876838 0.608686 0.500000
O O5 0.881190 0.500000 0.648224
O O6 0.815969 0.624510 0.716790
O O7 0.000000 0.608870 0.673673
O O8 0.500000 0.500000 0.810335
O O9 0.664278 0.570075 0.820782
O O10 0.603245 0.500000 0.000000
O O11 0.647637 0.500000 0.500000
O O12 0.500000 0.586686 0.500000
O O13 0.650567 0.625486 0.611342
O O14 0.663998 0.851093 0.186744
O O15 0.822343 0.782718 0.165933
O O16 0.673866 0.707930 0.209248
O O17 0.690860 0.765170 0.000000
O O18 0.500000 0.913440 0.813071
O O19 0.352033 0.000000 0.822060
O O20 0.394117 0.916477 0.000000
O O21 0.000000 0.178344 0.188401
O O22 0.095827 0.141732 0.000000
#
# Coordination Sequence:
#
# PCOD8199019 Si02
#       8
#     4   8   4   4   8   8   8   8
#     4   7  10  18  36  60  87 126 173 214 245 278
#     4   9  17  32  56  82 102 128 170 220 272 313
#     4  11  24  39  56  77 106 147 181 206 254 322
#     4  11  22  38  61  83  98 126 172 227 278 310
#     4  10  21  31  46  75 109 145 173 201 253 314
#     4   8  15  29  47  66  93 133 179 220 253 294
#     4   8  14  25  40  63  98 137 174 208 244 292
#     4  12  21  36  56  80 111 136 170 221 265 310
#
# _framework density 17.474943
#
# number of rings (size 3 to 8) (size 9 to 14) (size 15 to 20)
#    0.000    2.538    2.308    2.769    1.077    1.846 
#    0.000    1.538    0.000    1.846    0.000    0.538 
#    0.000    1.846    0.000    4.462    0.000    0.923 
#
# Total GULP energy -644257.745143 kJ/mol
# GULP energy per Si atom -12389.572022 kJ/mol
# Density = 1.743517 g / cm^3
# Si number density = 17.474943 Si / 1000 Ang^3
#
#
#
# Elastic Constant Matrix: (Units=GPa)
#
#
# Indices 1 2 3 4 5 6 
#
# 1 90.6775 51.8847 29.0096 0.0000 0.0000 0.0000
# 2 51.8847 137.0833 40.6618 0.0000 0.0000 0.0000
# 3 29.0096 40.6618 49.7904 0.0000 0.0000 0.0000
# 4 0.0000 0.0000 0.0000 6.5415 0.0000 0.0000
# 5 0.0000 0.0000 0.0000 0.0000 17.0674 0.0000
# 6 0.0000 0.0000 0.0000 0.0000 0.0000 18.4944
#
#
#
# Elastic Compliance Matrix: (Units=1/GPa)
#
#
# Indices 1 2 3 4 5 6 
#
# 1 0.015123 -0.004105 -0.005459 0.000000 0.000000 0.000000
# 2 -0.004105 0.010741 -0.006380 0.000000 0.000000 0.000000
# 3 -0.005459 -0.006380 0.028475 0.000000 0.000000 0.000000
# 4 0.000000 0.000000 0.000000 0.152869 0.000000 0.000000
# 5 0.000000 0.000000 0.000000 0.000000 0.058591 0.000000
# 6 0.000000 0.000000 0.000000 0.000000 0.000000 0.054070
#
#
# Mechanical properties :
#
#
# Convention : Reuss Voigt Hill
#
# Bulk Modulus (GPa) = 44.54059 57.85148 51.19604
# Shear Modulus (GPa) = 13.91820 18.82035 16.36928
#
# Velocity S-wave (km/s) = 2.82523 3.28531 3.06392
# Velocity P-wave (km/s) = 6.01550 6.89698 6.47126
#
# Compressibility (1/GPa) = 0.02245143
#
# Stress axis : x y z
#
# Youngs Moduli (GPa) = 66.12329 93.10203 35.11823
#
# Poissons Ratio (x) = 0.38216 0.19172
# Poissons Ratio (y) = 0.27142 0.22406
# Poissons Ratio (z) = 0.36098 0.59400
#
# Static dielectric constant tensor:
#      x y z
#    x 3.569920 0.000000 0.000000 
#    y 0.000000 3.333840 0.000000 
#    z 0.000000 0.000000 2.763140 
# 
# 
# High freq. dielectric constant tensor:
#      x y z
#    x 1.692770 0.000000 0.000000 
#    y 0.000000 1.674660 0.000000 
#    z 0.000000 0.000000 1.604990 
# 
# From -- ./inp_files/17848.got.cif
#   From: 2010.03.12/outbox.cif.g09.slc.cpg/sg47_9_cif.got.tgz:17848.got - 2010.04.14 03:12:58.
