data_PCOD8199416
_publ_section_title
;
Structure prediction by ZEFSAII (Michael W. Deem and Ramdas Pophale) SiO2 
 PCOD8199416
Probable space group: P M M M
;
_chemical_formula_sum "Si O2"
_cell_formula_units_Z 48
_cell_length_a 8.874821
_cell_length_b 9.341066
_cell_length_c 30.861159
_cell_angle_alpha 90.000000
_cell_angle_beta 90.000000
_cell_angle_gamma 90.000000
_cell_volume 2558.398991
_symmetry_space_group_name_H-M "P M M M"
_symmetry_group_IT_number 47
_symmetry_cell_setting 'orthorhombic'
loop_
_space_group_symop_operation_xyz
x,y,z
-x,-y,z
x,-y,-z
-x,y,-z
-x,-y,-z
x,y,-z
-x,y,z
x,-y,z
loop_
_atom_site_type_symbol
_atom_site_label
_atom_site_fract_x
_atom_site_fract_y
_atom_site_fract_z
Si Si1 0.674607 0.664940 0.666732
Si Si2 0.674587 0.835693 0.831218
Si Si3 0.322681 0.165333 0.500000
Si Si4 0.171932 0.329166 0.906427
Si Si5 0.827590 0.831422 0.257064
Si Si6 0.823152 0.665078 0.577507
Si Si7 0.822046 0.344118 0.000000
O O1 0.500000 0.693294 0.657215
O O2 0.706831 0.500000 0.677692
O O3 0.725878 0.757323 0.707178
O O4 0.767912 0.713738 0.624735
O O5 0.500000 0.814571 0.820143
O O6 0.716690 0.739735 0.872064
O O7 0.769891 0.782812 0.790001
O O8 0.712331 0.000000 0.842258
O O9 0.500000 0.186094 0.500000
O O10 0.257371 0.237598 0.542581
O O11 0.275342 0.000000 0.500000
O O12 0.188354 0.500000 0.905553
O O13 0.221134 0.267920 0.954343
O O14 0.000000 0.284502 0.895826
O O15 0.000000 0.782339 0.262245
O O16 0.808566 0.000000 0.262833
O O17 0.779894 0.500000 0.568795
O O18 0.000000 0.689898 0.574183
O O19 0.744275 0.500000 0.000000
O O20 0.000000 0.365737 0.000000
#
# Coordination Sequence:
#
# PCOD8199416 Si02
#       7
#     8   8   4   8   8   8   4
#     4  10  21  37  58  84 112 142 176 215 261 313
#     4  10  21  36  52  72 102 139 175 212 257 309
#     4  11  24  39  56  82 114 147 184 225 268 314
#     4   9  17  31  53  78 101 129 168 213 259 307
#     4  10  21  37  57  79 103 136 177 218 262 311
#     4  10  21  38  60  84 110 143 182 222 266 315
#     4   7  12  26  48  73 100 128 162 207 256 305
#
# _framework density 18.761733
#
# number of rings (size 3 to 8) (size 9 to 14) (size 15 to 20)
#    0.000    2.333    0.000    3.500    0.000    7.333 
#    0.000    0.833    0.000    4.000    0.000    0.000 
#    0.000    0.000    0.000    0.000    0.000    0.000 
#
# Total GULP energy -595172.391138 kJ/mol
# GULP energy per Si atom -12399.424815 kJ/mol
# Density = 1.871903 g / cm^3
# Si number density = 18.761733 Si / 1000 Ang^3
#
#
#
# Elastic Constant Matrix: (Units=GPa)
#
#
# Indices 1 2 3 4 5 6 
#
# 1 57.4868 33.3752 32.1808 0.0000 0.0000 0.0000
# 2 33.3752 55.1453 56.3830 0.0000 0.0000 0.0000
# 3 32.1808 56.3830 134.7060 0.0000 0.0000 0.0000
# 4 0.0000 0.0000 0.0000 50.4880 0.0000 0.0000
# 5 0.0000 0.0000 0.0000 0.0000 65.5105 0.0000
# 6 0.0000 0.0000 0.0000 0.0000 0.0000 29.4239
#
#
#
# Elastic Compliance Matrix: (Units=1/GPa)
#
#
# Indices 1 2 3 4 5 6 
#
# 1 0.026854 -0.016945 0.000677 0.000000 0.000000 0.000000
# 2 -0.016945 0.042393 -0.013696 0.000000 0.000000 0.000000
# 3 0.000677 -0.013696 0.012994 0.000000 0.000000 0.000000
# 4 0.000000 0.000000 0.000000 0.019807 0.000000 0.000000
# 5 0.000000 0.000000 0.000000 0.000000 0.015265 0.000000
# 6 0.000000 0.000000 0.000000 0.000000 0.000000 0.033986
#
#
# Mechanical properties :
#
#
# Convention : Reuss Voigt Hill
#
# Bulk Modulus (GPa) = 44.81563 54.57955 49.69759
# Shear Modulus (GPa) = 22.86609 37.44442 30.15526
#
# Velocity S-wave (km/s) = 3.49486 4.47227 4.01343
# Velocity P-wave (km/s) = 6.34224 7.47143 6.92987
#
# Compressibility (1/GPa) = 0.02231364
#
# Stress axis : x y z
#
# Youngs Moduli (GPa) = 37.23839 23.58882 76.95605
#
# Poissons Ratio (x) = 0.39972 -0.05212
# Poissons Ratio (y) = 0.63101 1.05399
# Poissons Ratio (z) = -0.02522 0.32307
#
# Static dielectric constant tensor:
#      x y z
#    x 3.446910 0.000000 0.000000 
#    y 0.000000 3.271500 0.000000 
#    z 0.000000 0.000000 3.657500 
# 
# 
# High freq. dielectric constant tensor:
#      x y z
#    x 1.730500 0.000000 0.000000 
#    y 0.000000 1.708670 0.000000 
#    z 0.000000 0.000000 1.746220 
# 
# From -- ./inp_files/34200.got.cif
#   From: 2010.03.12/outbox.cif.g09.slc.cpg/sg47_18_cif.got.tgz:34200.got - 2010.04.14 03:12:58.
