data_PCOD8199661
_publ_section_title
;
Structure prediction by ZEFSAII (Michael W. Deem and Ramdas Pophale) SiO2 
 PCOD8199661
Probable space group: P M M M
;
_chemical_formula_sum "Si O2"
_cell_formula_units_Z 56
_cell_length_a 14.903663
_cell_length_b 9.379086
_cell_length_c 19.977505
_cell_angle_alpha 90.000000
_cell_angle_beta 90.000000
_cell_angle_gamma 90.000000
_cell_volume 2792.510327
_symmetry_space_group_name_H-M "P M M M"
_symmetry_group_IT_number 47
_symmetry_cell_setting 'orthorhombic'
loop_
_space_group_symop_operation_xyz
x,y,z
-x,-y,z
x,-y,-z
-x,y,-z
-x,-y,-z
x,y,-z
-x,y,z
x,-y,z
loop_
_atom_site_type_symbol
_atom_site_label
_atom_site_fract_x
_atom_site_fract_y
_atom_site_fract_z
Si Si1 0.400925 0.169358 0.660368
Si Si2 0.893342 0.339711 0.925851
Si Si3 0.606051 0.156943 0.192816
Si Si4 0.893308 0.839170 0.802318
Si Si5 0.894150 0.665684 0.673039
Si Si6 0.606432 0.658913 0.073234
Si Si7 0.769266 0.166260 0.421657
O O1 0.500000 0.228686 0.639859
O O2 0.372766 0.225889 0.734392
O O3 0.326944 0.218303 0.606910
O O4 0.406953 0.000000 0.664679
O O5 0.860449 0.500000 0.909508
O O6 0.854527 0.231784 0.870193
O O7 0.000000 0.336112 0.924302
O O8 0.859274 0.293753 0.000000
O O9 0.500000 0.146775 0.183541
O O10 0.649732 0.249342 0.133120
O O11 0.649168 0.000000 0.187473
O O12 0.859623 0.746498 0.739435
O O13 0.000000 0.840029 0.804168
O O14 0.855751 0.000000 0.795877
O O15 0.867246 0.500000 0.678090
O O16 0.847907 0.738692 0.609333
O O17 0.000000 0.683808 0.663486
O O18 0.500000 0.655069 0.080386
O O19 0.645467 0.500000 0.079662
O O20 0.632811 0.721932 0.000000
O O21 0.768116 0.195021 0.500000
O O22 0.786529 0.000000 0.405098
#
# Coordination Sequence:
#
# PCOD8199661 Si02
#       7
#     8   8   8   8   8   8   8
#     4   8  15  30  52  78 108 139 170 206 250 301
#     4   8  13  21  34  56  91 134 175 213 254 303
#     4   8  13  22  38  60  87 122 163 202 237 280
#     4   9  16  26  43  68  97 129 169 218 265 308
#     4  10  21  37  56  76 102 139 178 215 260 316
#     4   8  13  20  30  49  82 121 158 200 248 290
#     4  10  21  36  56  83 110 135 167 209 256 307
#
# _framework density 20.053640999999999
#
# number of rings (size 3 to 8) (size 9 to 14) (size 15 to 20)
#    0.000    3.286    0.000    2.571    0.000    4.000 
#    0.000    6.429    0.000    1.286    0.000    2.000 
#    0.000    5.714    0.000    0.571    0.000    0.000 
#
# Total GULP energy -694012.146134 kJ/mol
# GULP energy per Si atom -12393.074038 kJ/mol
# Density = 2.000800 g / cm^3
# Si number density = 20.053641 Si / 1000 Ang^3
#
#
#
# Elastic Constant Matrix: (Units=GPa)
#
#
# Indices 1 2 3 4 5 6 
#
# 1 48.6034 29.5755 39.1925 0.0000 0.0000 0.0000
# 2 29.5755 114.0430 86.4108 0.0000 0.0000 0.0000
# 3 39.1925 86.4108 173.2089 0.0000 0.0000 0.0000
# 4 0.0000 0.0000 0.0000 27.4602 0.0000 0.0000
# 5 0.0000 0.0000 0.0000 0.0000 -25.5955 0.0000
# 6 0.0000 0.0000 0.0000 0.0000 0.0000 6.3112
#
#
#
# Elastic Compliance Matrix: (Units=1/GPa)
#
#
# Indices 1 2 3 4 5 6 
#
# 1 0.026097 -0.003688 -0.004065 0.000000 0.000000 0.000000
# 2 -0.003688 0.014619 -0.006459 0.000000 0.000000 0.000000
# 3 -0.004065 -0.006459 0.009915 0.000000 0.000000 0.000000
# 4 0.000000 0.000000 0.000000 0.036416 0.000000 0.000000
# 5 0.000000 0.000000 0.000000 0.000000 -0.039069 0.000000
# 6 0.000000 0.000000 0.000000 0.000000 0.000000 0.158449
#
#
# Mechanical properties :
#
#
# Convention : Reuss Voigt Hill
#
# Bulk Modulus (GPa) = 45.02920 71.80144 58.41532
# Shear Modulus (GPa) = 20.63967 13.68027 17.15997
#
# Velocity S-wave (km/s) = 3.21163 2.61470 2.92841
# Velocity P-wave (km/s) = 6.02129 6.70805 6.37392
#
# Compressibility (1/GPa) = 0.02220781
#
# Stress axis : x y z
#
# Youngs Moduli (GPa) = 38.31890 68.40586 100.85393
#
# Poissons Ratio (x) = 0.25225 0.41001
# Poissons Ratio (y) = 0.14130 0.65137
# Poissons Ratio (z) = 0.15578 0.44181
#
# Static dielectric constant tensor:
#      x y z
#    x 3.338410 0.000000 0.000000 
#    y 0.000000 3.681740 0.000000 
#    z 0.000000 0.000000 3.845560 
# 
# 
# High freq. dielectric constant tensor:
#      x y z
#    x 1.757980 0.000000 0.000000 
#    y 0.000000 1.757370 0.000000 
#    z 0.000000 0.000000 1.787410 
# 
# From -- ./inp_files/30980.got.cif
#   From: 2010.03.12/outbox.cif.g09.slc.cpg/sg47_16_cif.got.tgz:30980.got - 2010.04.14 03:12:58.
