data_PCOD8199619
_publ_section_title
;
Structure prediction by ZEFSAII (Michael W. Deem and Ramdas Pophale) SiO2 
 PCOD8199619
Probable space group: P M M M
;
_chemical_formula_sum "Si O2"
_cell_formula_units_Z 64
_cell_length_a 13.788370
_cell_length_b 28.245472
_cell_length_c 9.049637
_cell_angle_alpha 90.000000
_cell_angle_beta 90.000000
_cell_angle_gamma 90.000000
_cell_volume 3524.462746
_symmetry_space_group_name_H-M "P M M M"
_symmetry_group_IT_number 47
_symmetry_cell_setting 'orthorhombic'
loop_
_space_group_symop_operation_xyz
x,y,z
-x,-y,z
x,-y,-z
-x,y,-z
-x,-y,-z
x,y,-z
-x,y,z
x,-y,z
loop_
_atom_site_type_symbol
_atom_site_label
_atom_site_fract_x
_atom_site_fract_y
_atom_site_fract_z
Si Si1 0.790650 0.364064 0.830603
Si Si2 0.714564 0.221116 0.675382
Si Si3 0.295061 0.055190 0.328161
Si Si4 0.106265 0.943877 0.834725
Si Si5 0.108729 0.553025 0.325567
Si Si6 0.111082 0.267323 0.173155
Si Si7 0.609740 0.695276 0.829812
Si Si8 0.388746 0.136626 0.828926
O O1 0.813747 0.410464 0.737684
O O2 0.860843 0.320971 0.783480
O O3 0.679181 0.349486 0.798656
O O4 0.807343 0.377222 0.000000
O O5 0.716866 0.219771 0.500000
O O6 0.822470 0.231090 0.735979
O O7 0.639000 0.260876 0.728117
O O8 0.680260 0.170919 0.736374
O O9 0.308066 0.065828 0.500000
O O10 0.188200 0.073378 0.279043
O O11 0.374980 0.083792 0.235342
O O12 0.309928 0.000000 0.291810
O O13 0.000000 0.924393 0.785705
O O14 0.102682 0.000000 0.835700
O O15 0.131014 0.925440 0.000000
O O16 0.112141 0.556303 0.500000
O O17 0.136818 0.500000 0.273787
O O18 0.000000 0.565297 0.269435
O O19 0.000000 0.258027 0.216608
O O20 0.130334 0.259257 0.000000
O O21 0.500000 0.679799 0.794096
O O22 0.621655 0.711768 0.000000
O O23 0.500000 0.151951 0.808223
O O24 0.358874 0.137880 0.000000
#
# Coordination Sequence:
#
# PCOD8199619 Si02
#       8
#     8   8   8   8   8   8   8   8
#     4   9  17  29  48  75 101 128 169 217 260 300
#     4  11  22  35  54  81 110 135 164 207 255 302
#     4  10  21  36  55  81 111 138 165 205 255 301
#     4   8  14  27  49  75 102 133 167 200 234 277
#     4   9  18  31  45  64  95 135 174 211 256 311
#     4   9  18  34  55  78 108 144 176 207 248 303
#     4   9  18  34  54  74 100 134 170 209 254 306
#     4  11  24  41  60  78  99 133 174 212 251 299
#
# _framework density 18.158797
#
# number of rings (size 3 to 8) (size 9 to 14) (size 15 to 20)
#    0.000    2.500    0.000    4.125    0.000    7.250 
#    0.000    3.750    0.000    4.125    0.000    2.625 
#    0.000    0.000    0.000    0.000    0.000    0.000 
#
# Total GULP energy -793558.313425 kJ/mol
# GULP energy per Si atom -12399.348647 kJ/mol
# Density = 1.811747 g / cm^3
# Si number density = 18.158797 Si / 1000 Ang^3
#
#
#
# Elastic Constant Matrix: (Units=GPa)
#
#
# Indices 1 2 3 4 5 6 
#
# 1 122.5693 53.9013 53.8723 0.0000 0.0000 0.0000
# 2 53.9013 91.5590 51.8597 0.0000 0.0000 0.0000
# 3 53.8723 51.8597 95.0952 0.0000 0.0000 0.0000
# 4 0.0000 0.0000 0.0000 31.4889 0.0000 0.0000
# 5 0.0000 0.0000 0.0000 0.0000 19.4468 0.0000
# 6 0.0000 0.0000 0.0000 0.0000 0.0000 25.0557
#
#
#
# Elastic Compliance Matrix: (Units=1/GPa)
#
#
# Indices 1 2 3 4 5 6 
#
# 1 0.012114 -0.004695 -0.004303 0.000000 0.000000 0.000000
# 2 -0.004695 0.017623 -0.006951 0.000000 0.000000 0.000000
# 3 -0.004303 -0.006951 0.016744 0.000000 0.000000 0.000000
# 4 0.000000 0.000000 0.000000 0.031757 0.000000 0.000000
# 5 0.000000 0.000000 0.000000 0.000000 0.051422 0.000000
# 6 0.000000 0.000000 0.000000 0.000000 0.000000 0.039911
#
#
# Mechanical properties :
#
#
# Convention : Reuss Voigt Hill
#
# Bulk Modulus (GPa) = 68.56595 69.83222 69.19908
# Shear Modulus (GPa) = 24.23309 25.17097 24.70203
#
# Velocity S-wave (km/s) = 3.65706 3.72715 3.69227
# Velocity P-wave (km/s) = 7.46144 7.55395 7.50784
#
# Compressibility (1/GPa) = 0.01458450
#
# Stress axis : x y z
#
# Youngs Moduli (GPa) = 82.54684 56.74486 59.72333
#
# Poissons Ratio (x) = 0.26640 0.25697
# Poissons Ratio (y) = 0.38753 0.41513
# Poissons Ratio (z) = 0.35517 0.39443
#
# Static dielectric constant tensor:
#      x y z
#    x 3.539040 0.000000 0.000000 
#    y 0.000000 3.165320 0.000000 
#    z 0.000000 0.000000 3.275570 
# 
# 
# High freq. dielectric constant tensor:
#      x y z
#    x 1.705420 0.000000 0.000000 
#    y 0.000000 1.682950 0.000000 
#    z 0.000000 0.000000 1.699970 
# 
# From -- ./inp_files/7851.got.cif
#   From: 2010.03.12/outbox.cif.g09.slc.cpg/sg47_4_cif.got.tgz:7851.got - 2010.04.14 03:12:58.
