data_PCOD8199897
_publ_section_title
;
Structure prediction by ZEFSAII (Michael W. Deem and Ramdas Pophale) SiO2 
 PCOD8199897
Probable space group: P M M M
;
_chemical_formula_sum "Si O2"
_cell_formula_units_Z 36
_cell_length_a 9.142604
_cell_length_b 14.315772
_cell_length_c 13.244078
_cell_angle_alpha 90.000000
_cell_angle_beta 90.000000
_cell_angle_gamma 90.000000
_cell_volume 1733.430413
_symmetry_space_group_name_H-M "P M M M"
_symmetry_group_IT_number 47
_symmetry_cell_setting 'orthorhombic'
loop_
_space_group_symop_operation_xyz
x,y,z
-x,-y,z
x,-y,-z
-x,y,-z
-x,-y,-z
x,y,-z
-x,y,z
x,-y,z
loop_
_atom_site_type_symbol
_atom_site_label
_atom_site_fract_x
_atom_site_fract_y
_atom_site_fract_z
Si Si1 0.663936 0.889143 0.110362
Si Si2 0.331238 0.728438 0.386908
Si Si3 0.829133 0.891963 0.304759
Si Si4 0.162079 0.611225 0.000000
Si Si5 0.827151 0.391604 0.781159
O O1 0.500000 0.855653 0.138916
O O2 0.778884 0.854986 0.194164
O O3 0.667341 0.000000 0.104667
O O4 0.709036 0.848419 0.000000
O O5 0.312888 0.687641 0.500000
O O6 0.500000 0.737877 0.357317
O O7 0.257584 0.831122 0.386427
O O8 0.252832 0.661982 0.307717
O O9 0.000000 0.874190 0.315902
O O10 0.788374 0.000000 0.321949
O O11 0.235885 0.641263 0.892484
O O12 0.150863 0.500000 0.000000
O O13 0.000000 0.653704 0.000000
O O14 0.792951 0.500000 0.764561
O O15 0.000000 0.372095 0.775134
#
# Coordination Sequence:
#
# PCOD8199897 Si02
#       5
#     8   8   8   4   8
#     4   8  14  27  49  76 107 143 180 221 274 337
#     4  11  25  42  58  80 114 156 201 246 292 349
#     4  10  21  37  58  83 110 144 191 247 301 350
#     4   7  12  28  57  91 122 149 180 223 277 338
#     4   9  18  36  64  94 122 153 189 232 286 346
#
# _framework density 20.768066999999999
#
# number of rings (size 3 to 8) (size 9 to 14) (size 15 to 20)
#    0.000    2.778    0.000    3.333    0.000    4.889 
#    2.000    7.222    0.000    2.000    0.000    0.000 
#    0.000    0.000    0.000    0.000    0.000    0.000 
#
# Total GULP energy -446092.911899 kJ/mol
# GULP energy per Si atom -12391.469775 kJ/mol
# Density = 2.072080 g / cm^3
# Si number density = 20.768067 Si / 1000 Ang^3
#
#
#
# Elastic Constant Matrix: (Units=GPa)
#
#
# Indices 1 2 3 4 5 6 
#
# 1 90.0167 46.3870 60.9041 0.0000 0.0000 0.0000
# 2 46.3870 59.6624 59.5782 0.0000 0.0000 0.0000
# 3 60.9041 59.5782 153.1939 0.0000 0.0000 0.0000
# 4 0.0000 0.0000 0.0000 31.5262 0.0000 0.0000
# 5 0.0000 0.0000 0.0000 0.0000 35.4092 0.0000
# 6 0.0000 0.0000 0.0000 0.0000 0.0000 19.4886
#
#
#
# Elastic Compliance Matrix: (Units=1/GPa)
#
#
# Indices 1 2 3 4 5 6 
#
# 1 0.019349 -0.012037 -0.003011 0.000000 0.000000 0.000000
# 2 -0.012037 0.034891 -0.008784 0.000000 0.000000 0.000000
# 3 -0.003011 -0.008784 0.011141 0.000000 0.000000 0.000000
# 4 0.000000 0.000000 0.000000 0.031720 0.000000 0.000000
# 5 0.000000 0.000000 0.000000 0.000000 0.028241 0.000000
# 6 0.000000 0.000000 0.000000 0.000000 0.000000 0.051312
#
#
# Mechanical properties :
#
#
# Convention : Reuss Voigt Hill
#
# Bulk Modulus (GPa) = 56.44269 70.73462 63.58866
# Shear Modulus (GPa) = 21.71795 26.35170 24.03483
#
# Velocity S-wave (km/s) = 3.23729 3.56597 3.40560
# Velocity P-wave (km/s) = 6.41951 7.14759 6.79331
#
# Compressibility (1/GPa) = 0.01771709
#
# Stress axis : x y z
#
# Youngs Moduli (GPa) = 51.68176 28.66059 89.75820
#
# Poissons Ratio (x) = 0.34498 0.27029
# Poissons Ratio (y) = 0.62208 0.78844
# Poissons Ratio (z) = 0.15563 0.25176
#
# Static dielectric constant tensor:
#      x y z
#    x 3.563490 0.000000 0.000000 
#    y 0.000000 3.567910 0.000000 
#    z 0.000000 0.000000 4.195300 
# 
# 
# High freq. dielectric constant tensor:
#      x y z
#    x 1.794230 0.000000 0.000000 
#    y 0.000000 1.796930 0.000000 
#    z 0.000000 0.000000 1.824650 
# 
# From -- ./inp_files/8658.got.cif
#   From: 2010.03.12/outbox.cif.g09.slc.cpg/sg47_5_cif.got.tgz:8658.got - 2010.04.14 03:12:58.
