data_PCOD8199009
_publ_section_title
;
Structure prediction by ZEFSAII (Michael W. Deem and Ramdas Pophale) SiO2 
 PCOD8199009
Probable space group: P M M M
;
_chemical_formula_sum "Si O2"
_cell_formula_units_Z 56
_cell_length_a 22.056878
_cell_length_b 14.829165
_cell_length_c 9.082258
_cell_angle_alpha 90.000000
_cell_angle_beta 90.000000
_cell_angle_gamma 90.000000
_cell_volume 2970.671114
_symmetry_space_group_name_H-M "P M M M"
_symmetry_group_IT_number 47
_symmetry_cell_setting 'orthorhombic'
loop_
_space_group_symop_operation_xyz
x,y,z
-x,-y,z
x,-y,-z
-x,y,-z
-x,-y,-z
x,y,-z
-x,y,z
x,-y,z
loop_
_atom_site_type_symbol
_atom_site_label
_atom_site_fract_x
_atom_site_fract_y
_atom_site_fract_z
Si Si1 0.653156 0.634826 0.667005
Si Si2 0.500000 0.104372 0.826495
Si Si3 0.837122 0.771765 0.174536
Si Si4 0.430564 0.500000 0.825929
Si Si5 0.381228 0.160068 0.332736
Si Si6 0.210656 0.397890 0.671758
Si Si7 0.070979 0.897866 0.330724
Si Si8 0.730258 0.099659 0.833115
O O1 0.646076 0.599675 0.500000
O O2 0.602373 0.588705 0.766330
O O3 0.644297 0.740247 0.678139
O O4 0.719944 0.610545 0.726887
O O5 0.558113 0.153107 0.760607
O O6 0.500000 0.000000 0.781334
O O7 0.500000 0.117918 0.000000
O O8 0.832470 0.671118 0.240486
O O9 0.896223 0.823147 0.232185
O O10 0.778655 0.828663 0.227276
O O11 0.841361 0.765231 0.000000
O O12 0.500000 0.500000 0.771150
O O13 0.426956 0.500000 0.000000
O O14 0.394580 0.130833 0.500000
O O15 0.329730 0.096461 0.265749
O O16 0.206843 0.373303 0.500000
O O17 0.187893 0.500000 0.701898
O O18 0.090103 0.884196 0.500000
O O19 0.000000 0.881630 0.310310
O O20 0.087793 0.000000 0.280733
O O21 0.759761 0.000000 0.825889
O O22 0.711480 0.124206 0.000000
#
# Coordination Sequence:
#
# PCOD8199009 Si02
#       8
#     8   4   8   4   8   8   8   8
#     4  10  21  39  59  80 107 140 179 228 286 341
#     4  11  25  43  59  74 101 142 181 223 280 343
#     4  11  22  35  56  88 124 157 193 239 291 346
#     4  11  25  39  55  83 111 139 180 227 282 351
#     4  11  23  38  58  82 105 135 182 234 279 330
#     4  10  20  38  61  83 111 149 193 239 289 347
#     4   9  19  37  61  89 123 165 209 247 284 333
#     4  10  21  36  53  78 115 153 185 223 279 340
#
# _framework density 18.850959
#
# number of rings (size 3 to 8) (size 9 to 14) (size 15 to 20)
#    0.000    1.714    2.143    2.571    1.000    6.857 
#    0.000    0.714    0.000    0.429    0.000    3.000 
#    0.000    0.000    0.000    0.000    0.000    0.000 
#
# Total GULP energy -694566.209017 kJ/mol
# GULP energy per Si atom -12402.968018 kJ/mol
# Density = 1.880805 g / cm^3
# Si number density = 18.850959 Si / 1000 Ang^3
#
#
#
# Elastic Constant Matrix: (Units=GPa)
#
#
# Indices 1 2 3 4 5 6 
#
# 1 82.9945 43.9209 41.7668 0.0000 0.0000 0.0000
# 2 43.9209 110.9381 45.1255 0.0000 0.0000 0.0000
# 3 41.7668 45.1255 79.2139 0.0000 0.0000 0.0000
# 4 0.0000 0.0000 0.0000 27.6450 0.0000 0.0000
# 5 0.0000 0.0000 0.0000 0.0000 24.6212 0.0000
# 6 0.0000 0.0000 0.0000 0.0000 0.0000 30.2916
#
#
#
# Elastic Compliance Matrix: (Units=1/GPa)
#
#
# Indices 1 2 3 4 5 6 
#
# 1 0.017788 -0.004201 -0.006986 0.000000 0.000000 0.000000
# 2 -0.004201 0.012725 -0.005034 0.000000 0.000000 0.000000
# 3 -0.006986 -0.005034 0.019175 0.000000 0.000000 0.000000
# 4 0.000000 0.000000 0.000000 0.036173 0.000000 0.000000
# 5 0.000000 0.000000 0.000000 0.000000 0.040615 0.000000
# 6 0.000000 0.000000 0.000000 0.000000 0.000000 0.033012
#
#
# Mechanical properties :
#
#
# Convention : Reuss Voigt Hill
#
# Bulk Modulus (GPa) = 57.98266 59.41921 58.70094
# Shear Modulus (GPa) = 25.29368 26.00045 25.64706
#
# Velocity S-wave (km/s) = 3.66699 3.71787 3.69252
# Velocity P-wave (km/s) = 6.98243 7.07242 7.02757
#
# Compressibility (1/GPa) = 0.01724654
#
# Stress axis : x y z
#
# Youngs Moduli (GPa) = 56.21912 78.58718 52.15089
#
# Poissons Ratio (x) = 0.33011 0.36432
# Poissons Ratio (y) = 0.23615 0.26253
# Poissons Ratio (z) = 0.39274 0.39561
#
# Static dielectric constant tensor:
#      x y z
#    x 3.280750 0.000000 0.000000 
#    y 0.000000 3.487780 0.000000 
#    z 0.000000 0.000000 3.457930 
# 
# 
# High freq. dielectric constant tensor:
#      x y z
#    x 1.716630 0.000000 0.000000 
#    y 0.000000 1.740420 0.000000 
#    z 0.000000 0.000000 1.732560 
# 
# From -- ./inp_files/11374.got.cif
#   From: 2010.03.12/outbox.cif.g09.slc.cpg/sg47_6_cif.got.tgz:11374.got - 2010.04.14 03:12:58.
