data_PCOD8199905
_publ_section_title
;
Structure prediction by ZEFSAII (Michael W. Deem and Ramdas Pophale) SiO2 
 PCOD8199905
Probable space group: P M M M
;
_chemical_formula_sum "Si O2"
_cell_formula_units_Z 48
_cell_length_a 8.904798
_cell_length_b 9.002918
_cell_length_c 30.618399
_cell_angle_alpha 90.000000
_cell_angle_beta 90.000000
_cell_angle_gamma 90.000000
_cell_volume 2454.651518
_symmetry_space_group_name_H-M "P M M M"
_symmetry_group_IT_number 47
_symmetry_cell_setting 'orthorhombic'
loop_
_space_group_symop_operation_xyz
x,y,z
-x,-y,z
x,-y,-z
-x,y,-z
-x,-y,-z
x,y,-z
-x,y,z
x,-y,z
loop_
_atom_site_type_symbol
_atom_site_label
_atom_site_fract_x
_atom_site_fract_y
_atom_site_fract_z
Si Si1 0.673857 0.674070 0.581339
Si Si2 0.322648 0.667996 0.000000
Si Si3 0.325889 0.829765 0.248446
Si Si4 0.827681 0.673521 0.830118
Si Si5 0.825105 0.172711 0.919317
Si Si6 0.825159 0.827649 0.338763
Si Si7 0.822560 0.830478 0.500000
O O1 0.500000 0.715528 0.577142
O O2 0.701244 0.500000 0.577250
O O3 0.733854 0.728270 0.627646
O O4 0.762745 0.752963 0.543044
O O5 0.267104 0.750791 0.957237
O O6 0.260395 0.500000 0.000000
O O7 0.500000 0.670064 0.000000
O O8 0.500000 0.803881 0.259072
O O9 0.277108 0.724429 0.209229
O O10 0.230366 0.784590 0.290690
O O11 0.293474 0.000000 0.235302
O O12 0.805683 0.500000 0.838166
O O13 0.774420 0.757759 0.873477
O O14 0.000000 0.713342 0.818981
O O15 0.000000 0.201260 0.928085
O O16 0.785467 0.000000 0.918518
O O17 0.000000 0.789870 0.342606
O O18 0.793080 0.000000 0.348890
O O19 0.000000 0.818489 0.500000
O O20 0.768128 0.000000 0.500000
#
# Coordination Sequence:
#
# PCOD8199905 Si02
#       7
#     8   4   8   8   8   8   4
#     4  11  24  40  59  86 119 153 190 233 283 338
#     4  11  24  39  56  82 116 151 186 227 278 334
#     4  10  21  37  58  84 114 150 190 232 281 335
#     4  10  21  37  58  84 113 147 187 231 281 335
#     4  10  21  38  61  86 111 144 188 234 280 333
#     4  10  21  38  61  87 114 148 192 238 283 335
#     4  11  24  41  62  88 116 149 192 237 282 336
#
# _framework density 19.554711000000001
#
# number of rings (size 3 to 8) (size 9 to 14) (size 15 to 20)
#    0.000    1.667    0.000    4.000    0.000   12.000 
#    0.000    0.000    0.000    0.000    0.000    0.000 
#    0.000    0.000    0.000    0.000    0.000    0.000 
#
# Total GULP energy -595515.367319 kJ/mol
# GULP energy per Si atom -12406.570152 kJ/mol
# Density = 1.951020 g / cm^3
# Si number density = 19.554711 Si / 1000 Ang^3
#
#
#
# Elastic Constant Matrix: (Units=GPa)
#
#
# Indices 1 2 3 4 5 6 
#
# 1 54.9631 49.9428 33.5165 0.0000 0.0000 0.0000
# 2 49.9428 104.5739 61.9667 0.0000 0.0000 0.0000
# 3 33.5165 61.9667 118.0731 0.0000 0.0000 0.0000
# 4 0.0000 0.0000 0.0000 44.6860 0.0000 0.0000
# 5 0.0000 0.0000 0.0000 0.0000 31.6794 0.0000
# 6 0.0000 0.0000 0.0000 0.0000 0.0000 31.9548
#
#
#
# Elastic Compliance Matrix: (Units=1/GPa)
#
#
# Indices 1 2 3 4 5 6 
#
# 1 0.032339 -0.014521 -0.001559 0.000000 0.000000 0.000000
# 2 -0.014521 0.020399 -0.006584 0.000000 0.000000 0.000000
# 3 -0.001559 -0.006584 0.012367 0.000000 0.000000 0.000000
# 4 0.000000 0.000000 0.000000 0.022378 0.000000 0.000000
# 5 0.000000 0.000000 0.000000 0.000000 0.031566 0.000000
# 6 0.000000 0.000000 0.000000 0.000000 0.000000 0.031294
#
#
# Mechanical properties :
#
#
# Convention : Reuss Voigt Hill
#
# Bulk Modulus (GPa) = 50.56150 63.16246 56.86198
# Shear Modulus (GPa) = 24.72016 30.47632 27.59824
#
# Velocity S-wave (km/s) = 3.55935 3.95209 3.76085
# Velocity P-wave (km/s) = 6.54252 7.29355 6.92822
#
# Compressibility (1/GPa) = 0.01977790
#
# Stress axis : x y z
#
# Youngs Moduli (GPa) = 30.92212 49.02252 80.85937
#
# Poissons Ratio (x) = 0.71185 0.12607
# Poissons Ratio (y) = 0.44901 0.53235
# Poissons Ratio (z) = 0.04821 0.32275
#
# Static dielectric constant tensor:
#      x y z
#    x 3.627030 0.000000 0.000000 
#    y 0.000000 3.682530 0.000000 
#    z 0.000000 0.000000 3.473800 
# 
# 
# High freq. dielectric constant tensor:
#      x y z
#    x 1.767300 0.000000 0.000000 
#    y 0.000000 1.769960 0.000000 
#    z 0.000000 0.000000 1.776440 
# 
# From -- ./inp_files/34174.got.cif
#   From: 2010.03.12/outbox.cif.g09.slc.cpg/sg47_18_cif.got.tgz:34174.got - 2010.04.14 03:12:58.
