data_PCOD8199859
_publ_section_title
;
Structure prediction by ZEFSAII (Michael W. Deem and Ramdas Pophale) SiO2 
 PCOD8199859
Probable space group: P M M M
;
_chemical_formula_sum "Si O2"
_cell_formula_units_Z 56
_cell_length_a 8.956777
_cell_length_b 23.021696
_cell_length_c 14.414993
_cell_angle_alpha 90.000000
_cell_angle_beta 90.000000
_cell_angle_gamma 90.000000
_cell_volume 2972.374400
_symmetry_space_group_name_H-M "P M M M"
_symmetry_group_IT_number 47
_symmetry_cell_setting 'orthorhombic'
loop_
_space_group_symop_operation_xyz
x,y,z
-x,-y,z
x,-y,-z
-x,y,-z
-x,-y,-z
x,y,-z
-x,y,z
x,-y,z
loop_
_atom_site_type_symbol
_atom_site_label
_atom_site_fract_x
_atom_site_fract_y
_atom_site_fract_z
Si Si1 0.827741 0.567783 0.894734
Si Si2 0.171034 0.934328 0.277571
Si Si3 0.675612 0.760861 0.898079
Si Si4 0.671864 0.164153 0.391902
Si Si5 0.326166 0.891924 0.893427
Si Si6 0.323047 0.340906 0.768844
Si Si7 0.824472 0.716390 0.606739
O O1 0.800931 0.500000 0.878433
O O2 0.726138 0.600558 0.820134
O O3 0.000000 0.583975 0.878298
O O4 0.780700 0.584623 0.000000
O O5 0.269876 0.892504 0.340200
O O6 0.227317 0.932985 0.171273
O O7 0.000000 0.914178 0.282387
O O8 0.188931 0.000000 0.314525
O O9 0.500000 0.752336 0.906352
O O10 0.711027 0.825751 0.863342
O O11 0.740857 0.713672 0.827528
O O12 0.747112 0.750799 0.000000
O O13 0.694409 0.152251 0.500000
O O14 0.500000 0.174151 0.365089
O O15 0.759791 0.221589 0.360679
O O16 0.500000 0.905744 0.878446
O O17 0.281612 0.902936 0.000000
O O18 0.500000 0.340789 0.757884
O O19 0.249012 0.335201 0.667285
O O20 0.782208 0.704075 0.500000
O O21 0.000000 0.717027 0.622378
#
# Coordination Sequence:
#
# PCOD8199859 Si02
#       7
#     8   8   8   8   8   8   8
#     4   9  19  36  55  76 109 154 197 232 267 312
#     4  11  24  38  52  73 102 137 176 217 262 317
#     4   8  15  28  46  72 104 132 160 200 254 312
#     4  10  21  38  60  83 106 133 168 214 268 322
#     4   9  18  34  55  75  98 133 175 217 261 311
#     4  11  20  30  52  83 112 143 180 224 270 315
#     4  10  21  37  57  81 110 143 177 214 260 318
#
# _framework density 18.840154999999999
#
# number of rings (size 3 to 8) (size 9 to 14) (size 15 to 20)
#    0.000    2.286    0.000    4.286    0.000    6.000 
#    0.000    4.286    0.000    2.143    0.000    3.000 
#    0.000    0.000    0.000    0.000    0.000    0.000 
#
# Total GULP energy -694460.481128 kJ/mol
# GULP energy per Si atom -12401.080020 kJ/mol
# Density = 1.879727 g / cm^3
# Si number density = 18.840155 Si / 1000 Ang^3
#
#
#
# Elastic Constant Matrix: (Units=GPa)
#
#
# Indices 1 2 3 4 5 6 
#
# 1 80.9935 38.9584 50.4811 0.0000 0.0000 0.0000
# 2 38.9584 73.1133 48.6446 0.0000 0.0000 0.0000
# 3 50.4811 48.6446 88.8264 0.0000 0.0000 0.0000
# 4 0.0000 0.0000 0.0000 27.3414 0.0000 0.0000
# 5 0.0000 0.0000 0.0000 0.0000 28.4232 0.0000
# 6 0.0000 0.0000 0.0000 0.0000 0.0000 30.1078
#
#
#
# Elastic Compliance Matrix: (Units=1/GPa)
#
#
# Indices 1 2 3 4 5 6 
#
# 1 0.020181 -0.004913 -0.008779 0.000000 0.000000 0.000000
# 2 -0.004913 0.022713 -0.009647 0.000000 0.000000 0.000000
# 3 -0.008779 -0.009647 0.021530 0.000000 0.000000 0.000000
# 4 0.000000 0.000000 0.000000 0.036575 0.000000 0.000000
# 5 0.000000 0.000000 0.000000 0.000000 0.035183 0.000000
# 6 0.000000 0.000000 0.000000 0.000000 0.000000 0.033214
#
#
# Mechanical properties :
#
#
# Convention : Reuss Voigt Hill
#
# Bulk Modulus (GPa) = 56.34439 57.67794 57.01117
# Shear Modulus (GPa) = 22.52367 24.16443 23.34405
#
# Velocity S-wave (km/s) = 3.46137 3.58523 3.52384
# Velocity P-wave (km/s) = 6.77837 6.91515 6.84710
#
# Compressibility (1/GPa) = 0.01774799
#
# Stress axis : x y z
#
# Youngs Moduli (GPa) = 49.55060 44.02676 46.44688
#
# Poissons Ratio (x) = 0.21629 0.40775
# Poissons Ratio (y) = 0.24343 0.44806
# Poissons Ratio (z) = 0.43500 0.42471
#
# Static dielectric constant tensor:
#      x y z
#    x 3.306290 0.000000 0.000000 
#    y 0.000000 3.312000 0.000000 
#    z 0.000000 0.000000 3.613180 
# 
# 
# High freq. dielectric constant tensor:
#      x y z
#    x 1.723190 0.000000 0.000000 
#    y 0.000000 1.716650 0.000000 
#    z 0.000000 0.000000 1.737180 
# 
# From -- ./inp_files/7284.got.cif
#   From: 2010.03.12/outbox.cif.g09.slc.cpg/sg47_4_cif.got.tgz:7284.got - 2010.04.14 03:12:58.
