data_PCOD8199698
_publ_section_title
;
Structure prediction by ZEFSAII (Michael W. Deem and Ramdas Pophale) SiO2 
 PCOD8199698
Probable space group: P M M M
;
_chemical_formula_sum "Si O2"
_cell_formula_units_Z 44
_cell_length_a 17.372414
_cell_length_b 13.656913
_cell_length_c 9.479131
_cell_angle_alpha 90.000000
_cell_angle_beta 90.000000
_cell_angle_gamma 90.000000
_cell_volume 2248.957448
_symmetry_space_group_name_H-M "P M M M"
_symmetry_group_IT_number 47
_symmetry_cell_setting 'orthorhombic'
loop_
_space_group_symop_operation_xyz
x,y,z
-x,-y,z
x,-y,-z
-x,y,-z
-x,-y,-z
x,y,-z
-x,y,z
x,-y,z
loop_
_atom_site_type_symbol
_atom_site_label
_atom_site_fract_x
_atom_site_fract_y
_atom_site_fract_z
Si Si1 0.645720 0.384179 0.838577
Si Si2 0.308287 0.114526 0.254470
Si Si3 0.500000 0.616495 0.662005
Si Si4 0.089469 0.613370 0.160629
Si Si5 0.217371 0.289582 0.669320
Si Si6 0.583133 0.114839 0.500000
Si Si7 0.412212 0.883381 0.000000
O O1 0.642954 0.500000 0.848825
O O2 0.573668 0.343943 0.748484
O O3 0.721463 0.356080 0.751309
O O4 0.644573 0.341560 0.000000
O O5 0.230844 0.176212 0.282873
O O6 0.368373 0.148097 0.369504
O O7 0.286119 0.000000 0.250703
O O8 0.358209 0.152660 0.125098
O O9 0.500000 0.500000 0.658830
O O10 0.500000 0.656048 0.500000
O O11 0.106466 0.500000 0.193082
O O12 0.133724 0.679995 0.274002
O O13 0.000000 0.636951 0.179738
O O14 0.115300 0.637754 0.000000
O O15 0.221752 0.302971 0.500000
O O16 0.500000 0.167464 0.500000
O O17 0.570279 0.000000 0.500000
O O18 0.500000 0.840192 0.000000
O O19 0.419895 0.000000 0.000000
#
# Coordination Sequence:
#
# PCOD8199698 Si02
#       7
#     8   8   4   8   8   4   4
#     4  10  21  37  55  75 105 148 191 233 281 337
#     4  10  21  37  54  79 114 153 196 242 293 343
#     4   9  17  33  55  75 102 141 188 239 285 330
#     4   9  20  41  68  94 119 147 179 222 281 349
#     4  12  24  36  55  87 117 149 188 232 283 338
#     4   9  16  32  56  74 100 149 200 244 290 337
#     4   9  18  34  56  80 106 143 198 260 308 339
#
# _framework density 19.564620000000001
#
# number of rings (size 3 to 8) (size 9 to 14) (size 15 to 20)
#    0.000    2.091    0.909    3.000    2.545    7.273 
#    3.273    0.909    0.000    0.545    0.000    2.545 
#    0.000    0.000    0.000    0.000    0.000    0.000 
#
# Total GULP energy -545229.399309 kJ/mol
# GULP energy per Si atom -12391.577257 kJ/mol
# Density = 1.952009 g / cm^3
# Si number density = 19.564620 Si / 1000 Ang^3
#
#
#
# Elastic Constant Matrix: (Units=GPa)
#
#
# Indices 1 2 3 4 5 6 
#
# 1 106.3178 41.9175 67.1326 0.0000 0.0000 0.0000
# 2 41.9175 64.2178 42.1162 0.0000 0.0000 0.0000
# 3 67.1326 42.1162 183.9825 0.0000 0.0000 0.0000
# 4 0.0000 0.0000 0.0000 24.6649 0.0000 0.0000
# 5 0.0000 0.0000 0.0000 0.0000 38.1712 0.0000
# 6 0.0000 0.0000 0.0000 0.0000 0.0000 23.2584
#
#
#
# Elastic Compliance Matrix: (Units=1/GPa)
#
#
# Indices 1 2 3 4 5 6 
#
# 1 0.014512 -0.007060 -0.003679 0.000000 0.000000 0.000000
# 2 -0.007060 0.021757 -0.002404 0.000000 0.000000 0.000000
# 3 -0.003679 -0.002404 0.007328 0.000000 0.000000 0.000000
# 4 0.000000 0.000000 0.000000 0.040543 0.000000 0.000000
# 5 0.000000 0.000000 0.000000 0.000000 0.026198 0.000000
# 6 0.000000 0.000000 0.000000 0.000000 0.000000 0.042995
#
#
# Mechanical properties :
#
#
# Convention : Reuss Voigt Hill
#
# Bulk Modulus (GPa) = 57.76797 72.98340 65.37569
# Shear Modulus (GPa) = 26.96992 30.77568 28.87280
#
# Velocity S-wave (km/s) = 3.71685 3.97044 3.84574
# Velocity P-wave (km/s) = 6.92898 7.64225 7.29434
#
# Compressibility (1/GPa) = 0.01731063
#
# Stress axis : x y z
#
# Youngs Moduli (GPa) = 68.90645 45.96188 136.45835
#
# Poissons Ratio (x) = 0.32448 0.50207
# Poissons Ratio (y) = 0.48647 0.32811
# Poissons Ratio (z) = 0.25353 0.11051
#
# Static dielectric constant tensor:
#      x y z
#    x 3.465270 0.000000 0.000000 
#    y 0.000000 3.454210 0.000000 
#    z 0.000000 0.000000 3.696680 
# 
# 
# High freq. dielectric constant tensor:
#      x y z
#    x 1.738330 0.000000 0.000000 
#    y 0.000000 1.759970 0.000000 
#    z 0.000000 0.000000 1.782000 
# 
# From -- ./inp_files/9077.got.cif
#   From: 2010.03.12/outbox.cif.g09.slc.cpg/sg47_5_cif.got.tgz:9077.got - 2010.04.14 03:12:58.
