data_PCOD8199522
_publ_section_title
;
Structure prediction by ZEFSAII (Michael W. Deem and Ramdas Pophale) SiO2 
 PCOD8199522
Probable space group: P M M M
;
_chemical_formula_sum "Si O2"
_cell_formula_units_Z 52
_cell_length_a 9.153027
_cell_length_b 13.924685
_cell_length_c 21.564074
_cell_angle_alpha 90.000000
_cell_angle_beta 90.000000
_cell_angle_gamma 90.000000
_cell_volume 2748.406307
_symmetry_space_group_name_H-M "P M M M"
_symmetry_group_IT_number 47
_symmetry_cell_setting 'orthorhombic'
loop_
_space_group_symop_operation_xyz
x,y,z
-x,-y,z
x,-y,-z
-x,y,-z
-x,-y,-z
x,y,-z
-x,y,z
x,-y,z
loop_
_atom_site_type_symbol
_atom_site_label
_atom_site_fract_x
_atom_site_fract_y
_atom_site_fract_z
Si Si1 0.171877 0.291793 0.746150
Si Si2 0.673603 0.607726 0.500000
Si Si3 0.327470 0.720555 0.379026
Si Si4 0.670465 0.790049 0.069696
Si Si5 0.667430 0.391542 0.852821
Si Si6 0.165315 0.108704 0.428031
Si Si7 0.170251 0.891460 0.177306
O O1 0.251821 0.318980 0.682509
O O2 0.226027 0.369265 0.795792
O O3 0.215073 0.183768 0.768665
O O4 0.000000 0.302295 0.736602
O O5 0.735982 0.500000 0.500000
O O6 0.500000 0.608298 0.500000
O O7 0.730626 0.660383 0.561853
O O8 0.500000 0.713473 0.371275
O O9 0.279507 0.830452 0.388426
O O10 0.500000 0.812790 0.072433
O O11 0.702988 0.680806 0.091029
O O12 0.748477 0.867004 0.113534
O O13 0.730979 0.801604 0.000000
O O14 0.500000 0.378313 0.830625
O O15 0.696212 0.500000 0.876050
O O16 0.205345 0.116793 0.500000
O O17 0.000000 0.145121 0.415971
O O18 0.180654 0.000000 0.404990
O O19 0.000000 0.881580 0.163180
O O20 0.210968 0.000000 0.198347
#
# Coordination Sequence:
#
# PCOD8199522 Si02
#       7
#     8   4   8   8   8   8   8
#     4  10  21  36  54  77 105 138 176 221 269 318
#     4   9  20  38  56  75 102 136 171 209 258 317
#     4  11  21  35  56  81 106 136 175 220 269 318
#     4   9  18  32  51  79 112 141 172 214 263 313
#     4   9  18  34  55  77 103 138 178 219 264 315
#     4   9  18  33  53  76 104 138 170 203 253 314
#     4   9  19  36  55  74 101 141 184 220 255 302
#
# _framework density 18.920055000000001
#
# number of rings (size 3 to 8) (size 9 to 14) (size 15 to 20)
#    0.000    2.538    0.769    1.385    0.000    3.692 
#    0.000    6.923    0.000    3.231    0.000    4.308 
#    0.000    0.000    0.000    0.000    0.000    0.000 
#
# Total GULP energy -644804.813688 kJ/mol
# GULP energy per Si atom -12400.092571 kJ/mol
# Density = 1.887699 g / cm^3
# Si number density = 18.920055 Si / 1000 Ang^3
#
#
#
# Elastic Constant Matrix: (Units=GPa)
#
#
# Indices 1 2 3 4 5 6 
#
# 1 54.9242 18.3676 35.4131 0.0000 0.0000 0.0000
# 2 18.3676 77.7379 17.6326 0.0000 0.0000 0.0000
# 3 35.4131 17.6326 107.0190 0.0000 0.0000 0.0000
# 4 0.0000 0.0000 0.0000 15.2372 0.0000 0.0000
# 5 0.0000 0.0000 0.0000 0.0000 29.4271 0.0000
# 6 0.0000 0.0000 0.0000 0.0000 0.0000 25.8357
#
#
#
# Elastic Compliance Matrix: (Units=1/GPa)
#
#
# Indices 1 2 3 4 5 6 
#
# 1 0.024327 -0.004074 -0.007379 0.000000 0.000000 0.000000
# 2 -0.004074 0.014045 -0.000966 0.000000 0.000000 0.000000
# 3 -0.007379 -0.000966 0.011945 0.000000 0.000000 0.000000
# 4 0.000000 0.000000 0.000000 0.065629 0.000000 0.000000
# 5 0.000000 0.000000 0.000000 0.000000 0.033982 0.000000
# 6 0.000000 0.000000 0.000000 0.000000 0.000000 0.038706
#
#
# Mechanical properties :
#
#
# Convention : Reuss Voigt Hill
#
# Bulk Modulus (GPa) = 39.24702 42.50086 40.87394
# Shear Modulus (GPa) = 22.52603 25.31785 23.92194
#
# Velocity S-wave (km/s) = 3.45424 3.66204 3.55965
# Velocity P-wave (km/s) = 6.05786 6.35554 6.20848
#
# Compressibility (1/GPa) = 0.02547964
#
# Stress axis : x y z
#
# Youngs Moduli (GPa) = 41.10689 71.19730 83.71776
#
# Poissons Ratio (x) = 0.29007 0.61772
# Poissons Ratio (y) = 0.16748 0.08087
# Poissons Ratio (z) = 0.30331 0.06877
#
# Static dielectric constant tensor:
#      x y z
#    x 3.339280 0.000000 0.000000 
#    y 0.000000 3.526590 0.000000 
#    z 0.000000 0.000000 3.460950 
# 
# 
# High freq. dielectric constant tensor:
#      x y z
#    x 1.724760 0.000000 0.000000 
#    y 0.000000 1.733860 0.000000 
#    z 0.000000 0.000000 1.730320 
# 
# From -- ./inp_files/6979.got.cif
#   From: 2010.03.12/outbox.cif.g09.slc.cpg/sg47_4_cif.got.tgz:6979.got - 2010.04.14 03:12:58.
