data_PCOD8199219
_publ_section_title
;
Structure prediction by ZEFSAII (Michael W. Deem and Ramdas Pophale) SiO2 
 PCOD8199219
Probable space group: P M M M
;
_chemical_formula_sum "Si O2"
_cell_formula_units_Z 44
_cell_length_a 30.180315
_cell_length_b 9.626108
_cell_length_c 7.706506
_cell_angle_alpha 90.000000
_cell_angle_beta 90.000000
_cell_angle_gamma 90.000000
_cell_volume 2238.886198
_symmetry_space_group_name_H-M "P M M M"
_symmetry_group_IT_number 47
_symmetry_cell_setting 'orthorhombic'
loop_
_space_group_symop_operation_xyz
x,y,z
-x,-y,z
x,-y,-z
-x,y,-z
-x,-y,-z
x,y,-z
-x,y,z
x,-y,z
loop_
_atom_site_type_symbol
_atom_site_label
_atom_site_fract_x
_atom_site_fract_y
_atom_site_fract_z
Si Si1 0.775504 0.343239 0.794990
Si Si2 0.125758 0.345654 0.793631
Si Si3 0.450967 0.336195 0.000000
Si Si4 0.385166 0.337860 0.297920
Si Si5 0.695911 0.846104 0.699113
Si Si6 0.951269 0.155486 0.206384
O O1 0.764810 0.500000 0.728332
O O2 0.824997 0.299105 0.734954
O O3 0.742568 0.230837 0.716771
O O4 0.771495 0.340198 0.000000
O O5 0.116347 0.500000 0.724520
O O6 0.087919 0.247864 0.711177
O O7 0.123349 0.342923 0.000000
O O8 0.425963 0.290387 0.176575
O O9 0.455543 0.500000 0.000000
O O10 0.500000 0.267827 0.000000
O O11 0.396807 0.307942 0.500000
O O12 0.373715 0.500000 0.271115
O O13 0.343240 0.250492 0.226260
O O14 0.685468 0.868095 0.500000
O O15 0.697072 0.000000 0.788537
O O16 0.000000 0.211276 0.263235
O O17 0.944775 0.000000 0.276903
O O18 0.948059 0.156759 0.000000
#
# Coordination Sequence:
#
# PCOD8199219 Si02
#       6
#     8   8   4   8   8   8
#     4   9  18  31  47  68  94 124 158 198 244 295
#     4   8  14  24  36  53  79 109 143 185 232 281
#     4   9  18  32  53  83 111 135 173 221 260 303
#     4   9  18  33  53  76 104 139 174 212 261 308
#     4  10  21  35  50  71  99 129 164 206 247 291
#     4   8  13  20  30  46  71 106 146 185 226 275
#
# _framework density 19.652628
#
# number of rings (size 3 to 8) (size 9 to 14) (size 15 to 20)
#    0.000    3.182    0.000    2.182    1.273    2.909 
#    0.000    5.455    0.000    1.091    0.000    2.545 
#    0.000    0.727    0.000    8.000    0.000   13.091 
#
# Total GULP energy -545222.498044 kJ/mol
# GULP energy per Si atom -12391.420410 kJ/mol
# Density = 1.960790 g / cm^3
# Si number density = 19.652628 Si / 1000 Ang^3
#
#
#
# Elastic Constant Matrix: (Units=GPa)
#
#
# Indices 1 2 3 4 5 6 
#
# 1 188.9365 92.4775 30.9853 0.0000 0.0000 0.0000
# 2 92.4775 109.4869 20.2296 0.0000 0.0000 0.0000
# 3 30.9853 20.2296 42.3632 0.0000 0.0000 0.0000
# 4 0.0000 0.0000 0.0000 10.0794 0.0000 0.0000
# 5 0.0000 0.0000 0.0000 0.0000 -21.1599 0.0000
# 6 0.0000 0.0000 0.0000 0.0000 0.0000 14.4102
#
#
#
# Elastic Compliance Matrix: (Units=1/GPa)
#
#
# Indices 1 2 3 4 5 6 
#
# 1 0.009450 -0.007353 -0.003400 0.000000 0.000000 0.000000
# 2 -0.007353 0.015739 -0.002138 0.000000 0.000000 0.000000
# 3 -0.003400 -0.002138 0.027113 0.000000 0.000000 0.000000
# 4 0.000000 0.000000 0.000000 0.099212 0.000000 0.000000
# 5 0.000000 0.000000 0.000000 0.000000 -0.047259 0.000000
# 6 0.000000 0.000000 0.000000 0.000000 0.000000 0.069395
#
#
# Mechanical properties :
#
#
# Convention : Reuss Voigt Hill
#
# Bulk Modulus (GPa) = 37.70764 69.79681 53.75222
# Shear Modulus (GPa) = 24.00701 13.80556 18.90628
#
# Velocity S-wave (km/s) = 3.49888 2.65331 3.10501
# Velocity P-wave (km/s) = 5.96252 6.70664 6.34550
#
# Compressibility (1/GPa) = 0.02651983
#
# Stress axis : x y z
#
# Youngs Moduli (GPa) = 105.82486 63.53491 36.88246
#
# Poissons Ratio (x) = 0.46719 0.12541
# Poissons Ratio (y) = 0.77816 0.07884
# Poissons Ratio (z) = 0.35983 0.13582
#
# Static dielectric constant tensor:
#      x y z
#    x 3.958940 0.000000 0.000000 
#    y 0.000000 3.816730 0.000000 
#    z 0.000000 0.000000 3.239970 
# 
# 
# High freq. dielectric constant tensor:
#      x y z
#    x 1.768860 0.000000 0.000000 
#    y 0.000000 1.748630 0.000000 
#    z 0.000000 0.000000 1.738200 
# 
# From -- ./inp_files/13597.got.cif
#   From: 2010.03.12/outbox.cif.g09.slc.cpg/sg47_7_cif.got.tgz:13597.got - 2010.04.14 03:12:58.
