data_PCOD8199733
_publ_section_title
;
Structure prediction by ZEFSAII (Michael W. Deem and Ramdas Pophale) SiO2 
 PCOD8199733
Probable space group: P M M M
;
_chemical_formula_sum "Si O2"
_cell_formula_units_Z 48
_cell_length_a 31.416192
_cell_length_b 8.822476
_cell_length_c 9.455634
_cell_angle_alpha 90.000000
_cell_angle_beta 90.000000
_cell_angle_gamma 90.000000
_cell_volume 2620.804837
_symmetry_space_group_name_H-M "P M M M"
_symmetry_group_IT_number 47
_symmetry_cell_setting 'orthorhombic'
loop_
_space_group_symop_operation_xyz
x,y,z
-x,-y,z
x,-y,-z
-x,y,-z
-x,-y,-z
x,y,-z
-x,y,z
x,-y,z
loop_
_atom_site_type_symbol
_atom_site_label
_atom_site_fract_x
_atom_site_fract_y
_atom_site_fract_z
Si Si1 0.288145 0.178265 0.836870
Si Si2 0.046708 0.180153 0.840755
Si Si3 0.636747 0.681109 0.660999
Si Si4 0.545009 0.330720 0.332282
Si Si5 0.786771 0.677120 0.336186
Si Si6 0.125384 0.825533 0.335814
O O1 0.328943 0.254177 0.767103
O O2 0.245759 0.231924 0.759711
O O3 0.292308 0.000000 0.820045
O O4 0.285849 0.227996 0.000000
O O5 0.084330 0.244638 0.742981
O O6 0.000000 0.238010 0.789407
O O7 0.047207 0.000000 0.833766
O O8 0.055020 0.236306 0.000000
O O9 0.646799 0.733758 0.500000
O O10 0.637001 0.500000 0.667632
O O11 0.590080 0.744924 0.713240
O O12 0.546498 0.339949 0.500000
O O13 0.500000 0.248217 0.285195
O O14 0.543524 0.500000 0.269588
O O15 0.778214 0.717752 0.500000
O O16 0.781049 0.500000 0.308186
O O17 0.833939 0.727290 0.291093
O O18 0.115513 0.809982 0.500000
O O19 0.133981 0.000000 0.293211
#
# Coordination Sequence:
#
# PCOD8199733 Si02
#       6
#     8   8   8   8   8   8
#     4  11  24  38  51  70  97 129 165 203 243 290
#     4   8  14  25  42  66  96 128 161 197 235 274
#     4   9  17  30  51  78 103 128 161 200 243 290
#     4   7  10  19  39  69 101 127 153 191 237 281
#     4  10  21  37  56  76  98 125 159 200 247 299
#     4   9  17  29  47  72  99 125 155 194 239 285
#
# _framework density 18.314983999999999
#
# number of rings (size 3 to 8) (size 9 to 14) (size 15 to 20)
#    0.000    3.000    0.000    3.500    0.000    5.667 
#    0.000    3.333    0.000    1.500    0.000    9.333 
#    0.000    0.000    0.000    0.000    0.000    0.000 
#
# Total GULP energy -594697.235913 kJ/mol
# GULP energy per Si atom -12389.525748 kJ/mol
# Density = 1.827330 g / cm^3
# Si number density = 18.314984 Si / 1000 Ang^3
#
#
#
# Elastic Constant Matrix: (Units=GPa)
#
#
# Indices 1 2 3 4 5 6 
#
# 1 160.0229 16.3938 67.1941 0.0000 0.0000 0.0000
# 2 16.3938 22.0979 19.5359 0.0000 0.0000 0.0000
# 3 67.1941 19.5359 71.8391 0.0000 0.0000 0.0000
# 4 0.0000 0.0000 0.0000 18.2527 0.0000 0.0000
# 5 0.0000 0.0000 0.0000 0.0000 -3.5836 0.0000
# 6 0.0000 0.0000 0.0000 0.0000 0.0000 25.5903
#
#
#
# Elastic Compliance Matrix: (Units=1/GPa)
#
#
# Indices 1 2 3 4 5 6 
#
# 1 0.010313 0.001154 -0.009960 0.000000 0.000000 0.000000
# 2 0.001154 0.059705 -0.017316 0.000000 0.000000 0.000000
# 3 -0.009960 -0.017316 0.027945 0.000000 0.000000 0.000000
# 4 0.000000 0.000000 0.000000 0.054786 0.000000 0.000000
# 5 0.000000 0.000000 0.000000 0.000000 -0.279050 0.000000
# 6 0.000000 0.000000 0.000000 0.000000 0.000000 0.039077
#
#
# Mechanical properties :
#
#
# Convention : Reuss Voigt Hill
#
# Bulk Modulus (GPa) = 21.87237 51.13418 36.50327
# Shear Modulus (GPa) = -253.29524 18.10763 -117.59380
#
# Velocity S-wave (km/s) = -11.77284 3.14774 -8.02158
# Velocity P-wave (km/s) = 13.14653 6.41802 8.11297
#
# Compressibility (1/GPa) = 0.04571979
#
# Stress axis : x y z
#
# Youngs Moduli (GPa) = 96.96316 16.74900 35.78436
#
# Poissons Ratio (x) = -0.01934 0.35642
# Poissons Ratio (y) = -0.11194 0.61964
# Poissons Ratio (z) = 0.96578 0.29002
#
# Static dielectric constant tensor:
#      x y z
#    x 4.030710 0.000000 0.000000 
#    y 0.000000 3.014390 0.000000 
#    z 0.000000 0.000000 3.275800 
# 
# 
# High freq. dielectric constant tensor:
#      x y z
#    x 1.739120 0.000000 0.000000 
#    y 0.000000 1.667350 0.000000 
#    z 0.000000 0.000000 1.683880 
# 
# From -- ./inp_files/13792.got.cif
#   From: 2010.03.12/outbox.cif.g09.slc.cpg/sg47_7_cif.got.tgz:13792.got - 2010.04.14 03:12:58.
