data_PCOD8199948
_publ_section_title
;
Structure prediction by ZEFSAII (Michael W. Deem and Ramdas Pophale) SiO2 
 PCOD8199948
Probable space group: P M M M
;
_chemical_formula_sum "Si O2"
_cell_formula_units_Z 40
_cell_length_a 8.995766
_cell_length_b 7.586862
_cell_length_c 29.670987
_cell_angle_alpha 90.000000
_cell_angle_beta 90.000000
_cell_angle_gamma 90.000000
_cell_volume 2025.034040
_symmetry_space_group_name_H-M "P M M M"
_symmetry_group_IT_number 47
_symmetry_cell_setting 'orthorhombic'
loop_
_space_group_symop_operation_xyz
x,y,z
-x,-y,z
x,-y,-z
-x,y,-z
-x,-y,-z
x,y,-z
-x,y,z
x,-y,z
loop_
_atom_site_type_symbol
_atom_site_label
_atom_site_fract_x
_atom_site_fract_y
_atom_site_fract_z
Si Si1 0.677082 0.000000 0.284093
Si Si2 0.825474 0.294773 0.774026
Si Si3 0.676982 0.000000 0.386782
Si Si4 0.323117 0.304521 0.449753
Si Si5 0.334656 0.291098 0.135507
Si Si6 0.166995 0.709557 0.950509
O O1 0.741239 0.178034 0.262626
O O2 0.731999 0.000000 0.335613
O O3 0.500000 0.000000 0.279404
O O4 0.787913 0.500000 0.764901
O O5 0.769288 0.233910 0.823133
O O6 0.000000 0.258274 0.771427
O O7 0.741706 0.170988 0.412603
O O8 0.500000 0.000000 0.388568
O O9 0.269968 0.249371 0.500000
O O10 0.500000 0.302131 0.448551
O O11 0.264186 0.500000 0.437959
O O12 0.500000 0.214420 0.143009
O O13 0.339852 0.500000 0.131946
O O14 0.269722 0.210762 0.089002
O O15 0.166433 0.500000 0.947632
O O16 0.000000 0.780395 0.943459
O O17 0.226156 0.769242 0.000000
#
# Coordination Sequence:
#
# PCOD8199948 Si02
#       6
#     4   8   4   8   8   8
#     4  11  23  36  53  80 111 141 176 222 277 330
#     4  10  21  38  58  76  99 136 181 226 270 322
#     4   9  17  27  40  63  98 137 171 208 259 314
#     4   8  13  22  38  61  92 134 179 213 244 295
#     4   9  16  26  43  68  96 126 164 213 268 320
#     4   8  13  21  34  56  90 130 168 205 248 305
#
# _framework density 19.752753999999999
#
# number of rings (size 3 to 8) (size 9 to 14) (size 15 to 20)
#    0.000    3.000    0.000    3.000    0.000    6.000 
#    0.000    4.000    0.000    0.000    0.000    0.700 
#    0.000   12.000    0.000   18.200    0.000   14.800 
#
# Total GULP energy -495783.292860 kJ/mol
# GULP energy per Si atom -12394.582321 kJ/mol
# Density = 1.970780 g / cm^3
# Si number density = 19.752754 Si / 1000 Ang^3
#
#
#
# Elastic Constant Matrix: (Units=GPa)
#
#
# Indices 1 2 3 4 5 6 
#
# 1 85.0731 33.3422 58.9915 0.0000 0.0000 0.0000
# 2 33.3422 87.3682 75.5710 0.0000 0.0000 0.0000
# 3 58.9915 75.5710 193.4367 0.0000 0.0000 0.0000
# 4 0.0000 0.0000 0.0000 -41.8392 0.0000 0.0000
# 5 0.0000 0.0000 0.0000 0.0000 6.9213 0.0000
# 6 0.0000 0.0000 0.0000 0.0000 0.0000 14.2701
#
#
#
# Elastic Compliance Matrix: (Units=1/GPa)
#
#
# Indices 1 2 3 4 5 6 
#
# 1 0.015326 -0.002728 -0.003608 0.000000 0.000000 0.000000
# 2 -0.002728 0.017773 -0.006112 0.000000 0.000000 0.000000
# 3 -0.003608 -0.006112 0.008658 0.000000 0.000000 0.000000
# 4 0.000000 0.000000 0.000000 -0.023901 0.000000 0.000000
# 5 0.000000 0.000000 0.000000 0.000000 0.144481 0.000000
# 6 0.000000 0.000000 0.000000 0.000000 0.000000 0.070076
#
#
# Mechanical properties :
#
#
# Convention : Reuss Voigt Hill
#
# Bulk Modulus (GPa) = 59.30710 77.96526 68.63618
# Shear Modulus (GPa) = 19.01654 9.06866 14.04260
#
# Velocity S-wave (km/s) = 3.10615 2.14501 2.66920
# Velocity P-wave (km/s) = 6.55394 6.75951 6.65752
#
# Compressibility (1/GPa) = 0.01686139
#
# Stress axis : x y z
#
# Youngs Moduli (GPa) = 65.25022 56.26428 115.50424
#
# Poissons Ratio (x) = 0.15348 0.41675
# Poissons Ratio (y) = 0.17799 0.70593
# Poissons Ratio (z) = 0.23543 0.34387
#
# Static dielectric constant tensor:
#      x y z
#    x 3.377640 0.000000 0.000000 
#    y 0.000000 3.497300 0.000000 
#    z 0.000000 0.000000 3.845740 
# 
# 
# High freq. dielectric constant tensor:
#      x y z
#    x 1.734390 0.000000 0.000000 
#    y 0.000000 1.756500 0.000000 
#    z 0.000000 0.000000 1.774180 
# 
# From -- ./inp_files/33059.got.cif
#   From: 2010.03.12/outbox.cif.g09.slc.cpg/sg47_17_cif.got.tgz:33059.got - 2010.04.14 03:12:58.
