data_PCOD8199047
_publ_section_title
;
Structure prediction by ZEFSAII (Michael W. Deem and Ramdas Pophale) SiO2 
 PCOD8199047
Probable space group: P M M M
;
_chemical_formula_sum "Si O2"
_cell_formula_units_Z 48
_cell_length_a 13.711498
_cell_length_b 9.319018
_cell_length_c 24.043646
_cell_angle_alpha 90.000000
_cell_angle_beta 90.000000
_cell_angle_gamma 90.000000
_cell_volume 3072.241705
_symmetry_space_group_name_H-M "P M M M"
_symmetry_group_IT_number 47
_symmetry_cell_setting 'orthorhombic'
loop_
_space_group_symop_operation_xyz
x,y,z
-x,-y,z
x,-y,-z
-x,y,-z
-x,-y,-z
x,y,-z
-x,y,z
x,-y,z
loop_
_atom_site_type_symbol
_atom_site_label
_atom_site_fract_x
_atom_site_fract_y
_atom_site_fract_z
Si Si1 0.793549 0.832123 0.722856
Si Si2 0.888745 0.168429 0.609856
Si Si3 0.884120 0.338430 0.939025
Si Si4 0.610147 0.832652 0.343622
Si Si5 0.113584 0.168048 0.833939
Si Si6 0.715845 0.665432 0.563336
O O1 0.864810 0.783529 0.672984
O O2 0.682301 0.789021 0.707055
O O3 0.827970 0.763747 0.781295
O O4 0.804337 0.000000 0.731061
O O5 0.820905 0.258227 0.568446
O O6 0.000000 0.205690 0.595939
O O7 0.866840 0.000000 0.601778
O O8 0.847373 0.500000 0.928728
O O9 0.842763 0.239084 0.889829
O O10 0.000000 0.332841 0.938162
O O11 0.847465 0.284759 0.000000
O O12 0.500000 0.798693 0.324818
O O13 0.635519 0.742637 0.398494
O O14 0.624561 0.000000 0.358388
O O15 0.000000 0.204261 0.825196
O O16 0.130795 0.000000 0.840366
O O17 0.679927 0.678363 0.500000
O O18 0.725639 0.500000 0.581534
#
# Coordination Sequence:
#
# PCOD8199047 Si02
#       6
#     8   8   8   8   8   8
#     4   8  14  26  43  63  86 107 131 167 209 250
#     4   9  17  30  48  66  85 113 146 176 205 241
#     4   8  14  24  35  48  73 110 145 173 200 228
#     4   9  18  33  52  69  83 104 136 173 212 255
#     4   9  15  22  36  58  82 109 138 165 195 235
#     4  10  21  34  46  63  88 114 138 168 209 255
#
# _framework density 15.623772000000001
#
# number of rings (size 3 to 8) (size 9 to 14) (size 15 to 20)
#    0.000    3.167    0.000    2.500    0.000    5.000 
#    0.000    8.333    0.000    4.000    0.000    0.000 
#    0.000    0.667    0.000    8.333    0.000    1.667 
#
# Total GULP energy -594897.367931 kJ/mol
# GULP energy per Si atom -12393.695165 kJ/mol
# Density = 1.558821 g / cm^3
# Si number density = 15.623772 Si / 1000 Ang^3
#
#
#
# Elastic Constant Matrix: (Units=GPa)
#
#
# Indices 1 2 3 4 5 6 
#
# 1 75.1451 28.6434 31.6628 0.0000 0.0000 0.0000
# 2 28.6434 52.0388 41.8622 0.0000 0.0000 0.0000
# 3 31.6628 41.8622 114.7567 0.0000 0.0000 0.0000
# 4 0.0000 0.0000 0.0000 14.0608 0.0000 0.0000
# 5 0.0000 0.0000 0.0000 0.0000 14.1300 0.0000
# 6 0.0000 0.0000 0.0000 0.0000 0.0000 10.2619
#
#
#
# Elastic Compliance Matrix: (Units=1/GPa)
#
#
# Indices 1 2 3 4 5 6 
#
# 1 0.017105 -0.007952 -0.001819 0.000000 0.000000 0.000000
# 2 -0.007952 0.030894 -0.009076 0.000000 0.000000 0.000000
# 3 -0.001819 -0.009076 0.012527 0.000000 0.000000 0.000000
# 4 0.000000 0.000000 0.000000 0.071120 0.000000 0.000000
# 5 0.000000 0.000000 0.000000 0.000000 0.070772 0.000000
# 6 0.000000 0.000000 0.000000 0.000000 0.000000 0.097448
#
#
# Mechanical properties :
#
#
# Convention : Reuss Voigt Hill
#
# Bulk Modulus (GPa) = 43.79639 49.58638 46.69139
# Shear Modulus (GPa) = 14.48561 17.00866 15.74714
#
# Velocity S-wave (km/s) = 3.04822 3.30303 3.17818
# Velocity P-wave (km/s) = 6.36252 6.80833 6.58920
#
# Compressibility (1/GPa) = 0.02283293
#
# Stress axis : x y z
#
# Youngs Moduli (GPa) = 58.46246 32.36825 79.82932
#
# Poissons Ratio (x) = 0.25739 0.14518
# Poissons Ratio (y) = 0.46489 0.72453
# Poissons Ratio (z) = 0.10632 0.29377
#
# Static dielectric constant tensor:
#      x y z
#    x 2.867330 0.000000 0.000000 
#    y 0.000000 2.885750 0.000000 
#    z 0.000000 0.000000 3.221520 
# 
# 
# High freq. dielectric constant tensor:
#      x y z
#    x 1.566970 0.000000 0.000000 
#    y 0.000000 1.584350 0.000000 
#    z 0.000000 0.000000 1.597900 
# 
# From -- ./inp_files/7472.got.cif
#   From: 2010.03.12/outbox.cif.g09.slc.cpg/sg47_4_cif.got.tgz:7472.got - 2010.04.14 03:12:58.
