data_PCOD8199107
_publ_section_title
;
Structure prediction by ZEFSAII (Michael W. Deem and Ramdas Pophale) SiO2 
 PCOD8199107
Probable space group: P M M M
;
_chemical_formula_sum "Si O2"
_cell_formula_units_Z 40
_cell_length_a 7.917878
_cell_length_b 9.426593
_cell_length_c 27.059093
_cell_angle_alpha 90.000000
_cell_angle_beta 90.000000
_cell_angle_gamma 90.000000
_cell_volume 2019.653179
_symmetry_space_group_name_H-M "P M M M"
_symmetry_group_IT_number 47
_symmetry_cell_setting 'orthorhombic'
loop_
_space_group_symop_operation_xyz
x,y,z
-x,-y,z
x,-y,-z
-x,y,-z
-x,-y,-z
x,y,-z
-x,y,z
x,-y,z
loop_
_atom_site_type_symbol
_atom_site_label
_atom_site_fract_x
_atom_site_fract_y
_atom_site_fract_z
Si Si1 0.694699 0.832560 0.393372
Si Si2 0.695103 0.158425 0.280536
Si Si3 0.192453 0.656037 0.192914
Si Si4 0.297881 0.841028 0.000000
Si Si5 0.694521 0.341800 0.910348
Si Si6 0.000000 0.336474 0.558420
O O1 0.500000 0.796930 0.408831
O O2 0.723545 0.789258 0.336422
O O3 0.828972 0.741976 0.424269
O O4 0.727571 0.000000 0.401354
O O5 0.500000 0.163618 0.266443
O O6 0.794596 0.254633 0.242571
O O7 0.766346 0.000000 0.275283
O O8 0.269507 0.500000 0.203695
O O9 0.283885 0.723616 0.144879
O O10 0.000000 0.644686 0.177702
O O11 0.224518 0.760911 0.048486
O O12 0.500000 0.845882 0.000000
O O13 0.224469 0.000000 0.000000
O O14 0.500000 0.355064 0.923389
O O15 0.777116 0.500000 0.912399
O O16 0.000000 0.500000 0.577200
O O17 0.000000 0.331376 0.500000
#
# Coordination Sequence:
#
# PCOD8199107 Si02
#       6
#     8   8   8   4   8   4
#     4   9  20  40  64  89 118 156 204 251 294 349
#     4   9  19  36  57  81 108 140 180 226 275 324
#     4  10  21  34  49  75 109 141 175 215 262 321
#     4   9  17  29  48  73  94 116 158 217 270 313
#     4   9  17  31  50  69  93 129 170 210 256 314
#     4  11  25  41  59  89 127 163 199 244 301 356
#
# _framework density 19.805378999999999
#
# number of rings (size 3 to 8) (size 9 to 14) (size 15 to 20)
#    0.000    2.600    0.000    2.400    1.400    6.000 
#    0.000    6.500    0.000    3.000    0.000    0.000 
#    0.000    0.000    0.000    0.000    0.000    0.000 
#
# Total GULP energy -495775.816244 kJ/mol
# GULP energy per Si atom -12394.395406 kJ/mol
# Density = 1.976030 g / cm^3
# Si number density = 19.805379 Si / 1000 Ang^3
#
#
#
# Elastic Constant Matrix: (Units=GPa)
#
#
# Indices 1 2 3 4 5 6 
#
# 1 70.9704 44.5192 39.5788 0.0000 0.0000 0.0000
# 2 44.5192 104.6194 66.1341 0.0000 0.0000 0.0000
# 3 39.5788 66.1341 115.4003 0.0000 0.0000 0.0000
# 4 0.0000 0.0000 0.0000 31.0478 0.0000 0.0000
# 5 0.0000 0.0000 0.0000 0.0000 -6.4311 0.0000
# 6 0.0000 0.0000 0.0000 0.0000 0.0000 21.9525
#
#
#
# Elastic Compliance Matrix: (Units=1/GPa)
#
#
# Indices 1 2 3 4 5 6 
#
# 1 0.019901 -0.006514 -0.003093 0.000000 0.000000 0.000000
# 2 -0.006514 0.017120 -0.007577 0.000000 0.000000 0.000000
# 3 -0.003093 -0.007577 0.014069 0.000000 0.000000 0.000000
# 4 0.000000 0.000000 0.000000 0.032208 0.000000 0.000000
# 5 0.000000 0.000000 0.000000 0.000000 -0.155495 0.000000
# 6 0.000000 0.000000 0.000000 0.000000 0.000000 0.045553
#
#
# Mechanical properties :
#
#
# Convention : Reuss Voigt Hill
#
# Bulk Modulus (GPa) = 59.79897 65.71715 62.75806
# Shear Modulus (GPa) = 376.01677 18.69772 197.35724
#
# Velocity S-wave (km/s) = 13.79377 3.07591 9.99323
# Velocity P-wave (km/s) = 16.85080 6.77263 12.84169
#
# Compressibility (1/GPa) = 0.01672270
#
# Stress axis : x y z
#
# Youngs Moduli (GPa) = 50.24878 58.41076 71.08024
#
# Poissons Ratio (x) = 0.38046 0.21982
# Poissons Ratio (y) = 0.32730 0.53860
# Poissons Ratio (z) = 0.15540 0.44260
#
# Static dielectric constant tensor:
#      x y z
#    x 3.377940 0.000000 0.000000 
#    y 0.000000 3.727070 0.000000 
#    z 0.000000 0.000000 3.561240 
# 
# 
# High freq. dielectric constant tensor:
#      x y z
#    x 1.760830 0.000000 0.000000 
#    y 0.000000 1.761630 0.000000 
#    z 0.000000 0.000000 1.776160 
# 
# From -- ./inp_files/1693.got.cif
#   From: 2010.03.12/outbox.cif.g09.slc.cpg/sg47_1_cif.got.tgz:1693.got - 2010.04.14 03:12:58.
