data_PCOD8199127
_publ_section_title
;
Structure prediction by ZEFSAII (Michael W. Deem and Ramdas Pophale) SiO2 
 PCOD8199127
Probable space group: P M M M
;
_chemical_formula_sum "Si O2"
_cell_formula_units_Z 44
_cell_length_a 17.377739
_cell_length_b 9.179180
_cell_length_c 14.947864
_cell_angle_alpha 90.000000
_cell_angle_beta 90.000000
_cell_angle_gamma 90.000000
_cell_volume 2384.384524
_symmetry_space_group_name_H-M "P M M M"
_symmetry_group_IT_number 47
_symmetry_cell_setting 'orthorhombic'
loop_
_space_group_symop_operation_xyz
x,y,z
-x,-y,z
x,-y,-z
-x,y,-z
-x,-y,-z
x,y,-z
-x,y,z
x,-y,z
loop_
_atom_site_type_symbol
_atom_site_label
_atom_site_fract_x
_atom_site_fract_y
_atom_site_fract_z
Si Si1 0.500000 0.336198 0.106373
Si Si2 0.914618 0.167382 0.327089
Si Si3 0.500000 0.164239 0.606021
Si Si4 0.652496 0.329011 0.395709
Si Si5 0.649068 0.830502 0.101268
Si Si6 0.909227 0.660407 0.500000
Si Si7 0.243748 0.167558 0.259655
O O1 0.500000 0.500000 0.143710
O O2 0.424026 0.254934 0.141409
O O3 0.500000 0.331593 0.000000
O O4 0.883178 0.254781 0.412182
O O5 0.849002 0.191074 0.251732
O O6 0.000000 0.220157 0.294396
O O7 0.919864 0.000000 0.356087
O O8 0.500000 0.160489 0.500000
O O9 0.424580 0.249409 0.639385
O O10 0.500000 0.000000 0.645357
O O11 0.668865 0.295121 0.500000
O O12 0.642220 0.500000 0.379505
O O13 0.723092 0.268853 0.337860
O O14 0.721939 0.791243 0.162941
O O15 0.628306 0.000000 0.103971
O O16 0.668934 0.781109 0.000000
O O17 0.870539 0.500000 0.500000
O O18 0.000000 0.646471 0.500000
O O19 0.262846 0.000000 0.284030
#
# Coordination Sequence:
#
# PCOD8199127 Si02
#       7
#     4   8   4   8   8   4   8
#     4   9  17  30  51  78 104 130 162 202 251 303
#     4   9  18  33  51  71  98 132 169 208 252 303
#     4   9  17  32  53  72  94 132 176 210 241 285
#     4  10  21  35  50  71 101 134 167 207 251 294
#     4   9  18  34  54  75 101 132 167 207 251 299
#     4   9  17  29  47  71  97 126 161 202 249 299
#     4  10  21  34  51  75  99 131 171 209 252 303
#
# _framework density 18.453399000000001
#
# number of rings (size 3 to 8) (size 9 to 14) (size 15 to 20)
#    0.000    2.636    0.000    1.364    1.273    6.545 
#    0.000    0.909    0.000    0.545    0.000    3.818 
#    0.000    0.000    0.000   10.727    0.000   11.273 
#
# Total GULP energy -545470.574451 kJ/mol
# GULP energy per Si atom -12397.058510 kJ/mol
# Density = 1.841140 g / cm^3
# Si number density = 18.453399 Si / 1000 Ang^3
#
#
#
# Elastic Constant Matrix: (Units=GPa)
#
#
# Indices 1 2 3 4 5 6 
#
# 1 143.4891 49.8937 60.4450 0.0000 0.0000 0.0000
# 2 49.8937 84.8903 37.0078 0.0000 0.0000 0.0000
# 3 60.4450 37.0078 73.3050 0.0000 0.0000 0.0000
# 4 0.0000 0.0000 0.0000 15.9383 0.0000 0.0000
# 5 0.0000 0.0000 0.0000 0.0000 27.7392 0.0000
# 6 0.0000 0.0000 0.0000 0.0000 0.0000 15.7800
#
#
#
# Elastic Compliance Matrix: (Units=1/GPa)
#
#
# Indices 1 2 3 4 5 6 
#
# 1 0.011367 -0.003327 -0.007693 0.000000 0.000000 0.000000
# 2 -0.003327 0.016078 -0.005374 0.000000 0.000000 0.000000
# 3 -0.007693 -0.005374 0.022698 0.000000 0.000000 0.000000
# 4 0.000000 0.000000 0.000000 0.062742 0.000000 0.000000
# 5 0.000000 0.000000 0.000000 0.000000 0.036050 0.000000
# 6 0.000000 0.000000 0.000000 0.000000 0.000000 0.063371
#
#
# Mechanical properties :
#
#
# Convention : Reuss Voigt Hill
#
# Bulk Modulus (GPa) = 57.61899 66.26416 61.94158
# Shear Modulus (GPa) = 19.93000 22.18070 21.05535
#
# Velocity S-wave (km/s) = 3.28993 3.47073 3.38154
# Velocity P-wave (km/s) = 6.76190 7.21444 6.99183
#
# Compressibility (1/GPa) = 0.01735539
#
# Stress axis : x y z
#
# Youngs Moduli (GPa) = 87.97621 62.19711 44.05690
#
# Poissons Ratio (x) = 0.20693 0.33893
# Poissons Ratio (y) = 0.29269 0.23674
# Poissons Ratio (z) = 0.67680 0.33422
#
# Static dielectric constant tensor:
#      x y z
#    x 3.503240 0.000000 0.000000 
#    y 0.000000 3.532710 0.000000 
#    z 0.000000 0.000000 3.179500 
# 
# 
# High freq. dielectric constant tensor:
#      x y z
#    x 1.715590 0.000000 0.000000 
#    y 0.000000 1.717990 0.000000 
#    z 0.000000 0.000000 1.683630 
# 
# From -- ./inp_files/9060.got.cif
#   From: 2010.03.12/outbox.cif.g09.slc.cpg/sg47_5_cif.got.tgz:9060.got - 2010.04.14 03:12:58.
