data_PCOD8199146
_publ_section_title
;
Structure prediction by ZEFSAII (Michael W. Deem and Ramdas Pophale) SiO2 
 PCOD8199146
Probable space group: P M M M
;
_chemical_formula_sum "Si O2"
_cell_formula_units_Z 52
_cell_length_a 9.617517
_cell_length_b 33.925721
_cell_length_c 9.344745
_cell_angle_alpha 90.000000
_cell_angle_beta 90.000000
_cell_angle_gamma 90.000000
_cell_volume 3049.014598
_symmetry_space_group_name_H-M "P M M M"
_symmetry_group_IT_number 47
_symmetry_cell_setting 'orthorhombic'
loop_
_space_group_symop_operation_xyz
x,y,z
-x,-y,z
x,-y,-z
-x,y,-z
-x,-y,-z
x,y,-z
-x,y,z
x,-y,z
loop_
_atom_site_type_symbol
_atom_site_label
_atom_site_fract_x
_atom_site_fract_y
_atom_site_fract_z
Si Si1 0.338034 0.276030 0.166973
Si Si2 0.165201 0.958268 0.339759
Si Si3 0.164732 0.427713 0.657987
Si Si4 0.338652 0.198347 0.665799
Si Si5 0.156486 0.126046 0.328945
Si Si6 0.161886 0.339168 0.333312
Si Si7 0.166232 0.500000 0.159760
O O1 0.500000 0.284126 0.195349
O O2 0.290367 0.235903 0.243507
O O3 0.252441 0.311620 0.233194
O O4 0.304134 0.272420 0.000000
O O5 0.225694 0.960002 0.500000
O O6 0.212533 0.916627 0.267621
O O7 0.000000 0.956240 0.346627
O O8 0.210770 0.000000 0.262106
O O9 0.226519 0.435553 0.500000
O O10 0.204176 0.383801 0.709443
O O11 0.225605 0.460756 0.764004
O O12 0.000000 0.431223 0.650289
O O13 0.303384 0.206678 0.500000
O O14 0.500000 0.189155 0.688183
O O15 0.255624 0.160736 0.726607
O O16 0.159205 0.123761 0.500000
O O17 0.000000 0.134819 0.274944
O O18 0.194974 0.331329 0.500000
O O19 0.000000 0.331379 0.302356
O O20 0.000000 0.500000 0.161298
O O21 0.225233 0.500000 0.000000
#
# Coordination Sequence:
#
# PCOD8199146 Si02
#       7
#     8   8   8   8   8   8   4
#     4  10  21  35  49  66  89 118 152 187 225 273
#     4   7   9  14  26  46  73 103 132 162 198 242
#     4   8  14  25  40  59  86 118 148 179 217 260
#     4   9  17  29  44  60  80 108 140 175 216 260
#     4   8  13  21  35  56  79 104 137 173 206 246
#     4   9  18  32  50  72  95 119 150 188 229 271
#     4   9  15  21  33  57  88 121 154 183 212 252
#
# _framework density 17.054691999999999
#
# number of rings (size 3 to 8) (size 9 to 14) (size 15 to 20)
#    0.000    3.462    0.000    3.000    0.000    3.385 
#    0.000    3.077    0.000    0.462    0.000    3.769 
#    0.000    4.923    0.000    7.692    0.000    7.077 
#
# Total GULP energy -644185.657859 kJ/mol
# GULP energy per Si atom -12388.185728 kJ/mol
# Density = 1.701587 g / cm^3
# Si number density = 17.054692 Si / 1000 Ang^3
#
#
#
# Elastic Constant Matrix: (Units=GPa)
#
#
# Indices 1 2 3 4 5 6 
#
# 1 35.7998 53.9454 28.2943 0.0000 0.0000 0.0000
# 2 53.9454 193.4817 74.8361 0.0000 0.0000 0.0000
# 3 28.2943 74.8361 71.5531 0.0000 0.0000 0.0000
# 4 0.0000 0.0000 0.0000 2.0671 0.0000 0.0000
# 5 0.0000 0.0000 0.0000 0.0000 14.5485 0.0000
# 6 0.0000 0.0000 0.0000 0.0000 0.0000 -0.3651
#
#
#
# Elastic Compliance Matrix: (Units=1/GPa)
#
#
# Indices 1 2 3 4 5 6 
#
# 1 0.051377 -0.010860 -0.008958 0.000000 0.000000 0.000000
# 2 -0.010860 0.010975 -0.007184 0.000000 0.000000 0.000000
# 3 -0.008958 -0.007184 0.025032 0.000000 0.000000 0.000000
# 4 0.000000 0.000000 0.000000 0.483779 0.000000 0.000000
# 5 0.000000 0.000000 0.000000 0.000000 0.068736 0.000000
# 6 0.000000 0.000000 0.000000 0.000000 0.000000 -2.739179
#
#
# Mechanical properties :
#
#
# Convention : Reuss Voigt Hill
#
# Bulk Modulus (GPa) = 29.95814 68.33179 49.14496
# Shear Modulus (GPa) = -2.45803 12.83401 5.18799
#
# Velocity S-wave (km/s) = -1.20183 2.74619 1.74602
# Velocity P-wave (km/s) = 3.95957 7.08581 5.73964
#
# Compressibility (1/GPa) = 0.03337991
#
# Stress axis : x y z
#
# Youngs Moduli (GPa) = 19.46381 91.11472 39.94894
#
# Poissons Ratio (x) = 0.98950 0.35786
# Poissons Ratio (y) = 0.21137 0.28701
# Poissons Ratio (z) = 0.17436 0.65461
#
# Static dielectric constant tensor:
#      x y z
#    x 2.790720 0.000000 0.000000 
#    y 0.000000 3.697050 0.000000 
#    z 0.000000 0.000000 2.938770 
# 
# 
# High freq. dielectric constant tensor:
#      x y z
#    x 1.608560 0.000000 0.000000 
#    y 0.000000 1.684030 0.000000 
#    z 0.000000 0.000000 1.618520 
# 
# From -- ./inp_files/4807.got.cif
#   From: 2010.03.12/outbox.cif.g09.slc.cpg/sg47_3_cif.got.tgz:4807.got - 2010.04.14 03:12:58.
