data_PCOD8199709
_publ_section_title
;
Structure prediction by ZEFSAII (Michael W. Deem and Ramdas Pophale) SiO2 
 PCOD8199709
Probable space group: P M M M
;
_chemical_formula_sum "Si O2"
_cell_formula_units_Z 48
_cell_length_a 20.238127
_cell_length_b 8.887029
_cell_length_c 13.128838
_cell_angle_alpha 90.000000
_cell_angle_beta 90.000000
_cell_angle_gamma 90.000000
_cell_volume 2361.311073
_symmetry_space_group_name_H-M "P M M M"
_symmetry_group_IT_number 47
_symmetry_cell_setting 'orthorhombic'
loop_
_space_group_symop_operation_xyz
x,y,z
-x,-y,z
x,-y,-z
-x,y,-z
-x,-y,-z
x,y,-z
-x,y,z
x,-y,z
loop_
_atom_site_type_symbol
_atom_site_label
_atom_site_fract_x
_atom_site_fract_y
_atom_site_fract_z
Si Si1 0.194946 0.175979 0.709336
Si Si2 0.000000 0.827034 0.878454
Si Si3 0.668945 0.821265 0.386431
Si Si4 0.575906 0.177505 0.793749
Si Si5 0.927391 0.667929 0.380116
Si Si6 0.578511 0.670444 0.000000
Si Si7 0.133882 0.677590 0.886212
O O1 0.258095 0.232951 0.645926
O O2 0.128523 0.213138 0.648557
O O3 0.194172 0.262236 0.817747
O O4 0.199477 0.000000 0.730836
O O5 0.934109 0.743592 0.837609
O O6 0.000000 0.000000 0.842405
O O7 0.000000 0.813022 0.000000
O O8 0.653212 0.757556 0.500000
O O9 0.616056 0.760415 0.304079
O O10 0.665836 0.000000 0.389429
O O11 0.500000 0.224200 0.776455
O O12 0.584046 0.000000 0.805339
O O13 0.605021 0.249601 0.897476
O O14 0.931014 0.658932 0.500000
O O15 0.910257 0.500000 0.337059
O O16 0.000000 0.719906 0.338901
O O17 0.604223 0.500000 0.000000
O O18 0.500000 0.680953 0.000000
O O19 0.130022 0.500000 0.885488
O O20 0.145086 0.739206 0.000000
#
# Coordination Sequence:
#
# PCOD8199709 Si02
#       7
#     8   4   8   8   8   4   8
#     4  11  22  35  54  78 107 144 183 227 279 335
#     4   9  17  31  53  79 104 131 170 223 281 342
#     4   9  19  36  56  82 116 150 186 232 286 337
#     4   9  17  32  58  89 117 149 191 234 275 327
#     4   9  19  36  56  77 102 134 175 225 277 327
#     4   9  17  31  53  83 121 157 186 225 278 331
#     4  10  21  37  55  75 104 142 182 227 279 334
#
# _framework density 20.327691000000002
#
# number of rings (size 3 to 8) (size 9 to 14) (size 15 to 20)
#    0.000    2.500    0.000    2.500    1.167    4.667 
#    1.500    4.167    0.000    2.500    0.000    2.333 
#    0.000    0.000    0.000    0.000    0.000    0.000 
#
# Total GULP energy -595104.981968 kJ/mol
# GULP energy per Si atom -12398.020458 kJ/mol
# Density = 2.028142 g / cm^3
# Si number density = 20.327691 Si / 1000 Ang^3
#
#
#
# Elastic Constant Matrix: (Units=GPa)
#
#
# Indices 1 2 3 4 5 6 
#
# 1 97.3580 27.7910 70.8628 0.0000 0.0000 0.0000
# 2 27.7910 61.6957 25.3926 0.0000 0.0000 0.0000
# 3 70.8628 25.3926 154.8269 0.0000 0.0000 0.0000
# 4 0.0000 0.0000 0.0000 22.8886 0.0000 0.0000
# 5 0.0000 0.0000 0.0000 0.0000 36.4371 0.0000
# 6 0.0000 0.0000 0.0000 0.0000 0.0000 13.2001
#
#
#
# Elastic Compliance Matrix: (Units=1/GPa)
#
#
# Indices 1 2 3 4 5 6 
#
# 1 0.016562 -0.004655 -0.006817 0.000000 0.000000 0.000000
# 2 -0.004655 0.018690 -0.000935 0.000000 0.000000 0.000000
# 3 -0.006817 -0.000935 0.009732 0.000000 0.000000 0.000000
# 4 0.000000 0.000000 0.000000 0.043690 0.000000 0.000000
# 5 0.000000 0.000000 0.000000 0.000000 0.027445 0.000000
# 6 0.000000 0.000000 0.000000 0.000000 0.000000 0.075757
#
#
# Mechanical properties :
#
#
# Convention : Reuss Voigt Hill
#
# Bulk Modulus (GPa) = 49.57542 62.44150 56.00846
# Shear Modulus (GPa) = 22.38024 27.16078 24.77051
#
# Velocity S-wave (km/s) = 3.32169 3.65930 3.49457
# Velocity P-wave (km/s) = 6.25720 6.97410 6.62536
#
# Compressibility (1/GPa) = 0.02017129
#
# Stress axis : x y z
#
# Youngs Moduli (GPa) = 60.38045 53.50438 102.75271
#
# Poissons Ratio (x) = 0.24904 0.70044
# Poissons Ratio (y) = 0.28105 0.09606
# Poissons Ratio (z) = 0.41160 0.05002
#
# Static dielectric constant tensor:
#      x y z
#    x 3.612500 0.000000 0.000000 
#    y 0.000000 3.438580 0.000000 
#    z 0.000000 0.000000 4.075210 
# 
# 
# High freq. dielectric constant tensor:
#      x y z
#    x 1.772820 0.000000 0.000000 
#    y 0.000000 1.770090 0.000000 
#    z 0.000000 0.000000 1.817310 
# 
# From -- ./inp_files/24446.got.cif
#   From: 2010.03.12/outbox.cif.g09.slc.cpg/sg47_13_cif.got.tgz:24446.got - 2010.04.14 03:12:58.
