data_PCOD8199180
_publ_section_title
;
Structure prediction by ZEFSAII (Michael W. Deem and Ramdas Pophale) SiO2 
 PCOD8199180
Probable space group: P M M M
;
_chemical_formula_sum "Si O2"
_cell_formula_units_Z 52
_cell_length_a 14.344960
_cell_length_b 23.484997
_cell_length_c 9.247964
_cell_angle_alpha 90.000000
_cell_angle_beta 90.000000
_cell_angle_gamma 90.000000
_cell_volume 3115.559008
_symmetry_space_group_name_H-M "P M M M"
_symmetry_group_IT_number 47
_symmetry_cell_setting 'orthorhombic'
loop_
_space_group_symop_operation_xyz
x,y,z
-x,-y,z
x,-y,-z
-x,y,-z
-x,-y,-z
x,y,-z
-x,y,z
x,-y,z
loop_
_atom_site_type_symbol
_atom_site_label
_atom_site_fract_x
_atom_site_fract_y
_atom_site_fract_z
Si Si1 0.608424 0.670257 0.831187
Si Si2 0.105278 0.393242 0.332533
Si Si3 0.601309 0.000000 0.170393
Si Si4 0.273272 0.437031 0.167026
Si Si5 0.611184 0.876785 0.165875
Si Si6 0.100880 0.734886 0.328762
Si Si7 0.297227 0.225263 0.671736
O O1 0.500000 0.665098 0.796918
O O2 0.654722 0.611077 0.779054
O O3 0.649354 0.721705 0.739330
O O4 0.626413 0.682535 0.000000
O O5 0.132184 0.395376 0.500000
O O6 0.175194 0.433975 0.248628
O O7 0.116579 0.329112 0.270934
O O8 0.000000 0.415033 0.307665
O O9 0.650831 0.939964 0.211024
O O10 0.500000 0.000000 0.245826
O O11 0.586129 0.000000 0.000000
O O12 0.316389 0.500000 0.194811
O O13 0.251572 0.427513 0.000000
O O14 0.500000 0.874305 0.185840
O O15 0.660080 0.833145 0.272267
O O16 0.637056 0.862232 0.000000
O O17 0.095965 0.731650 0.500000
O O18 0.188092 0.773619 0.280007
O O19 0.000000 0.758406 0.271004
O O20 0.308331 0.228389 0.500000
#
# Coordination Sequence:
#
# PCOD8199180 Si02
#       7
#     8   8   4   8   8   8   8
#     4  10  21  36  51  66  89 123 159 193 231 279
#     4   9  17  32  53  72  91 119 153 186 227 285
#     4   7  12  26  47  67  90 129 174 200 217 257
#     4  10  21  35  50  69  92 118 152 196 242 282
#     4   9  17  30  48  70  99 134 167 195 225 268
#     4   8  15  29  48  68  91 120 152 186 228 277
#     4  11  20  30  49  75  99 122 152 194 239 279
#
# _framework density 16.690424
#
# number of rings (size 3 to 8) (size 9 to 14) (size 15 to 20)
#    0.000    2.692    1.538    2.769    0.000    3.692 
#    0.000    3.462    0.000    3.231    0.000    2.692 
#    0.000    4.308    0.000    0.000    0.000    0.000 
#
# Total GULP energy -644371.354327 kJ/mol
# GULP energy per Si atom -12391.756814 kJ/mol
# Density = 1.665244 g / cm^3
# Si number density = 16.690424 Si / 1000 Ang^3
#
#
#
# Elastic Constant Matrix: (Units=GPa)
#
#
# Indices 1 2 3 4 5 6 
#
# 1 100.1177 62.7870 39.6144 0.0000 0.0000 0.0000
# 2 62.7870 133.9567 43.8954 0.0000 0.0000 0.0000
# 3 39.6144 43.8954 45.6567 0.0000 0.0000 0.0000
# 4 0.0000 0.0000 0.0000 15.4290 0.0000 0.0000
# 5 0.0000 0.0000 0.0000 0.0000 21.2756 0.0000
# 6 0.0000 0.0000 0.0000 0.0000 0.0000 16.9893
#
#
#
# Elastic Compliance Matrix: (Units=1/GPa)
#
#
# Indices 1 2 3 4 5 6 
#
# 1 0.016922 -0.004555 -0.010302 0.000000 0.000000 0.000000
# 2 -0.004555 0.012125 -0.007705 0.000000 0.000000 0.000000
# 3 -0.010302 -0.007705 0.038249 0.000000 0.000000 0.000000
# 4 0.000000 0.000000 0.000000 0.064813 0.000000 0.000000
# 5 0.000000 0.000000 0.000000 0.000000 0.047002 0.000000
# 6 0.000000 0.000000 0.000000 0.000000 0.000000 0.058861
#
#
# Mechanical properties :
#
#
# Convention : Reuss Voigt Hill
#
# Bulk Modulus (GPa) = 45.10502 63.59161 54.34831
# Shear Modulus (GPa) = 17.21252 19.63441 18.42347
#
# Velocity S-wave (km/s) = 3.21484 3.43357 3.32600
# Velocity P-wave (km/s) = 6.39245 7.34184 6.88353
#
# Compressibility (1/GPa) = 0.02217048
#
# Stress axis : x y z
#
# Youngs Moduli (GPa) = 59.09640 82.47458 26.14445
#
# Poissons Ratio (x) = 0.37570 0.26935
# Poissons Ratio (y) = 0.26921 0.20144
# Poissons Ratio (z) = 0.60884 0.63544
#
# Static dielectric constant tensor:
#      x y z
#    x 3.300290 0.000000 0.000000 
#    y 0.000000 3.302470 0.000000 
#    z 0.000000 0.000000 2.917210 
# 
# 
# High freq. dielectric constant tensor:
#      x y z
#    x 1.633230 0.000000 0.000000 
#    y 0.000000 1.637770 0.000000 
#    z 0.000000 0.000000 1.621890 
# 
# From -- ./inp_files/7631.got.cif
#   From: 2010.03.12/outbox.cif.g09.slc.cpg/sg47_4_cif.got.tgz:7631.got - 2010.04.14 03:12:58.
