data_PCOD8199206
_publ_section_title
;
Structure prediction by ZEFSAII (Michael W. Deem and Ramdas Pophale) SiO2 
 PCOD8199206
Probable space group: P M M M
;
_chemical_formula_sum "Si O2"
_cell_formula_units_Z 64
_cell_length_a 40.004310
_cell_length_b 9.397877
_cell_length_c 9.854013
_cell_angle_alpha 90.000000
_cell_angle_beta 90.000000
_cell_angle_gamma 90.000000
_cell_volume 3704.671221
_symmetry_space_group_name_H-M "P M M M"
_symmetry_group_IT_number 47
_symmetry_cell_setting 'orthorhombic'
loop_
_space_group_symop_operation_xyz
x,y,z
-x,-y,z
x,-y,-z
-x,y,-z
-x,-y,-z
x,y,-z
-x,y,z
x,-y,z
loop_
_atom_site_type_symbol
_atom_site_label
_atom_site_fract_x
_atom_site_fract_y
_atom_site_fract_z
Si Si1 0.163206 0.332513 0.652982
Si Si2 0.087666 0.664857 0.343091
Si Si3 0.404518 0.834704 0.656633
Si Si4 0.537001 0.831050 0.847936
Si Si5 0.962001 0.166472 0.845696
Si Si6 0.711023 0.836684 0.843316
Si Si7 0.788535 0.837194 0.844953
Si Si8 0.661756 0.666439 0.342663
O O1 0.170641 0.281445 0.500000
O O2 0.167710 0.500000 0.664121
O O3 0.125489 0.289696 0.693799
O O4 0.189343 0.261237 0.751639
O O5 0.080346 0.697139 0.500000
O O6 0.082154 0.500000 0.310887
O O7 0.062448 0.753444 0.253840
O O8 0.413827 0.812717 0.500000
O O9 0.435509 0.772882 0.743118
O O10 0.372361 0.744339 0.698791
O O11 0.397203 0.000000 0.689224
O O12 0.500000 0.773669 0.808079
O O13 0.536544 0.000000 0.841824
O O14 0.546257 0.780095 0.000000
O O15 0.000000 0.209963 0.811314
O O16 0.956908 0.000000 0.824203
O O17 0.953482 0.209201 0.000000
O O18 0.749821 0.807039 0.815681
O O19 0.691224 0.729783 0.747504
O O20 0.702100 0.000000 0.807501
O O21 0.702084 0.805875 0.000000
O O22 0.797204 0.000000 0.812701
O O23 0.797052 0.800823 0.000000
O O24 0.670307 0.694684 0.500000
O O25 0.657918 0.500000 0.311890
#
# Coordination Sequence:
#
# PCOD8199206 Si02
#       8
#     8   8   8   8   8   8   8   8
#     4   9  19  35  52  72 101 134 166 201 241 287
#     4   9  19  35  52  72 100 132 166 204 244 287
#     4   9  17  29  46  68  93 122 157 196 237 282
#     4   8  14  25  42  66  94 120 149 190 238 284
#     4   9  19  35  52  72 100 131 163 202 248 296
#     4   9  19  36  55  74  98 128 162 201 244 290
#     4   9  19  35  53  75 102 129 160 200 244 290
#     4  10  21  35  50  71 100 131 163 201 244 290
#
# _framework density 17.275486999999998
#
# number of rings (size 3 to 8) (size 9 to 14) (size 15 to 20)
#    0.000    3.000    0.000    2.625    0.000    5.250 
#    0.000   11.875    0.000    0.375    0.000    2.625 
#    0.000    0.000    0.000    0.000    0.000    0.000 
#
# Total GULP energy -793503.722472 kJ/mol
# GULP energy per Si atom -12398.495664 kJ/mol
# Density = 1.723617 g / cm^3
# Si number density = 17.275487 Si / 1000 Ang^3
#
#
#
# Elastic Constant Matrix: (Units=GPa)
#
#
# Indices 1 2 3 4 5 6 
#
# 1 99.1606 41.7969 58.4535 0.0000 0.0000 0.0000
# 2 41.7969 48.5692 31.7245 0.0000 0.0000 0.0000
# 3 58.4535 31.7245 68.1520 0.0000 0.0000 0.0000
# 4 0.0000 0.0000 0.0000 31.1963 0.0000 0.0000
# 5 0.0000 0.0000 0.0000 0.0000 42.1960 0.0000
# 6 0.0000 0.0000 0.0000 0.0000 0.0000 42.3085
#
#
#
# Elastic Compliance Matrix: (Units=1/GPa)
#
#
# Indices 1 2 3 4 5 6 
#
# 1 0.023403 -0.010099 -0.015371 0.000000 0.000000 0.000000
# 2 -0.010099 0.033943 -0.007138 0.000000 0.000000 0.000000
# 3 -0.015371 -0.007138 0.031179 0.000000 0.000000 0.000000
# 4 0.000000 0.000000 0.000000 0.032055 0.000000 0.000000
# 5 0.000000 0.000000 0.000000 0.000000 0.023699 0.000000
# 6 0.000000 0.000000 0.000000 0.000000 0.000000 0.023636
#
#
# Mechanical properties :
#
#
# Convention : Reuss Voigt Hill
#
# Bulk Modulus (GPa) = 42.90395 53.31463 48.10929
# Shear Modulus (GPa) = 20.75544 28.73397 24.74470
#
# Velocity S-wave (km/s) = 3.46994 4.08276 3.78876
# Velocity P-wave (km/s) = 6.39867 7.29065 6.85918
#
# Compressibility (1/GPa) = 0.02330787
#
# Stress axis : x y z
#
# Youngs Moduli (GPa) = 42.73044 29.46137 32.07240
#
# Poissons Ratio (x) = 0.29754 0.49298
# Poissons Ratio (y) = 0.43155 0.22894
# Poissons Ratio (z) = 0.65681 0.21030
#
# Static dielectric constant tensor:
#      x y z
#    x 3.420510 0.000000 0.000000 
#    y 0.000000 3.016940 0.000000 
#    z 0.000000 0.000000 3.261520 
# 
# 
# High freq. dielectric constant tensor:
#      x y z
#    x 1.673490 0.000000 0.000000 
#    y 0.000000 1.649850 0.000000 
#    z 0.000000 0.000000 1.669740 
# 
# From -- ./inp_files/20112.got.cif
#   From: 2010.03.12/outbox.cif.g09.slc.cpg/sg47_11_cif.got.tgz:20112.got - 2010.04.14 03:12:58.
