data_PCOD8199130
_publ_section_title
;
Structure prediction by ZEFSAII (Michael W. Deem and Ramdas Pophale) SiO2 
 PCOD8199130
Probable space group: P M M M
;
_chemical_formula_sum "Si O2"
_cell_formula_units_Z 64
_cell_length_a 9.687230
_cell_length_b 14.695902
_cell_length_c 24.778380
_cell_angle_alpha 90.000000
_cell_angle_beta 90.000000
_cell_angle_gamma 90.000000
_cell_volume 3527.514173
_symmetry_space_group_name_H-M "P M M M"
_symmetry_group_IT_number 47
_symmetry_cell_setting 'orthorhombic'
loop_
_space_group_symop_operation_xyz
x,y,z
-x,-y,z
x,-y,-z
-x,y,-z
-x,-y,-z
x,y,-z
-x,y,z
x,-y,z
loop_
_atom_site_type_symbol
_atom_site_label
_atom_site_fract_x
_atom_site_fract_y
_atom_site_fract_z
Si Si1 0.748322 0.100440 0.772723
Si Si2 0.154162 0.102374 0.344113
Si Si3 0.156151 0.605425 0.562817
Si Si4 0.842382 0.097842 0.109537
Si Si5 0.162973 0.395633 0.840167
Si Si6 0.661506 0.267409 0.635206
Si Si7 0.835536 0.720217 0.059895
Si Si8 0.650402 0.291254 0.242173
O O1 0.847010 0.108537 0.720928
O O2 0.838535 0.113965 0.826382
O O3 0.639704 0.182978 0.770106
O O4 0.675335 0.000000 0.773174
O O5 0.265380 0.169322 0.371016
O O6 0.000000 0.128564 0.363609
O O7 0.191958 0.000000 0.362737
O O8 0.174247 0.626909 0.500000
O O9 0.184897 0.500000 0.574740
O O10 0.269380 0.662671 0.594458
O O11 0.000000 0.630611 0.581121
O O12 0.771778 0.181886 0.077871
O O13 0.000000 0.093667 0.091475
O O14 0.771891 0.000000 0.094502
O O15 0.208724 0.500000 0.837757
O O16 0.213445 0.356406 0.897888
O O17 0.232875 0.341315 0.791745
O O18 0.000000 0.383765 0.832992
O O19 0.500000 0.255843 0.621580
O O20 0.684189 0.307097 0.695087
O O21 0.000000 0.725346 0.060358
O O22 0.780829 0.695553 0.000000
O O23 0.500000 0.332255 0.227970
#
# Coordination Sequence:
#
# PCOD8199130 Si02
#       8
#     8   8   8   8   8   8   8   8
#     4   9  16  27  46  72 100 131 168 207 247 300
#     4   9  17  29  48  75 106 142 182 221 261 304
#     4   9  19  37  60  84 109 139 178 223 267 310
#     4   9  15  23  40  68  99 127 155 194 247 303
#     4  10  21  36  53  72  94 125 167 214 263 312
#     4  10  21  34  51  79 112 146 179 213 260 314
#     4   9  17  29  46  69  96 125 159 204 257 312
#     4  10  21  35  51  75 107 139 169 205 252 305
#
# _framework density 18.143087999999999
#
# number of rings (size 3 to 8) (size 9 to 14) (size 15 to 20)
#    0.000    2.625    1.250    1.125    0.000    6.250 
#    0.000    8.125    0.000    0.750    0.000    3.500 
#    0.000    2.000    0.000    0.000    0.000    0.000 
#
# Total GULP energy -793132.920696 kJ/mol
# GULP energy per Si atom -12392.701886 kJ/mol
# Density = 1.810179 g / cm^3
# Si number density = 18.143088 Si / 1000 Ang^3
#
#
#
# Elastic Constant Matrix: (Units=GPa)
#
#
# Indices 1 2 3 4 5 6 
#
# 1 83.7282 56.4710 44.2847 0.0000 0.0000 0.0000
# 2 56.4710 125.3159 58.9531 0.0000 0.0000 0.0000
# 3 44.2847 58.9531 76.3077 0.0000 0.0000 0.0000
# 4 0.0000 0.0000 0.0000 28.4382 0.0000 0.0000
# 5 0.0000 0.0000 0.0000 0.0000 12.8262 0.0000
# 6 0.0000 0.0000 0.0000 0.0000 0.0000 16.9991
#
#
#
# Elastic Compliance Matrix: (Units=1/GPa)
#
#
# Indices 1 2 3 4 5 6 
#
# 1 0.019299 -0.005385 -0.007040 0.000000 0.000000 0.000000
# 2 -0.005385 0.014038 -0.007721 0.000000 0.000000 0.000000
# 3 -0.007040 -0.007721 0.023155 0.000000 0.000000 0.000000
# 4 0.000000 0.000000 0.000000 0.035164 0.000000 0.000000
# 5 0.000000 0.000000 0.000000 0.000000 0.077965 0.000000
# 6 0.000000 0.000000 0.000000 0.000000 0.000000 0.058827
#
#
# Mechanical properties :
#
#
# Convention : Reuss Voigt Hill
#
# Bulk Modulus (GPa) = 61.72159 67.19660 64.45910
# Shear Modulus (GPa) = 18.23894 20.02890 19.13392
#
# Velocity S-wave (km/s) = 3.17406 3.32617 3.25100
# Velocity P-wave (km/s) = 6.89392 7.20199 7.04963
#
# Compressibility (1/GPa) = 0.01620179
#
# Stress axis : x y z
#
# Youngs Moduli (GPa) = 51.81733 71.23302 43.18720
#
# Poissons Ratio (x) = 0.38357 0.30402
# Poissons Ratio (y) = 0.27902 0.33343
# Poissons Ratio (z) = 0.36478 0.54997
#
# Static dielectric constant tensor:
#      x y z
#    x 2.998670 0.000000 0.000000 
#    y 0.000000 3.564100 0.000000 
#    z 0.000000 0.000000 3.229880 
# 
# 
# High freq. dielectric constant tensor:
#      x y z
#    x 1.668080 0.000000 0.000000 
#    y 0.000000 1.711790 0.000000 
#    z 0.000000 0.000000 1.686750 
# 
# From -- ./inp_files/32104.got.cif
#   From: 2010.03.12/outbox.cif.g09.slc.cpg/sg47_17_cif.got.tgz:32104.got - 2010.04.14 03:12:58.
