data_PCOD8199635
_publ_section_title
;
Structure prediction by ZEFSAII (Michael W. Deem and Ramdas Pophale) SiO2 
 PCOD8199635
Probable space group: P M M M
;
_chemical_formula_sum "Si O2"
_cell_formula_units_Z 36
_cell_length_a 8.027271
_cell_length_b 14.250591
_cell_length_c 14.253763
_cell_angle_alpha 90.000000
_cell_angle_beta 90.000000
_cell_angle_gamma 90.000000
_cell_volume 1630.535783
_symmetry_space_group_name_H-M "P M M M"
_symmetry_group_IT_number 47
_symmetry_cell_setting 'orthorhombic'
loop_
_space_group_symop_operation_xyz
x,y,z
-x,-y,z
x,-y,-z
-x,y,-z
-x,-y,-z
x,y,-z
-x,y,z
x,-y,z
loop_
_atom_site_type_symbol
_atom_site_label
_atom_site_fract_x
_atom_site_fract_y
_atom_site_fract_z
Si Si1 0.686420 0.275183 0.609264
Si Si2 0.190118 0.894017 0.720302
Si Si3 0.690400 0.202545 0.106093
Si Si4 0.187424 0.398532 0.111537
Si Si5 0.000000 0.394673 0.611807
O O1 0.717727 0.257911 0.500000
O O2 0.500000 0.316897 0.626634
O O3 0.695556 0.174524 0.659316
O O4 0.830947 0.344143 0.649044
O O5 0.203409 0.867623 0.830180
O O6 0.000000 0.884061 0.687412
O O7 0.253623 0.000000 0.705484
O O8 0.500000 0.171339 0.110427
O O9 0.704142 0.309742 0.145830
O O10 0.760185 0.195950 0.000000
O O11 0.259046 0.500000 0.146648
O O12 0.000000 0.385482 0.150576
O O13 0.185511 0.399584 0.000000
O O14 0.000000 0.500000 0.652325
O O15 0.000000 0.396516 0.500000
#
# Coordination Sequence:
#
# PCOD8199635 Si02
#       5
#     8   8   8   8   4
#     4  10  21  39  65  96 130 166 204 250 306 366
#     4  11  24  41  62  86 115 156 207 263 316 368
#     4  10  21  36  55  81 115 154 197 251 311 370
#     4   8  14  27  49  75 103 139 183 231 286 348
#     4   9  18  36  63  95 132 169 205 247 297 361
#
# _framework density 22.078633
#
# number of rings (size 3 to 8) (size 9 to 14) (size 15 to 20)
#    0.000    2.333    1.111    2.000    0.000    4.889 
#    0.000   10.000    0.000    2.667    0.000    0.000 
#    0.000    0.000    0.000    0.000    0.000    0.000 
#
# Total GULP energy -446283.269027 kJ/mol
# GULP energy per Si atom -12396.757473 kJ/mol
# Density = 2.202838 g / cm^3
# Si number density = 22.078633 Si / 1000 Ang^3
#
#
#
# Elastic Constant Matrix: (Units=GPa)
#
#
# Indices 1 2 3 4 5 6 
#
# 1 111.8583 56.5499 26.1490 0.0000 0.0000 0.0000
# 2 56.5499 141.7840 26.9784 0.0000 0.0000 0.0000
# 3 26.1490 26.9784 35.7554 0.0000 0.0000 0.0000
# 4 0.0000 0.0000 0.0000 28.0582 0.0000 0.0000
# 5 0.0000 0.0000 0.0000 0.0000 26.9063 0.0000
# 6 0.0000 0.0000 0.0000 0.0000 0.0000 24.2987
#
#
#
# Elastic Compliance Matrix: (Units=1/GPa)
#
#
# Indices 1 2 3 4 5 6 
#
# 1 0.012259 -0.003717 -0.006161 0.000000 0.000000 0.000000
# 2 -0.003717 0.009363 -0.004346 0.000000 0.000000 0.000000
# 3 -0.006161 -0.004346 0.035752 0.000000 0.000000 0.000000
# 4 0.000000 0.000000 0.000000 0.035640 0.000000 0.000000
# 5 0.000000 0.000000 0.000000 0.000000 0.037166 0.000000
# 6 0.000000 0.000000 0.000000 0.000000 0.000000 0.041154
#
#
# Mechanical properties :
#
#
# Convention : Reuss Voigt Hill
#
# Bulk Modulus (GPa) = 34.57034 56.52805 45.54919
# Shear Modulus (GPa) = 23.87492 27.83400 25.85446
#
# Velocity S-wave (km/s) = 3.29197 3.55445 3.42573
# Velocity P-wave (km/s) = 5.49010 6.51952 6.02683
#
# Compressibility (1/GPa) = 0.02892653
#
# Stress axis : x y z
#
# Youngs Moduli (GPa) = 81.57006 106.80896 27.97022
#
# Poissons Ratio (x) = 0.39704 0.17232
# Poissons Ratio (y) = 0.30322 0.12155
# Poissons Ratio (z) = 0.50254 0.46416
#
# Static dielectric constant tensor:
#      x y z
#    x 3.907420 0.000000 0.000000 
#    y 0.000000 4.188880 0.000000 
#    z 0.000000 0.000000 3.764960 
# 
# 
# High freq. dielectric constant tensor:
#      x y z
#    x 1.860370 0.000000 0.000000 
#    y 0.000000 1.862210 0.000000 
#    z 0.000000 0.000000 1.857500 
# 
# From -- ./inp_files/20563.got.cif
#   From: 2010.03.12/outbox.cif.g09.slc.cpg/sg47_11_cif.got.tgz:20563.got - 2010.04.14 03:12:58.
