data_PCOD8199113
_publ_section_title
;
Structure prediction by ZEFSAII (Michael W. Deem and Ramdas Pophale) SiO2 
 PCOD8199113
Probable space group: P M M M
;
_chemical_formula_sum "Si O2"
_cell_formula_units_Z 52
_cell_length_a 13.444595
_cell_length_b 9.068588
_cell_length_c 22.762634
_cell_angle_alpha 90.000000
_cell_angle_beta 90.000000
_cell_angle_gamma 90.000000
_cell_volume 2775.299844
_symmetry_space_group_name_H-M "P M M M"
_symmetry_group_IT_number 47
_symmetry_cell_setting 'orthorhombic'
loop_
_space_group_symop_operation_xyz
x,y,z
-x,-y,z
x,-y,-z
-x,y,-z
-x,-y,-z
x,y,-z
-x,y,z
x,-y,z
loop_
_atom_site_type_symbol
_atom_site_label
_atom_site_fract_x
_atom_site_fract_y
_atom_site_fract_z
Si Si1 0.311183 0.326935 0.873776
Si Si2 0.795120 0.173540 0.564067
Si Si3 0.888625 0.172945 0.681972
Si Si4 0.890159 0.325081 0.066641
Si Si5 0.288165 0.671788 0.739109
Si Si6 0.610593 0.829598 0.363156
Si Si7 0.500000 0.828758 0.930826
O O1 0.320716 0.500000 0.887929
O O2 0.202829 0.265697 0.894901
O O3 0.321946 0.294469 0.804978
O O4 0.400290 0.244204 0.905848
O O5 0.817314 0.246732 0.500000
O O6 0.870608 0.228349 0.614735
O O7 0.684082 0.218396 0.584550
O O8 0.804677 0.000000 0.556777
O O9 0.818916 0.255711 0.727755
O O10 0.000000 0.211123 0.700401
O O11 0.865136 0.000000 0.685462
O O12 0.890557 0.500000 0.069316
O O13 0.000000 0.268722 0.088982
O O14 0.873832 0.270629 0.000000
O O15 0.277732 0.500000 0.727078
O O16 0.370737 0.737858 0.695924
O O17 0.500000 0.798630 0.386029
O O18 0.627849 0.000000 0.346753
O O19 0.500000 0.000000 0.913568
O O20 0.500000 0.804304 0.000000
#
# Coordination Sequence:
#
# PCOD8199113 Si02
#       7
#     8   8   8   8   8   8   4
#     4  10  21  36  56  81 107 140 181 223 264 311
#     4   8  14  26  46  74 103 127 163 217 265 308
#     4   9  18  33  52  74 103 139 175 211 259 318
#     4   8  14  27  50  78 103 127 160 206 258 306
#     4  10  21  34  50  75 103 132 172 219 260 304
#     4   9  18  32  50  71  97 132 168 206 262 321
#     4  11  25  41  57  81 113 147 180 219 268 321
#
# _framework density 18.736713999999999
#
# number of rings (size 3 to 8) (size 9 to 14) (size 15 to 20)
#    0.000    2.846    0.000    2.538    1.077    4.308 
#    0.000    4.615    0.000    7.846    0.000   10.769 
#    0.000    0.000    0.000    0.000    0.000    0.000 
#
# Total GULP energy -644476.584130 kJ/mol
# GULP energy per Si atom -12393.780464 kJ/mol
# Density = 1.869407 g / cm^3
# Si number density = 18.736714 Si / 1000 Ang^3
#
#
#
# Elastic Constant Matrix: (Units=GPa)
#
#
# Indices 1 2 3 4 5 6 
#
# 1 102.3190 31.1681 22.2852 0.0000 0.0000 0.0000
# 2 31.1681 48.8744 36.0792 0.0000 0.0000 0.0000
# 3 22.2852 36.0792 76.2493 0.0000 0.0000 0.0000
# 4 0.0000 0.0000 0.0000 18.5896 0.0000 0.0000
# 5 0.0000 0.0000 0.0000 0.0000 19.9632 0.0000
# 6 0.0000 0.0000 0.0000 0.0000 0.0000 21.8738
#
#
#
# Elastic Compliance Matrix: (Units=1/GPa)
#
#
# Indices 1 2 3 4 5 6 
#
# 1 0.012131 -0.007867 0.000177 0.000000 0.000000 0.000000
# 2 -0.007867 0.036545 -0.014993 0.000000 0.000000 0.000000
# 3 0.000177 -0.014993 0.020158 0.000000 0.000000 0.000000
# 4 0.000000 0.000000 0.000000 0.053794 0.000000 0.000000
# 5 0.000000 0.000000 0.000000 0.000000 0.050092 0.000000
# 6 0.000000 0.000000 0.000000 0.000000 0.000000 0.045717
#
#
# Mechanical properties :
#
#
# Convention : Reuss Voigt Hill
#
# Bulk Modulus (GPa) = 42.61138 45.16752 43.88945
# Shear Modulus (GPa) = 18.40768 21.27932 19.84350
#
# Velocity S-wave (km/s) = 3.13779 3.37367 3.25787
# Velocity P-wave (km/s) = 5.99326 6.27171 6.13406
#
# Compressibility (1/GPa) = 0.02346791
#
# Stress axis : x y z
#
# Youngs Moduli (GPa) = 82.43198 27.36319 49.60910
#
# Poissons Ratio (x) = 0.21526 -0.00877
# Poissons Ratio (y) = 0.64848 0.74380
# Poissons Ratio (z) = -0.01458 0.41026
#
# Static dielectric constant tensor:
#      x y z
#    x 3.741960 0.000000 0.000000 
#    y 0.000000 3.112110 0.000000 
#    z 0.000000 0.000000 3.233430 
# 
# 
# High freq. dielectric constant tensor:
#      x y z
#    x 1.740250 0.000000 0.000000 
#    y 0.000000 1.686970 0.000000 
#    z 0.000000 0.000000 1.726660 
# 
# From -- ./inp_files/30910.got.cif
#   From: 2010.03.12/outbox.cif.g09.slc.cpg/sg47_16_cif.got.tgz:30910.got - 2010.04.14 03:12:58.
