data_PCOD8199141
_publ_section_title
;
Structure prediction by ZEFSAII (Michael W. Deem and Ramdas Pophale) SiO2 
 PCOD8199141
Probable space group: P M M M
;
_chemical_formula_sum "Si O2"
_cell_formula_units_Z 52
_cell_length_a 9.115983
_cell_length_b 13.626262
_cell_length_c 26.671364
_cell_angle_alpha 90.000000
_cell_angle_beta 90.000000
_cell_angle_gamma 90.000000
_cell_volume 3313.030761
_symmetry_space_group_name_H-M "P M M M"
_symmetry_group_IT_number 47
_symmetry_cell_setting 'orthorhombic'
loop_
_space_group_symop_operation_xyz
x,y,z
-x,-y,z
x,-y,-z
-x,y,-z
-x,-y,-z
x,y,-z
-x,y,z
x,-y,z
loop_
_atom_site_type_symbol
_atom_site_label
_atom_site_fract_x
_atom_site_fract_y
_atom_site_fract_z
Si Si1 0.672522 0.106824 0.606745
Si Si2 0.673203 0.301028 0.556598
Si Si3 0.169148 0.387523 0.648782
Si Si4 0.328216 0.887088 0.803848
Si Si5 0.672529 0.778027 0.703853
Si Si6 0.334232 0.117120 0.000000
Si Si7 0.834602 0.883222 0.097154
O O1 0.500000 0.094627 0.603481
O O2 0.723823 0.188333 0.566525
O O3 0.717544 0.141884 0.662263
O O4 0.745645 0.000000 0.595856
O O5 0.715572 0.330134 0.500000
O O6 0.500000 0.311690 0.566196
O O7 0.755349 0.372701 0.594680
O O8 0.187699 0.500000 0.664849
O O9 0.244102 0.323255 0.692380
O O10 0.000000 0.357280 0.643923
O O11 0.500000 0.877320 0.814544
O O12 0.278242 0.820330 0.757331
O O13 0.243324 0.846361 0.852265
O O14 0.287142 0.000000 0.792218
O O15 0.500000 0.756463 0.702052
O O16 0.252127 0.158441 0.950879
O O17 0.500000 0.157102 0.000000
O O18 0.332908 0.000000 0.000000
O O19 0.000000 0.842526 0.095743
O O20 0.832913 0.000000 0.095577
#
# Coordination Sequence:
#
# PCOD8199141 Si02
#       7
#     8   8   8   8   8   4   8
#     4   8  13  23  41  64  87 109 134 164 197 234
#     4   9  18  31  47  68  89 108 134 167 201 239
#     4  10  21  35  49  64  82 106 135 167 208 256
#     4   9  16  26  41  62  87 113 142 175 209 246
#     4   9  17  29  46  66  85 107 137 172 207 244
#     4   9  15  23  35  49  69 103 148 193 228 253
#     4   9  16  24  34  51  77 110 147 183 217 252
#
# _framework density 15.695599
#
# number of rings (size 3 to 8) (size 9 to 14) (size 15 to 20)
#    0.000    3.000    0.000    2.538    0.000    7.385 
#    0.000    3.077    0.000   11.077    0.000    4.308 
#    0.000    0.000    0.000    0.692    0.000   13.000 
#
# Total GULP energy -644610.090224 kJ/mol
# GULP energy per Si atom -12396.347889 kJ/mol
# Density = 1.565988 g / cm^3
# Si number density = 15.695599 Si / 1000 Ang^3
#
#
#
# Elastic Constant Matrix: (Units=GPa)
#
#
# Indices 1 2 3 4 5 6 
#
# 1 74.1984 28.5480 56.2555 0.0000 0.0000 0.0000
# 2 28.5480 60.2118 30.5293 0.0000 0.0000 0.0000
# 3 56.2555 30.5293 129.8110 0.0000 0.0000 0.0000
# 4 0.0000 0.0000 0.0000 15.4841 0.0000 0.0000
# 5 0.0000 0.0000 0.0000 0.0000 16.9138 0.0000
# 6 0.0000 0.0000 0.0000 0.0000 0.0000 14.3771
#
#
#
# Elastic Compliance Matrix: (Units=1/GPa)
#
#
# Indices 1 2 3 4 5 6 
#
# 1 0.022029 -0.006363 -0.008050 0.000000 0.000000 0.000000
# 2 -0.006363 0.020694 -0.002110 0.000000 0.000000 0.000000
# 3 -0.008050 -0.002110 0.011688 0.000000 0.000000 0.000000
# 4 0.000000 0.000000 0.000000 0.064582 0.000000 0.000000
# 5 0.000000 0.000000 0.000000 0.000000 0.059123 0.000000
# 6 0.000000 0.000000 0.000000 0.000000 0.000000 0.069555
#
#
# Mechanical properties :
#
#
# Convention : Reuss Voigt Hill
#
# Bulk Modulus (GPa) = 46.80196 54.98744 50.89470
# Shear Modulus (GPa) = 17.37078 19.28089 18.32584
#
# Velocity S-wave (km/s) = 3.33036 3.50869 3.42069
# Velocity P-wave (km/s) = 6.68369 7.17804 6.93527
#
# Compressibility (1/GPa) = 0.02136662
#
# Stress axis : x y z
#
# Youngs Moduli (GPa) = 45.39491 48.32217 85.55579
#
# Poissons Ratio (x) = 0.30746 0.68874
# Poissons Ratio (y) = 0.28884 0.18048
# Poissons Ratio (z) = 0.36543 0.10194
#
# Static dielectric constant tensor:
#      x y z
#    x 2.925710 0.000000 0.000000 
#    y 0.000000 2.769470 0.000000 
#    z 0.000000 0.000000 3.075850 
# 
# 
# High freq. dielectric constant tensor:
#      x y z
#    x 1.593260 0.000000 0.000000 
#    y 0.000000 1.560010 0.000000 
#    z 0.000000 0.000000 1.602200 
# 
# From -- ./inp_files/33382.got.cif
#   From: 2010.03.12/outbox.cif.g09.slc.cpg/sg47_17_cif.got.tgz:33382.got - 2010.04.14 03:12:58.
