data_PCOD8199568
_publ_section_title
;
Structure prediction by ZEFSAII (Michael W. Deem and Ramdas Pophale) SiO2 
 PCOD8199568
Probable space group: P M M M
;
_chemical_formula_sum "Si O2"
_cell_formula_units_Z 64
_cell_length_a 8.991225
_cell_length_b 14.071970
_cell_length_c 25.677157
_cell_angle_alpha 90.000000
_cell_angle_beta 90.000000
_cell_angle_gamma 90.000000
_cell_volume 3248.782992
_symmetry_space_group_name_H-M "P M M M"
_symmetry_group_IT_number 47
_symmetry_cell_setting 'orthorhombic'
loop_
_space_group_symop_operation_xyz
x,y,z
-x,-y,z
x,-y,-z
-x,y,-z
-x,-y,-z
x,y,-z
-x,y,z
x,-y,z
loop_
_atom_site_type_symbol
_atom_site_label
_atom_site_fract_x
_atom_site_fract_y
_atom_site_fract_z
Si Si1 0.670071 0.112413 0.849688
Si Si2 0.173342 0.390724 0.312908
Si Si3 0.324883 0.216428 0.350885
Si Si4 0.172684 0.887876 0.745117
Si Si5 0.170559 0.217701 0.058540
Si Si6 0.673780 0.607969 0.096137
Si Si7 0.830250 0.110326 0.559755
Si Si8 0.336900 0.612252 0.211531
O O1 0.500000 0.145802 0.846092
O O2 0.753568 0.151705 0.798247
O O3 0.738818 0.151177 0.902735
O O4 0.685740 0.000000 0.851730
O O5 0.219566 0.500000 0.322609
O O6 0.265883 0.325114 0.352360
O O7 0.214202 0.358138 0.253977
O O8 0.000000 0.374699 0.321718
O O9 0.500000 0.214168 0.343592
O O10 0.248839 0.160069 0.304132
O O11 0.282783 0.170362 0.405780
O O12 0.000000 0.860756 0.745599
O O13 0.197593 0.000000 0.739897
O O14 0.233261 0.325239 0.057954
O O15 0.000000 0.218733 0.076232
O O16 0.187443 0.177207 0.000000
O O17 0.500000 0.612838 0.082452
O O18 0.731734 0.500000 0.090213
O O19 0.703017 0.651282 0.154242
O O20 0.804898 0.139501 0.500000
O O21 0.000000 0.131753 0.576495
O O22 0.794757 0.000000 0.568029
O O23 0.500000 0.649546 0.229680
O O24 0.344576 0.500000 0.204815
#
# Coordination Sequence:
#
# PCOD8199568 Si02
#       8
#     8   8   8   8   8   8   8   8
#     4  10  22  41  64  87 111 141 180 230 288 346
#     4  10  21  36  54  78 111 153 200 245 288 337
#     4  12  24  35  55  87 123 162 198 238 288 341
#     4  10  21  38  60  86 118 153 188 229 279 339
#     4  11  25  41  57  80 110 146 187 231 280 338
#     4   9  19  36  58  82 109 143 182 228 282 338
#     4   9  19  38  63  89 120 159 201 246 294 342
#     4   8  15  30  51  75 104 137 175 222 278 337
#
# _framework density 19.699686
#
# number of rings (size 3 to 8) (size 9 to 14) (size 15 to 20)
#    0.000    2.125    0.000    4.125    1.750    6.500 
#    0.000    4.375    0.000    0.375    0.000    2.625 
#    0.000    0.000    0.000    0.000    0.000    0.000 
#
# Total GULP energy -793692.507905 kJ/mol
# GULP energy per Si atom -12401.445436 kJ/mol
# Density = 1.965485 g / cm^3
# Si number density = 19.699686 Si / 1000 Ang^3
#
#
#
# Elastic Constant Matrix: (Units=GPa)
#
#
# Indices 1 2 3 4 5 6 
#
# 1 135.2184 49.7633 59.3564 0.0000 0.0000 0.0000
# 2 49.7633 40.9731 42.6495 0.0000 0.0000 0.0000
# 3 59.3564 42.6495 101.7372 0.0000 0.0000 0.0000
# 4 0.0000 0.0000 0.0000 31.3188 0.0000 0.0000
# 5 0.0000 0.0000 0.0000 0.0000 27.2823 0.0000
# 6 0.0000 0.0000 0.0000 0.0000 0.0000 28.7536
#
#
#
# Elastic Compliance Matrix: (Units=1/GPa)
#
#
# Indices 1 2 3 4 5 6 
#
# 1 0.013553 -0.014602 -0.001786 0.000000 0.000000 0.000000
# 2 -0.014602 0.059033 -0.016228 0.000000 0.000000 0.000000
# 3 -0.001786 -0.016228 0.017674 0.000000 0.000000 0.000000
# 4 0.000000 0.000000 0.000000 0.031930 0.000000 0.000000
# 5 0.000000 0.000000 0.000000 0.000000 0.036654 0.000000
# 6 0.000000 0.000000 0.000000 0.000000 0.000000 0.034778
#
#
# Mechanical properties :
#
#
# Convention : Reuss Voigt Hill
#
# Bulk Modulus (GPa) = 39.95479 64.60744 52.28112
# Shear Modulus (GPa) = 18.71280 25.88156 22.29718
#
# Velocity S-wave (km/s) = 3.08539 3.62858 3.36795
# Velocity P-wave (km/s) = 5.74620 7.10090 6.45917
#
# Compressibility (1/GPa) = 0.02502829
#
# Stress axis : x y z
#
# Youngs Moduli (GPa) = 73.78313 16.93979 56.57903
#
# Poissons Ratio (x) = 0.24735 0.10106
# Poissons Ratio (y) = 1.07736 0.91817
# Poissons Ratio (z) = 0.13179 0.27490
#
# Static dielectric constant tensor:
#      x y z
#    x 3.607950 0.000000 0.000000 
#    y 0.000000 3.639450 0.000000 
#    z 0.000000 0.000000 3.506520 
# 
# 
# High freq. dielectric constant tensor:
#      x y z
#    x 1.769830 0.000000 0.000000 
#    y 0.000000 1.771390 0.000000 
#    z 0.000000 0.000000 1.754420 
# 
# From -- ./inp_files/21923.got.cif
#   From: 2010.03.12/outbox.cif.g09.slc.cpg/sg47_11_cif.got.tgz:21923.got - 2010.04.14 03:12:58.
