data_PCOD8199246
_publ_section_title
;
Structure prediction by ZEFSAII (Michael W. Deem and Ramdas Pophale) SiO2 
 PCOD8199246
Probable space group: P M M M
;
_chemical_formula_sum "Si O2"
_cell_formula_units_Z 48
_cell_length_a 32.726690
_cell_length_b 8.046829
_cell_length_c 9.321281
_cell_angle_alpha 90.000000
_cell_angle_beta 90.000000
_cell_angle_gamma 90.000000
_cell_volume 2454.722795
_symmetry_space_group_name_H-M "P M M M"
_symmetry_group_IT_number 47
_symmetry_cell_setting 'orthorhombic'
loop_
_space_group_symop_operation_xyz
x,y,z
-x,-y,z
x,-y,-z
-x,y,-z
-x,-y,-z
x,y,-z
-x,y,z
x,-y,z
loop_
_atom_site_type_symbol
_atom_site_label
_atom_site_fract_x
_atom_site_fract_y
_atom_site_fract_z
Si Si1 0.663821 0.308048 0.658381
Si Si2 0.953646 0.500000 0.328857
Si Si3 0.096548 0.184696 0.329442
Si Si4 0.411673 0.193868 0.831636
Si Si5 0.737374 0.692577 0.841615
Si Si6 0.811157 0.193161 0.338357
Si Si7 0.500000 0.803285 0.842474
O O1 0.661061 0.224540 0.500000
O O2 0.673931 0.500000 0.638518
O O3 0.621438 0.293293 0.742188
O O4 0.701011 0.223627 0.747714
O O5 0.951529 0.500000 0.500000
O O6 0.932220 0.668046 0.268465
O O7 0.000000 0.500000 0.273243
O O8 0.094512 0.180627 0.500000
O O9 0.142867 0.223968 0.281926
O O10 0.083201 0.000000 0.272420
O O11 0.456797 0.248368 0.769387
O O12 0.404072 0.000000 0.806708
O O13 0.408156 0.237928 0.000000
O O14 0.727679 0.500000 0.859544
O O15 0.780992 0.711576 0.766614
O O16 0.738205 0.776020 0.000000
O O17 0.806129 0.263262 0.500000
O O18 0.800414 0.000000 0.335887
O O19 0.500000 0.000000 0.859326
O O20 0.500000 0.722792 0.000000
#
# Coordination Sequence:
#
# PCOD8199246 Si02
#       7
#     8   4   8   8   8   8   4
#     4  10  21  36  51  69  97 133 168 200 241 294
#     4   9  16  24  38  64  95 133 177 211 251 306
#     4   8  15  27  41  62  94 129 167 211 255 302
#     4   9  17  31  53  77  98 124 160 202 247 292
#     4  10  21  35  51  72  96 124 161 203 247 295
#     4   9  18  32  50  72  97 128 166 204 246 298
#     4   7  12  26  48  73  98 122 154 197 242 291
#
# _framework density 19.554141000000001
#
# number of rings (size 3 to 8) (size 9 to 14) (size 15 to 20)
#    0.000    3.000    0.000    3.000    1.167    3.667 
#    0.000    2.500    0.000    4.000    0.000    0.000 
#    0.000    1.333    0.000    3.667    0.000    3.667 
#
# Total GULP energy -594757.662796 kJ/mol
# GULP energy per Si atom -12390.784642 kJ/mol
# Density = 1.950963 g / cm^3
# Si number density = 19.554141 Si / 1000 Ang^3
#
#
#
# Elastic Constant Matrix: (Units=GPa)
#
#
# Indices 1 2 3 4 5 6 
#
# 1 160.3227 46.9255 53.4011 0.0000 0.0000 0.0000
# 2 46.9255 56.5615 21.9840 0.0000 0.0000 0.0000
# 3 53.4011 21.9840 85.2405 0.0000 0.0000 0.0000
# 4 0.0000 0.0000 0.0000 13.8363 0.0000 0.0000
# 5 0.0000 0.0000 0.0000 0.0000 11.2900 0.0000
# 6 0.0000 0.0000 0.0000 0.0000 0.0000 20.2736
#
#
#
# Elastic Compliance Matrix: (Units=1/GPa)
#
#
# Indices 1 2 3 4 5 6 
#
# 1 0.009499 -0.006188 -0.004355 0.000000 0.000000 0.000000
# 2 -0.006188 0.023681 -0.002231 0.000000 0.000000 0.000000
# 3 -0.004355 -0.002231 0.015035 0.000000 0.000000 0.000000
# 4 0.000000 0.000000 0.000000 0.072274 0.000000 0.000000
# 5 0.000000 0.000000 0.000000 0.000000 0.088574 0.000000
# 6 0.000000 0.000000 0.000000 0.000000 0.000000 0.049325
#
#
# Mechanical properties :
#
#
# Convention : Reuss Voigt Hill
#
# Bulk Modulus (GPa) = 44.11633 60.74957 52.43295
# Shear Modulus (GPa) = 17.15312 21.06759 19.11036
#
# Velocity S-wave (km/s) = 2.96499 3.28593 3.12958
# Velocity P-wave (km/s) = 5.85932 6.74769 6.31914
#
# Compressibility (1/GPa) = 0.02266734
#
# Stress axis : x y z
#
# Youngs Moduli (GPa) = 105.27091 42.22822 66.51077
#
# Poissons Ratio (x) = 0.26132 0.28966
# Poissons Ratio (y) = 0.65144 0.14836
# Poissons Ratio (z) = 0.45846 0.09420
#
# Static dielectric constant tensor:
#      x y z
#    x 3.738830 0.000000 0.000000 
#    y 0.000000 3.420100 0.000000 
#    z 0.000000 0.000000 3.362070 
# 
# 
# High freq. dielectric constant tensor:
#      x y z
#    x 1.771850 0.000000 0.000000 
#    y 0.000000 1.743280 0.000000 
#    z 0.000000 0.000000 1.716560 
# 
# From -- ./inp_files/13857.got.cif
#   From: 2010.03.12/outbox.cif.g09.slc.cpg/sg47_7_cif.got.tgz:13857.got - 2010.04.14 03:12:58.
