data_PCOD8199371
_publ_section_title
;
Structure prediction by ZEFSAII (Michael W. Deem and Ramdas Pophale) SiO2 
 PCOD8199371
Probable space group: P M M M
;
_chemical_formula_sum "Si O2"
_cell_formula_units_Z 48
_cell_length_a 8.911083
_cell_length_b 15.427071
_cell_length_c 17.145573
_cell_angle_alpha 90.000000
_cell_angle_beta 90.000000
_cell_angle_gamma 90.000000
_cell_volume 2357.034671
_symmetry_space_group_name_H-M "P M M M"
_symmetry_group_IT_number 47
_symmetry_cell_setting 'orthorhombic'
loop_
_space_group_symop_operation_xyz
x,y,z
-x,-y,z
x,-y,-z
-x,y,-z
-x,-y,-z
x,y,-z
-x,y,z
x,-y,z
loop_
_atom_site_type_symbol
_atom_site_label
_atom_site_fract_x
_atom_site_fract_y
_atom_site_fract_z
Si Si1 0.836033 0.401806 0.843578
Si Si2 0.823607 0.178718 0.000000
Si Si3 0.675544 0.641867 0.000000
Si Si4 0.835198 0.101459 0.162888
Si Si5 0.324072 0.100630 0.682870
Si Si6 0.676545 0.601300 0.689935
Si Si7 0.172834 0.252756 0.591888
O O1 0.864367 0.500000 0.820840
O O2 0.742263 0.361910 0.771905
O O3 0.000000 0.355321 0.852215
O O4 0.745434 0.400052 0.923411
O O5 0.777829 0.126892 0.922675
O O6 0.712520 0.258259 0.000000
O O7 0.000000 0.203530 0.000000
O O8 0.500000 0.623417 0.000000
O O9 0.721146 0.131924 0.230024
O O10 0.000000 0.142338 0.179173
O O11 0.848375 0.000000 0.164078
O O12 0.500000 0.113092 0.673166
O O13 0.241931 0.162417 0.621729
O O14 0.277533 0.000000 0.667934
O O15 0.500000 0.615122 0.693088
O O16 0.715738 0.500000 0.673914
O O17 0.744393 0.661235 0.622606
O O18 0.192385 0.253026 0.500000
O O19 0.000000 0.257082 0.617532
#
# Coordination Sequence:
#
# PCOD8199371 Si02
#       7
#     8   4   4   8   8   8   8
#     4  10  21  39  62  85 113 153 200 248 298 354
#     4  10  21  35  53  80 115 155 199 248 297 348
#     4  12  25  36  51  80 119 160 201 248 299 350
#     4   9  18  35  59  84 112 151 199 248 297 352
#     4  10  22  40  63  91 124 162 203 252 311 368
#     4  10  22  41  66  95 126 161 201 248 305 367
#     4  11  25  43  65  93 124 161 203 249 303 365
#
# _framework density 20.364573
#
# number of rings (size 3 to 8) (size 9 to 14) (size 15 to 20)
#    0.000    1.833    0.000    3.250    2.333    7.667 
#    0.000    3.333    0.000    2.500    0.000    0.000 
#    0.000    0.000    0.000    0.000    0.000    0.000 
#
# Total GULP energy -595061.739912 kJ/mol
# GULP energy per Si atom -12397.119582 kJ/mol
# Density = 2.031822 g / cm^3
# Si number density = 20.364573 Si / 1000 Ang^3
#
#
#
# Elastic Constant Matrix: (Units=GPa)
#
#
# Indices 1 2 3 4 5 6 
#
# 1 144.1214 56.1044 66.0859 0.0000 0.0000 0.0000
# 2 56.1044 72.0100 51.3962 0.0000 0.0000 0.0000
# 3 66.0859 51.3962 124.6893 0.0000 0.0000 0.0000
# 4 0.0000 0.0000 0.0000 35.1188 0.0000 0.0000
# 5 0.0000 0.0000 0.0000 0.0000 23.8933 0.0000
# 6 0.0000 0.0000 0.0000 0.0000 0.0000 30.4083
#
#
#
# Elastic Compliance Matrix: (Units=1/GPa)
#
#
# Indices 1 2 3 4 5 6 
#
# 1 0.010787 -0.006126 -0.003192 0.000000 0.000000 0.000000
# 2 -0.006126 0.023155 -0.006297 0.000000 0.000000 0.000000
# 3 -0.003192 -0.006297 0.012307 0.000000 0.000000 0.000000
# 4 0.000000 0.000000 0.000000 0.028475 0.000000 0.000000
# 5 0.000000 0.000000 0.000000 0.000000 0.041853 0.000000
# 6 0.000000 0.000000 0.000000 0.000000 0.000000 0.032886
#
#
# Mechanical properties :
#
#
# Convention : Reuss Voigt Hill
#
# Bulk Modulus (GPa) = 66.58618 76.44372 71.51495
# Shear Modulus (GPa) = 26.92523 29.03302 27.97913
#
# Velocity S-wave (km/s) = 3.64010 3.77989 3.71065
# Velocity P-wave (km/s) = 7.10177 7.52789 7.31793
#
# Compressibility (1/GPa) = 0.01501813
#
# Stress axis : x y z
#
# Youngs Moduli (GPa) = 92.70320 43.18804 81.25173
#
# Poissons Ratio (x) = 0.26458 0.25936
# Poissons Ratio (y) = 0.56791 0.51166
# Poissons Ratio (z) = 0.29591 0.27197
#
# Static dielectric constant tensor:
#      x y z
#    x 3.914840 0.000000 0.000000 
#    y 0.000000 3.702600 0.000000 
#    z 0.000000 0.000000 3.435810 
# 
# 
# High freq. dielectric constant tensor:
#      x y z
#    x 1.801950 0.000000 0.000000 
#    y 0.000000 1.796380 0.000000 
#    z 0.000000 0.000000 1.799110 
# 
# From -- ./inp_files/21049.got.cif
#   From: 2010.03.12/outbox.cif.g09.slc.cpg/sg47_11_cif.got.tgz:21049.got - 2010.04.14 03:12:58.
