data_PCOD8199826
_publ_section_title
;
Structure prediction by ZEFSAII (Michael W. Deem and Ramdas Pophale) SiO2 
 PCOD8199826
Probable space group: P M M M
;
_chemical_formula_sum "Si O2"
_cell_formula_units_Z 48
_cell_length_a 9.298667
_cell_length_b 30.384892
_cell_length_c 9.110051
_cell_angle_alpha 90.000000
_cell_angle_beta 90.000000
_cell_angle_gamma 90.000000
_cell_volume 2573.944632
_symmetry_space_group_name_H-M "P M M M"
_symmetry_group_IT_number 47
_symmetry_cell_setting 'orthorhombic'
loop_
_space_group_symop_operation_xyz
x,y,z
-x,-y,z
x,-y,-z
-x,y,-z
-x,-y,-z
x,y,-z
-x,y,z
x,-y,z
loop_
_atom_site_type_symbol
_atom_site_label
_atom_site_fract_x
_atom_site_fract_y
_atom_site_fract_z
Si Si1 0.162429 0.000000 0.674636
Si Si2 0.666290 0.675231 0.831247
Si Si3 0.666600 0.084411 0.329767
Si Si4 0.333925 0.826541 0.827758
Si Si5 0.335058 0.426167 0.831287
Si Si6 0.836569 0.500000 0.327148
Si Si7 0.168632 0.749149 0.329437
O O1 0.242695 0.956537 0.732938
O O2 0.167596 0.000000 0.500000
O O3 0.000000 0.000000 0.734516
O O4 0.500000 0.684781 0.795015
O O5 0.704130 0.624490 0.802429
O O6 0.765884 0.703253 0.724514
O O7 0.697777 0.687900 0.000000
O O8 0.700267 0.093463 0.500000
O O9 0.500000 0.073144 0.305112
O O10 0.714646 0.127100 0.239799
O O11 0.500000 0.816671 0.789924
O O12 0.237369 0.788849 0.759490
O O13 0.306947 0.828172 0.000000
O O14 0.500000 0.435240 0.789897
O O15 0.236356 0.455863 0.730477
O O16 0.307543 0.438586 0.000000
O O17 0.823808 0.500000 0.500000
O O18 0.000000 0.500000 0.272878
O O19 0.204043 0.755306 0.500000
O O20 0.000000 0.748500 0.298531
#
# Coordination Sequence:
#
# PCOD8199826 Si02
#       7
#     4   8   8   8   8   4   8
#     4   9  17  29  48  75 104 134 170 213 258 305
#     4   9  19  37  60  84 108 136 174 220 267 315
#     4   9  17  31  52  76 102 134 172 213 259 311
#     4  10  21  37  57  80 105 136 177 223 268 314
#     4   9  19  37  60  83 106 136 178 224 266 313
#     4  11  24  37  50  76 114 149 180 219 266 314
#     4  11  24  38  53  78 111 144 177 215 261 314
#
# _framework density 18.648420999999999
#
# number of rings (size 3 to 8) (size 9 to 14) (size 15 to 20)
#    0.000    2.333    0.000    3.250    0.000    9.667 
#    0.000    7.083    0.000    2.500    0.000    0.000 
#    0.000    0.000    0.000    0.000    0.000    0.000 
#
# Total GULP energy -595355.583067 kJ/mol
# GULP energy per Si atom -12403.241314 kJ/mol
# Density = 1.860598 g / cm^3
# Si number density = 18.648421 Si / 1000 Ang^3
#
#
#
# Elastic Constant Matrix: (Units=GPa)
#
#
# Indices 1 2 3 4 5 6 
#
# 1 100.3556 73.8647 51.3657 0.0000 0.0000 0.0000
# 2 73.8647 133.6485 55.4868 0.0000 0.0000 0.0000
# 3 51.3657 55.4868 70.5148 0.0000 0.0000 0.0000
# 4 0.0000 0.0000 0.0000 49.1288 0.0000 0.0000
# 5 0.0000 0.0000 0.0000 0.0000 27.2574 0.0000
# 6 0.0000 0.0000 0.0000 0.0000 0.0000 -3.0794
#
#
#
# Elastic Compliance Matrix: (Units=1/GPa)
#
#
# Indices 1 2 3 4 5 6 
#
# 1 0.019799 -0.007359 -0.008632 0.000000 0.000000 0.000000
# 2 -0.007359 0.013848 -0.005536 0.000000 0.000000 0.000000
# 3 -0.008632 -0.005536 0.024825 0.000000 0.000000 0.000000
# 4 0.000000 0.000000 0.000000 0.020355 0.000000 0.000000
# 5 0.000000 0.000000 0.000000 0.000000 0.036687 0.000000
# 6 0.000000 0.000000 0.000000 0.000000 0.000000 -0.324741
#
#
# Mechanical properties :
#
#
# Convention : Reuss Voigt Hill
#
# Bulk Modulus (GPa) = 64.85638 73.99484 69.42561
# Shear Modulus (GPa) = -31.04943 22.91480 -4.06732
#
# Velocity S-wave (km/s) = -4.08486 3.50920 -1.47844
# Velocity P-wave (km/s) = 3.55048 7.49562 5.86474
#
# Compressibility (1/GPa) = 0.01541868
#
# Stress axis : x y z
#
# Youngs Moduli (GPa) = 50.50772 72.21362 40.28121
#
# Poissons Ratio (x) = 0.53140 0.34770
# Poissons Ratio (y) = 0.37168 0.22300
# Poissons Ratio (z) = 0.43597 0.39979
#
# Static dielectric constant tensor:
#      x y z
#    x 3.431750 0.000000 0.000000 
#    y 0.000000 3.550560 0.000000 
#    z 0.000000 0.000000 3.320920 
# 
# 
# High freq. dielectric constant tensor:
#      x y z
#    x 1.721240 0.000000 0.000000 
#    y 0.000000 1.739070 0.000000 
#    z 0.000000 0.000000 1.714330 
# 
# From -- ./inp_files/2574.got.cif
#   From: 2010.03.12/outbox.cif.g09.slc.cpg/sg47_2_cif.got.tgz:2574.got - 2010.04.14 03:12:58.
