data_PCOD8199268
_publ_section_title
;
Structure prediction by ZEFSAII (Michael W. Deem and Ramdas Pophale) SiO2 
 PCOD8199268
Probable space group: P M M M
;
_chemical_formula_sum "Si O2"
_cell_formula_units_Z 52
_cell_length_a 9.533917
_cell_length_b 33.410722
_cell_length_c 9.372481
_cell_angle_alpha 90.000000
_cell_angle_beta 90.000000
_cell_angle_gamma 90.000000
_cell_volume 2985.463708
_symmetry_space_group_name_H-M "P M M M"
_symmetry_group_IT_number 47
_symmetry_cell_setting 'orthorhombic'
loop_
_space_group_symop_operation_xyz
x,y,z
-x,-y,z
x,-y,-z
-x,y,-z
-x,-y,-z
x,y,-z
-x,y,z
x,-y,z
loop_
_atom_site_type_symbol
_atom_site_label
_atom_site_fract_x
_atom_site_fract_y
_atom_site_fract_z
Si Si1 0.662772 0.736729 0.334516
Si Si2 0.338358 0.046459 0.337569
Si Si3 0.667009 0.660171 0.839245
Si Si4 0.653583 0.500000 0.669341
Si Si5 0.836314 0.108622 0.165539
Si Si6 0.331885 0.414140 0.339328
Si Si7 0.162299 0.813401 0.334937
O O1 0.689016 0.727020 0.500000
O O2 0.500000 0.745146 0.303443
O O3 0.720075 0.699158 0.244999
O O4 0.748608 0.775383 0.284228
O O5 0.294694 0.056498 0.500000
O O6 0.500000 0.057780 0.312893
O O7 0.244314 0.070894 0.228411
O O8 0.312945 0.000000 0.305326
O O9 0.500000 0.658928 0.836026
O O10 0.727479 0.620287 0.764045
O O11 0.724933 0.661847 0.000000
O O12 0.500000 0.500000 0.741197
O O13 0.636780 0.500000 0.500000
O O14 0.728754 0.457866 0.712390
O O15 0.785849 0.148875 0.243762
O O16 0.000000 0.101326 0.192128
O O17 0.799711 0.112920 0.000000
O O18 0.281432 0.404382 0.500000
O O19 0.500000 0.415844 0.335635
O O20 0.190754 0.823349 0.500000
O O21 0.000000 0.803723 0.306124
#
# Coordination Sequence:
#
# PCOD8199268 Si02
#       7
#     8   8   8   4   8   8   8
#     4   9  17  29  45  64  84 109 144 182 219 263
#     4   9  19  36  56  77 101 130 165 203 240 277
#     4   9  16  24  34  51  76 104 134 171 215 259
#     4   7  10  16  27  43  61  87 128 171 206 245
#     4  10  21  35  51  74 103 132 161 193 232 281
#     4   8  12  19  31  45  64  94 132 171 209 251
#     4   9  18  33  51  69  91 120 153 190 231 271
#
# _framework density 17.417729000000001
#
# number of rings (size 3 to 8) (size 9 to 14) (size 15 to 20)
#    0.000    3.154    0.000    2.308    0.000    4.923 
#    0.000    4.231    0.000    2.308    0.000    0.000 
#    0.000    0.000    0.000    0.692    0.000   16.615 
#
# Total GULP energy -644566.439874 kJ/mol
# GULP energy per Si atom -12395.508459 kJ/mol
# Density = 1.737809 g / cm^3
# Si number density = 17.417729 Si / 1000 Ang^3
#
#
#
# Elastic Constant Matrix: (Units=GPa)
#
#
# Indices 1 2 3 4 5 6 
#
# 1 30.1672 44.8248 30.6519 0.0000 0.0000 0.0000
# 2 44.8248 155.8072 82.7410 0.0000 0.0000 0.0000
# 3 30.6519 82.7410 101.4320 0.0000 0.0000 0.0000
# 4 0.0000 0.0000 0.0000 11.7767 0.0000 0.0000
# 5 0.0000 0.0000 0.0000 0.0000 16.2515 0.0000
# 6 0.0000 0.0000 0.0000 0.0000 0.0000 -0.7158
#
#
#
# Elastic Compliance Matrix: (Units=1/GPa)
#
#
# Indices 1 2 3 4 5 6 
#
# 1 0.060769 -0.013639 -0.007238 0.000000 0.000000 0.000000
# 2 -0.013639 0.014385 -0.007612 0.000000 0.000000 0.000000
# 3 -0.007238 -0.007612 0.018256 0.000000 0.000000 0.000000
# 4 0.000000 0.000000 0.000000 0.084914 0.000000 0.000000
# 5 0.000000 0.000000 0.000000 0.000000 0.061533 0.000000
# 6 0.000000 0.000000 0.000000 0.000000 0.000000 -1.397102
#
#
# Mechanical properties :
#
#
# Convention : Reuss Voigt Hill
#
# Bulk Modulus (GPa) = 27.44970 67.09353 47.27161
# Shear Modulus (GPa) = -4.59506 14.07507 4.74001
#
# Velocity S-wave (km/s) = -1.62600 2.84577 1.65145
# Velocity P-wave (km/s) = 3.50267 7.02864 5.55295
#
# Compressibility (1/GPa) = 0.03643027
#
# Stress axis : x y z
#
# Youngs Moduli (GPa) = 16.45578 69.51909 54.77754
#
# Poissons Ratio (x) = 0.94818 0.39648
# Poissons Ratio (y) = 0.22444 0.41698
# Poissons Ratio (z) = 0.11911 0.52920
#
# Static dielectric constant tensor:
#      x y z
#    x 2.777430 0.000000 0.000000 
#    y 0.000000 3.505500 0.000000 
#    z 0.000000 0.000000 3.216440 
# 
# 
# High freq. dielectric constant tensor:
#      x y z
#    x 1.618490 0.000000 0.000000 
#    y 0.000000 1.690600 0.000000 
#    z 0.000000 0.000000 1.664400 
# 
# From -- ./inp_files/4786.got.cif
#   From: 2010.03.12/outbox.cif.g09.slc.cpg/sg47_3_cif.got.tgz:4786.got - 2010.04.14 03:12:58.
