data_PCOD8199675
_publ_section_title
;
Structure prediction by ZEFSAII (Michael W. Deem and Ramdas Pophale) SiO2 
 PCOD8199675
Probable space group: P M M M
;
_chemical_formula_sum "Si O2"
_cell_formula_units_Z 48
_cell_length_a 8.066045
_cell_length_b 9.063049
_cell_length_c 31.948089
_cell_angle_alpha 90.000000
_cell_angle_beta 90.000000
_cell_angle_gamma 90.000000
_cell_volume 2335.499906
_symmetry_space_group_name_H-M "P M M M"
_symmetry_group_IT_number 47
_symmetry_cell_setting 'orthorhombic'
loop_
_space_group_symop_operation_xyz
x,y,z
-x,-y,z
x,-y,-z
-x,y,-z
-x,-y,-z
x,y,-z
-x,y,z
x,-y,z
loop_
_atom_site_type_symbol
_atom_site_label
_atom_site_fract_x
_atom_site_fract_y
_atom_site_fract_z
Si Si1 0.808326 0.666708 0.678134
Si Si2 0.810427 0.833798 0.844090
Si Si3 0.500000 0.330120 0.549439
Si Si4 0.310158 0.336652 0.921661
Si Si5 0.689741 0.668215 0.233146
Si Si6 0.192364 0.174579 0.593236
Si Si7 0.810471 0.159190 0.000000
O O1 0.754624 0.500000 0.665465
O O2 0.709929 0.722291 0.719005
O O3 0.766529 0.776713 0.640437
O O4 0.000000 0.671651 0.689870
O O5 0.705242 0.740102 0.876809
O O6 0.797138 0.768170 0.797627
O O7 0.000000 0.830358 0.858586
O O8 0.741376 0.000000 0.843665
O O9 0.500000 0.500000 0.564789
O O10 0.500000 0.320022 0.500000
O O11 0.329077 0.252498 0.564142
O O12 0.500000 0.348660 0.933927
O O13 0.230744 0.500000 0.918965
O O14 0.224288 0.247385 0.958117
O O15 0.500000 0.682074 0.219485
O O16 0.753127 0.500000 0.229715
O O17 0.000000 0.219254 0.581604
O O18 0.214497 0.000000 0.589172
O O19 0.000000 0.122340 0.000000
O O20 0.715514 0.000000 0.000000
#
# Coordination Sequence:
#
# PCOD8199675 Si02
#       7
#     8   8   4   8   8   8   4
#     4   9  18  34  57  85 118 158 202 248 299 357
#     4  11  24  40  58  82 113 151 195 241 290 346
#     4  11  25  43  65  93 125 165 215 267 317 376
#     4  11  24  41  62  88 116 147 187 234 284 342
#     4  10  21  36  56  85 118 153 196 243 291 347
#     4  10  22  40  63  93 129 167 208 259 320 383
#     4  11  24  41  62  90 120 149 186 229 276 336
#
# _framework density 20.552344999999999
#
# number of rings (size 3 to 8) (size 9 to 14) (size 15 to 20)
#    0.000    1.667    0.000    3.750    1.167   12.000 
#    0.000    3.333    0.000    0.000    0.000    0.000 
#    0.000    0.000    0.000    0.000    0.000    0.000 
#
# Total GULP energy -595225.424493 kJ/mol
# GULP energy per Si atom -12400.529677 kJ/mol
# Density = 2.050557 g / cm^3
# Si number density = 20.552345 Si / 1000 Ang^3
#
#
#
# Elastic Constant Matrix: (Units=GPa)
#
#
# Indices 1 2 3 4 5 6 
#
# 1 77.3991 46.0412 37.8120 0.0000 0.0000 0.0000
# 2 46.0412 149.7070 66.3454 0.0000 0.0000 0.0000
# 3 37.8120 66.3454 113.9761 0.0000 0.0000 0.0000
# 4 0.0000 0.0000 0.0000 -112.9593 0.0000 0.0000
# 5 0.0000 0.0000 0.0000 0.0000 38.8485 0.0000
# 6 0.0000 0.0000 0.0000 0.0000 0.0000 27.8285
#
#
#
# Elastic Compliance Matrix: (Units=1/GPa)
#
#
# Indices 1 2 3 4 5 6 
#
# 1 0.016763 -0.003626 -0.003450 0.000000 0.000000 0.000000
# 2 -0.003626 0.009786 -0.004494 0.000000 0.000000 0.000000
# 3 -0.003450 -0.004494 0.012534 0.000000 0.000000 0.000000
# 4 0.000000 0.000000 0.000000 -0.008853 0.000000 0.000000
# 5 0.000000 0.000000 0.000000 0.000000 0.025741 0.000000
# 6 0.000000 0.000000 0.000000 0.000000 0.000000 0.035934
#
#
# Mechanical properties :
#
#
# Convention : Reuss Voigt Hill
#
# Bulk Modulus (GPa) = 62.72344 71.27547 66.99946
# Shear Modulus (GPa) = 41.54193 3.46911 22.50552
#
# Velocity S-wave (km/s) = 4.50074 1.30062 3.31272
# Velocity P-wave (km/s) = 7.58907 6.08364 6.87767
#
# Compressibility (1/GPa) = 0.01594300
#
# Stress axis : x y z
#
# Youngs Moduli (GPa) = 59.65636 102.18321 79.78208
#
# Poissons Ratio (x) = 0.37053 0.27527
# Poissons Ratio (y) = 0.21632 0.35851
# Poissons Ratio (z) = 0.20583 0.45917
#
# Static dielectric constant tensor:
#      x y z
#    x 3.744990 0.000000 0.000000 
#    y 0.000000 3.946930 0.000000 
#    z 0.000000 0.000000 3.666350 
# 
# 
# High freq. dielectric constant tensor:
#      x y z
#    x 1.806920 0.000000 0.000000 
#    y 0.000000 1.809420 0.000000 
#    z 0.000000 0.000000 1.805790 
# 
# From -- ./inp_files/34199.got.cif
#   From: 2010.03.12/outbox.cif.g09.slc.cpg/sg47_18_cif.got.tgz:34199.got - 2010.04.14 03:12:58.
