data_PCOD8199786
_publ_section_title
;
Structure prediction by ZEFSAII (Michael W. Deem and Ramdas Pophale) SiO2 
 PCOD8199786
Probable space group: P M M M
;
_chemical_formula_sum "Si O2"
_cell_formula_units_Z 64
_cell_length_a 15.191938
_cell_length_b 23.634912
_cell_length_c 8.843531
_cell_angle_alpha 90.000000
_cell_angle_beta 90.000000
_cell_angle_gamma 90.000000
_cell_volume 3175.359282
_symmetry_space_group_name_H-M "P M M M"
_symmetry_group_IT_number 47
_symmetry_cell_setting 'orthorhombic'
loop_
_space_group_symop_operation_xyz
x,y,z
-x,-y,z
x,-y,-z
-x,y,-z
-x,-y,-z
x,y,-z
-x,y,z
x,-y,z
loop_
_atom_site_type_symbol
_atom_site_label
_atom_site_fract_x
_atom_site_fract_y
_atom_site_fract_z
Si Si1 0.095679 0.242808 0.671774
Si Si2 0.599143 0.203053 0.824273
Si Si3 0.100823 0.563686 0.329102
Si Si4 0.099257 0.933516 0.174275
Si Si5 0.176468 0.335689 0.826423
Si Si6 0.396394 0.439130 0.330577
Si Si7 0.232584 0.149244 0.321183
Si Si8 0.650537 0.317043 0.678174
O O1 0.113215 0.262167 0.500000
O O2 0.092413 0.297768 0.781917
O O3 0.169625 0.200127 0.729359
O O4 0.000000 0.213389 0.685400
O O5 0.500000 0.178193 0.801588
O O6 0.670462 0.160336 0.749601
O O7 0.596608 0.266136 0.753051
O O8 0.622781 0.208563 0.000000
O O9 0.110912 0.586558 0.500000
O O10 0.135698 0.500000 0.318914
O O11 0.160712 0.599128 0.215127
O O12 0.000000 0.567070 0.277023
O O13 0.181219 0.906424 0.265021
O O14 0.000000 0.916072 0.231186
O O15 0.110629 0.000000 0.195187
O O16 0.108656 0.915792 0.000000
O O17 0.248589 0.306438 0.718343
O O18 0.203346 0.331022 0.000000
O O19 0.356698 0.437375 0.500000
O O20 0.500000 0.439779 0.337780
O O21 0.365184 0.500000 0.255460
O O22 0.369519 0.379923 0.249642
O O23 0.245016 0.145282 0.500000
O O24 0.630975 0.315836 0.500000
#
# Coordination Sequence:
#
# PCOD8199786 Si02
#       8
#     8   8   8   8   8   8   8   8
#     4  10  21  37  56  80 113 152 191 235 289 348
#     4  11  24  41  61  86 118 157 201 252 311 371
#     4   9  19  37  58  75  94 129 179 232 286 347
#     4   9  19  37  62  94 135 181 219 249 290 347
#     4  12  24  35  50  75 108 143 181 229 288 350
#     4   8  15  29  50  76 101 125 163 220 283 347
#     4  11  22  37  61  92 124 161 206 254 300 348
#     4  11  21  35  56  80 107 143 190 240 293 356
#
# _framework density 20.155199
#
# number of rings (size 3 to 8) (size 9 to 14) (size 15 to 20)
#    0.000    1.875    1.250    4.500    0.000    5.750 
#    0.000    2.500    0.000    1.500    0.000    7.000 
#    0.000    0.000    0.000    0.000    0.000    0.000 
#
# Total GULP energy -792975.459755 kJ/mol
# GULP energy per Si atom -12390.241559 kJ/mol
# Density = 2.010932 g / cm^3
# Si number density = 20.155199 Si / 1000 Ang^3
#
#
#
# Elastic Constant Matrix: (Units=GPa)
#
#
# Indices 1 2 3 4 5 6 
#
# 1 108.6752 39.5622 41.4840 0.0000 0.0000 0.0000
# 2 39.5622 84.8484 36.4001 0.0000 0.0000 0.0000
# 3 41.4840 36.4001 83.4870 0.0000 0.0000 0.0000
# 4 0.0000 0.0000 0.0000 27.3244 0.0000 0.0000
# 5 0.0000 0.0000 0.0000 0.0000 23.2389 0.0000
# 6 0.0000 0.0000 0.0000 0.0000 0.0000 31.6306
#
#
#
# Elastic Compliance Matrix: (Units=1/GPa)
#
#
# Indices 1 2 3 4 5 6 
#
# 1 0.012289 -0.003826 -0.004438 0.000000 0.000000 0.000000
# 2 -0.003826 0.015688 -0.004939 0.000000 0.000000 0.000000
# 3 -0.004438 -0.004939 0.016337 0.000000 0.000000 0.000000
# 4 0.000000 0.000000 0.000000 0.036597 0.000000 0.000000
# 5 0.000000 0.000000 0.000000 0.000000 0.043031 0.000000
# 6 0.000000 0.000000 0.000000 0.000000 0.000000 0.031615
#
#
# Mechanical properties :
#
#
# Convention : Reuss Voigt Hill
#
# Bulk Modulus (GPa) = 55.84202 56.87812 56.36007
# Shear Modulus (GPa) = 26.60530 27.07641 26.84085
#
# Velocity S-wave (km/s) = 3.63715 3.66921 3.65322
# Velocity P-wave (km/s) = 6.73830 6.79942 6.76893
#
# Compressibility (1/GPa) = 0.01790766
#
# Stress axis : x y z
#
# Youngs Moduli (GPa) = 81.37618 63.74103 61.21241
#
# Poissons Ratio (x) = 0.24387 0.27166
# Poissons Ratio (y) = 0.31133 0.30233
# Poissons Ratio (z) = 0.36115 0.31482
#
# Static dielectric constant tensor:
#      x y z
#    x 3.698640 0.000000 0.000000 
#    y 0.000000 3.822730 0.000000 
#    z 0.000000 0.000000 3.446640 
# 
# 
# High freq. dielectric constant tensor:
#      x y z
#    x 1.789380 0.000000 0.000000 
#    y 0.000000 1.776050 0.000000 
#    z 0.000000 0.000000 1.762290 
# 
# From -- ./inp_files/7862.got.cif
#   From: 2010.03.12/outbox.cif.g09.slc.cpg/sg47_4_cif.got.tgz:7862.got - 2010.04.14 03:12:58.
