data_PCOD8199041
_publ_section_title
;
Structure prediction by ZEFSAII (Michael W. Deem and Ramdas Pophale) SiO2 
 PCOD8199041
Probable space group: P M M M
;
_chemical_formula_sum "Si O2"
_cell_formula_units_Z 56
_cell_length_a 13.806202
_cell_length_b 29.474797
_cell_length_c 9.415219
_cell_angle_alpha 90.000000
_cell_angle_beta 90.000000
_cell_angle_gamma 90.000000
_cell_volume 3831.382156
_symmetry_space_group_name_H-M "P M M M"
_symmetry_group_IT_number 47
_symmetry_cell_setting 'orthorhombic'
loop_
_space_group_symop_operation_xyz
x,y,z
-x,-y,z
x,-y,-z
-x,y,-z
-x,-y,-z
x,y,-z
-x,y,z
x,-y,z
loop_
_atom_site_type_symbol
_atom_site_label
_atom_site_fract_x
_atom_site_fract_y
_atom_site_fract_z
Si Si1 0.884896 0.049745 0.340882
Si Si2 0.889074 0.591066 0.834635
Si Si3 0.891292 0.769247 0.170026
Si Si4 0.389910 0.374623 0.833342
Si Si5 0.280720 0.447827 0.663836
Si Si6 0.884445 0.868374 0.842219
Si Si7 0.786432 0.682549 0.165262
O O1 0.845017 0.054943 0.500000
O O2 0.839281 0.090609 0.249466
O O3 0.000000 0.053655 0.340518
O O4 0.854622 0.000000 0.280165
O O5 0.823435 0.558597 0.738286
O O6 0.864013 0.643317 0.800171
O O7 0.000000 0.581738 0.794931
O O8 0.868516 0.580510 0.000000
O O9 0.854046 0.818985 0.220852
O O10 0.821501 0.729980 0.235449
O O11 0.000000 0.760051 0.226386
O O12 0.892824 0.768885 0.000000
O O13 0.500000 0.360431 0.801926
O O14 0.363211 0.419403 0.744993
O O15 0.320178 0.333349 0.782266
O O16 0.372809 0.385173 0.000000
O O17 0.273980 0.432142 0.500000
O O18 0.311573 0.500000 0.674558
O O19 0.000000 0.870705 0.845564
O O20 0.842377 0.874462 0.000000
O O21 0.781760 0.691966 0.000000
#
# Coordination Sequence:
#
# PCOD8199041 Si02
#       7
#     8   8   8   8   8   8   8
#     4   8  13  20  28  37  52  79 115 151 184 215
#     4   9  17  29  46  66  85 107 135 163 189 219
#     4   8  12  18  31  52  75  96 119 148 180 215
#     4   9  18  32  49  67  83  99 124 160 197 230
#     4  10  21  34  46  62  84 108 132 157 188 229
#     4   8  13  19  27  42  62  83 111 147 181 209
#     4   8  13  23  40  60  80 100 123 152 186 224
#
# _framework density 14.616135
#
# number of rings (size 3 to 8) (size 9 to 14) (size 15 to 20)
#    0.000    3.429    0.000    3.000    0.000    4.286 
#    0.000    4.286    0.000    3.429    0.000    4.000 
#    0.000    0.000    0.000    0.000    0.000    0.714 
#
# Total GULP energy -693851.573683 kJ/mol
# GULP energy per Si atom -12390.206673 kJ/mol
# Density = 1.458287 g / cm^3
# Si number density = 14.616135 Si / 1000 Ang^3
#
#
#
# Elastic Constant Matrix: (Units=GPa)
#
#
# Indices 1 2 3 4 5 6 
#
# 1 69.4196 36.0972 21.5886 0.0000 0.0000 0.0000
# 2 36.0972 123.1574 39.6533 0.0000 0.0000 0.0000
# 3 21.5886 39.6533 46.5158 0.0000 0.0000 0.0000
# 4 0.0000 0.0000 0.0000 6.5275 0.0000 0.0000
# 5 0.0000 0.0000 0.0000 0.0000 8.0327 0.0000
# 6 0.0000 0.0000 0.0000 0.0000 0.0000 7.0116
#
#
#
# Elastic Compliance Matrix: (Units=1/GPa)
#
#
# Indices 1 2 3 4 5 6 
#
# 1 0.017890 -0.003543 -0.005283 0.000000 0.000000 0.000000
# 2 -0.003543 0.011893 -0.008494 0.000000 0.000000 0.000000
# 3 -0.005283 -0.008494 0.031191 0.000000 0.000000 0.000000
# 4 0.000000 0.000000 0.000000 0.153197 0.000000 0.000000
# 5 0.000000 0.000000 0.000000 0.000000 0.124491 0.000000
# 6 0.000000 0.000000 0.000000 0.000000 0.000000 0.142621
#
#
# Mechanical properties :
#
#
# Convention : Reuss Voigt Hill
#
# Bulk Modulus (GPa) = 37.97314 48.19676 43.08495
# Shear Modulus (GPa) = 9.52924 13.76462 11.64693
#
# Velocity S-wave (km/s) = 2.55613 3.07211 2.82592
# Velocity P-wave (km/s) = 5.89478 6.75503 6.33951
#
# Compressibility (1/GPa) = 0.02633441
#
# Stress axis : x y z
#
# Youngs Moduli (GPa) = 55.89641 84.08383 32.06044
#
# Poissons Ratio (x) = 0.29787 0.16938
# Poissons Ratio (y) = 0.19802 0.27233
# Poissons Ratio (z) = 0.29531 0.71422
#
# Static dielectric constant tensor:
#      x y z
#    x 2.610590 0.000000 0.000000 
#    y 0.000000 3.166340 0.000000 
#    z 0.000000 0.000000 2.729900 
# 
# 
# High freq. dielectric constant tensor:
#      x y z
#    x 1.511140 0.000000 0.000000 
#    y 0.000000 1.562870 0.000000 
#    z 0.000000 0.000000 1.534490 
# 
# From -- ./inp_files/8115.got.cif
#   From: 2010.03.12/outbox.cif.g09.slc.cpg/sg47_5_cif.got.tgz:8115.got - 2010.04.14 03:12:58.
