data_PCOD8199145
_publ_section_title
;
Structure prediction by ZEFSAII (Michael W. Deem and Ramdas Pophale) SiO2 
 PCOD8199145
Probable space group: P M M M
;
_chemical_formula_sum "Si O2"
_cell_formula_units_Z 48
_cell_length_a 15.350954
_cell_length_b 9.384866
_cell_length_c 19.648638
_cell_angle_alpha 90.000000
_cell_angle_beta 90.000000
_cell_angle_gamma 90.000000
_cell_volume 2830.713380
_symmetry_space_group_name_H-M "P M M M"
_symmetry_group_IT_number 47
_symmetry_cell_setting 'orthorhombic'
loop_
_space_group_symop_operation_xyz
x,y,z
-x,-y,z
x,-y,-z
-x,y,-z
-x,-y,-z
x,y,-z
-x,y,z
x,-y,z
loop_
_atom_site_type_symbol
_atom_site_label
_atom_site_fract_x
_atom_site_fract_y
_atom_site_fract_z
Si Si1 0.091965 0.339663 0.419241
Si Si2 0.397722 0.835637 0.681105
Si Si3 0.599897 0.664936 0.186054
Si Si4 0.095520 0.839417 0.919139
Si Si5 0.258352 0.666156 0.922606
Si Si6 0.719385 0.331976 0.579599
O O1 0.094943 0.342621 0.500000
O O2 0.088541 0.500000 0.391410
O O3 0.184562 0.273769 0.395317
O O4 0.000000 0.262856 0.395534
O O5 0.500000 0.818887 0.669475
O O6 0.369058 0.760247 0.750915
O O7 0.352584 0.758024 0.618310
O O8 0.369219 0.000000 0.684184
O O9 0.500000 0.696536 0.166476
O O10 0.613205 0.500000 0.205973
O O11 0.657292 0.708363 0.121035
O O12 0.172842 0.740931 0.890544
O O13 0.000000 0.787655 0.892788
O O14 0.112559 0.000000 0.894071
O O15 0.095869 0.832133 0.000000
O O16 0.239215 0.500000 0.919519
O O17 0.276453 0.716297 0.000000
O O18 0.705618 0.303162 0.500000
O O19 0.709875 0.500000 0.595419
#
# Coordination Sequence:
#
# PCOD8199145 Si02
#       6
#     8   8   8   8   8   8
#     4   7  10  19  38  65  94 119 143 174 213 258
#     4  10  21  35  49  65  88 121 158 193 230 272
#     4   9  18  33  51  68  89 120 154 186 224 275
#     4   8  14  25  41  62  90 124 157 185 218 265
#     4   9  17  28  45  72  99 119 145 186 233 274
#     4   9  17  29  48  74  98 120 150 188 228 270
#
# _framework density 16.956855999999998
#
# number of rings (size 3 to 8) (size 9 to 14) (size 15 to 20)
#    0.000    3.333    0.000    2.500    0.000    3.000 
#    0.000    5.000    0.000    1.500    0.000    9.333 
#    0.000    0.000    0.000    0.000    0.000    0.000 
#
# Total GULP energy -594636.795189 kJ/mol
# GULP energy per Si atom -12388.266566 kJ/mol
# Density = 1.691826 g / cm^3
# Si number density = 16.956856 Si / 1000 Ang^3
#
#
#
# Elastic Constant Matrix: (Units=GPa)
#
#
# Indices 1 2 3 4 5 6 
#
# 1 108.7981 54.1255 56.4754 0.0000 0.0000 0.0000
# 2 54.1255 65.0000 43.9738 0.0000 0.0000 0.0000
# 3 56.4754 43.9738 65.0693 0.0000 0.0000 0.0000
# 4 0.0000 0.0000 0.0000 13.7685 0.0000 0.0000
# 5 0.0000 0.0000 0.0000 0.0000 4.2505 0.0000
# 6 0.0000 0.0000 0.0000 0.0000 0.0000 21.8435
#
#
#
# Elastic Compliance Matrix: (Units=1/GPa)
#
#
# Indices 1 2 3 4 5 6 
#
# 1 0.019025 -0.008606 -0.010697 0.000000 0.000000 0.000000
# 2 -0.008606 0.032235 -0.014315 0.000000 0.000000 0.000000
# 3 -0.010697 -0.014315 0.034326 0.000000 0.000000 0.000000
# 4 0.000000 0.000000 0.000000 0.072629 0.000000 0.000000
# 5 0.000000 0.000000 0.000000 0.000000 0.235264 0.000000
# 6 0.000000 0.000000 0.000000 0.000000 0.000000 0.045780
#
#
# Mechanical properties :
#
#
# Convention : Reuss Voigt Hill
#
# Bulk Modulus (GPa) = 54.49217 60.89073 57.69145
# Shear Modulus (GPa) = 9.75395 13.59204 11.67299
#
# Velocity S-wave (km/s) = 2.40098 2.83427 2.62657
# Velocity P-wave (km/s) = 6.31600 6.83359 6.57988
#
# Compressibility (1/GPa) = 0.01835126
#
# Stress axis : x y z
#
# Youngs Moduli (GPa) = 52.56259 31.02199 29.13204
#
# Poissons Ratio (x) = 0.26696 0.31161
# Poissons Ratio (y) = 0.45233 0.41704
# Poissons Ratio (z) = 0.56224 0.44409
#
# Static dielectric constant tensor:
#      x y z
#    x 3.667690 0.000000 0.000000 
#    y 0.000000 3.045130 0.000000 
#    z 0.000000 0.000000 2.837580 
# 
# 
# High freq. dielectric constant tensor:
#      x y z
#    x 1.672820 0.000000 0.000000 
#    y 0.000000 1.630860 0.000000 
#    z 0.000000 0.000000 1.613080 
# 
# From -- ./inp_files/6771.got.cif
#   From: 2010.03.12/outbox.cif.g09.slc.cpg/sg47_4_cif.got.tgz:6771.got - 2010.04.14 03:12:58.
