data_PCOD8199320
_publ_section_title
;
Structure prediction by ZEFSAII (Michael W. Deem and Ramdas Pophale) SiO2 
 PCOD8199320
Probable space group: P M M M
;
_chemical_formula_sum "Si O2"
_cell_formula_units_Z 53
_cell_length_a 21.473476
_cell_length_b 9.016723
_cell_length_c 14.640008
_cell_angle_alpha 90.000000
_cell_angle_beta 90.000000
_cell_angle_gamma 90.000000
_cell_volume 2834.603984
_symmetry_space_group_name_H-M "P M M M"
_symmetry_group_IT_number 47
_symmetry_cell_setting 'orthorhombic'
loop_
_space_group_symop_operation_xyz
x,y,z
-x,-y,z
x,-y,-z
-x,y,-z
-x,-y,-z
x,y,-z
-x,y,z
x,-y,z
loop_
_atom_site_type_symbol
_atom_site_label
_atom_site_fract_x
_atom_site_fract_y
_atom_site_fract_z
Si Si1 0.123813 0.675731 0.741839
Si Si2 0.357460 0.825944 0.604450
Si Si3 0.000000 0.160953 0.683061
Si Si4 0.429576 0.327658 0.755005
Si Si5 0.324832 0.328235 0.895266
Si Si6 0.000000 0.000000 0.500000
Si Si7 0.198161 0.827159 0.106407
Si Si8 0.768487 0.672903 0.604258
O O1 0.116972 0.500000 0.749508
O O2 0.144659 0.740880 0.839139
O O3 0.173743 0.723589 0.665277
O O4 0.059264 0.745356 0.712837
O O5 0.369921 0.779743 0.500000
O O6 0.413932 0.762629 0.663693
O O7 0.292517 0.757674 0.639449
O O8 0.353551 0.000000 0.616764
O O9 0.000000 0.134433 0.574153
O O10 0.000000 0.000000 0.734165
O O11 0.500000 0.290658 0.784769
O O12 0.421219 0.500000 0.732645
O O13 0.384533 0.277930 0.837135
O O14 0.308136 0.500000 0.879250
O O15 0.265591 0.233496 0.863426
O O16 0.341933 0.296020 0.000000
O O17 0.195199 0.000000 0.129900
O O18 0.186401 0.795487 0.000000
O O19 0.784413 0.716529 0.500000
O O20 0.754546 0.500000 0.614738
#
# Coordination Sequence:
#
# PCOD8199320 Si02
#       8
#     8   8   4   8   8   1   8   8
#     4  11  22  37  59  87 117 150 191 235 279 327
#     4  10  21  36  52  74 102 135 176 224 275 326
#     4  10  23  41  60  84 118 158 195 227 268 322
#     4  10  21  35  52  75 103 138 179 221 270 329
#     4   9  18  34  56  81 110 142 178 224 277 331
#     4   8  24  44  62  84 118 168 202 224 266 328
#     4  10  21  37  58  85 115 149 187 231 282 336
#     4   9  19  34  54  80 109 140 175 220 274 329
#
# _framework density 18.697496000000001
#
# number of rings (size 3 to 8) (size 9 to 14) (size 15 to 20)
#    0.226    1.962    0.000    2.491    1.057    8.151 
#    0.000    3.774    0.000    2.264    0.000    3.170 
#    0.000    0.000    0.000    0.000    0.000    0.000 
#
# Total GULP energy -656862.526196 kJ/mol
# GULP energy per Si atom -12393.632570 kJ/mol
# Density = 1.865494 g / cm^3
# Si number density = 18.697496 Si / 1000 Ang^3
#
#
#
# Elastic Constant Matrix: (Units=GPa)
#
#
# Indices 1 2 3 4 5 6 
#
# 1 130.4221 54.9703 69.6457 0.0000 0.0000 0.0000
# 2 54.9703 77.4693 48.3243 0.0000 0.0000 0.0000
# 3 69.6457 48.3243 94.8977 0.0000 0.0000 0.0000
# 4 0.0000 0.0000 0.0000 28.6687 0.0000 0.0000
# 5 0.0000 0.0000 0.0000 0.0000 20.8167 0.0000
# 6 0.0000 0.0000 0.0000 0.0000 0.0000 -3.5698
#
#
#
# Elastic Compliance Matrix: (Units=1/GPa)
#
#
# Indices 1 2 3 4 5 6 
#
# 1 0.013867 -0.005117 -0.007572 0.000000 0.000000 0.000000
# 2 -0.005117 0.020805 -0.006839 0.000000 0.000000 0.000000
# 3 -0.007572 -0.006839 0.019577 0.000000 0.000000 0.000000
# 4 0.000000 0.000000 0.000000 0.034881 0.000000 0.000000
# 5 0.000000 0.000000 0.000000 0.000000 0.048038 0.000000
# 6 0.000000 0.000000 0.000000 0.000000 0.000000 -0.280127
#
#
# Mechanical properties :
#
#
# Convention : Reuss Voigt Hill
#
# Bulk Modulus (GPa) = 65.81404 72.07442 68.94423
# Shear Modulus (GPa) = -50.58830 17.83970 -16.37430
#
# Velocity S-wave (km/s) = -5.20720 3.09224 -2.96252
# Velocity P-wave (km/s) = 0.93671 7.16802 5.02509
#
# Compressibility (1/GPa) = 0.01519433
#
# Stress axis : x y z
#
# Youngs Moduli (GPa) = 72.11186 48.06433 51.07953
#
# Poissons Ratio (x) = 0.24594 0.38676
# Poissons Ratio (y) = 0.36898 0.34935
# Poissons Ratio (z) = 0.54601 0.32873
#
# Static dielectric constant tensor:
#      x y z
#    x 3.394780 0.000000 0.000000 
#    y 0.000000 3.436200 0.000000 
#    z 0.000000 0.000000 3.559600 
# 
# 
# High freq. dielectric constant tensor:
#      x y z
#    x 1.714590 0.000000 0.000000 
#    y 0.000000 1.730080 0.000000 
#    z 0.000000 0.000000 1.733570 
# 
# From -- ./inp_files/7120.got.cif
#   From: 2010.03.12/outbox.cif.g09.slc.cpg/sg47_4_cif.got.tgz:7120.got - 2010.04.14 03:12:58.
