data_PCOD8199708
_publ_section_title
;
Structure prediction by ZEFSAII (Michael W. Deem and Ramdas Pophale) SiO2 
 PCOD8199708
Probable space group: P M M M
;
_chemical_formula_sum "Si O2"
_cell_formula_units_Z 40
_cell_length_a 9.656356
_cell_length_b 8.022008
_cell_length_c 27.537833
_cell_angle_alpha 90.000000
_cell_angle_beta 90.000000
_cell_angle_gamma 90.000000
_cell_volume 2133.173211
_symmetry_space_group_name_H-M "P M M M"
_symmetry_group_IT_number 47
_symmetry_cell_setting 'orthorhombic'
loop_
_space_group_symop_operation_xyz
x,y,z
-x,-y,z
x,-y,-z
-x,y,-z
-x,-y,-z
x,y,-z
-x,y,z
x,-y,z
loop_
_atom_site_type_symbol
_atom_site_label
_atom_site_fract_x
_atom_site_fract_y
_atom_site_fract_z
Si Si1 0.165045 0.813430 0.883845
Si Si2 0.847034 0.196523 0.224205
Si Si3 0.654978 0.197644 0.691419
Si Si4 0.344641 0.304952 0.586731
Si Si5 0.165128 0.500000 0.945014
Si Si6 0.846631 0.193140 0.500000
O O1 0.214356 0.766072 0.829390
O O2 0.222222 0.669215 0.919596
O O3 0.000000 0.817778 0.884598
O O4 0.219415 0.000000 0.898732
O O5 0.748058 0.274704 0.265392
O O6 0.000000 0.276393 0.229845
O O7 0.858248 0.000000 0.231353
O O8 0.500000 0.268408 0.698130
O O9 0.714272 0.255873 0.639562
O O10 0.655665 0.000000 0.693948
O O11 0.500000 0.228571 0.579285
O O12 0.353892 0.500000 0.580993
O O13 0.238255 0.238569 0.547611
O O14 0.000000 0.500000 0.943013
O O15 0.219980 0.500000 0.000000
O O16 0.000000 0.279440 0.500000
O O17 0.871138 0.000000 0.500000
#
# Coordination Sequence:
#
# PCOD8199708 Si02
#       6
#     8   8   8   8   4   4
#     4   8  14  25  39  56  83 119 156 195 240 288
#     4   8  14  26  44  64  89 123 157 190 235 289
#     4   9  17  30  49  72  97 125 159 200 240 281
#     4  10  21  37  55  75 101 132 163 197 242 295
#     4   9  16  24  36  58  87 119 157 198 239 288
#     4  11  24  39  56  78 100 125 162 207 248 288
#
# _framework density 18.751408000000001
#
# number of rings (size 3 to 8) (size 9 to 14) (size 15 to 20)
#    0.000    3.000    0.000    2.400    0.000    4.400 
#    1.800    4.000    0.000    0.000    0.000    0.000 
#    0.000    1.600    0.000    7.800    0.000    8.000 
#
# Total GULP energy -495724.773492 kJ/mol
# GULP energy per Si atom -12393.119337 kJ/mol
# Density = 1.870873 g / cm^3
# Si number density = 18.751408 Si / 1000 Ang^3
#
#
#
# Elastic Constant Matrix: (Units=GPa)
#
#
# Indices 1 2 3 4 5 6 
#
# 1 65.3587 22.2057 68.4627 0.0000 0.0000 0.0000
# 2 22.2057 68.0063 59.5036 0.0000 0.0000 0.0000
# 3 68.4627 59.5036 176.5842 0.0000 0.0000 0.0000
# 4 0.0000 0.0000 0.0000 -26.2152 0.0000 0.0000
# 5 0.0000 0.0000 0.0000 0.0000 5.0323 0.0000
# 6 0.0000 0.0000 0.0000 0.0000 0.0000 10.2928
#
#
#
# Elastic Compliance Matrix: (Units=1/GPa)
#
#
# Indices 1 2 3 4 5 6 
#
# 1 0.025773 0.000464 -0.010149 0.000000 0.000000 0.000000
# 2 0.000464 0.020861 -0.007210 0.000000 0.000000 0.000000
# 3 -0.010149 -0.007210 0.012027 0.000000 0.000000 0.000000
# 4 0.000000 0.000000 0.000000 -0.038146 0.000000 0.000000
# 5 0.000000 0.000000 0.000000 0.000000 0.198717 0.000000
# 6 0.000000 0.000000 0.000000 0.000000 0.000000 0.097155
#
#
# Mechanical properties :
#
#
# Convention : Reuss Voigt Hill
#
# Bulk Modulus (GPa) = 40.20361 67.81036 54.00698
# Shear Modulus (GPa) = 13.94828 8.47380 11.21104
#
# Velocity S-wave (km/s) = 2.73032 2.12810 2.44781
# Velocity P-wave (km/s) = 5.60593 6.50229 6.07067
#
# Compressibility (1/GPa) = 0.02487339
#
# Stress axis : x y z
#
# Youngs Moduli (GPa) = 38.79977 47.93614 83.14433
#
# Poissons Ratio (x) = -0.02226 0.84383
# Poissons Ratio (y) = -0.01802 0.59944
# Poissons Ratio (z) = 0.39378 0.34560
#
# Static dielectric constant tensor:
#      x y z
#    x 3.350000 0.000000 0.000000 
#    y 0.000000 3.414910 0.000000 
#    z 0.000000 0.000000 3.631230 
# 
# 
# High freq. dielectric constant tensor:
#      x y z
#    x 1.683650 0.000000 0.000000 
#    y 0.000000 1.718460 0.000000 
#    z 0.000000 0.000000 1.734390 
# 
# From -- ./inp_files/33005.got.cif
#   From: 2010.03.12/outbox.cif.g09.slc.cpg/sg47_17_cif.got.tgz:33005.got - 2010.04.14 03:12:58.
