data_PCOD8199293
_publ_section_title
;
Structure prediction by ZEFSAII (Michael W. Deem and Ramdas Pophale) SiO2 
 PCOD8199293
Probable space group: P M M M
;
_chemical_formula_sum "Si O2"
_cell_formula_units_Z 64
_cell_length_a 28.174012
_cell_length_b 14.298037
_cell_length_c 9.268280
_cell_angle_alpha 90.000000
_cell_angle_beta 90.000000
_cell_angle_gamma 90.000000
_cell_volume 3733.569649
_symmetry_space_group_name_H-M "P M M M"
_symmetry_group_IT_number 47
_symmetry_cell_setting 'orthorhombic'
loop_
_space_group_symop_operation_xyz
x,y,z
-x,-y,z
x,-y,-z
-x,y,-z
-x,-y,-z
x,y,-z
-x,y,z
x,-y,z
loop_
_atom_site_type_symbol
_atom_site_label
_atom_site_fract_x
_atom_site_fract_y
_atom_site_fract_z
Si Si1 0.295304 0.250000 0.670371
Si Si2 0.117308 0.892445 0.832172
Si Si3 0.628386 0.396192 0.671626
Si Si4 0.447095 0.750000 0.671850
Si Si5 0.628386 0.896192 0.328374
Si Si6 0.198135 0.250000 0.164530
Si Si7 0.944165 0.750000 0.332888
Si Si8 0.882692 0.392445 0.167828
O O1 0.289624 0.250000 0.500000
O O2 0.324342 0.341606 0.722151
O O3 0.324342 0.158394 0.722151
O O4 0.243586 0.250000 0.735984
O O5 0.167376 0.842302 0.800822
O O6 0.076117 0.843619 0.740354
O O7 0.121610 0.000000 0.784715
O O8 0.103870 0.882029 0.000000
O O9 0.627649 0.400557 0.500000
O O10 0.628733 0.500000 0.739392
O O11 0.581262 0.341942 0.725524
O O12 0.449609 0.750000 0.500000
O O13 0.500000 0.750000 0.738790
O O14 0.418738 0.841942 0.725524
O O15 0.627649 0.900557 0.500000
O O16 0.628733 0.000000 0.260608
O O17 0.167376 0.342302 0.199178
O O18 0.215272 0.250000 0.000000
O O19 0.929650 0.750000 0.500000
O O20 0.923883 0.656381 0.259646
O O21 0.000000 0.750000 0.310785
O O22 0.878390 0.500000 0.215285
O O23 0.896130 0.382029 0.000000
#
# Coordination Sequence:
#
# PCOD8199293 Si02
#       8
#     8   8   8   8   8   8   8   8
#     4   9  17  28  42  61  85 115 150 180 212 267
#     4   9  19  36  55  73  95 126 163 199 235 279
#     4   8  14  24  36  52  78 110 142 178 218 260
#     4   8  13  20  31  50  76 107 143 178 214 262
#     4   8  14  24  36  52  78 110 142 178 218 260
#     4   9  18  32  49  70  95 119 148 193 241 275
#     4  10  21  35  51  75 106 133 157 192 237 280
#     4   9  19  36  55  73  95 126 163 199 235 279
#
# _framework density 17.141770999999999
#
# number of rings (size 3 to 8) (size 9 to 14) (size 15 to 20)
#    0.000    3.250    0.000    2.625    0.000    5.500 
#    0.000    5.000    0.000    0.000    0.000    0.000 
#    0.000    8.000    0.000    9.000    0.000   10.000 
#
# Total GULP energy -793347.047534 kJ/mol
# GULP energy per Si atom -12396.047618 kJ/mol
# Density = 1.710276 g / cm^3
# Si number density = 17.141771 Si / 1000 Ang^3
#
#
#
# Elastic Constant Matrix: (Units=GPa)
#
#
# Indices 1 2 3 4 5 6 
#
# 1 137.4817 78.6610 48.9069 0.0000 0.0000 0.0000
# 2 78.6610 183.7324 39.2425 0.0000 0.0000 0.0000
# 3 48.9069 39.2425 41.7066 0.0000 0.0000 0.0000
# 4 0.0000 0.0000 0.0000 8.1687 0.0000 0.0000
# 5 0.0000 0.0000 0.0000 0.0000 -4.5008 0.0000
# 6 0.0000 0.0000 0.0000 0.0000 0.0000 13.6933
#
#
#
# Elastic Compliance Matrix: (Units=1/GPa)
#
#
# Indices 1 2 3 4 5 6 
#
# 1 0.013722 -0.003051 -0.013221 0.000000 0.000000 0.000000
# 2 -0.003051 0.007490 -0.003469 0.000000 0.000000 0.000000
# 3 -0.013221 -0.003469 0.042744 0.000000 0.000000 0.000000
# 4 0.000000 0.000000 0.000000 0.122419 0.000000 0.000000
# 5 0.000000 0.000000 0.000000 0.000000 -0.222181 0.000000
# 6 0.000000 0.000000 0.000000 0.000000 0.000000 0.073029
#
#
# Mechanical properties :
#
#
# Convention : Reuss Voigt Hill
#
# Bulk Modulus (GPa) = 40.85904 77.39352 59.12628
# Shear Modulus (GPa) = 58.91778 16.54625 37.73201
#
# Velocity S-wave (km/s) = 5.86903 3.11023 4.69676
# Velocity P-wave (km/s) = 8.35554 7.62530 7.99876
#
# Compressibility (1/GPa) = 0.02447439
#
# Stress axis : x y z
#
# Youngs Moduli (GPa) = 72.87303 133.51013 23.39483
#
# Poissons Ratio (x) = 0.40738 0.30929
# Poissons Ratio (y) = 0.22236 0.08117
# Poissons Ratio (z) = 0.96342 0.46321
#
# Static dielectric constant tensor:
#      x y z
#    x 3.198210 0.000000 0.000000 
#    y 0.000000 3.673340 0.000000 
#    z 0.000000 0.000000 2.808780 
# 
# 
# High freq. dielectric constant tensor:
#      x y z
#    x 1.662990 0.000000 0.000000 
#    y 0.000000 1.670860 0.000000 
#    z 0.000000 0.000000 1.617860 
# 
# From -- ./inp_files/14271.got.cif
#   From: 2010.03.12/outbox.cif.g09.slc.cpg/sg47_8_cif.got.tgz:14271.got - 2010.04.14 03:12:58.
