data_PCOD8199388
_publ_section_title
;
Structure prediction by ZEFSAII (Michael W. Deem and Ramdas Pophale) SiO2 
 PCOD8199388
Probable space group: P M M M
;
_chemical_formula_sum "Si O2"
_cell_formula_units_Z 64
_cell_length_a 23.821806
_cell_length_b 15.284934
_cell_length_c 9.064918
_cell_angle_alpha 90.000000
_cell_angle_beta 90.000000
_cell_angle_gamma 90.000000
_cell_volume 3300.670192
_symmetry_space_group_name_H-M "P M M M"
_symmetry_group_IT_number 47
_symmetry_cell_setting 'orthorhombic'
loop_
_space_group_symop_operation_xyz
x,y,z
-x,-y,z
x,-y,-z
-x,y,-z
-x,-y,-z
x,y,-z
-x,y,z
x,-y,z
loop_
_atom_site_type_symbol
_atom_site_label
_atom_site_fract_x
_atom_site_fract_y
_atom_site_fract_z
Si Si1 0.829897 0.098510 0.668968
Si Si2 0.364249 0.743991 0.825267
Si Si3 0.063382 0.352978 0.167712
Si Si4 0.169601 0.401616 0.668693
Si Si5 0.563792 0.399025 0.671250
Si Si6 0.936631 0.852340 0.167872
Si Si7 0.236006 0.250472 0.174782
Si Si8 0.562995 0.903286 0.824593
O O1 0.829017 0.129809 0.500000
O O2 0.893952 0.098314 0.725317
O O3 0.791670 0.162534 0.764429
O O4 0.806218 0.000000 0.684609
O O5 0.392975 0.657047 0.765064
O O6 0.300227 0.747487 0.772430
O O7 0.395237 0.830050 0.760113
O O8 0.368688 0.741475 0.000000
O O9 0.105435 0.402563 0.276027
O O10 0.074934 0.250320 0.179711
O O11 0.000000 0.375615 0.216508
O O12 0.073513 0.384188 0.000000
O O13 0.171162 0.369562 0.500000
O O14 0.193640 0.500000 0.683058
O O15 0.206790 0.337694 0.766814
O O16 0.572840 0.378500 0.500000
O O17 0.500000 0.376210 0.717650
O O18 0.576577 0.500000 0.705142
O O19 0.000000 0.874895 0.217760
O O20 0.927029 0.883546 0.000000
O O21 0.229932 0.249042 0.000000
O O22 0.500000 0.882816 0.768444
O O23 0.581724 0.000000 0.769264
O O24 0.564141 0.901459 0.000000
#
# Coordination Sequence:
#
# PCOD8199388 Si02
#       8
#     8   8   8   8   8   8   8   8
#     4  11  24  40  59  84 114 149 190 236 286 340
#     4  10  21  35  56  85 112 143 188 239 283 323
#     4   9  18  34  58  87 116 145 178 221 278 342
#     4  11  24  40  59  83 111 146 188 234 286 342
#     4   9  19  36  57  83 117 155 190 224 271 334
#     4   9  18  34  58  87 116 146 181 224 280 344
#     4  11  24  41  59  81 111 149 195 243 287 335
#     4   8  14  27  50  81 115 145 172 210 265 325
#
# _framework density 19.390001000000002
#
# number of rings (size 3 to 8) (size 9 to 14) (size 15 to 20)
#    0.000    2.250    1.250    3.000    0.000    6.000 
#    0.000    8.125    0.000    0.375    0.000    1.750 
#    0.000    0.000    0.000    0.000    0.000    0.000 
#
# Total GULP energy -793629.494378 kJ/mol
# GULP energy per Si atom -12400.460850 kJ/mol
# Density = 1.934587 g / cm^3
# Si number density = 19.390001 Si / 1000 Ang^3
#
#
#
# Elastic Constant Matrix: (Units=GPa)
#
#
# Indices 1 2 3 4 5 6 
#
# 1 134.3881 63.3178 45.9150 0.0000 0.0000 0.0000
# 2 63.3178 104.5125 36.3380 0.0000 0.0000 0.0000
# 3 45.9150 36.3380 65.0183 0.0000 0.0000 0.0000
# 4 0.0000 0.0000 0.0000 21.6720 0.0000 0.0000
# 5 0.0000 0.0000 0.0000 0.0000 18.9964 0.0000
# 6 0.0000 0.0000 0.0000 0.0000 0.0000 10.3771
#
#
#
# Elastic Compliance Matrix: (Units=1/GPa)
#
#
# Indices 1 2 3 4 5 6 
#
# 1 0.011748 -0.005254 -0.005360 0.000000 0.000000 0.000000
# 2 -0.005254 0.014225 -0.004240 0.000000 0.000000 0.000000
# 3 -0.005360 -0.004240 0.021535 0.000000 0.000000 0.000000
# 4 0.000000 0.000000 0.000000 0.046143 0.000000 0.000000
# 5 0.000000 0.000000 0.000000 0.000000 0.052641 0.000000
# 6 0.000000 0.000000 0.000000 0.000000 0.000000 0.096366
#
#
# Mechanical properties :
#
#
# Convention : Reuss Voigt Hill
#
# Bulk Modulus (GPa) = 56.17786 66.11783 61.14784
# Shear Modulus (GPa) = 17.96623 20.76563 19.36593
#
# Velocity S-wave (km/s) = 3.04727 3.27608 3.16374
# Velocity P-wave (km/s) = 6.43557 6.96299 6.70447
#
# Compressibility (1/GPa) = 0.01780061
#
# Stress axis : x y z
#
# Youngs Moduli (GPa) = 85.12336 70.29661 46.43549
#
# Poissons Ratio (x) = 0.36931 0.24889
# Poissons Ratio (y) = 0.44721 0.19690
# Poissons Ratio (z) = 0.45625 0.29809
#
# Static dielectric constant tensor:
#      x y z
#    x 3.648370 0.000000 0.000000 
#    y 0.000000 3.581410 0.000000 
#    z 0.000000 0.000000 3.348970 
# 
# 
# High freq. dielectric constant tensor:
#      x y z
#    x 1.753160 0.000000 0.000000 
#    y 0.000000 1.762670 0.000000 
#    z 0.000000 0.000000 1.737150 
# 
# From -- ./inp_files/12779.got.cif
#   From: 2010.03.12/outbox.cif.g09.slc.cpg/sg47_7_cif.got.tgz:12779.got - 2010.04.14 03:12:58.
