data_PCOD8199806
_publ_section_title
;
Structure prediction by ZEFSAII (Michael W. Deem and Ramdas Pophale) SiO2 
 PCOD8199806
Probable space group: P M M M
;
_chemical_formula_sum "Si O2"
_cell_formula_units_Z 44
_cell_length_a 9.286060
_cell_length_b 28.021073
_cell_length_c 9.147031
_cell_angle_alpha 90.000000
_cell_angle_beta 90.000000
_cell_angle_gamma 90.000000
_cell_volume 2380.106541
_symmetry_space_group_name_H-M "P M M M"
_symmetry_group_IT_number 47
_symmetry_cell_setting 'orthorhombic'
loop_
_space_group_symop_operation_xyz
x,y,z
-x,-y,z
x,-y,-z
-x,y,-z
-x,-y,-z
x,y,-z
-x,y,z
x,-y,z
loop_
_atom_site_type_symbol
_atom_site_label
_atom_site_fract_x
_atom_site_fract_y
_atom_site_fract_z
Si Si1 0.834381 0.555404 0.167680
Si Si2 0.328582 0.000000 0.834946
Si Si3 0.330934 0.634569 0.330234
Si Si4 0.832592 0.186041 0.331609
Si Si5 0.332356 0.907143 0.330266
Si Si6 0.166897 0.281452 0.828533
O O1 0.804185 0.500000 0.196450
O O2 0.732014 0.584544 0.274926
O O3 0.000000 0.568002 0.201957
O O4 0.799459 0.568735 0.000000
O O5 0.269477 0.047275 0.755422
O O6 0.500000 0.000000 0.826512
O O7 0.271484 0.000000 0.000000
O O8 0.293790 0.640718 0.500000
O O9 0.500000 0.634793 0.301037
O O10 0.260604 0.677299 0.241521
O O11 0.794514 0.196699 0.500000
O O12 0.747845 0.139975 0.273257
O O13 0.781902 0.231185 0.237567
O O14 0.000000 0.175522 0.309581
O O15 0.301080 0.916136 0.500000
O O16 0.500000 0.899764 0.298429
O O17 0.000000 0.290994 0.791255
O O18 0.195151 0.280498 0.000000
#
# Coordination Sequence:
#
# PCOD8199806 Si02
#       6
#     8   4   8   8   8   8
#     4   9  19  37  60  84 109 139 177 218 259 308
#     4   9  17  29  46  69  96 126 162 203 246 294
#     4  11  24  38  53  78 111 143 176 217 262 307
#     4   9  18  33  52  74 101 132 165 204 253 306
#     4   9  17  30  49  71  95 126 164 204 245 293
#     4  10  21  37  57  79 103 135 175 216 259 311
#
# _framework density 18.486567999999998
#
# number of rings (size 3 to 8) (size 9 to 14) (size 15 to 20)
#    0.000    2.455    0.000    2.455    0.000    8.364 
#    0.000    5.000    0.000    2.727    0.000    0.000 
#    0.000    0.000    0.000    0.000    0.000    0.000 
#
# Total GULP energy -545735.194956 kJ/mol
# GULP energy per Si atom -12403.072613 kJ/mol
# Density = 1.844449 g / cm^3
# Si number density = 18.486568 Si / 1000 Ang^3
#
#
#
# Elastic Constant Matrix: (Units=GPa)
#
#
# Indices 1 2 3 4 5 6 
#
# 1 60.2247 60.3856 47.9199 0.0000 0.0000 0.0000
# 2 60.3856 149.3266 72.9544 0.0000 0.0000 0.0000
# 3 47.9199 72.9544 93.7840 0.0000 0.0000 0.0000
# 4 0.0000 0.0000 0.0000 25.2623 0.0000 0.0000
# 5 0.0000 0.0000 0.0000 0.0000 25.1119 0.0000
# 6 0.0000 0.0000 0.0000 0.0000 0.0000 46.3867
#
#
#
# Elastic Compliance Matrix: (Units=1/GPa)
#
#
# Indices 1 2 3 4 5 6 
#
# 1 0.033365 -0.008329 -0.010570 0.000000 0.000000 0.000000
# 2 -0.008329 0.012881 -0.005764 0.000000 0.000000 0.000000
# 3 -0.010570 -0.005764 0.020548 0.000000 0.000000 0.000000
# 4 0.000000 0.000000 0.000000 0.039585 0.000000 0.000000
# 5 0.000000 0.000000 0.000000 0.000000 0.039822 0.000000
# 6 0.000000 0.000000 0.000000 0.000000 0.000000 0.021558
#
#
# Mechanical properties :
#
#
# Convention : Reuss Voigt Hill
#
# Bulk Modulus (GPa) = 57.24550 73.98391 65.61470
# Shear Modulus (GPa) = 22.43091 27.49056 24.96073
#
# Velocity S-wave (km/s) = 3.48711 3.86042 3.67851
# Velocity P-wave (km/s) = 6.87361 7.74453 7.32203
#
# Compressibility (1/GPa) = 0.01746862
#
# Stress axis : x y z
#
# Youngs Moduli (GPa) = 29.97110 77.63361 48.66754
#
# Poissons Ratio (x) = 0.64659 0.51439
# Poissons Ratio (y) = 0.24962 0.28054
# Poissons Ratio (z) = 0.31678 0.44752
#
# Static dielectric constant tensor:
#      x y z
#    x 3.254810 0.000000 0.000000 
#    y 0.000000 3.568570 0.000000 
#    z 0.000000 0.000000 3.433020 
# 
# 
# High freq. dielectric constant tensor:
#      x y z
#    x 1.700150 0.000000 0.000000 
#    y 0.000000 1.731850 0.000000 
#    z 0.000000 0.000000 1.718070 
# 
# From -- ./inp_files/2064.got.cif
#   From: 2010.03.12/outbox.cif.g09.slc.cpg/sg47_2_cif.got.tgz:2064.got - 2010.04.14 03:12:58.
