data_PCOD8199046
_publ_section_title
;
Structure prediction by ZEFSAII (Michael W. Deem and Ramdas Pophale) SiO2 
 PCOD8199046
Probable space group: P M M M
;
_chemical_formula_sum "Si O2"
_cell_formula_units_Z 52
_cell_length_a 9.130684
_cell_length_b 13.761598
_cell_length_c 26.595033
_cell_angle_alpha 90.000000
_cell_angle_beta 90.000000
_cell_angle_gamma 90.000000
_cell_volume 3341.740434
_symmetry_space_group_name_H-M "P M M M"
_symmetry_group_IT_number 47
_symmetry_cell_setting 'orthorhombic'
loop_
_space_group_symop_operation_xyz
x,y,z
-x,-y,z
x,-y,-z
-x,y,-z
-x,-y,-z
x,y,-z
-x,y,z
x,-y,z
loop_
_atom_site_type_symbol
_atom_site_label
_atom_site_fract_x
_atom_site_fract_y
_atom_site_fract_z
Si Si1 0.672660 0.110272 0.601120
Si Si2 0.831088 0.284945 0.557146
Si Si3 0.328743 0.390609 0.643529
Si Si4 0.328817 0.886541 0.803300
Si Si5 0.671813 0.793113 0.702658
Si Si6 0.665614 0.115951 0.000000
Si Si7 0.834739 0.884357 0.097441
O O1 0.500000 0.127795 0.595085
O O2 0.755929 0.179598 0.562331
O O3 0.724087 0.136468 0.657691
O O4 0.716396 0.000000 0.589007
O O5 0.812871 0.320762 0.500000
O O6 0.756199 0.364844 0.592612
O O7 0.000000 0.275327 0.572421
O O8 0.500000 0.378082 0.631636
O O9 0.289765 0.500000 0.660284
O O10 0.282945 0.317788 0.688818
O O11 0.500000 0.866485 0.811963
O O12 0.261049 0.827582 0.755751
O O13 0.244262 0.847463 0.852142
O O14 0.299687 0.000000 0.793600
O O15 0.500000 0.804026 0.708911
O O16 0.748105 0.156597 0.950796
O O17 0.500000 0.155646 0.000000
O O18 0.666225 0.000000 0.000000
O O19 0.000000 0.844051 0.096140
O O20 0.833671 0.000000 0.096054
#
# Coordination Sequence:
#
# PCOD8199046 Si02
#       7
#     8   8   8   8   8   4   8
#     4   9  17  30  48  67  86 111 143 175 206 242
#     4  10  21  34  46  63  88 114 138 167 205 250
#     4   9  18  33  52  70  85 104 134 172 213 256
#     4   9  15  23  37  56  78 106 138 167 196 235
#     4   8  14  26  44  64  84 105 132 168 207 246
#     4   9  15  23  35  49  67  97 140 181 210 239
#     4   9  16  24  33  48  73 104 137 173 209 238
#
# _framework density 15.560752000000001
#
# number of rings (size 3 to 8) (size 9 to 14) (size 15 to 20)
#    0.000    3.000    0.000    2.538    0.000    7.077 
#    0.000    6.154    0.000    3.692    0.000    0.000 
#    0.000    0.000    0.000    0.692    0.000   16.385 
#
# Total GULP energy -644616.164671 kJ/mol
# GULP energy per Si atom -12396.464705 kJ/mol
# Density = 1.552534 g / cm^3
# Si number density = 15.560752 Si / 1000 Ang^3
#
#
#
# Elastic Constant Matrix: (Units=GPa)
#
#
# Indices 1 2 3 4 5 6 
#
# 1 71.9619 26.7910 47.3450 0.0000 0.0000 0.0000
# 2 26.7910 69.7817 30.0727 0.0000 0.0000 0.0000
# 3 47.3450 30.0727 116.1528 0.0000 0.0000 0.0000
# 4 0.0000 0.0000 0.0000 12.6681 0.0000 0.0000
# 5 0.0000 0.0000 0.0000 0.0000 11.6238 0.0000
# 6 0.0000 0.0000 0.0000 0.0000 0.0000 8.6242
#
#
#
# Elastic Compliance Matrix: (Units=1/GPa)
#
#
# Indices 1 2 3 4 5 6 
#
# 1 0.020302 -0.004759 -0.007043 0.000000 0.000000 0.000000
# 2 -0.004759 0.017246 -0.002525 0.000000 0.000000 0.000000
# 3 -0.007043 -0.002525 0.012134 0.000000 0.000000 0.000000
# 4 0.000000 0.000000 0.000000 0.078938 0.000000 0.000000
# 5 0.000000 0.000000 0.000000 0.000000 0.086030 0.000000
# 6 0.000000 0.000000 0.000000 0.000000 0.000000 0.115953
#
#
# Mechanical properties :
#
#
# Convention : Reuss Voigt Hill
#
# Bulk Modulus (GPa) = 47.55832 51.81264 49.68548
# Shear Modulus (GPa) = 13.65124 16.82906 15.24015
#
# Velocity S-wave (km/s) = 2.96512 3.29220 3.13293
# Velocity P-wave (km/s) = 6.50783 6.91525 6.71463
#
# Compressibility (1/GPa) = 0.02102682
#
# Stress axis : x y z
#
# Youngs Moduli (GPa) = 49.25678 57.98510 82.41345
#
# Poissons Ratio (x) = 0.27596 0.58044
# Poissons Ratio (y) = 0.23442 0.20811
# Poissons Ratio (z) = 0.34692 0.14642
#
# Static dielectric constant tensor:
#      x y z
#    x 2.925320 0.000000 0.000000 
#    y 0.000000 2.782040 0.000000 
#    z 0.000000 0.000000 3.091070 
# 
# 
# High freq. dielectric constant tensor:
#      x y z
#    x 1.589370 0.000000 0.000000 
#    y 0.000000 1.553120 0.000000 
#    z 0.000000 0.000000 1.596900 
# 
# From -- ./inp_files/33384.got.cif
#   From: 2010.03.12/outbox.cif.g09.slc.cpg/sg47_17_cif.got.tgz:33384.got - 2010.04.14 03:12:58.
