data_PCOD8199175
_publ_section_title
;
Structure prediction by ZEFSAII (Michael W. Deem and Ramdas Pophale) SiO2 
 PCOD8199175
Probable space group: P M M M
;
_chemical_formula_sum "Si O2"
_cell_formula_units_Z 52
_cell_length_a 29.026260
_cell_length_b 14.345178
_cell_length_c 8.048524
_cell_angle_alpha 90.000000
_cell_angle_beta 90.000000
_cell_angle_gamma 90.000000
_cell_volume 3351.299687
_symmetry_space_group_name_H-M "P M M M"
_symmetry_group_IT_number 47
_symmetry_cell_setting 'orthorhombic'
loop_
_space_group_symop_operation_xyz
x,y,z
-x,-y,z
x,-y,-z
-x,y,-z
-x,-y,-z
x,y,-z
-x,y,z
x,-y,z
loop_
_atom_site_type_symbol
_atom_site_label
_atom_site_fract_x
_atom_site_fract_y
_atom_site_fract_z
Si Si1 0.274439 0.109728 0.693025
Si Si2 0.403478 0.398494 0.810247
Si Si3 0.636663 0.219978 0.311729
Si Si4 0.108649 0.111491 0.000000
Si Si5 0.500000 0.610574 0.686340
Si Si6 0.947951 0.889258 0.684582
Si Si7 0.787793 0.110230 0.000000
Si Si8 0.448272 0.107793 0.193568
O O1 0.260962 0.134921 0.500000
O O2 0.321054 0.159319 0.757397
O O3 0.236192 0.143083 0.827036
O O4 0.283247 0.000000 0.706603
O O5 0.396422 0.500000 0.718255
O O6 0.364584 0.322698 0.768887
O O7 0.453313 0.352227 0.770761
O O8 0.400740 0.420966 0.000000
O O9 0.646951 0.239882 0.500000
O O10 0.588722 0.166023 0.294773
O O11 0.083939 0.150614 0.832915
O O12 0.160555 0.150834 0.000000
O O13 0.107563 0.000000 0.000000
O O14 0.500000 0.500000 0.701862
O O15 0.500000 0.647041 0.500000
O O16 0.930789 0.856602 0.500000
O O17 0.000000 0.853557 0.714346
O O18 0.947098 0.000000 0.690971
O O19 0.789425 0.000000 0.000000
O O20 0.500000 0.141866 0.239214
O O21 0.442998 0.000000 0.241929
O O22 0.438575 0.123004 0.000000
#
# Coordination Sequence:
#
# PCOD8199175 Si02
#       8
#     8   8   8   4   4   8   4   8
#     4   9  19  34  48  65  86 106 137 177 215 261
#     4  10  21  35  50  68  88 110 134 159 190 235
#     4  11  22  33  49  68  85 108 134 163 204 248
#     4   9  15  22  33  52  72  96 135 173 210 259
#     4   9  17  31  49  65  84 107 126 149 181 219
#     4   8  13  20  30  46  71 103 135 169 210 252
#     4   9  18  29  44  61  78 107 137 172 227 265
#     4   9  19  34  49  66  87 109 133 161 193 234
#
# _framework density 15.516368
#
# number of rings (size 3 to 8) (size 9 to 14) (size 15 to 20)
#    0.000    2.692    0.000    2.769    3.231    4.615 
#    0.000    3.846    0.000    0.000    0.000    0.000 
#    0.000    0.000    0.000    0.000    0.000    0.000 
#
# Total GULP energy -644320.154421 kJ/mol
# GULP energy per Si atom -12390.772200 kJ/mol
# Density = 1.548105 g / cm^3
# Si number density = 15.516368 Si / 1000 Ang^3
#
#
#
# Elastic Constant Matrix: (Units=GPa)
#
#
# Indices 1 2 3 4 5 6 
#
# 1 101.4851 28.2504 57.4447 0.0000 0.0000 0.0000
# 2 28.2504 31.4199 22.6921 0.0000 0.0000 0.0000
# 3 57.4447 22.6921 91.2107 0.0000 0.0000 0.0000
# 4 0.0000 0.0000 0.0000 13.3412 0.0000 0.0000
# 5 0.0000 0.0000 0.0000 0.0000 21.8738 0.0000
# 6 0.0000 0.0000 0.0000 0.0000 0.0000 4.3191
#
#
#
# Elastic Compliance Matrix: (Units=1/GPa)
#
#
# Indices 1 2 3 4 5 6 
#
# 1 0.017317 -0.009379 -0.008573 0.000000 0.000000 0.000000
# 2 -0.009379 0.043877 -0.005010 0.000000 0.000000 0.000000
# 3 -0.008573 -0.005010 0.017609 0.000000 0.000000 0.000000
# 4 0.000000 0.000000 0.000000 0.074956 0.000000 0.000000
# 5 0.000000 0.000000 0.000000 0.000000 0.045717 0.000000
# 6 0.000000 0.000000 0.000000 0.000000 0.000000 0.231530
#
#
# Mechanical properties :
#
#
# Convention : Reuss Voigt Hill
#
# Bulk Modulus (GPa) = 30.41225 48.98779 39.70002
# Shear Modulus (GPa) = 10.24824 15.62205 12.93514
#
# Velocity S-wave (km/s) = 2.57277 3.17647 2.89042
# Velocity P-wave (km/s) = 5.33556 6.71517 6.06472
#
# Compressibility (1/GPa) = 0.03288148
#
# Stress axis : x y z
#
# Youngs Moduli (GPa) = 57.74639 22.79073 56.78818
#
# Poissons Ratio (x) = 0.21374 0.48685
# Poissons Ratio (y) = 0.54158 0.28448
# Poissons Ratio (z) = 0.49506 0.11417
#
# Static dielectric constant tensor:
#      x y z
#    x 2.982560 0.000000 0.000000 
#    y 0.000000 0.615860 0.000000 
#    z 0.000000 0.000000 3.162180 
# 
# 
# High freq. dielectric constant tensor:
#      x y z
#    x 1.568230 0.000000 0.000000 
#    y 0.000000 1.546180 0.000000 
#    z 0.000000 0.000000 1.610490 
# 
# From -- ./inp_files/12591.got.cif
#   From: 2010.03.12/outbox.cif.g09.slc.cpg/sg47_7_cif.got.tgz:12591.got - 2010.04.14 03:12:58.
