data_PCOD8199434
_publ_section_title
;
Structure prediction by ZEFSAII (Michael W. Deem and Ramdas Pophale) SiO2 
 PCOD8199434
Probable space group: P M M M
;
_chemical_formula_sum "Si O2"
_cell_formula_units_Z 56
_cell_length_a 8.867782
_cell_length_b 22.727559
_cell_length_c 14.444125
_cell_angle_alpha 90.000000
_cell_angle_beta 90.000000
_cell_angle_gamma 90.000000
_cell_volume 2911.112842
_symmetry_space_group_name_H-M "P M M M"
_symmetry_group_IT_number 47
_symmetry_cell_setting 'orthorhombic'
loop_
_space_group_symop_operation_xyz
x,y,z
-x,-y,z
x,-y,-z
-x,y,-z
-x,-y,-z
x,y,-z
-x,y,z
x,-y,z
loop_
_atom_site_type_symbol
_atom_site_label
_atom_site_fract_x
_atom_site_fract_y
_atom_site_fract_z
Si Si1 0.325673 0.329118 0.231779
Si Si2 0.820173 0.889598 0.201462
Si Si3 0.822294 0.566384 0.310851
Si Si4 0.826603 0.868892 0.598742
Si Si5 0.670930 0.430060 0.500000
Si Si6 0.676824 0.222193 0.107077
Si Si7 0.170751 0.730223 0.396519
Si Si8 0.329785 0.000000 0.890627
O O1 0.500000 0.345202 0.225963
O O2 0.234029 0.390805 0.228185
O O3 0.278241 0.286122 0.147752
O O4 0.291934 0.297091 0.328198
O O5 0.757990 0.897150 0.307467
O O6 0.768621 0.827700 0.160009
O O7 0.000000 0.891180 0.199143
O O8 0.755474 0.942179 0.141770
O O9 0.765745 0.500000 0.290305
O O10 0.755678 0.591734 0.407373
O O11 0.000000 0.568229 0.318626
O O12 0.751030 0.889777 0.500000
O O13 0.809692 0.799591 0.607343
O O14 0.000000 0.887074 0.593975
O O15 0.674890 0.500000 0.500000
O O16 0.500000 0.406127 0.500000
O O17 0.500000 0.209831 0.121347
O O18 0.722601 0.221563 0.000000
O O19 0.204581 0.706931 0.500000
O O20 0.000000 0.712807 0.366750
O O21 0.500000 0.000000 0.852103
O O22 0.329594 0.000000 0.000000
#
# Coordination Sequence:
#
# PCOD8199434 Si02
#       8
#     8   8   8   8   4   8   8   4
#     4  11  22  34  53  80 109 142 184 232 276 327
#     4  11  21  36  62  91 115 143 187 236 274 318
#     4  10  21  36  53  73 103 145 186 224 273 332
#     4   8  15  30  53  81 114 149 181 217 266 322
#     4   9  17  31  51  75 105 141 183 228 269 316
#     4  10  22  40  59  81 113 149 181 221 283 346
#     4   9  17  31  51  75 108 148 183 217 264 327
#     4  11  25  43  60  79 112 156 191 227 284 345
#
# _framework density 19.236630000000002
#
# number of rings (size 3 to 8) (size 9 to 14) (size 15 to 20)
#    0.000    2.143    1.429    3.000    1.000    5.143 
#    0.000    0.357    0.000    4.286    0.000    3.000 
#    0.000    0.000    0.000    0.000    0.000    0.000 
#
# Total GULP energy -694136.810043 kJ/mol
# GULP energy per Si atom -12395.300179 kJ/mol
# Density = 1.919285 g / cm^3
# Si number density = 19.236630 Si / 1000 Ang^3
#
#
#
# Elastic Constant Matrix: (Units=GPa)
#
#
# Indices 1 2 3 4 5 6 
#
# 1 69.8365 35.8583 40.9116 0.0000 0.0000 0.0000
# 2 35.8583 72.0506 49.8907 0.0000 0.0000 0.0000
# 3 40.9116 49.8907 111.9736 0.0000 0.0000 0.0000
# 4 0.0000 0.0000 0.0000 143.2795 0.0000 0.0000
# 5 0.0000 0.0000 0.0000 0.0000 22.8283 0.0000
# 6 0.0000 0.0000 0.0000 0.0000 0.0000 11.5209
#
#
#
# Elastic Compliance Matrix: (Units=1/GPa)
#
#
# Indices 1 2 3 4 5 6 
#
# 1 0.020555 -0.007274 -0.004269 0.000000 0.000000 0.000000
# 2 -0.007274 0.022646 -0.007432 0.000000 0.000000 0.000000
# 3 -0.004269 -0.007432 0.013802 0.000000 0.000000 0.000000
# 4 0.000000 0.000000 0.000000 0.006979 0.000000 0.000000
# 5 0.000000 0.000000 0.000000 0.000000 0.043805 0.000000
# 6 0.000000 0.000000 0.000000 0.000000 0.000000 0.086799
#
#
# Mechanical properties :
#
#
# Convention : Reuss Voigt Hill
#
# Bulk Modulus (GPa) = 52.48781 56.35353 54.42067
# Shear Modulus (GPa) = 20.93040 44.00575 32.46808
#
# Velocity S-wave (km/s) = 3.30214 4.78808 4.11277
# Velocity P-wave (km/s) = 6.47174 7.74119 7.13476
#
# Compressibility (1/GPa) = 0.01905204
#
# Stress axis : x y z
#
# Youngs Moduli (GPa) = 48.65020 44.15885 72.45281
#
# Poissons Ratio (x) = 0.32119 0.30932
# Poissons Ratio (y) = 0.35386 0.53849
# Poissons Ratio (z) = 0.20770 0.32820
#
# Static dielectric constant tensor:
#      x y z
#    x 3.419310 0.000000 0.000000 
#    y 0.000000 3.701560 0.000000 
#    z 0.000000 0.000000 3.737670 
# 
# 
# High freq. dielectric constant tensor:
#      x y z
#    x 1.735050 0.000000 0.000000 
#    y 0.000000 1.747340 0.000000 
#    z 0.000000 0.000000 1.739920 
# 
# From -- ./inp_files/21644.got.cif
#   From: 2010.03.12/outbox.cif.g09.slc.cpg/sg47_11_cif.got.tgz:21644.got - 2010.04.14 03:12:58.
