data_PCOD8199116
_publ_section_title
;
Structure prediction by ZEFSAII (Michael W. Deem and Ramdas Pophale) SiO2 
 PCOD8199116
Probable space group: P M M M
;
_chemical_formula_sum "Si O2"
_cell_formula_units_Z 64
_cell_length_a 9.056978
_cell_length_b 25.771897
_cell_length_c 14.391979
_cell_angle_alpha 90.000000
_cell_angle_beta 90.000000
_cell_angle_gamma 90.000000
_cell_volume 3359.311034
_symmetry_space_group_name_H-M "P M M M"
_symmetry_group_IT_number 47
_symmetry_cell_setting 'orthorhombic'
loop_
_space_group_symop_operation_xyz
x,y,z
-x,-y,z
x,-y,-z
-x,y,-z
-x,-y,-z
x,y,-z
-x,y,z
x,-y,z
loop_
_atom_site_type_symbol
_atom_site_label
_atom_site_fract_x
_atom_site_fract_y
_atom_site_fract_z
Si Si1 0.837425 0.780465 0.109502
Si Si2 0.673112 0.320967 0.106764
Si Si3 0.673580 0.736374 0.607711
Si Si4 0.331667 0.559592 0.392049
Si Si5 0.174883 0.057115 0.285956
Si Si6 0.175247 0.893838 0.897932
Si Si7 0.174369 0.645606 0.720203
Si Si8 0.335035 0.852848 0.609927
O O1 0.719554 0.737019 0.138126
O O2 0.776593 0.836871 0.140209
O O3 0.000000 0.768032 0.153035
O O4 0.855717 0.782632 0.000000
O O5 0.500000 0.327284 0.121058
O O6 0.758788 0.359724 0.175619
O O7 0.718797 0.332680 0.000000
O O8 0.713417 0.726846 0.500000
O O9 0.500000 0.727371 0.623664
O O10 0.764760 0.696624 0.669645
O O11 0.718981 0.794933 0.638473
O O12 0.297774 0.568165 0.500000
O O13 0.500000 0.576213 0.370244
O O14 0.306186 0.500000 0.364141
O O15 0.219013 0.594030 0.334226
O O16 0.229499 0.065427 0.179394
O O17 0.231686 0.102040 0.352319
O O18 0.000000 0.059624 0.290105
O O19 0.231111 0.000000 0.317657
O O20 0.000000 0.894095 0.907361
O O21 0.243960 0.906827 0.000000
O O22 0.000000 0.649064 0.726472
O O23 0.333848 0.856428 0.500000
O O24 0.500000 0.862119 0.647967
#
# Coordination Sequence:
#
# PCOD8199116 Si02
#       8
#     8   8   8   8   8   8   8   8
#     4   8  14  27  47  70  97 129 168 216 268 320
#     4  10  21  36  53  75 107 148 193 236 276 322
#     4   9  19  37  58  80 109 142 178 223 273 329
#     4   9  19  38  63  88 117 156 198 237 276 320
#     4  10  21  34  50  76 105 132 170 219 266 319
#     4   8  15  29  49  72 100 134 168 205 255 317
#     4  12  24  34  53  86 121 155 187 226 277 331
#     4   9  20  39  59  76  97 131 174 220 271 325
#
# _framework density 19.051525999999999
#
# number of rings (size 3 to 8) (size 9 to 14) (size 15 to 20)
#    0.000    2.625    0.000    3.750    1.750    4.500 
#    0.000    4.375    0.000    0.750    0.000    3.500 
#    0.000    0.000    0.000    0.000    0.000    0.000 
#
# Total GULP energy -793288.627114 kJ/mol
# GULP energy per Si atom -12395.134799 kJ/mol
# Density = 1.900816 g / cm^3
# Si number density = 19.051526 Si / 1000 Ang^3
#
#
#
# Elastic Constant Matrix: (Units=GPa)
#
#
# Indices 1 2 3 4 5 6 
#
# 1 80.3341 46.0007 41.9106 0.0000 0.0000 0.0000
# 2 46.0007 107.7621 51.7386 0.0000 0.0000 0.0000
# 3 41.9106 51.7386 69.4562 0.0000 0.0000 0.0000
# 4 0.0000 0.0000 0.0000 26.7843 0.0000 0.0000
# 5 0.0000 0.0000 0.0000 0.0000 23.9027 0.0000
# 6 0.0000 0.0000 0.0000 0.0000 0.0000 29.7818
#
#
#
# Elastic Compliance Matrix: (Units=1/GPa)
#
#
# Indices 1 2 3 4 5 6 
#
# 1 0.019272 -0.004115 -0.008564 0.000000 0.000000 0.000000
# 2 -0.004115 0.015325 -0.008933 0.000000 0.000000 0.000000
# 3 -0.008564 -0.008933 0.026219 0.000000 0.000000 0.000000
# 4 0.000000 0.000000 0.000000 0.037335 0.000000 0.000000
# 5 0.000000 0.000000 0.000000 0.000000 0.041836 0.000000
# 6 0.000000 0.000000 0.000000 0.000000 0.000000 0.033578
#
#
# Mechanical properties :
#
#
# Convention : Reuss Voigt Hill
#
# Bulk Modulus (GPa) = 56.83978 59.65026 58.24502
# Shear Modulus (GPa) = 22.45653 23.95393 23.20523
#
# Velocity S-wave (km/s) = 3.43698 3.54972 3.49381
# Velocity P-wave (km/s) = 6.75648 6.94108 6.84940
#
# Compressibility (1/GPa) = 0.01759331
#
# Stress axis : x y z
#
# Youngs Moduli (GPa) = 51.88848 65.25242 38.14042
#
# Poissons Ratio (x) = 0.26853 0.32662
# Poissons Ratio (y) = 0.21353 0.34069
# Poissons Ratio (z) = 0.44435 0.58288
#
# Static dielectric constant tensor:
#      x y z
#    x 3.296000 0.000000 0.000000 
#    y 0.000000 3.588520 0.000000 
#    z 0.000000 0.000000 3.572470 
# 
# 
# High freq. dielectric constant tensor:
#      x y z
#    x 1.718600 0.000000 0.000000 
#    y 0.000000 1.730920 0.000000 
#    z 0.000000 0.000000 1.741940 
# 
# From -- ./inp_files/21873.got.cif
#   From: 2010.03.12/outbox.cif.g09.slc.cpg/sg47_11_cif.got.tgz:21873.got - 2010.04.14 03:12:58.
