data_PCOD8199252
_publ_section_title
;
Structure prediction by ZEFSAII (Michael W. Deem and Ramdas Pophale) SiO2 
 PCOD8199252
Probable space group: P M M M
;
_chemical_formula_sum "Si O2"
_cell_formula_units_Z 52
_cell_length_a 8.958765
_cell_length_b 14.173509
_cell_length_c 20.834440
_cell_angle_alpha 90.000000
_cell_angle_beta 90.000000
_cell_angle_gamma 90.000000
_cell_volume 2645.497529
_symmetry_space_group_name_H-M "P M M M"
_symmetry_group_IT_number 47
_symmetry_cell_setting 'orthorhombic'
loop_
_space_group_symop_operation_xyz
x,y,z
-x,-y,z
x,-y,-z
-x,y,-z
-x,-y,-z
x,y,-z
-x,y,z
x,-y,z
loop_
_atom_site_type_symbol
_atom_site_label
_atom_site_fract_x
_atom_site_fract_y
_atom_site_fract_z
Si Si1 0.671619 0.107230 0.258677
Si Si2 0.671252 0.390443 0.191344
Si Si3 0.325781 0.727683 0.070750
Si Si4 0.822741 0.889681 0.500000
Si Si5 0.324625 0.222732 0.615296
Si Si6 0.175555 0.609204 0.676657
Si Si7 0.824384 0.893332 0.869936
O O1 0.500000 0.117306 0.238718
O O2 0.711652 0.170641 0.318809
O O3 0.768512 0.143931 0.199123
O O4 0.712590 0.000000 0.276688
O O5 0.500000 0.362256 0.205840
O O6 0.687477 0.500000 0.177167
O O7 0.733488 0.340729 0.126996
O O8 0.767196 0.360118 0.252941
O O9 0.500000 0.744942 0.079451
O O10 0.244130 0.828308 0.074896
O O11 0.291311 0.684641 0.000000
O O12 0.756579 0.837273 0.561263
O O13 0.000000 0.879759 0.500000
O O14 0.774741 0.000000 0.500000
O O15 0.500000 0.228823 0.599847
O O16 0.256612 0.328108 0.621919
O O17 0.216184 0.500000 0.663047
O O18 0.000000 0.626842 0.673212
O O19 0.000000 0.886765 0.872390
O O20 0.768142 0.000000 0.881298
#
# Coordination Sequence:
#
# PCOD8199252 Si02
#       7
#     8   8   8   4   8   8   8
#     4   9  18  33  54  80 108 138 174 219 272 326
#     4   9  18  34  56  81 109 140 176 222 275 330
#     4  10  21  35  51  73 101 136 178 221 269 327
#     4  11  25  43  62  87 122 161 195 226 266 321
#     4  11  22  37  60  87 116 151 190 232 275 321
#     4  10  21  37  58  85 116 148 184 229 280 332
#     4  10  21  35  51  73 101 134 174 222 274 325
#
# _framework density 19.656037000000001
#
# number of rings (size 3 to 8) (size 9 to 14) (size 15 to 20)
#    0.000    2.077    0.000    3.000    0.000    9.538 
#    0.000    5.000    0.000    2.308    0.000    3.231 
#    0.000    0.000    0.000    0.000    0.000    0.000 
#
# Total GULP energy -644867.710285 kJ/mol
# GULP energy per Si atom -12401.302121 kJ/mol
# Density = 1.961130 g / cm^3
# Si number density = 19.656037 Si / 1000 Ang^3
#
#
#
# Elastic Constant Matrix: (Units=GPa)
#
#
# Indices 1 2 3 4 5 6 
#
# 1 70.9709 46.7406 46.1862 0.0000 0.0000 0.0000
# 2 46.7406 103.3745 67.0673 0.0000 0.0000 0.0000
# 3 46.1862 67.0673 90.1995 0.0000 0.0000 0.0000
# 4 0.0000 0.0000 0.0000 38.2764 0.0000 0.0000
# 5 0.0000 0.0000 0.0000 0.0000 -32.3341 0.0000
# 6 0.0000 0.0000 0.0000 0.0000 0.0000 28.6776
#
#
#
# Elastic Compliance Matrix: (Units=1/GPa)
#
#
# Indices 1 2 3 4 5 6 
#
# 1 0.022498 -0.005213 -0.007644 0.000000 0.000000 0.000000
# 2 -0.005213 0.019897 -0.012125 0.000000 0.000000 0.000000
# 3 -0.007644 -0.012125 0.024016 0.000000 0.000000 0.000000
# 4 0.000000 0.000000 0.000000 0.026126 0.000000 0.000000
# 5 0.000000 0.000000 0.000000 0.000000 -0.030927 0.000000
# 6 0.000000 0.000000 0.000000 0.000000 0.000000 0.034870
#
#
# Mechanical properties :
#
#
# Convention : Reuss Voigt Hill
#
# Bulk Modulus (GPa) = 60.80079 64.94812 62.87446
# Shear Modulus (GPa) = 32.91061 13.89402 23.40232
#
# Velocity S-wave (km/s) = 4.09629 2.66156 3.45424
# Velocity P-wave (km/s) = 7.30564 6.52375 6.92574
#
# Compressibility (1/GPa) = 0.01644715
#
# Stress axis : x y z
#
# Youngs Moduli (GPa) = 44.44824 50.25816 41.63919
#
# Poissons Ratio (x) = 0.26202 0.31827
# Poissons Ratio (y) = 0.23173 0.50487
# Poissons Ratio (z) = 0.33974 0.60938
#
# Static dielectric constant tensor:
#      x y z
#    x 3.527050 0.000000 0.000000 
#    y 0.000000 3.795610 0.000000 
#    z 0.000000 0.000000 3.750940 
# 
# 
# High freq. dielectric constant tensor:
#      x y z
#    x 1.762280 0.000000 0.000000 
#    y 0.000000 1.776100 0.000000 
#    z 0.000000 0.000000 1.757440 
# 
# From -- ./inp_files/10950.got.cif
#   From: 2010.03.12/outbox.cif.g09.slc.cpg/sg47_6_cif.got.tgz:10950.got - 2010.04.14 03:12:58.
