data_PCOD8199374
_publ_section_title
;
Structure prediction by ZEFSAII (Michael W. Deem and Ramdas Pophale) SiO2 
 PCOD8199374
Probable space group: P M M M
;
_chemical_formula_sum "Si O2"
_cell_formula_units_Z 32
_cell_length_a 17.445144
_cell_length_b 8.739765
_cell_length_c 10.706443
_cell_angle_alpha 90.000000
_cell_angle_beta 90.000000
_cell_angle_gamma 90.000000
_cell_volume 1632.373452
_symmetry_space_group_name_H-M "P M M M"
_symmetry_group_IT_number 47
_symmetry_cell_setting 'orthorhombic'
loop_
_space_group_symop_operation_xyz
x,y,z
-x,-y,z
x,-y,-z
-x,y,-z
-x,-y,-z
x,y,-z
-x,y,z
x,-y,z
loop_
_atom_site_type_symbol
_atom_site_label
_atom_site_fract_x
_atom_site_fract_y
_atom_site_fract_z
Si Si1 0.000000 0.818580 0.633974
Si Si2 0.413857 0.681544 0.860573
Si Si3 0.699116 0.319288 0.643551
Si Si4 0.847424 0.818532 0.239193
Si Si5 0.910763 0.680292 0.000000
O O1 0.924819 0.758184 0.699340
O O2 0.000000 0.741698 0.500000
O O3 0.000000 0.000000 0.627341
O O4 0.500000 0.744063 0.839811
O O5 0.414383 0.500000 0.855934
O O6 0.362161 0.743981 0.745844
O O7 0.384688 0.733957 0.000000
O O8 0.674801 0.278439 0.500000
O O9 0.709337 0.500000 0.657811
O O10 0.778241 0.237402 0.675094
O O11 0.854055 0.737486 0.107410
O O12 0.842832 0.000000 0.223831
O O13 0.917030 0.500000 0.000000
O O14 0.000000 0.746939 0.000000
#
# Coordination Sequence:
#
# PCOD8199374 Si02
#       5
#     4   8   8   8   4
#     4   9  18  33  53  74 100 141 188 231 272 319
#     4   8  15  30  53  80 110 147 190 234 283 340
#     4  10  21  35  53  83 118 149 188 239 291 339
#     4  11  22  37  57  80 111 148 192 234 277 337
#     4  11  23  39  59  83 112 143 182 235 295 342
#
# _framework density 19.603358
#
# number of rings (size 3 to 8) (size 9 to 14) (size 15 to 20)
#    0.000    2.250    1.250    2.625    1.750    2.500 
#    0.000    2.500    0.000    3.750    0.000    3.500 
#    0.000    0.000    0.000    0.000    0.000    0.000 
#
# Total GULP energy -396434.962754 kJ/mol
# GULP energy per Si atom -12388.592586 kJ/mol
# Density = 1.955874 g / cm^3
# Si number density = 19.603358 Si / 1000 Ang^3
#
#
#
# Elastic Constant Matrix: (Units=GPa)
#
#
# Indices 1 2 3 4 5 6 
#
# 1 123.8284 23.0220 77.5181 0.0000 0.0000 0.0000
# 2 23.0220 39.2048 32.1094 0.0000 0.0000 0.0000
# 3 77.5181 32.1094 184.4715 0.0000 0.0000 0.0000
# 4 0.0000 0.0000 0.0000 16.0896 0.0000 0.0000
# 5 0.0000 0.0000 0.0000 0.0000 28.4995 0.0000
# 6 0.0000 0.0000 0.0000 0.0000 0.0000 36.5749
#
#
#
# Elastic Compliance Matrix: (Units=1/GPa)
#
#
# Indices 1 2 3 4 5 6 
#
# 1 0.011293 -0.003201 -0.004188 0.000000 0.000000 0.000000
# 2 -0.003201 0.030655 -0.003991 0.000000 0.000000 0.000000
# 3 -0.004188 -0.003991 0.007875 0.000000 0.000000 0.000000
# 4 0.000000 0.000000 0.000000 0.062152 0.000000 0.000000
# 5 0.000000 0.000000 0.000000 0.000000 0.035088 0.000000
# 6 0.000000 0.000000 0.000000 0.000000 0.000000 0.027341
#
#
# Mechanical properties :
#
#
# Convention : Reuss Voigt Hill
#
# Bulk Modulus (GPa) = 36.95032 68.08928 52.51980
# Shear Modulus (GPa) = 24.24993 30.55649 27.40321
#
# Velocity S-wave (km/s) = 3.52096 3.95237 3.74288
# Velocity P-wave (km/s) = 5.95142 7.45903 6.74747
#
# Compressibility (1/GPa) = 0.02706336
#
# Stress axis : x y z
#
# Youngs Moduli (GPa) = 88.55275 32.62076 126.97645
#
# Poissons Ratio (x) = 0.10442 0.53180
# Poissons Ratio (y) = 0.28347 0.50673
# Poissons Ratio (z) = 0.37088 0.13018
#
# Static dielectric constant tensor:
#      x y z
#    x 3.735130 0.000000 0.000000 
#    y 0.000000 3.120590 0.000000 
#    z 0.000000 0.000000 3.847380 
# 
# 
# High freq. dielectric constant tensor:
#      x y z
#    x 1.762870 0.000000 0.000000 
#    y 0.000000 1.722210 0.000000 
#    z 0.000000 0.000000 1.786120 
# 
# From -- ./inp_files/3408.got.cif
#   From: 2010.03.12/outbox.cif.g09.slc.cpg/sg47_2_cif.got.tgz:3408.got - 2010.04.14 03:12:58.
