data_PCOD8199692
_publ_section_title
;
Structure prediction by ZEFSAII (Michael W. Deem and Ramdas Pophale) SiO2 
 PCOD8199692
Probable space group: P M M M
;
_chemical_formula_sum "Si O2"
_cell_formula_units_Z 32
_cell_length_a 15.299107
_cell_length_b 12.225075
_cell_length_c 9.031332
_cell_angle_alpha 90.000000
_cell_angle_beta 90.000000
_cell_angle_gamma 90.000000
_cell_volume 1689.154684
_symmetry_space_group_name_H-M "P M M M"
_symmetry_group_IT_number 47
_symmetry_cell_setting 'orthorhombic'
loop_
_space_group_symop_operation_xyz
x,y,z
-x,-y,z
x,-y,-z
-x,y,-z
-x,-y,-z
x,y,-z
-x,y,z
x,-y,z
loop_
_atom_site_type_symbol
_atom_site_label
_atom_site_fract_x
_atom_site_fract_y
_atom_site_fract_z
Si Si1 0.397864 0.000000 0.837397
Si Si2 0.000000 0.876870 0.175780
Si Si3 0.500000 0.371644 0.325678
Si Si4 0.847632 0.281833 0.827202
Si Si5 0.897281 0.500000 0.335642
Si Si6 0.648337 0.232532 0.175036
O O1 0.369640 0.888211 0.756377
O O2 0.500000 0.000000 0.854089
O O3 0.352853 0.000000 0.000000
O O4 0.086788 0.812841 0.231266
O O5 0.000000 0.000000 0.242893
O O6 0.000000 0.884566 0.000000
O O7 0.500000 0.500000 0.289199
O O8 0.500000 0.349157 0.500000
O O9 0.587433 0.320435 0.255769
O O10 0.865515 0.394386 0.748467
O O11 0.748767 0.252790 0.789461
O O12 0.863271 0.299640 0.000000
O O13 0.856680 0.500000 0.500000
O O14 0.000000 0.500000 0.343068
O O15 0.626983 0.237149 0.000000
#
# Coordination Sequence:
#
# PCOD8199692 Si02
#       6
#     4   4   4   8   4   8
#     4   9  16  32  58  85 113 142 179 234 288 331
#     4   9  18  33  55  88 124 151 180 229 288 339
#     4  11  25  42  57  78 114 155 190 235 288 335
#     4  10  21  36  59  88 117 149 189 237 283 332
#     4  11  23  39  59  80 111 154 197 239 284 334
#     4  10  21  37  60  88 114 147 189 233 282 339
#
# _framework density 18.944386999999999
#
# number of rings (size 3 to 8) (size 9 to 14) (size 15 to 20)
#    0.000    2.000    2.500    0.750    3.500    2.500 
#    0.000    1.250    0.000    1.500    0.000    0.000 
#    0.000    0.000    0.000    0.000    0.000    0.000 
#
# Total GULP energy -396715.942257 kJ/mol
# GULP energy per Si atom -12397.373196 kJ/mol
# Density = 1.890127 g / cm^3
# Si number density = 18.944387 Si / 1000 Ang^3
#
#
#
# Elastic Constant Matrix: (Units=GPa)
#
#
# Indices 1 2 3 4 5 6 
#
# 1 152.2639 91.8846 50.6328 0.0000 0.0000 0.0000
# 2 91.8846 208.0290 54.5411 0.0000 0.0000 0.0000
# 3 50.6328 54.5411 45.4878 0.0000 0.0000 0.0000
# 4 0.0000 0.0000 0.0000 13.7340 0.0000 0.0000
# 5 0.0000 0.0000 0.0000 0.0000 10.2127 0.0000
# 6 0.0000 0.0000 0.0000 0.0000 0.0000 35.9877
#
#
#
# Elastic Compliance Matrix: (Units=1/GPa)
#
#
# Indices 1 2 3 4 5 6 
#
# 1 0.011225 -0.002453 -0.009553 0.000000 0.000000 0.000000
# 2 -0.002453 0.007547 -0.006319 0.000000 0.000000 0.000000
# 3 -0.009553 -0.006319 0.040193 0.000000 0.000000 0.000000
# 4 0.000000 0.000000 0.000000 0.072812 0.000000 0.000000
# 5 0.000000 0.000000 0.000000 0.000000 0.097917 0.000000
# 6 0.000000 0.000000 0.000000 0.000000 0.000000 0.027787
#
#
# Mechanical properties :
#
#
# Convention : Reuss Voigt Hill
#
# Bulk Modulus (GPa) = 44.81084 88.87755 66.84420
# Shear Modulus (GPa) = 16.57995 25.90169 21.24082
#
# Velocity S-wave (km/s) = 2.96157 3.70164 3.35209
# Velocity P-wave (km/s) = 5.94977 8.08000 7.09529
#
# Compressibility (1/GPa) = 0.02231603
#
# Stress axis : x y z
#
# Youngs Moduli (GPa) = 89.09042 132.49915 24.87990
#
# Poissons Ratio (x) = 0.32506 0.23767
# Poissons Ratio (y) = 0.21856 0.15720
# Poissons Ratio (z) = 0.85104 0.83720
#
# Static dielectric constant tensor:
#      x y z
#    x 2.188540 0.000000 0.000000 
#    y 0.000000 1.343310 0.000000 
#    z 0.000000 0.000000 3.336310 
# 
# 
# High freq. dielectric constant tensor:
#      x y z
#    x 1.748420 0.000000 0.000000 
#    y 0.000000 1.756530 0.000000 
#    z 0.000000 0.000000 1.698500 
# 
# From -- ./inp_files/3468.got.cif
#   From: 2010.03.12/outbox.cif.g09.slc.cpg/sg47_2_cif.got.tgz:3468.got - 2010.04.14 03:12:58.
