data_PCOD8199590
_publ_section_title
;
Structure prediction by ZEFSAII (Michael W. Deem and Ramdas Pophale) SiO2 
 PCOD8199590
Probable space group: P M M M
;
_chemical_formula_sum "Si O2"
_cell_formula_units_Z 40
_cell_length_a 14.420563
_cell_length_b 9.573422
_cell_length_c 15.742017
_cell_angle_alpha 90.000000
_cell_angle_beta 90.000000
_cell_angle_gamma 90.000000
_cell_volume 2173.250541
_symmetry_space_group_name_H-M "P M M M"
_symmetry_group_IT_number 47
_symmetry_cell_setting 'orthorhombic'
loop_
_space_group_symop_operation_xyz
x,y,z
-x,-y,z
x,-y,-z
-x,y,-z
-x,-y,-z
x,y,-z
-x,y,z
x,-y,z
loop_
_atom_site_type_symbol
_atom_site_label
_atom_site_fract_x
_atom_site_fract_y
_atom_site_fract_z
Si Si1 0.397788 0.659232 0.666888
Si Si2 0.205398 0.661000 0.595397
Si Si3 0.791028 0.835854 0.908001
Si Si4 0.602369 0.161146 0.831529
Si Si5 0.891523 0.836577 0.259377
O O1 0.500000 0.693483 0.627633
O O2 0.395053 0.500000 0.698591
O O3 0.316500 0.687201 0.599223
O O4 0.376807 0.753813 0.747303
O O5 0.173285 0.698610 0.500000
O O6 0.182327 0.500000 0.616599
O O7 0.150627 0.757765 0.660325
O O8 0.681462 0.801364 0.899531
O O9 0.848520 0.774402 0.828365
O O10 0.808660 0.000000 0.909310
O O11 0.823025 0.773606 0.000000
O O12 0.500000 0.195947 0.869144
O O13 0.609313 0.000000 0.805160
O O14 0.000000 0.808026 0.256340
O O15 0.868134 0.000000 0.269440
#
# Coordination Sequence:
#
# PCOD8199590 Si02
#       5
#     8   8   8   8   8
#     4   9  17  30  50  75 103 135 169 205 247 297
#     4  10  21  36  55  79 105 135 171 210 255 307
#     4   9  17  30  50  77 106 134 167 208 254 304
#     4   9  16  27  47  74 103 135 169 205 247 297
#     4  10  21  37  56  77 102 133 171 217 265 307
#
# _framework density 18.405609999999999
#
# number of rings (size 3 to 8) (size 9 to 14) (size 15 to 20)
#    0.000    2.600    2.000    0.000    0.000    2.400 
#    0.000    8.000    0.000    2.400    0.000    8.400 
#    0.000    0.000    0.000    0.000    0.000    0.000 
#
# Total GULP energy -495688.677099 kJ/mol
# GULP energy per Si atom -12392.216927 kJ/mol
# Density = 1.836372 g / cm^3
# Si number density = 18.405610 Si / 1000 Ang^3
#
#
#
# Elastic Constant Matrix: (Units=GPa)
#
#
# Indices 1 2 3 4 5 6 
#
# 1 107.2218 37.5020 73.2387 0.0000 0.0000 0.0000
# 2 37.5020 41.6466 44.2648 0.0000 0.0000 0.0000
# 3 73.2387 44.2648 147.0016 0.0000 0.0000 0.0000
# 4 0.0000 0.0000 0.0000 -92.5232 0.0000 0.0000
# 5 0.0000 0.0000 0.0000 0.0000 14.4318 0.0000
# 6 0.0000 0.0000 0.0000 0.0000 0.0000 23.0619
#
#
#
# Elastic Compliance Matrix: (Units=1/GPa)
#
#
# Indices 1 2 3 4 5 6 
#
# 1 0.016050 -0.008756 -0.005360 0.000000 0.000000 0.000000
# 2 -0.008756 0.040090 -0.007710 0.000000 0.000000 0.000000
# 3 -0.005360 -0.007710 0.011794 0.000000 0.000000 0.000000
# 4 0.000000 0.000000 0.000000 -0.010808 0.000000 0.000000
# 5 0.000000 0.000000 0.000000 0.000000 0.069292 0.000000
# 6 0.000000 0.000000 0.000000 0.000000 0.000000 0.043362
#
#
# Mechanical properties :
#
#
# Convention : Reuss Voigt Hill
#
# Bulk Modulus (GPa) = 41.17904 67.32009 54.24956
# Shear Modulus (GPa) = 22.57079 -1.61494 10.47792
#
# Velocity S-wave (km/s) = 3.50565 -0.93772 2.38854
# Velocity P-wave (km/s) = 6.22959 5.95675 6.09470
#
# Compressibility (1/GPa) = 0.02428420
#
# Stress axis : x y z
#
# Youngs Moduli (GPa) = 62.30522 24.94365 84.78548
#
# Poissons Ratio (x) = 0.21841 0.45443
# Poissons Ratio (y) = 0.54554 0.65366
# Poissons Ratio (z) = 0.33394 0.19230
#
# Static dielectric constant tensor:
#      x y z
#    x 3.619990 0.000000 0.000000 
#    y 0.000000 3.187070 0.000000 
#    z 0.000000 0.000000 3.462640 
# 
# 
# High freq. dielectric constant tensor:
#      x y z
#    x 1.724990 0.000000 0.000000 
#    y 0.000000 1.683070 0.000000 
#    z 0.000000 0.000000 1.703950 
# 
# From -- ./inp_files/5666.got.cif
#   From: 2010.03.12/outbox.cif.g09.slc.cpg/sg47_3_cif.got.tgz:5666.got - 2010.04.14 03:12:58.
