data_PCOD8199090
_publ_section_title
;
Structure prediction by ZEFSAII (Michael W. Deem and Ramdas Pophale) SiO2 
 PCOD8199090
Probable space group: P M M M
;
_chemical_formula_sum "Si O2"
_cell_formula_units_Z 56
_cell_length_a 13.881256
_cell_length_b 9.517645
_cell_length_c 23.131296
_cell_angle_alpha 90.000000
_cell_angle_beta 90.000000
_cell_angle_gamma 90.000000
_cell_volume 3056.034352
_symmetry_space_group_name_H-M "P M M M"
_symmetry_group_IT_number 47
_symmetry_cell_setting 'orthorhombic'
loop_
_space_group_symop_operation_xyz
x,y,z
-x,-y,z
x,-y,-z
-x,y,-z
-x,-y,-z
x,y,-z
-x,y,z
x,-y,z
loop_
_atom_site_type_symbol
_atom_site_label
_atom_site_fract_x
_atom_site_fract_y
_atom_site_fract_z
Si Si1 0.719568 0.661739 0.064869
Si Si2 0.105364 0.156841 0.931322
Si Si3 0.287301 0.840641 0.732369
Si Si4 0.392266 0.336691 0.175509
Si Si5 0.110060 0.162582 0.656624
Si Si6 0.610585 0.838080 0.386207
Si Si7 0.778306 0.338128 0.433538
O O1 0.748722 0.500000 0.063105
O O2 0.811949 0.740864 0.091605
O O3 0.630630 0.689251 0.107778
O O4 0.691734 0.714063 0.000000
O O5 0.000000 0.205710 0.908494
O O6 0.127304 0.000000 0.908642
O O7 0.104795 0.159002 0.000000
O O8 0.314833 0.741892 0.785276
O O9 0.179122 0.803245 0.711025
O O10 0.362405 0.815319 0.680591
O O11 0.292541 0.000000 0.754527
O O12 0.500000 0.279577 0.186785
O O13 0.385149 0.500000 0.190888
O O14 0.139009 0.259878 0.602784
O O15 0.000000 0.193512 0.674494
O O16 0.124798 0.000000 0.638124
O O17 0.500000 0.795430 0.395666
O O18 0.675234 0.737379 0.425753
O O19 0.629073 0.000000 0.403954
O O20 0.809400 0.329253 0.500000
O O21 0.769839 0.500000 0.413225
#
# Coordination Sequence:
#
# PCOD8199090 Si02
#       7
#     8   8   8   8   8   8   8
#     4   9  18  32  49  70  98 132 168 205 244 288
#     4   8  14  26  45  68  93 121 153 190 233 280
#     4   9  18  34  55  77 100 125 159 206 256 304
#     4  10  21  35  51  73 100 130 165 204 247 298
#     4   9  19  37  59  79 100 131 171 212 253 299
#     4   9  18  33  53  75  99 132 175 219 260 302
#     4  10  21  34  48  73 110 145 175 210 253 301
#
# _framework density 18.324401999999999
#
# number of rings (size 3 to 8) (size 9 to 14) (size 15 to 20)
#    0.000    2.857    0.000    2.143    0.000    6.571 
#    0.000    6.429    0.000    2.571    0.000    3.000 
#    0.000    0.000    0.000    0.000    0.000    0.000 
#
# Total GULP energy -694254.030901 kJ/mol
# GULP energy per Si atom -12397.393409 kJ/mol
# Density = 1.828269 g / cm^3
# Si number density = 18.324402 Si / 1000 Ang^3
#
#
#
# Elastic Constant Matrix: (Units=GPa)
#
#
# Indices 1 2 3 4 5 6 
#
# 1 134.4345 55.0342 47.6248 0.0000 0.0000 0.0000
# 2 55.0342 81.1479 47.4832 0.0000 0.0000 0.0000
# 3 47.6248 47.4832 79.6639 0.0000 0.0000 0.0000
# 4 0.0000 0.0000 0.0000 24.3203 0.0000 0.0000
# 5 0.0000 0.0000 0.0000 0.0000 17.9672 0.0000
# 6 0.0000 0.0000 0.0000 0.0000 0.0000 23.8682
#
#
#
# Elastic Compliance Matrix: (Units=1/GPa)
#
#
# Indices 1 2 3 4 5 6 
#
# 1 0.010808 -0.005450 -0.003213 0.000000 0.000000 0.000000
# 2 -0.005450 0.021671 -0.009659 0.000000 0.000000 0.000000
# 3 -0.003213 -0.009659 0.020231 0.000000 0.000000 0.000000
# 4 0.000000 0.000000 0.000000 0.041118 0.000000 0.000000
# 5 0.000000 0.000000 0.000000 0.000000 0.055657 0.000000
# 6 0.000000 0.000000 0.000000 0.000000 0.000000 0.041897
#
#
# Mechanical properties :
#
#
# Convention : Reuss Voigt Hill
#
# Bulk Modulus (GPa) = 62.24184 66.17010 64.20597
# Shear Modulus (GPa) = 21.42434 22.90475 22.16454
#
# Velocity S-wave (km/s) = 3.42302 3.53931 3.48165
# Velocity P-wave (km/s) = 7.04721 7.27262 7.16080
#
# Compressibility (1/GPa) = 0.01606636
#
# Stress axis : x y z
#
# Youngs Moduli (GPa) = 92.52610 46.14441 49.43028
#
# Poissons Ratio (x) = 0.25148 0.15881
# Poissons Ratio (y) = 0.50425 0.47744
# Poissons Ratio (z) = 0.29726 0.44570
#
# Static dielectric constant tensor:
#      x y z
#    x 3.561010 0.000000 0.000000 
#    y 0.000000 3.414540 0.000000 
#    z 0.000000 0.000000 3.129650 
# 
# 
# High freq. dielectric constant tensor:
#      x y z
#    x 1.712410 0.000000 0.000000 
#    y 0.000000 1.706850 0.000000 
#    z 0.000000 0.000000 1.688660 
# 
# From -- ./inp_files/30963.got.cif
#   From: 2010.03.12/outbox.cif.g09.slc.cpg/sg47_16_cif.got.tgz:30963.got - 2010.04.14 03:12:58.
