data_PCOD8199620
_publ_section_title
;
Structure prediction by ZEFSAII (Michael W. Deem and Ramdas Pophale) SiO2 
 PCOD8199620
Probable space group: P M M M
;
_chemical_formula_sum "Si O2"
_cell_formula_units_Z 48
_cell_length_a 31.107165
_cell_length_b 8.953117
_cell_length_c 9.328291
_cell_angle_alpha 90.000000
_cell_angle_beta 90.000000
_cell_angle_gamma 90.000000
_cell_volume 2597.985832
_symmetry_space_group_name_H-M "P M M M"
_symmetry_group_IT_number 47
_symmetry_cell_setting 'orthorhombic'
loop_
_space_group_symop_operation_xyz
x,y,z
-x,-y,z
x,-y,-z
-x,y,-z
-x,-y,-z
x,y,-z
-x,y,z
x,-y,z
loop_
_atom_site_type_symbol
_atom_site_label
_atom_site_fract_x
_atom_site_fract_y
_atom_site_fract_z
Si Si1 0.878397 0.171593 0.334529
Si Si2 0.638259 0.678426 0.664120
Si Si3 0.454550 0.333119 0.670004
Si Si4 0.791214 0.674234 0.333044
Si Si5 0.285427 0.825106 0.833117
Si Si6 0.951036 0.669281 0.167708
O O1 0.888609 0.200228 0.500000
O O2 0.838176 0.271145 0.284320
O O3 0.920536 0.216062 0.248075
O O4 0.867056 0.000000 0.303494
O O5 0.647927 0.726526 0.500000
O O6 0.639747 0.500000 0.676302
O O7 0.590997 0.740474 0.716598
O O8 0.672566 0.749429 0.768667
O O9 0.453012 0.341989 0.500000
O O10 0.500000 0.251775 0.717808
O O11 0.456084 0.500000 0.733163
O O12 0.783358 0.709673 0.500000
O O13 0.786919 0.500000 0.300077
O O14 0.756723 0.762390 0.241560
O O15 0.288009 0.000000 0.804469
O O16 0.283097 0.785968 0.000000
O O17 0.941138 0.500000 0.217019
O O18 0.000000 0.711100 0.205939
O O19 0.942869 0.685851 0.000000
#
# Coordination Sequence:
#
# PCOD8199620 Si02
#       6
#     8   8   8   8   8   8
#     4  10  21  36  55  81 111 140 170 207 254 307
#     4   9  17  30  51  78 103 129 165 207 252 302
#     4   7  10  19  39  69 101 127 154 196 248 296
#     4  10  21  38  60  82 102 128 166 210 256 307
#     4  11  24  38  51  71 101 136 172 208 249 300
#     4   9  19  36  56  78 106 142 183 222 258 298
#
# _framework density 18.475850000000001
#
# number of rings (size 3 to 8) (size 9 to 14) (size 15 to 20)
#    0.000    2.667    0.000    4.000    0.000    7.333 
#    0.000    2.500    0.000    1.000    0.000    5.833 
#    0.000    0.000    0.000    0.000    0.000    0.000 
#
# Total GULP energy -594867.353750 kJ/mol
# GULP energy per Si atom -12393.069870 kJ/mol
# Density = 1.843380 g / cm^3
# Si number density = 18.475850 Si / 1000 Ang^3
#
#
#
# Elastic Constant Matrix: (Units=GPa)
#
#
# Indices 1 2 3 4 5 6 
#
# 1 134.3429 26.8090 52.6468 0.0000 0.0000 0.0000
# 2 26.8090 37.1781 28.8671 0.0000 0.0000 0.0000
# 3 52.6468 28.8671 56.1040 0.0000 0.0000 0.0000
# 4 0.0000 0.0000 0.0000 27.1103 0.0000 0.0000
# 5 0.0000 0.0000 0.0000 0.0000 -40.2836 0.0000
# 6 0.0000 0.0000 0.0000 0.0000 0.0000 -17.7498
#
#
#
# Elastic Compliance Matrix: (Units=1/GPa)
#
#
# Indices 1 2 3 4 5 6 
#
# 1 0.011773 0.000147 -0.011124 0.000000 0.000000 0.000000
# 2 0.000147 0.044794 -0.023186 0.000000 0.000000 0.000000
# 3 -0.011124 -0.023186 0.040192 0.000000 0.000000 0.000000
# 4 0.000000 0.000000 0.000000 0.036886 0.000000 0.000000
# 5 0.000000 0.000000 0.000000 0.000000 -0.024824 0.000000
# 6 0.000000 0.000000 0.000000 0.000000 0.000000 -0.056339
#
#
# Mechanical properties :
#
#
# Convention : Reuss Voigt Hill
#
# Bulk Modulus (GPa) = 35.16814 49.36344 42.26579
# Shear Modulus (GPa) = 38.37660 1.76884 20.07272
#
# Velocity S-wave (km/s) = 4.56249 0.97952 3.29968
# Velocity P-wave (km/s) = 6.84332 5.29671 6.11907
#
# Compressibility (1/GPa) = 0.02843483
#
# Stress axis : x y z
#
# Youngs Moduli (GPa) = 84.93676 22.32418 24.88037
#
# Poissons Ratio (x) = -0.00329 0.27676
# Poissons Ratio (y) = -0.01251 0.57688
# Poissons Ratio (z) = 0.94482 0.51761
#
# Static dielectric constant tensor:
#      x y z
#    x 3.835470 0.000000 0.000000 
#    y 0.000000 3.242710 0.000000 
#    z 0.000000 0.000000 3.183470 
# 
# 
# High freq. dielectric constant tensor:
#      x y z
#    x 1.742580 0.000000 0.000000 
#    y 0.000000 1.697330 0.000000 
#    z 0.000000 0.000000 1.690170 
# 
# From -- ./inp_files/2466.got.cif
#   From: 2010.03.12/outbox.cif.g09.slc.cpg/sg47_2_cif.got.tgz:2466.got - 2010.04.14 03:12:58.
