data_PCOD8199162
_publ_section_title
;
Structure prediction by ZEFSAII (Michael W. Deem and Ramdas Pophale) SiO2 
 PCOD8199162
Probable space group: P M M M
;
_chemical_formula_sum "Si O2"
_cell_formula_units_Z 40
_cell_length_a 9.160422
_cell_length_b 9.216564
_cell_length_c 26.094716
_cell_angle_alpha 90.000000
_cell_angle_beta 90.000000
_cell_angle_gamma 90.000000
_cell_volume 2203.114652
_symmetry_space_group_name_H-M "P M M M"
_symmetry_group_IT_number 47
_symmetry_cell_setting 'orthorhombic'
loop_
_space_group_symop_operation_xyz
x,y,z
-x,-y,z
x,-y,-z
-x,y,-z
-x,-y,-z
x,y,-z
-x,y,z
x,-y,z
loop_
_atom_site_type_symbol
_atom_site_label
_atom_site_fract_x
_atom_site_fract_y
_atom_site_fract_z
Si Si1 0.173622 0.666480 0.889266
Si Si2 0.173765 0.663996 0.598586
Si Si3 0.169949 0.168655 0.698689
Si Si4 0.174215 0.164415 0.500000
Si Si5 0.334132 0.828415 0.200108
Si Si6 0.159239 0.328565 0.000000
O O1 0.213427 0.500000 0.877433
O O2 0.250720 0.766681 0.848401
O O3 0.000000 0.689480 0.887279
O O4 0.236313 0.713584 0.945969
O O5 0.234389 0.500000 0.596735
O O6 0.228798 0.741410 0.650218
O O7 0.234909 0.752561 0.549961
O O8 0.000000 0.664292 0.597116
O O9 0.257273 0.225686 0.747968
O O10 0.000000 0.198014 0.708994
O O11 0.199700 0.000000 0.687460
O O12 0.000000 0.163937 0.500000
O O13 0.233994 0.000000 0.500000
O O14 0.500000 0.772599 0.200260
O O15 0.324994 0.000000 0.196494
O O16 0.137731 0.500000 0.000000
O O17 0.000000 0.254545 0.000000
#
# Coordination Sequence:
#
# PCOD8199162 Si02
#       6
#     8   8   8   4   8   4
#     4   9  17  31  53  77  98 123 158 199 241 286
#     4   9  16  25  39  62  91 119 149 189 234 277
#     4   9  17  30  47  65  87 119 158 196 234 279
#     4   9  15  23  37  59  90 125 154 181 222 278
#     4  10  21  35  49  68  97 131 164 199 241 288
#     4   7  12  26  48  73  98 122 152 193 238 283
#
# _framework density 18.156113000000001
#
# number of rings (size 3 to 8) (size 9 to 14) (size 15 to 20)
#    0.000    3.000    0.000    2.700    0.000    6.000 
#    0.000    3.000    0.000    4.800    0.000    0.700 
#    0.000    5.600    0.000    0.000    0.000    0.000 
#
# Total GULP energy -495773.795170 kJ/mol
# GULP energy per Si atom -12394.344879 kJ/mol
# Density = 1.811479 g / cm^3
# Si number density = 18.156113 Si / 1000 Ang^3
#
#
#
# Elastic Constant Matrix: (Units=GPa)
#
#
# Indices 1 2 3 4 5 6 
#
# 1 36.7450 19.0016 40.7965 0.0000 0.0000 0.0000
# 2 19.0016 71.0725 64.0749 0.0000 0.0000 0.0000
# 3 40.7965 64.0749 192.2741 0.0000 0.0000 0.0000
# 4 0.0000 0.0000 0.0000 38.0182 0.0000 0.0000
# 5 0.0000 0.0000 0.0000 0.0000 -1.9693 0.0000
# 6 0.0000 0.0000 0.0000 0.0000 0.0000 13.7839
#
#
#
# Elastic Compliance Matrix: (Units=1/GPa)
#
#
# Indices 1 2 3 4 5 6 
#
# 1 0.036362 -0.003954 -0.006398 0.000000 0.000000 0.000000
# 2 -0.003954 0.020543 -0.006007 0.000000 0.000000 0.000000
# 3 -0.006398 -0.006007 0.008560 0.000000 0.000000 0.000000
# 4 0.000000 0.000000 0.000000 0.026303 0.000000 0.000000
# 5 0.000000 0.000000 0.000000 0.000000 -0.507783 0.000000
# 6 0.000000 0.000000 0.000000 0.000000 0.000000 0.072548
#
#
# Mechanical properties :
#
#
# Convention : Reuss Voigt Hill
#
# Bulk Modulus (GPa) = 30.53598 60.87082 45.70340
# Shear Modulus (GPa) = -16.67594 21.71448 2.51927
#
# Velocity S-wave (km/s) = -3.03392 3.46206 1.17923
# Velocity P-wave (km/s) = 2.14060 7.04132 5.20396
#
# Compressibility (1/GPa) = 0.03274826
#
# Stress axis : x y z
#
# Youngs Moduli (GPa) = 27.50106 48.67919 116.82063
#
# Poissons Ratio (x) = 0.19247 0.74738
# Poissons Ratio (y) = 0.10873 0.70173
# Poissons Ratio (z) = 0.17594 0.29241
#
# Static dielectric constant tensor:
#      x y z
#    x 2.919190 0.000000 0.000000 
#    y 0.000000 3.261120 0.000000 
#    z 0.000000 0.000000 3.691790 
# 
# 
# High freq. dielectric constant tensor:
#      x y z
#    x 1.649160 0.000000 0.000000 
#    y 0.000000 1.691980 0.000000 
#    z 0.000000 0.000000 1.726700 
# 
# From -- ./inp_files/1825.got.cif
#   From: 2010.03.12/outbox.cif.g09.slc.cpg/sg47_1_cif.got.tgz:1825.got - 2010.04.14 03:12:58.
