data_PCOD8199385
_publ_section_title
;
Structure prediction by ZEFSAII (Michael W. Deem and Ramdas Pophale) SiO2 
 PCOD8199385
Probable space group: P M M M
;
_chemical_formula_sum "Si O2"
_cell_formula_units_Z 48
_cell_length_a 14.415655
_cell_length_b 10.099082
_cell_length_c 17.641028
_cell_angle_alpha 90.000000
_cell_angle_beta 90.000000
_cell_angle_gamma 90.000000
_cell_volume 2568.266978
_symmetry_space_group_name_H-M "P M M M"
_symmetry_group_IT_number 47
_symmetry_cell_setting 'orthorhombic'
loop_
_space_group_symop_operation_xyz
x,y,z
-x,-y,z
x,-y,-z
-x,y,-z
-x,-y,-z
x,y,-z
-x,y,z
x,-y,z
loop_
_atom_site_type_symbol
_atom_site_label
_atom_site_fract_x
_atom_site_fract_y
_atom_site_fract_z
Si Si1 0.291222 0.750494 0.654557
Si Si2 0.105479 0.654683 0.588549
Si Si3 0.148554 0.854440 0.087604
Si Si4 0.394791 0.000000 0.589183
Si Si5 0.329769 0.149227 0.815616
Si Si6 0.000000 0.649573 0.909617
Si Si7 0.500000 0.157845 0.913939
Si Si8 0.609167 0.500000 0.412207
O O1 0.181059 0.739042 0.635854
O O2 0.306347 0.759064 0.744418
O O3 0.347014 0.625967 0.626127
O O4 0.335784 0.874658 0.613609
O O5 0.120412 0.684087 0.500000
O O6 0.121212 0.500000 0.605351
O O7 0.000000 0.695404 0.612243
O O8 0.244236 0.852443 0.129322
O O9 0.087377 0.733779 0.120126
O O10 0.101001 0.000000 0.098836
O O11 0.168806 0.829412 0.000000
O O12 0.500000 0.000000 0.624138
O O13 0.404409 0.000000 0.500000
O O14 0.412527 0.209685 0.865824
O O15 0.353329 0.000000 0.786964
O O16 0.000000 0.500000 0.875838
O O17 0.000000 0.644535 0.000000
O O18 0.500000 0.000000 0.919274
O O19 0.500000 0.216122 0.000000
O O20 0.500000 0.500000 0.399223
O O21 0.635998 0.500000 0.500000
#
# Coordination Sequence:
#
# PCOD8199385 Si02
#       8
#     8   8   8   4   8   4   4   4
#     4  12  22  38  60  87 122 158 195 250 305 355
#     4   9  18  36  62  86 110 149 204 260 305 352
#     4   9  17  33  57  81 107 147 195 232 276 345
#     4  11  24  38  59  87 121 163 197 230 295 369
#     4  10  21  35  55  85 121 153 184 240 297 340
#     4   9  17  31  53  83 113 141 180 237 292 341
#     4   9  18  34  60  89 116 153 201 241 279 341
#     4  11  24  40  61  87 117 155 205 248 279 345
#
# _framework density 18.689646
#
# number of rings (size 3 to 8) (size 9 to 14) (size 15 to 20)
#    0.000    2.000    1.667    3.250    2.333    4.333 
#    3.000    0.417    0.000    1.500    0.000    0.583 
#    0.000    0.000    0.000    0.000    0.000    0.000 
#
# Total GULP energy -595004.854508 kJ/mol
# GULP energy per Si atom -12395.934469 kJ/mol
# Density = 1.864711 g / cm^3
# Si number density = 18.689646 Si / 1000 Ang^3
#
#
#
# Elastic Constant Matrix: (Units=GPa)
#
#
# Indices 1 2 3 4 5 6 
#
# 1 132.1314 61.6126 78.2417 0.0000 0.0000 0.0000
# 2 61.6126 120.3466 44.1237 0.0000 0.0000 0.0000
# 3 78.2417 44.1237 93.1609 0.0000 0.0000 0.0000
# 4 0.0000 0.0000 0.0000 23.2350 0.0000 0.0000
# 5 0.0000 0.0000 0.0000 0.0000 29.0451 0.0000
# 6 0.0000 0.0000 0.0000 0.0000 0.0000 20.3579
#
#
#
# Elastic Compliance Matrix: (Units=1/GPa)
#
#
# Indices 1 2 3 4 5 6 
#
# 1 0.016568 -0.004091 -0.011977 0.000000 0.000000 0.000000
# 2 -0.004091 0.011066 -0.001805 0.000000 0.000000 0.000000
# 3 -0.011977 -0.001805 0.021648 0.000000 0.000000 0.000000
# 4 0.000000 0.000000 0.000000 0.043038 0.000000 0.000000
# 5 0.000000 0.000000 0.000000 0.000000 0.034429 0.000000
# 6 0.000000 0.000000 0.000000 0.000000 0.000000 0.049121
#
#
# Mechanical properties :
#
#
# Convention : Reuss Voigt Hill
#
# Bulk Modulus (GPa) = 73.88122 79.28832 76.58477
# Shear Modulus (GPa) = 23.13432 25.30501 24.21967
#
# Velocity S-wave (km/s) = 3.52208 3.68361 3.60375
# Velocity P-wave (km/s) = 7.49376 7.78510 7.64082
#
# Compressibility (1/GPa) = 0.01353524
#
# Stress axis : x y z
#
# Youngs Moduli (GPa) = 60.35676 90.37039 46.19302
#
# Poissons Ratio (x) = 0.36970 0.55327
# Poissons Ratio (y) = 0.24691 0.08339
# Poissons Ratio (z) = 0.72291 0.16314
#
# Static dielectric constant tensor:
#      x y z
#    x 3.638590 0.000000 0.000000 
#    y 0.000000 3.330230 0.000000 
#    z 0.000000 0.000000 -5.097230 
# 
# 
# High freq. dielectric constant tensor:
#      x y z
#    x 1.741420 0.000000 0.000000 
#    y 0.000000 1.705660 0.000000 
#    z 0.000000 0.000000 1.718240 
# 
# From -- ./inp_files/28087.got.cif
#   From: 2010.03.12/outbox.cif.g09.slc.cpg/sg47_15_cif.got.tgz:28087.got - 2010.04.14 03:12:58.
