data_PCOD8199621
_publ_section_title
;
Structure prediction by ZEFSAII (Michael W. Deem and Ramdas Pophale) SiO2 
 PCOD8199621
Probable space group: P M M M
;
_chemical_formula_sum "Si O2"
_cell_formula_units_Z 44
_cell_length_a 28.278414
_cell_length_b 9.043234
_cell_length_c 9.206687
_cell_angle_alpha 90.000000
_cell_angle_beta 90.000000
_cell_angle_gamma 90.000000
_cell_volume 2354.410553
_symmetry_space_group_name_H-M "P M M M"
_symmetry_group_IT_number 47
_symmetry_cell_setting 'orthorhombic'
loop_
_space_group_symop_operation_xyz
x,y,z
-x,-y,z
x,-y,-z
-x,y,-z
-x,-y,-z
x,y,-z
-x,y,z
x,-y,z
loop_
_atom_site_type_symbol
_atom_site_label
_atom_site_fract_x
_atom_site_fract_y
_atom_site_fract_z
Si Si1 0.229557 0.174251 0.832739
Si Si2 0.314038 0.327530 0.330923
Si Si3 0.946340 0.167106 0.329458
Si Si4 0.134389 0.329727 0.168091
Si Si5 0.500000 0.825759 0.842181
Si Si6 0.397605 0.830022 0.173310
O O1 0.269940 0.240408 0.732919
O O2 0.179505 0.236997 0.777986
O O3 0.229021 0.000000 0.813053
O O4 0.239002 0.219622 0.000000
O O5 0.318718 0.289852 0.500000
O O6 0.306137 0.500000 0.303040
O O7 0.361453 0.278058 0.250747
O O8 0.939075 0.181983 0.500000
O O9 0.912184 0.281729 0.252309
O O10 0.000000 0.207702 0.286532
O O11 0.934720 0.000000 0.279102
O O12 0.144982 0.500000 0.201088
O O13 0.124740 0.299608 0.000000
O O14 0.549848 0.784276 0.765078
O O15 0.500000 0.000000 0.865754
O O16 0.500000 0.748611 0.000000
O O17 0.385602 0.000000 0.213039
O O18 0.395235 0.808916 0.000000
#
# Coordination Sequence:
#
# PCOD8199621 Si02
#       6
#     8   8   8   8   4   8
#     4  10  21  38  60  82 102 130 172 218 263 312
#     4  11  24  38  51  73 107 143 176 211 256 310
#     4   9  19  36  56  78 106 142 183 222 259 303
#     4  10  21  36  55  81 111 140 171 211 261 315
#     4   7  12  26  50  79 106 130 164 213 260 303
#     4   9  17  32  56  82 105 133 172 216 261 308
#
# _framework density 18.688330000000001
#
# number of rings (size 3 to 8) (size 9 to 14) (size 15 to 20)
#    0.000    2.455    0.000    3.818    0.000    8.000 
#    0.000    3.636    0.000    4.364    0.000    0.000 
#    0.000    0.000    0.000    0.000    0.000    0.000 
#
# Total GULP energy -545500.546526 kJ/mol
# GULP energy per Si atom -12397.739694 kJ/mol
# Density = 1.864579 g / cm^3
# Si number density = 18.688330 Si / 1000 Ang^3
#
#
#
# Elastic Constant Matrix: (Units=GPa)
#
#
# Indices 1 2 3 4 5 6 
#
# 1 145.9162 52.7580 50.6745 0.0000 0.0000 0.0000
# 2 52.7580 72.8861 36.2027 0.0000 0.0000 0.0000
# 3 50.6745 36.2027 53.1731 0.0000 0.0000 0.0000
# 4 0.0000 0.0000 0.0000 30.0360 0.0000 0.0000
# 5 0.0000 0.0000 0.0000 0.0000 -904.0785 0.0000
# 6 0.0000 0.0000 0.0000 0.0000 0.0000 0.9771
#
#
#
# Elastic Compliance Matrix: (Units=1/GPa)
#
#
# Indices 1 2 3 4 5 6 
#
# 1 0.011024 -0.004172 -0.007665 0.000000 0.000000 0.000000
# 2 -0.004172 0.022310 -0.011213 0.000000 0.000000 0.000000
# 3 -0.007665 -0.011213 0.033746 0.000000 0.000000 0.000000
# 4 0.000000 0.000000 0.000000 0.033293 0.000000 0.000000
# 5 0.000000 0.000000 0.000000 0.000000 -0.001106 0.000000
# 6 0.000000 0.000000 0.000000 0.000000 0.000000 1.023416
#
#
# Mechanical properties :
#
#
# Convention : Reuss Voigt Hill
#
# Bulk Modulus (GPa) = 47.66862 61.24951 54.45906
# Shear Modulus (GPa) = 4.25251 -165.79039 -80.76894
#
# Velocity S-wave (km/s) = 1.51011 -9.42899 -6.58124
# Velocity P-wave (km/s) = 5.34819 9.25721 5.34288
#
# Compressibility (1/GPa) = 0.02097816
#
# Stress axis : x y z
#
# Youngs Moduli (GPa) = 90.71343 44.82348 29.63309
#
# Poissons Ratio (x) = 0.18701 0.22714
# Poissons Ratio (y) = 0.37847 0.33229
# Poissons Ratio (z) = 0.69533 0.50262
#
# Static dielectric constant tensor:
#      x y z
#    x 3.727120 0.000000 0.000000 
#    y 0.000000 3.365010 0.000000 
#    z 0.000000 0.000000 3.249660 
# 
# 
# High freq. dielectric constant tensor:
#      x y z
#    x 1.745120 0.000000 0.000000 
#    y 0.000000 1.720230 0.000000 
#    z 0.000000 0.000000 1.704990 
# 
# From -- ./inp_files/13598.got.cif
#   From: 2010.03.12/outbox.cif.g09.slc.cpg/sg47_7_cif.got.tgz:13598.got - 2010.04.14 03:12:58.
