data_PCOD8199716
_publ_section_title
;
Structure prediction by ZEFSAII (Michael W. Deem and Ramdas Pophale) SiO2 
 PCOD8199716
Probable space group: P M M M
;
_chemical_formula_sum "Si O2"
_cell_formula_units_Z 40
_cell_length_a 8.838847
_cell_length_b 10.995747
_cell_length_c 22.355026
_cell_angle_alpha 90.000000
_cell_angle_beta 90.000000
_cell_angle_gamma 90.000000
_cell_volume 2172.678838
_symmetry_space_group_name_H-M "P M M M"
_symmetry_group_IT_number 47
_symmetry_cell_setting 'orthorhombic'
loop_
_space_group_symop_operation_xyz
x,y,z
-x,-y,z
x,-y,-z
-x,y,-z
-x,-y,-z
x,y,-z
-x,y,z
x,-y,z
loop_
_atom_site_type_symbol
_atom_site_label
_atom_site_fract_x
_atom_site_fract_y
_atom_site_fract_z
Si Si1 0.178457 0.769302 0.116210
Si Si2 0.328151 0.640506 0.775354
Si Si3 0.820606 0.864165 0.567398
Si Si4 0.820440 0.631559 0.000000
Si Si5 0.677768 0.000000 0.932149
Si Si6 0.178247 0.361053 0.648511
O O1 0.221271 0.709700 0.178686
O O2 0.000000 0.790189 0.113903
O O3 0.266267 0.892894 0.109393
O O4 0.239025 0.692723 0.060092
O O5 0.500000 0.688918 0.778765
O O6 0.320497 0.500000 0.792451
O O7 0.265008 0.663429 0.709610
O O8 0.758689 0.848433 0.500000
O O9 0.761380 0.746731 0.604728
O O10 0.000000 0.860010 0.567272
O O11 0.769618 0.000000 0.591554
O O12 0.746487 0.500000 0.000000
O O13 0.000000 0.627074 0.000000
O O14 0.500000 0.000000 0.937996
O O15 0.748226 0.000000 0.000000
O O16 0.213548 0.500000 0.624880
O O17 0.000000 0.348028 0.659649
#
# Coordination Sequence:
#
# PCOD8199716 Si02
#       6
#     8   8   8   4   4   8
#     4  11  21  36  58  80 105 136 177 221 264 315
#     4  10  21  37  55  76 106 142 176 215 269 325
#     4   8  14  26  46  74 107 138 169 213 268 318
#     4   9  18  31  51  80 106 127 160 213 268 313
#     4  11  23  39  57  77 109 143 172 211 264 321
#     4   9  17  30  50  76 104 136 176 220 263 313
#
# _framework density 18.410451999999999
#
# number of rings (size 3 to 8) (size 9 to 14) (size 15 to 20)
#    0.000    2.400    1.000    2.700    0.000    2.800 
#    1.800    2.000    0.000    3.000    0.000    4.200 
#    0.000    0.000    0.000    0.000    0.000    0.000 
#
# Total GULP energy -495669.417932 kJ/mol
# GULP energy per Si atom -12391.735448 kJ/mol
# Density = 1.836855 g / cm^3
# Si number density = 18.410452 Si / 1000 Ang^3
#
#
#
# Elastic Constant Matrix: (Units=GPa)
#
#
# Indices 1 2 3 4 5 6 
#
# 1 51.6743 27.6445 24.5121 0.0000 0.0000 0.0000
# 2 27.6445 147.3679 70.7854 0.0000 0.0000 0.0000
# 3 24.5121 70.7854 95.1505 0.0000 0.0000 0.0000
# 4 0.0000 0.0000 0.0000 17.8877 0.0000 0.0000
# 5 0.0000 0.0000 0.0000 0.0000 9.9668 0.0000
# 6 0.0000 0.0000 0.0000 0.0000 0.0000 14.4814
#
#
#
# Elastic Compliance Matrix: (Units=1/GPa)
#
#
# Indices 1 2 3 4 5 6 
#
# 1 0.022510 -0.002236 -0.004135 0.000000 0.000000 0.000000
# 2 -0.002236 0.010781 -0.007444 0.000000 0.000000 0.000000
# 3 -0.004135 -0.007444 0.017113 0.000000 0.000000 0.000000
# 4 0.000000 0.000000 0.000000 0.055904 0.000000 0.000000
# 5 0.000000 0.000000 0.000000 0.000000 0.100333 0.000000
# 6 0.000000 0.000000 0.000000 0.000000 0.000000 0.069054
#
#
# Mechanical properties :
#
#
# Convention : Reuss Voigt Hill
#
# Bulk Modulus (GPa) = 43.91284 60.00853 51.96068
# Shear Modulus (GPa) = 16.08145 19.88389 17.98267
#
# Velocity S-wave (km/s) = 2.95870 3.28995 3.12871
# Velocity P-wave (km/s) = 5.96455 6.86275 6.42935
#
# Compressibility (1/GPa) = 0.02277238
#
# Stress axis : x y z
#
# Youngs Moduli (GPa) = 44.42480 92.75675 58.43566
#
# Poissons Ratio (x) = 0.20744 0.24164
# Poissons Ratio (y) = 0.09935 0.43500
# Poissons Ratio (z) = 0.18370 0.69049
#
# Static dielectric constant tensor:
#      x y z
#    x 3.121240 0.000000 0.000000 
#    y 0.000000 3.613580 0.000000 
#    z 0.000000 0.000000 3.382060 
# 
# 
# High freq. dielectric constant tensor:
#      x y z
#    x 1.688100 0.000000 0.000000 
#    y 0.000000 1.726130 0.000000 
#    z 0.000000 0.000000 1.708830 
# 
# From -- ./inp_files/29362.got.cif
#   From: 2010.03.12/outbox.cif.g09.slc.cpg/sg47_15_cif.got.tgz:29362.got - 2010.04.14 03:12:58.
