data_PCOD8199208
_publ_section_title
;
Structure prediction by ZEFSAII (Michael W. Deem and Ramdas Pophale) SiO2 
 PCOD8199208
Probable space group: P M M M
;
_chemical_formula_sum "Si O2"
_cell_formula_units_Z 48
_cell_length_a 32.810571
_cell_length_b 7.741581
_cell_length_c 9.348661
_cell_angle_alpha 90.000000
_cell_angle_beta 90.000000
_cell_angle_gamma 90.000000
_cell_volume 2374.613116
_symmetry_space_group_name_H-M "P M M M"
_symmetry_group_IT_number 47
_symmetry_cell_setting 'orthorhombic'
loop_
_space_group_symop_operation_xyz
x,y,z
-x,-y,z
x,-y,-z
-x,y,-z
-x,-y,-z
x,y,-z
-x,y,z
x,-y,z
loop_
_atom_site_type_symbol
_atom_site_label
_atom_site_fract_x
_atom_site_fract_y
_atom_site_fract_z
Si Si1 0.500000 0.705767 0.662070
Si Si2 0.181291 0.801798 0.156769
Si Si3 0.422659 0.293910 0.838784
Si Si4 0.954692 0.500000 0.669341
Si Si5 0.743344 0.703879 0.661401
Si Si6 0.104598 0.800102 0.332375
Si Si7 0.347390 0.294693 0.659595
O O1 0.500000 0.500000 0.659752
O O2 0.500000 0.777899 0.500000
O O3 0.539639 0.775814 0.745243
O O4 0.224974 0.785834 0.230300
O O5 0.145058 0.726881 0.254458
O O6 0.171351 0.000000 0.135369
O O7 0.181953 0.711012 0.000000
O O8 0.422672 0.500000 0.839879
O O9 0.380902 0.221123 0.769402
O O10 0.426284 0.222026 0.000000
O O11 0.957706 0.500000 0.500000
O O12 0.931999 0.675597 0.719213
O O13 0.000000 0.500000 0.737160
O O14 0.752599 0.767225 0.500000
O O15 0.747052 0.500000 0.670040
O O16 0.697892 0.764945 0.706855
O O17 0.113041 0.779909 0.500000
O O18 0.093933 0.000000 0.294670
O O19 0.357049 0.225411 0.500000
O O20 0.349144 0.500000 0.657238
#
# Coordination Sequence:
#
# PCOD8199208 Si02
#       7
#     4   8   8   4   8   8   8
#     4   9  15  21  29  41  59  91 136 181 226 277
#     4  10  21  35  50  71 100 132 166 206 250 295
#     4   9  15  21  30  45  67  96 133 179 226 275
#     4   9  18  32  53  83 111 135 173 223 267 312
#     4   9  18  31  48  70  94 122 159 201 243 292
#     4   9  18  33  53  76 104 139 175 214 263 314
#     4   8  14  25  38  53  76 106 139 177 225 280
#
# _framework density 20.213816999999999
#
# number of rings (size 3 to 8) (size 9 to 14) (size 15 to 20)
#    0.000    3.000    0.000    2.250    1.167    5.333 
#    0.000    3.333    0.000    1.000    0.000    2.333 
#    0.000    0.000    0.000    0.750    0.000   14.833 
#
# Total GULP energy -594930.465988 kJ/mol
# GULP energy per Si atom -12394.384708 kJ/mol
# Density = 2.016781 g / cm^3
# Si number density = 20.213817 Si / 1000 Ang^3
#
#
#
# Elastic Constant Matrix: (Units=GPa)
#
#
# Indices 1 2 3 4 5 6 
#
# 1 191.7153 31.3596 94.7493 0.0000 0.0000 0.0000
# 2 31.3596 41.7104 20.8824 0.0000 0.0000 0.0000
# 3 94.7493 20.8824 135.3123 0.0000 0.0000 0.0000
# 4 0.0000 0.0000 0.0000 8.0545 0.0000 0.0000
# 5 0.0000 0.0000 0.0000 0.0000 13.5511 0.0000
# 6 0.0000 0.0000 0.0000 0.0000 0.0000 -9.0571
#
#
#
# Elastic Compliance Matrix: (Units=1/GPa)
#
#
# Indices 1 2 3 4 5 6 
#
# 1 0.008468 -0.003683 -0.005361 0.000000 0.000000 0.000000
# 2 -0.003683 0.027584 -0.001678 0.000000 0.000000 0.000000
# 3 -0.005361 -0.001678 0.011403 0.000000 0.000000 0.000000
# 4 0.000000 0.000000 0.000000 0.124154 0.000000 0.000000
# 5 0.000000 0.000000 0.000000 0.000000 0.073795 0.000000
# 6 0.000000 0.000000 0.000000 0.000000 0.000000 -0.110411
#
#
# Mechanical properties :
#
#
# Convention : Reuss Voigt Hill
#
# Bulk Modulus (GPa) = 38.44522 73.63562 56.04042
# Shear Modulus (GPa) = 30.28324 17.29281 23.78803
#
# Velocity S-wave (km/s) = 3.87479 2.92806 3.43420
# Velocity P-wave (km/s) = 6.25134 6.92379 6.59614
#
# Compressibility (1/GPa) = 0.02601103
#
# Stress axis : x y z
#
# Youngs Moduli (GPa) = 118.09067 36.25324 87.69299
#
# Poissons Ratio (x) = 0.13350 0.47014
# Poissons Ratio (y) = 0.43487 0.14718
# Poissons Ratio (z) = 0.63311 0.06084
#
# Static dielectric constant tensor:
#      x y z
#    x 3.997910 0.000000 0.000000 
#    y 0.000000 3.269310 0.000000 
#    z 0.000000 0.000000 3.845200 
# 
# 
# High freq. dielectric constant tensor:
#      x y z
#    x 1.793790 0.000000 0.000000 
#    y 0.000000 1.754650 0.000000 
#    z 0.000000 0.000000 1.777520 
# 
# From -- ./inp_files/13980.got.cif
#   From: 2010.03.12/outbox.cif.g09.slc.cpg/sg47_7_cif.got.tgz:13980.got - 2010.04.14 03:12:58.
