data_PCOD8199825
_publ_section_title
;
Structure prediction by ZEFSAII (Michael W. Deem and Ramdas Pophale) SiO2 
 PCOD8199825
Probable space group: P M M M
;
_chemical_formula_sum "Si O2"
_cell_formula_units_Z 48
_cell_length_a 32.628113
_cell_length_b 9.589334
_cell_length_c 8.044681
_cell_angle_alpha 90.000000
_cell_angle_beta 90.000000
_cell_angle_gamma 90.000000
_cell_volume 2517.034862
_symmetry_space_group_name_H-M "P M M M"
_symmetry_group_IT_number 47
_symmetry_cell_setting 'orthorhombic'
loop_
_space_group_symop_operation_xyz
x,y,z
-x,-y,z
x,-y,-z
-x,y,-z
-x,-y,-z
x,y,-z
-x,y,z
x,-y,z
loop_
_atom_site_type_symbol
_atom_site_label
_atom_site_fract_x
_atom_site_fract_y
_atom_site_fract_z
Si Si1 0.178979 0.156796 0.305180
Si Si2 0.045701 0.665036 0.000000
Si Si3 0.899098 0.663974 0.308391
Si Si4 0.733920 0.154756 0.805877
Si Si5 0.500000 0.154289 0.807088
Si Si6 0.426117 0.656465 0.305294
Si Si7 0.661943 0.343983 0.197078
O O1 0.184697 0.154558 0.500000
O O2 0.142168 0.257928 0.254161
O O3 0.220912 0.217397 0.227420
O O4 0.170010 0.000000 0.238012
O O5 0.067371 0.713575 0.827650
O O6 0.043601 0.500000 0.000000
O O7 0.000000 0.729404 0.000000
O O8 0.912362 0.701856 0.500000
O O9 0.890825 0.500000 0.294326
O O10 0.698606 0.251128 0.725622
O O11 0.731202 0.000000 0.725872
O O12 0.726013 0.145873 0.000000
O O13 0.459751 0.238686 0.760581
O O14 0.500000 0.000000 0.721547
O O15 0.500000 0.131216 0.000000
O O16 0.430416 0.647872 0.500000
O O17 0.432148 0.500000 0.229541
O O18 0.381754 0.717021 0.254575
O O19 0.667228 0.500000 0.268529
O O20 0.664127 0.344549 0.000000
#
# Coordination Sequence:
#
# PCOD8199825 Si02
#       7
#     8   4   8   8   4   8   8
#     4   9  18  32  49  70  98 133 170 208 254 305
#     4   9  18  32  51  77 105 133 169 213 261 312
#     4   9  18  32  50  74 102 132 169 213 259 307
#     4   9  18  31  47  69  97 130 168 208 249 296
#     4  11  24  39  56  80 106 133 168 209 254 304
#     4  10  21  37  57  80 105 134 169 209 254 305
#     4   9  18  33  51  72 100 134 170 207 250 299
#
# _framework density 19.070056000000001
#
# number of rings (size 3 to 8) (size 9 to 14) (size 15 to 20)
#    0.000    2.667    0.000    1.000    1.167    5.000 
#    0.000    3.333    0.000    1.000    0.000    2.333 
#    0.000    0.000    0.000    0.000    0.000    0.000 
#
# Total GULP energy -594986.176023 kJ/mol
# GULP energy per Si atom -12395.545334 kJ/mol
# Density = 1.902665 g / cm^3
# Si number density = 19.070056 Si / 1000 Ang^3
#
#
#
# Elastic Constant Matrix: (Units=GPa)
#
#
# Indices 1 2 3 4 5 6 
#
# 1 185.6443 81.5048 52.8335 0.0000 0.0000 0.0000
# 2 81.5048 79.0231 26.4586 0.0000 0.0000 0.0000
# 3 52.8335 26.4586 49.5677 0.0000 0.0000 0.0000
# 4 0.0000 0.0000 0.0000 15.4986 0.0000 0.0000
# 5 0.0000 0.0000 0.0000 0.0000 -444.0206 0.0000
# 6 0.0000 0.0000 0.0000 0.0000 0.0000 6.5209
#
#
#
# Elastic Compliance Matrix: (Units=1/GPa)
#
#
# Indices 1 2 3 4 5 6 
#
# 1 0.011689 -0.009600 -0.007335 0.000000 0.000000 0.000000
# 2 -0.009600 0.023293 -0.002201 0.000000 0.000000 0.000000
# 3 -0.007335 -0.002201 0.029167 0.000000 0.000000 0.000000
# 4 0.000000 0.000000 0.000000 0.064522 0.000000 0.000000
# 5 0.000000 0.000000 0.000000 0.000000 -0.002252 0.000000
# 6 0.000000 0.000000 0.000000 0.000000 0.000000 0.153352
#
#
# Mechanical properties :
#
#
# Convention : Reuss Voigt Hill
#
# Bulk Modulus (GPa) = 38.64313 70.64764 54.64539
# Shear Modulus (GPa) = 15.30605 -74.17100 -29.43248
#
# Velocity S-wave (km/s) = 2.83613 -6.24327 -3.93286
# Velocity P-wave (km/s) = 5.57069 3.85284 2.84502
#
# Compressibility (1/GPa) = 0.02587782
#
# Stress axis : x y z
#
# Youngs Moduli (GPa) = 85.55153 42.93117 34.28534
#
# Poissons Ratio (x) = 0.41215 0.25147
# Poissons Ratio (y) = 0.82131 0.07546
# Poissons Ratio (z) = 0.62748 0.09448
#
# Static dielectric constant tensor:
#      x y z
#    x 3.636730 0.000000 0.000000 
#    y 0.000000 3.654620 0.000000 
#    z 0.000000 0.000000 3.445160 
# 
# 
# High freq. dielectric constant tensor:
#      x y z
#    x 1.744480 0.000000 0.000000 
#    y 0.000000 1.725070 0.000000 
#    z 0.000000 0.000000 1.737660 
# 
# From -- ./inp_files/2754.got.cif
#   From: 2010.03.12/outbox.cif.g09.slc.cpg/sg47_2_cif.got.tgz:2754.got - 2010.04.14 03:12:58.
