data_PCOD8199919
_publ_section_title
;
Structure prediction by ZEFSAII (Michael W. Deem and Ramdas Pophale) SiO2 
 PCOD8199919
Probable space group: P M M M
;
_chemical_formula_sum "Si O2"
_cell_formula_units_Z 48
_cell_length_a 8.750604
_cell_length_b 17.753524
_cell_length_c 15.572690
_cell_angle_alpha 90.000000
_cell_angle_beta 90.000000
_cell_angle_gamma 90.000000
_cell_volume 2419.280587
_symmetry_space_group_name_H-M "P M M M"
_symmetry_group_IT_number 47
_symmetry_cell_setting 'orthorhombic'
loop_
_space_group_symop_operation_xyz
x,y,z
-x,-y,z
x,-y,-z
-x,y,-z
-x,-y,-z
x,y,-z
-x,y,z
x,-y,z
loop_
_atom_site_type_symbol
_atom_site_label
_atom_site_fract_x
_atom_site_fract_y
_atom_site_fract_z
Si Si1 0.820978 0.351262 0.672081
Si Si2 0.818481 0.195707 0.404773
Si Si3 0.319702 0.500000 0.596440
Si Si4 0.324494 0.155274 0.903491
Si Si5 0.676693 0.324574 0.148432
Si Si6 0.180685 0.084268 0.259884
Si Si7 0.172079 0.411413 0.000000
O O1 0.766343 0.281324 0.613332
O O2 0.734503 0.426180 0.645441
O O3 0.781787 0.329422 0.768575
O O4 0.000000 0.366036 0.662961
O O5 0.760168 0.172750 0.500000
O O6 0.748164 0.138909 0.333445
O O7 0.000000 0.191180 0.400123
O O8 0.500000 0.500000 0.595241
O O9 0.252560 0.500000 0.500000
O O10 0.500000 0.134213 0.886787
O O11 0.298865 0.244052 0.895037
O O12 0.224529 0.110396 0.835188
O O13 0.275259 0.131511 0.000000
O O14 0.500000 0.339154 0.172072
O O15 0.734256 0.387510 0.083469
O O16 0.000000 0.085771 0.266310
O O17 0.243188 0.000000 0.276130
O O18 0.161598 0.500000 0.000000
O O19 0.000000 0.376961 0.000000
#
# Coordination Sequence:
#
# PCOD8199919 Si02
#       7
#     8   8   4   8   8   8   4
#     4  11  22  38  62  89 119 156 201 250 301 355
#     4   9  18  34  58  88 119 154 197 244 296 353
#     4  11  25  43  61  86 121 158 197 245 303 361
#     4  10  21  39  61  85 114 153 199 242 293 356
#     4  11  22  39  61  86 117 155 200 247 296 353
#     4  10  21  37  58  88 123 156 195 246 302 357
#     4  11  25  41  59  87 122 157 198 245 298 357
#
# _framework density 19.840610000000002
#
# number of rings (size 3 to 8) (size 9 to 14) (size 15 to 20)
#    0.000    1.667    2.500    2.000    1.167    4.000 
#    0.000    3.333    0.000    1.500    0.000    1.167 
#    0.000    0.000    0.000    0.000    0.000    0.000 
#
# Total GULP energy -595286.564930 kJ/mol
# GULP energy per Si atom -12401.803436 kJ/mol
# Density = 1.979545 g / cm^3
# Si number density = 19.840610 Si / 1000 Ang^3
#
#
#
# Elastic Constant Matrix: (Units=GPa)
#
#
# Indices 1 2 3 4 5 6 
#
# 1 31.9776 28.6100 9.4432 0.0000 0.0000 0.0000
# 2 28.6100 119.3326 49.0974 0.0000 0.0000 0.0000
# 3 9.4432 49.0974 136.1654 0.0000 0.0000 0.0000
# 4 0.0000 0.0000 0.0000 25.6063 0.0000 0.0000
# 5 0.0000 0.0000 0.0000 0.0000 17.1410 0.0000
# 6 0.0000 0.0000 0.0000 0.0000 0.0000 18.4432
#
#
#
# Elastic Compliance Matrix: (Units=1/GPa)
#
#
# Indices 1 2 3 4 5 6 
#
# 1 0.039886 -0.009892 0.000801 0.000000 0.000000 0.000000
# 2 -0.009892 0.012293 -0.003746 0.000000 0.000000 0.000000
# 3 0.000801 -0.003746 0.008639 0.000000 0.000000 0.000000
# 4 0.000000 0.000000 0.000000 0.039053 0.000000 0.000000
# 5 0.000000 0.000000 0.000000 0.000000 0.058340 0.000000
# 6 0.000000 0.000000 0.000000 0.000000 0.000000 0.054221
#
#
# Mechanical properties :
#
#
# Convention : Reuss Voigt Hill
#
# Bulk Modulus (GPa) = 28.45566 51.30853 39.88210
# Shear Modulus (GPa) = 20.01432 25.59308 22.80370
#
# Velocity S-wave (km/s) = 3.17954 3.59546 3.39388
# Velocity P-wave (km/s) = 5.27755 6.56909 5.95842
#
# Compressibility (1/GPa) = 0.03514239
#
# Stress axis : x y z
#
# Youngs Moduli (GPa) = 25.07160 81.34719 115.74935
#
# Poissons Ratio (x) = 0.80469 -0.09268
# Poissons Ratio (y) = 0.24801 0.43365
# Poissons Ratio (z) = -0.02007 0.30477
#
# Static dielectric constant tensor:
#      x y z
#    x 3.459330 0.000000 0.000000 
#    y 0.000000 3.719970 0.000000 
#    z 0.000000 0.000000 3.857130 
# 
# 
# High freq. dielectric constant tensor:
#      x y z
#    x 1.755230 0.000000 0.000000 
#    y 0.000000 1.777870 0.000000 
#    z 0.000000 0.000000 1.788120 
# 
# From -- ./inp_files/9144.got.cif
#   From: 2010.03.12/outbox.cif.g09.slc.cpg/sg47_5_cif.got.tgz:9144.got - 2010.04.14 03:12:58.
