data_PCOD8199018
_publ_section_title
;
Structure prediction by ZEFSAII (Michael W. Deem and Ramdas Pophale) SiO2 
 PCOD8199018
Probable space group: P M M M
;
_chemical_formula_sum "Si O2"
_cell_formula_units_Z 37
_cell_length_a 7.839918
_cell_length_b 10.201595
_cell_length_c 23.450900
_cell_angle_alpha 90.000000
_cell_angle_beta 90.000000
_cell_angle_gamma 90.000000
_cell_volume 1875.595203
_symmetry_space_group_name_H-M "P M M M"
_symmetry_group_IT_number 47
_symmetry_cell_setting 'orthorhombic'
loop_
_space_group_symop_operation_xyz
x,y,z
-x,-y,z
x,-y,-z
-x,y,-z
-x,-y,-z
x,y,-z
-x,y,z
x,-y,z
loop_
_atom_site_type_symbol
_atom_site_label
_atom_site_fract_x
_atom_site_fract_y
_atom_site_fract_z
Si Si1 0.693897 0.232973 0.317030
Si Si2 0.806460 0.500000 0.733983
Si Si3 0.687991 0.500000 0.856415
Si Si4 0.000000 0.857613 0.386415
Si Si5 0.804365 0.725587 0.063985
Si Si6 0.200709 0.000000 0.763392
Si Si7 0.305096 0.000000 0.890719
Si Si8 0.000000 0.000000 0.500000
O O1 0.500000 0.210336 0.339393
O O2 0.707022 0.375175 0.289645
O O3 0.826967 0.219121 0.369484
O O4 0.740765 0.129678 0.268828
O O5 0.814700 0.500000 0.802720
O O6 0.000000 0.500000 0.711405
O O7 0.500000 0.500000 0.829670
O O8 0.704646 0.370324 0.894226
O O9 0.000000 0.881119 0.454078
O O10 0.000000 0.000000 0.353435
O O11 0.788891 0.874135 0.084272
O O12 0.000000 0.682600 0.065279
O O13 0.730763 0.711070 0.000000
O O14 0.297570 0.000000 0.822870
O O15 0.000000 0.000000 0.774475
O O16 0.500000 0.000000 0.910965
#
# Coordination Sequence:
#
# PCOD8199018 Si02
#       8
#     8   4   4   4   8   4   4   1
#     4  12  22  38  62  93 130 169 212 257 309 370
#     4  12  24  41  61  89 128 166 205 250 314 374
#     4  12  25  41  60  89 118 150 196 250 306 370
#     4  10  20  41  63 101 131 173 210 261 298 351
#     4  11  24  43  62  80 106 148 196 246 308 377
#     4  12  21  38  58  85 119 160 202 248 314 377
#     4  12  25  38  57  86 114 145 190 250 315 374
#     4   8  20  40  70  98 144 166 228 258 304 340
#
# _framework density 19.727070000000001
#
# number of rings (size 3 to 8) (size 9 to 14) (size 15 to 20)
#    0.324    0.216    3.243    6.486    0.000    4.324 
#    0.000    1.081    0.000    1.297    0.000    1.514 
#    0.000    0.000    0.000    0.000    0.000    0.000 
#
# Total GULP energy -458428.208403 kJ/mol
# GULP energy per Si atom -12389.951578 kJ/mol
# Density = 1.968217 g / cm^3
# Si number density = 19.727070 Si / 1000 Ang^3
#
#
#
# Elastic Constant Matrix: (Units=GPa)
#
#
# Indices 1 2 3 4 5 6 
#
# 1 121.3579 17.3422 25.9136 0.0000 0.0000 0.0000
# 2 17.3422 131.6454 37.0246 0.0000 0.0000 0.0000
# 3 25.9136 37.0246 121.3713 0.0000 0.0000 0.0000
# 4 0.0000 0.0000 0.0000 20.5425 0.0000 0.0000
# 5 0.0000 0.0000 0.0000 0.0000 8.2385 0.0000
# 6 0.0000 0.0000 0.0000 0.0000 0.0000 34.1111
#
#
#
# Elastic Compliance Matrix: (Units=1/GPa)
#
#
# Indices 1 2 3 4 5 6 
#
# 1 0.008689 -0.000681 -0.001647 0.000000 0.000000 0.000000
# 2 -0.000681 0.008362 -0.002406 0.000000 0.000000 0.000000
# 3 -0.001647 -0.002406 0.009325 0.000000 0.000000 0.000000
# 4 0.000000 0.000000 0.000000 0.048680 0.000000 0.000000
# 5 0.000000 0.000000 0.000000 0.000000 0.121381 0.000000
# 6 0.000000 0.000000 0.000000 0.000000 0.000000 0.029316
#
#
# Mechanical properties :
#
#
# Convention : Reuss Voigt Hill
#
# Bulk Modulus (GPa) = 59.14384 59.43727 59.29056
# Shear Modulus (GPa) = 20.75915 32.18470 26.47193
#
# Velocity S-wave (km/s) = 3.24746 4.04356 3.66718
# Velocity P-wave (km/s) = 6.64135 7.21081 6.93193
#
# Compressibility (1/GPa) = 0.01690793
#
# Stress axis : x y z
#
# Youngs Moduli (GPa) = 115.08522 119.58205 107.24193
#
# Poissons Ratio (x) = 0.08148 0.17667
# Poissons Ratio (y) = 0.07841 0.25797
# Poissons Ratio (z) = 0.18959 0.28766
#
# Static dielectric constant tensor:
#      x y z
#    x 3.670830 0.000000 0.000000 
#    y 0.000000 3.715010 0.000000 
#    z 0.000000 0.000000 3.378370 
# 
# 
# High freq. dielectric constant tensor:
#      x y z
#    x 1.776780 0.000000 0.000000 
#    y 0.000000 1.783300 0.000000 
#    z 0.000000 0.000000 1.748930 
# 
# From -- ./inp_files/31760.got.cif
#   From: 2010.03.12/outbox.cif.g09.slc.cpg/sg47_16_cif.got.tgz:31760.got - 2010.04.14 03:12:58.
