data_PCOD8199096
_publ_section_title
;
Structure prediction by ZEFSAII (Michael W. Deem and Ramdas Pophale) SiO2 
 PCOD8199096
Probable space group: P M M M
;
_chemical_formula_sum "Si O2"
_cell_formula_units_Z 44
_cell_length_a 31.405767
_cell_length_b 7.580112
_cell_length_c 9.876920
_cell_angle_alpha 90.000000
_cell_angle_beta 90.000000
_cell_angle_gamma 90.000000
_cell_volume 2351.291983
_symmetry_space_group_name_H-M "P M M M"
_symmetry_group_IT_number 47
_symmetry_cell_setting 'orthorhombic'
loop_
_space_group_symop_operation_xyz
x,y,z
-x,-y,z
x,-y,-z
-x,y,-z
-x,-y,-z
x,y,-z
-x,y,z
x,-y,z
loop_
_atom_site_type_symbol
_atom_site_label
_atom_site_fract_x
_atom_site_fract_y
_atom_site_fract_z
Si Si1 0.378833 0.299567 0.148587
Si Si2 0.712080 0.200332 0.149672
Si Si3 0.000000 0.797749 0.159375
Si Si4 0.452535 0.791830 0.651315
Si Si5 0.784468 0.795214 0.345205
Si Si6 0.852152 0.500000 0.655494
Si Si7 0.065765 0.500000 0.160611
O O1 0.366112 0.500000 0.132546
O O2 0.336266 0.208316 0.207557
O O3 0.418856 0.285588 0.245870
O O4 0.390400 0.219470 0.000000
O O5 0.745800 0.283005 0.254269
O O6 0.725691 0.000000 0.134670
O O7 0.714318 0.291226 0.000000
O O8 0.959154 0.679987 0.202789
O O9 0.000000 0.000000 0.221979
O O10 0.000000 0.818187 0.000000
O O11 0.442246 0.723328 0.500000
O O12 0.500000 0.729164 0.693569
O O13 0.449940 0.000000 0.654920
O O14 0.769769 0.771571 0.500000
O O15 0.825537 0.677058 0.314274
O O16 0.795624 0.000000 0.314608
O O17 0.868145 0.500000 0.500000
O O18 0.890836 0.500000 0.758171
O O19 0.074415 0.500000 0.000000
#
# Coordination Sequence:
#
# PCOD8199096 Si02
#       7
#     8   8   4   8   8   4   4
#     4  10  21  34  49  74 104 130 157 194 245 303
#     4   9  18  33  52  73  97 125 161 207 251 292
#     4   8  15  31  54  78 108 142 176 222 270 308
#     4   9  19  36  55  73  94 123 161 202 242 289
#     4   9  19  35  52  71  98 135 176 213 255 310
#     4  10  21  35  51  74 108 144 173 215 268 311
#     4   9  18  32  52  80 106 136 182 221 259 313
#
# _framework density 18.713117
#
# number of rings (size 3 to 8) (size 9 to 14) (size 15 to 20)
#    0.000    2.818    0.000    1.636    1.273    4.364 
#    0.000    5.455    0.000    0.545    0.000    0.000 
#    0.000    0.000    0.000    0.000    0.000    0.000 
#
# Total GULP energy -545206.211513 kJ/mol
# GULP energy per Si atom -12391.050262 kJ/mol
# Density = 1.867053 g / cm^3
# Si number density = 18.713117 Si / 1000 Ang^3
#
#
#
# Elastic Constant Matrix: (Units=GPa)
#
#
# Indices 1 2 3 4 5 6 
#
# 1 149.2002 44.7773 87.8277 0.0000 0.0000 0.0000
# 2 44.7773 85.7071 33.7939 0.0000 0.0000 0.0000
# 3 87.8277 33.7939 92.1168 0.0000 0.0000 0.0000
# 4 0.0000 0.0000 0.0000 16.3039 0.0000 0.0000
# 5 0.0000 0.0000 0.0000 0.0000 8.0932 0.0000
# 6 0.0000 0.0000 0.0000 0.0000 0.0000 44.1305
#
#
#
# Elastic Compliance Matrix: (Units=1/GPa)
#
#
# Indices 1 2 3 4 5 6 
#
# 1 0.015795 -0.002705 -0.014067 0.000000 0.000000 0.000000
# 2 -0.002705 0.014104 -0.002595 0.000000 0.000000 0.000000
# 3 -0.014067 -0.002595 0.025220 0.000000 0.000000 0.000000
# 4 0.000000 0.000000 0.000000 0.061335 0.000000 0.000000
# 5 0.000000 0.000000 0.000000 0.000000 0.123561 0.000000
# 6 0.000000 0.000000 0.000000 0.000000 0.000000 0.022660
#
#
# Mechanical properties :
#
#
# Convention : Reuss Voigt Hill
#
# Bulk Modulus (GPa) = 61.03358 73.31356 67.17357
# Shear Modulus (GPa) = 16.29351 24.41386 20.35368
#
# Velocity S-wave (km/s) = 2.95396 3.61590 3.30156
# Velocity P-wave (km/s) = 6.65738 7.52965 7.10691
#
# Compressibility (1/GPa) = 0.01638442
#
# Stress axis : x y z
#
# Youngs Moduli (GPa) = 63.31108 70.90087 39.65144
#
# Poissons Ratio (x) = 0.19182 0.55778
# Poissons Ratio (y) = 0.17129 0.10289
# Poissons Ratio (z) = 0.89060 0.18397
#
# Static dielectric constant tensor:
#      x y z
#    x 3.418290 0.000000 0.000000 
#    y 0.000000 3.593460 0.000000 
#    z 0.000000 0.000000 3.888810 
# 
# 
# High freq. dielectric constant tensor:
#      x y z
#    x 1.717080 0.000000 0.000000 
#    y 0.000000 1.731610 0.000000 
#    z 0.000000 0.000000 1.713460 
# 
# From -- ./inp_files/13751.got.cif
#   From: 2010.03.12/outbox.cif.g09.slc.cpg/sg47_7_cif.got.tgz:13751.got - 2010.04.14 03:12:58.
