data_PCOD8199488
_publ_section_title
;
Structure prediction by ZEFSAII (Michael W. Deem and Ramdas Pophale) SiO2 
 PCOD8199488
Probable space group: P M M M
;
_chemical_formula_sum "Si O2"
_cell_formula_units_Z 48
_cell_length_a 13.023424
_cell_length_b 10.188991
_cell_length_c 21.239928
_cell_angle_alpha 90.000000
_cell_angle_beta 90.000000
_cell_angle_gamma 90.000000
_cell_volume 2818.443926
_symmetry_space_group_name_H-M "P M M M"
_symmetry_group_IT_number 47
_symmetry_cell_setting 'orthorhombic'
loop_
_space_group_symop_operation_xyz
x,y,z
-x,-y,z
x,-y,-z
-x,y,-z
-x,-y,-z
x,y,-z
-x,y,z
x,-y,z
loop_
_atom_site_type_symbol
_atom_site_label
_atom_site_fract_x
_atom_site_fract_y
_atom_site_fract_z
Si Si1 0.385680 0.655509 0.570005
Si Si2 0.236664 0.226983 0.117485
Si Si3 0.256027 0.342828 0.687240
Si Si4 0.384255 0.000000 0.926146
Si Si5 0.390146 0.351414 0.199531
Si Si6 0.880034 0.149099 0.757809
Si Si7 0.121319 0.652723 0.000000
O O1 0.354078 0.704046 0.500000
O O2 0.500000 0.709765 0.587109
O O3 0.391296 0.500000 0.571933
O O4 0.298214 0.701140 0.618934
O O5 0.307900 0.343756 0.143346
O O6 0.166566 0.170572 0.172939
O O7 0.320129 0.124185 0.095004
O O8 0.165524 0.277569 0.061582
O O9 0.231047 0.500000 0.691520
O O10 0.342952 0.295013 0.736143
O O11 0.157345 0.254899 0.705469
O O12 0.500000 0.000000 0.896926
O O13 0.394460 0.000000 0.000000
O O14 0.500000 0.280417 0.185020
O O15 0.414710 0.500000 0.212334
O O16 0.000000 0.171548 0.764768
O O17 0.854511 0.000000 0.735878
O O18 0.151442 0.500000 0.000000
O O19 0.000000 0.672712 0.000000
#
# Coordination Sequence:
#
# PCOD8199488 Si02
#       7
#     8   8   8   4   8   8   4
#     4   8  13  23  44  76 110 141 173 209 252 304
#     4  11  20  37  54  74  96 129 163 204 250 303
#     4   9  17  29  49  75 104 134 168 210 256 302
#     4  11  22  36  54  76 102 130 159 196 241 300
#     4   9  17  29  47  71  99 129 159 193 238 297
#     4  10  21  36  54  74  98 130 172 217 259 304
#     4  11  24  39  55  76 100 125 160 212 265 307
#
# _framework density 17.030674999999999
#
# number of rings (size 3 to 8) (size 9 to 14) (size 15 to 20)
#    0.000    2.333    1.667    2.500    0.000    3.000 
#    0.000    0.417    0.000    3.000    0.000    4.667 
#    0.000    0.000    0.000    0.000    0.000    0.000 
#
# Total GULP energy -594671.087155 kJ/mol
# GULP energy per Si atom -12388.980982 kJ/mol
# Density = 1.699191 g / cm^3
# Si number density = 17.030675 Si / 1000 Ang^3
#
#
#
# Elastic Constant Matrix: (Units=GPa)
#
#
# Indices 1 2 3 4 5 6 
#
# 1 120.8802 47.3339 55.2115 0.0000 0.0000 0.0000
# 2 47.3339 65.1079 35.0997 0.0000 0.0000 0.0000
# 3 55.2115 35.0997 109.5754 0.0000 0.0000 0.0000
# 4 0.0000 0.0000 0.0000 -4.8355 0.0000 0.0000
# 5 0.0000 0.0000 0.0000 0.0000 -126.2122 0.0000
# 6 0.0000 0.0000 0.0000 0.0000 0.0000 20.6644
#
#
#
# Elastic Compliance Matrix: (Units=1/GPa)
#
#
# Indices 1 2 3 4 5 6 
#
# 1 0.013031 -0.007172 -0.004268 0.000000 0.000000 0.000000
# 2 -0.007172 0.022513 -0.003598 0.000000 0.000000 0.000000
# 3 -0.004268 -0.003598 0.012429 0.000000 0.000000 0.000000
# 4 0.000000 0.000000 0.000000 -0.206805 0.000000 0.000000
# 5 0.000000 0.000000 0.000000 0.000000 -0.007923 0.000000
# 6 0.000000 0.000000 0.000000 0.000000 0.000000 0.048393
#
#
# Mechanical properties :
#
#
# Convention : Reuss Voigt Hill
#
# Bulk Modulus (GPa) = 55.87701 63.42820 59.65261
# Shear Modulus (GPa) = -60.73744 -11.54876 -36.14310
#
# Velocity S-wave (km/s) = -5.97838 -2.60689 -4.61177
# Velocity P-wave (km/s) = 3.84367 5.31631 2.59706
#
# Compressibility (1/GPa) = 0.01789645
#
# Stress axis : x y z
#
# Youngs Moduli (GPa) = 76.74182 44.41897 80.45606
#
# Poissons Ratio (x) = 0.31859 0.34341
# Poissons Ratio (y) = 0.55042 0.28944
# Poissons Ratio (z) = 0.32755 0.15980
#
# Static dielectric constant tensor:
#      x y z
#    x 3.611730 0.000000 0.000000 
#    y 0.000000 3.360360 0.000000 
#    z 0.000000 0.000000 3.336430 
# 
# 
# High freq. dielectric constant tensor:
#      x y z
#    x 1.663910 0.000000 0.000000 
#    y 0.000000 1.633530 0.000000 
#    z 0.000000 0.000000 1.652230 
# 
# From -- ./inp_files/30441.got.cif
#   From: 2010.03.12/outbox.cif.g09.slc.cpg/sg47_16_cif.got.tgz:30441.got - 2010.04.14 03:12:58.
