data_PCOD8199789
_publ_section_title
;
Structure prediction by ZEFSAII (Michael W. Deem and Ramdas Pophale) SiO2 
 PCOD8199789
Probable space group: P M M M
;
_chemical_formula_sum "Si O2"
_cell_formula_units_Z 48
_cell_length_a 8.983206
_cell_length_b 14.595441
_cell_length_c 18.135559
_cell_angle_alpha 90.000000
_cell_angle_beta 90.000000
_cell_angle_gamma 90.000000
_cell_volume 2377.823020
_symmetry_space_group_name_H-M "P M M M"
_symmetry_group_IT_number 47
_symmetry_cell_setting 'orthorhombic'
loop_
_space_group_symop_operation_xyz
x,y,z
-x,-y,z
x,-y,-z
-x,y,-z
-x,-y,-z
x,y,-z
-x,y,z
x,-y,z
loop_
_atom_site_type_symbol
_atom_site_label
_atom_site_fract_x
_atom_site_fract_y
_atom_site_fract_z
Si Si1 0.323585 0.901750 0.916754
Si Si2 0.824040 0.895401 0.351715
Si Si3 0.327045 0.727898 0.294925
Si Si4 0.666531 0.891634 0.500000
Si Si5 0.673130 0.290889 0.132128
Si Si6 0.171873 0.393205 0.583949
Si Si7 0.826076 0.605954 0.000000
O O1 0.500000 0.904780 0.915624
O O2 0.267398 0.814243 0.871080
O O3 0.262974 0.000000 0.885135
O O4 0.265759 0.889308 0.000000
O O5 0.758832 0.825496 0.291599
O O6 0.756496 0.858913 0.428638
O O7 0.000000 0.887707 0.356458
O O8 0.775050 0.000000 0.333747
O O9 0.500000 0.749717 0.306085
O O10 0.299644 0.677030 0.216418
O O11 0.272718 0.662881 0.360044
O O12 0.500000 0.849319 0.500000
O O13 0.657568 0.000000 0.500000
O O14 0.500000 0.296518 0.110202
O O15 0.761086 0.352896 0.075004
O O16 0.213535 0.366121 0.500000
O O17 0.203057 0.500000 0.596633
O O18 0.000000 0.370063 0.599611
O O19 0.785016 0.500000 0.000000
O O20 0.000000 0.624516 0.000000
#
# Coordination Sequence:
#
# PCOD8199789 Si02
#       7
#     8   8   8   4   8   8   4
#     4   8  13  25  52  85 111 141 185 231 272 322
#     4  10  21  37  56  80 116 164 210 247 291 351
#     4  11  24  37  57  91 125 158 195 243 302 356
#     4   9  17  31  53  79 108 145 196 257 305 341
#     4  10  21  39  61  87 120 156 195 237 286 349
#     4   9  20  41  66  87 110 148 197 246 301 365
#     4  11  25  43  64  89 116 152 195 241 298 355
#
# _framework density 20.186530999999999
#
# number of rings (size 3 to 8) (size 9 to 14) (size 15 to 20)
#    0.000    2.333    0.833    2.500    1.167    6.000 
#    0.000    5.833    0.000    1.000    0.000    0.000 
#    0.000    0.000    0.000    0.000    0.000    0.000 
#
# Total GULP energy -594988.679304 kJ/mol
# GULP energy per Si atom -12395.597485 kJ/mol
# Density = 2.014059 g / cm^3
# Si number density = 20.186531 Si / 1000 Ang^3
#
#
#
# Elastic Constant Matrix: (Units=GPa)
#
#
# Indices 1 2 3 4 5 6 
#
# 1 85.9738 54.2817 52.2171 0.0000 0.0000 0.0000
# 2 54.2817 105.3271 66.2210 0.0000 0.0000 0.0000
# 3 52.2171 66.2210 117.9041 0.0000 0.0000 0.0000
# 4 0.0000 0.0000 0.0000 16.6820 0.0000 0.0000
# 5 0.0000 0.0000 0.0000 0.0000 18.3720 0.0000
# 6 0.0000 0.0000 0.0000 0.0000 0.0000 30.9994
#
#
#
# Elastic Compliance Matrix: (Units=1/GPa)
#
#
# Indices 1 2 3 4 5 6 
#
# 1 0.018619 -0.006819 -0.004416 0.000000 0.000000 0.000000
# 2 -0.006819 0.017174 -0.006626 0.000000 0.000000 0.000000
# 3 -0.004416 -0.006626 0.014159 0.000000 0.000000 0.000000
# 4 0.000000 0.000000 0.000000 0.059945 0.000000 0.000000
# 5 0.000000 0.000000 0.000000 0.000000 0.054431 0.000000
# 6 0.000000 0.000000 0.000000 0.000000 0.000000 0.032259
#
#
# Mechanical properties :
#
#
# Convention : Reuss Voigt Hill
#
# Bulk Modulus (GPa) = 70.27447 72.73831 71.50639
# Shear Modulus (GPa) = 21.09245 22.30970 21.70107
#
# Velocity S-wave (km/s) = 3.23596 3.32803 3.28232
# Velocity P-wave (km/s) = 6.98928 7.13295 7.06148
#
# Compressibility (1/GPa) = 0.01422992
#
# Stress axis : x y z
#
# Youngs Moduli (GPa) = 53.70868 58.22596 70.62794
#
# Poissons Ratio (x) = 0.39705 0.31189
# Poissons Ratio (y) = 0.36625 0.46798
# Poissons Ratio (z) = 0.23717 0.38581
#
# Static dielectric constant tensor:
#      x y z
#    x 3.441590 0.000000 0.000000 
#    y 0.000000 3.899900 0.000000 
#    z 0.000000 0.000000 3.656440 
# 
# 
# High freq. dielectric constant tensor:
#      x y z
#    x 1.768060 0.000000 0.000000 
#    y 0.000000 1.791300 0.000000 
#    z 0.000000 0.000000 1.786300 
# 
# From -- ./inp_files/26557.got.cif
#   From: 2010.03.12/outbox.cif.g09.slc.cpg/sg47_14_cif.got.tgz:26557.got - 2010.04.14 03:12:58.
