data_PCOD8199927
_publ_section_title
;
Structure prediction by ZEFSAII (Michael W. Deem and Ramdas Pophale) SiO2 
 PCOD8199927
Probable space group: P M M M
;
_chemical_formula_sum "Si O2"
_cell_formula_units_Z 56
_cell_length_a 8.909718
_cell_length_b 15.653553
_cell_length_c 19.380083
_cell_angle_alpha 90.000000
_cell_angle_beta 90.000000
_cell_angle_gamma 90.000000
_cell_volume 2702.915814
_symmetry_space_group_name_H-M "P M M M"
_symmetry_group_IT_number 47
_symmetry_cell_setting 'orthorhombic'
loop_
_space_group_symop_operation_xyz
x,y,z
-x,-y,z
x,-y,-z
-x,y,-z
-x,-y,-z
x,y,-z
-x,y,z
x,-y,z
loop_
_atom_site_type_symbol
_atom_site_label
_atom_site_fract_x
_atom_site_fract_y
_atom_site_fract_z
Si Si1 0.673513 0.255651 0.921969
Si Si2 0.824103 0.740216 0.213816
Si Si3 0.675674 0.097684 0.714786
Si Si4 0.169865 0.352777 0.577932
Si Si5 0.671318 0.404886 0.703576
Si Si6 0.163354 0.908627 0.919920
Si Si7 0.826256 0.152509 0.577774
O O1 0.500000 0.278664 0.914034
O O2 0.768310 0.298291 0.860632
O O3 0.700193 0.155407 0.906414
O O4 0.728787 0.280343 0.000000
O O5 0.756547 0.833039 0.234944
O O6 0.780826 0.665838 0.265725
O O7 0.000000 0.750916 0.213796
O O8 0.500000 0.118029 0.717662
O O9 0.729052 0.104775 0.635455
O O10 0.709053 0.000000 0.739387
O O11 0.196363 0.381774 0.500000
O O12 0.288279 0.406387 0.622794
O O13 0.200306 0.252653 0.586805
O O14 0.000000 0.374345 0.600797
O O15 0.500000 0.376809 0.715382
O O16 0.697773 0.500000 0.734455
O O17 0.000000 0.874691 0.891419
O O18 0.202494 0.000000 0.885267
O O19 0.144047 0.922424 0.000000
O O20 0.778133 0.124152 0.500000
O O21 0.000000 0.129480 0.589771
#
# Coordination Sequence:
#
# PCOD8199927 Si02
#       7
#     8   8   8   8   8   8   8
#     4  10  21  37  59  86 115 149 188 233 292 359
#     4  12  25  42  65  89 119 158 200 249 299 354
#     4  11  24  40  59  86 121 161 207 257 308 361
#     4   9  18  34  58  89 124 162 203 247 298 354
#     4  11  24  41  63  92 125 160 199 245 301 363
#     4   8  14  26  45  71 105 143 183 227 273 326
#     4   9  18  34  57  85 118 159 206 254 305 357
#
# _framework density 20.718366
#
# number of rings (size 3 to 8) (size 9 to 14) (size 15 to 20)
#    0.000    2.000    1.429    3.857    0.000    5.143 
#    0.000    5.714    0.000    0.429    0.000    3.000 
#    0.000    0.000    0.000    0.000    0.000    0.000 
#
# Total GULP energy -693811.213915 kJ/mol
# GULP energy per Si atom -12389.485963 kJ/mol
# Density = 2.067121 g / cm^3
# Si number density = 20.718366 Si / 1000 Ang^3
#
#
#
# Elastic Constant Matrix: (Units=GPa)
#
#
# Indices 1 2 3 4 5 6 
#
# 1 105.4371 32.2308 48.3372 0.0000 0.0000 0.0000
# 2 32.2308 70.9189 26.4540 0.0000 0.0000 0.0000
# 3 48.3372 26.4540 113.2454 0.0000 0.0000 0.0000
# 4 0.0000 0.0000 0.0000 7.9992 0.0000 0.0000
# 5 0.0000 0.0000 0.0000 0.0000 32.1818 0.0000
# 6 0.0000 0.0000 0.0000 0.0000 0.0000 -2.5294
#
#
#
# Elastic Compliance Matrix: (Units=1/GPa)
#
#
# Indices 1 2 3 4 5 6 
#
# 1 0.012815 -0.004145 -0.004502 0.000000 0.000000 0.000000
# 2 -0.004145 0.016787 -0.002152 0.000000 0.000000 0.000000
# 3 -0.004502 -0.002152 0.011255 0.000000 0.000000 0.000000
# 4 0.000000 0.000000 0.000000 0.125013 0.000000 0.000000
# 5 0.000000 0.000000 0.000000 0.000000 0.031073 0.000000
# 6 0.000000 0.000000 0.000000 0.000000 0.000000 -0.395347
#
#
# Mechanical properties :
#
#
# Convention : Reuss Voigt Hill
#
# Bulk Modulus (GPa) = 51.92328 55.96058 53.94193
# Shear Modulus (GPa) = -29.34522 19.70227 -4.82148
#
# Velocity S-wave (km/s) = -3.76757 3.08710 -1.52716
# Velocity P-wave (km/s) = 2.48792 6.30680 4.79403
#
# Compressibility (1/GPa) = 0.01925919
#
# Stress axis : x y z
#
# Youngs Moduli (GPa) = 78.03247 59.56910 88.85222
#
# Poissons Ratio (x) = 0.24691 0.39999
# Poissons Ratio (y) = 0.32344 0.19123
# Poissons Ratio (z) = 0.35128 0.12821
#
# Static dielectric constant tensor:
#      x y z
#    x 3.635140 0.000000 0.000000 
#    y 0.000000 3.607850 0.000000 
#    z 0.000000 0.000000 4.058840 
# 
# 
# High freq. dielectric constant tensor:
#      x y z
#    x 1.805240 0.000000 0.000000 
#    y 0.000000 1.783470 0.000000 
#    z 0.000000 0.000000 1.820510 
# 
# From -- ./inp_files/29717.got.cif
#   From: 2010.03.12/outbox.cif.g09.slc.cpg/sg47_15_cif.got.tgz:29717.got - 2010.04.14 03:12:58.
