data_PCOD8199459
_publ_section_title
;
Structure prediction by ZEFSAII (Michael W. Deem and Ramdas Pophale) SiO2 
 PCOD8199459
Probable space group: P M M M
;
_chemical_formula_sum "Si O2"
_cell_formula_units_Z 44
_cell_length_a 9.112542
_cell_length_b 9.105547
_cell_length_c 28.386548
_cell_angle_alpha 90.000000
_cell_angle_beta 90.000000
_cell_angle_gamma 90.000000
_cell_volume 2355.364722
_symmetry_space_group_name_H-M "P M M M"
_symmetry_group_IT_number 47
_symmetry_cell_setting 'orthorhombic'
loop_
_space_group_symop_operation_xyz
x,y,z
-x,-y,z
x,-y,-z
-x,y,-z
-x,-y,-z
x,y,-z
-x,y,z
x,-y,z
loop_
_atom_site_type_symbol
_atom_site_label
_atom_site_fract_x
_atom_site_fract_y
_atom_site_fract_z
Si Si1 0.670621 0.330588 0.681068
Si Si2 0.331182 0.173793 0.500000
Si Si3 0.171087 0.670761 0.415265
Si Si4 0.831660 0.826936 0.235896
Si Si5 0.827991 0.667809 0.142056
Si Si6 0.665932 0.674533 0.948656
O O1 0.500000 0.297956 0.672057
O O2 0.697869 0.500000 0.694234
O O3 0.760023 0.286679 0.634688
O O4 0.728233 0.231108 0.723099
O O5 0.500000 0.225770 0.500000
O O6 0.251607 0.234011 0.545887
O O7 0.318441 0.000000 0.500000
O O8 0.195853 0.500000 0.426931
O O9 0.000000 0.711168 0.414555
O O10 0.773922 0.759729 0.186934
O O11 0.000000 0.778797 0.245524
O O12 0.816509 0.000000 0.232787
O O13 0.776584 0.500000 0.149496
O O14 0.759992 0.738460 0.094607
O O15 0.000000 0.679293 0.135859
O O16 0.500000 0.728306 0.941750
O O17 0.675152 0.500000 0.947740
O O18 0.724400 0.729844 0.000000
#
# Coordination Sequence:
#
# PCOD8199459 Si02
#       6
#     8   4   8   8   8   8
#     4  10  21  37  58  83 108 136 173 217 264 312
#     4  11  24  39  56  82 116 151 184 219 260 306
#     4  10  21  38  61  86 110 140 179 220 263 312
#     4  10  21  36  53  74 103 139 175 212 258 311
#     4   9  17  29  47  71  97 126 163 208 254 301
#     4   8  14  25  42  66  95 124 156 199 251 303
#
# _framework density 18.680758999999998
#
# number of rings (size 3 to 8) (size 9 to 14) (size 15 to 20)
#    0.000    2.455    0.000    2.727    0.000    6.909 
#    0.000    3.636    0.000    0.545    0.000    3.818 
#    0.000    0.000    0.000    0.000    0.000    0.000 
#
# Total GULP energy -545605.915915 kJ/mol
# GULP energy per Si atom -12400.134453 kJ/mol
# Density = 1.863824 g / cm^3
# Si number density = 18.680759 Si / 1000 Ang^3
#
#
#
# Elastic Constant Matrix: (Units=GPa)
#
#
# Indices 1 2 3 4 5 6 
#
# 1 102.5690 42.5045 79.3221 0.0000 0.0000 0.0000
# 2 42.5045 55.6954 58.1917 0.0000 0.0000 0.0000
# 3 79.3221 58.1917 169.9536 0.0000 0.0000 0.0000
# 4 0.0000 0.0000 0.0000 -10.0003 0.0000 0.0000
# 5 0.0000 0.0000 0.0000 0.0000 54.1736 0.0000
# 6 0.0000 0.0000 0.0000 0.0000 0.0000 22.8092
#
#
#
# Elastic Compliance Matrix: (Units=1/GPa)
#
#
# Indices 1 2 3 4 5 6 
#
# 1 0.016959 -0.007275 -0.005424 0.000000 0.000000 0.000000
# 2 -0.007275 0.031077 -0.007245 0.000000 0.000000 0.000000
# 3 -0.005424 -0.007245 0.010896 0.000000 0.000000 0.000000
# 4 0.000000 0.000000 0.000000 -0.099997 0.000000 0.000000
# 5 0.000000 0.000000 0.000000 0.000000 0.018459 0.000000
# 6 0.000000 0.000000 0.000000 0.000000 0.000000 0.043842
#
#
# Mechanical properties :
#
#
# Convention : Reuss Voigt Hill
#
# Bulk Modulus (GPa) = 52.51229 76.47272 64.49251
# Shear Modulus (GPa) = 74.10277 23.27648 48.68962
#
# Velocity S-wave (km/s) = 6.30508 3.53372 5.11083
# Velocity P-wave (km/s) = 9.00982 7.59441 8.33222
#
# Compressibility (1/GPa) = 0.01904316
#
# Stress axis : x y z
#
# Youngs Moduli (GPa) = 58.96451 32.17843 91.77370
#
# Poissons Ratio (x) = 0.23410 0.49782
# Poissons Ratio (y) = 0.42898 0.66491
# Poissons Ratio (z) = 0.31985 0.23313
#
# Static dielectric constant tensor:
#      x y z
#    x 3.511890 0.000000 0.000000 
#    y 0.000000 3.185960 0.000000 
#    z 0.000000 0.000000 3.850590 
# 
# 
# High freq. dielectric constant tensor:
#      x y z
#    x 1.726710 0.000000 0.000000 
#    y 0.000000 1.696800 0.000000 
#    z 0.000000 0.000000 1.743630 
# 
# From -- ./inp_files/2124.got.cif
#   From: 2010.03.12/outbox.cif.g09.slc.cpg/sg47_2_cif.got.tgz:2124.got - 2010.04.14 03:12:58.
