data_PCOD8199109
_publ_section_title
;
Structure prediction by ZEFSAII (Michael W. Deem and Ramdas Pophale) SiO2 
 PCOD8199109
Probable space group: P M M M
;
_chemical_formula_sum "Si O2"
_cell_formula_units_Z 64
_cell_length_a 24.267142
_cell_length_b 14.999174
_cell_length_c 9.126308
_cell_angle_alpha 90.000000
_cell_angle_beta 90.000000
_cell_angle_gamma 90.000000
_cell_volume 3321.858249
_symmetry_space_group_name_H-M "P M M M"
_symmetry_group_IT_number 47
_symmetry_cell_setting 'orthorhombic'
loop_
_space_group_symop_operation_xyz
x,y,z
-x,-y,z
x,-y,-z
-x,y,-z
-x,-y,-z
x,y,-z
-x,y,z
x,-y,z
loop_
_atom_site_type_symbol
_atom_site_label
_atom_site_fract_x
_atom_site_fract_y
_atom_site_fract_z
Si Si1 0.821509 0.230858 0.174257
Si Si2 0.373158 0.100126 0.167341
Si Si3 0.940322 0.234713 0.170099
Si Si4 0.063998 0.404113 0.659046
Si Si5 0.438590 0.729014 0.170892
Si Si6 0.262155 0.103228 0.331473
Si Si7 0.646429 0.602249 0.329499
Si Si8 0.771780 0.602244 0.672852
O O1 0.882533 0.188050 0.214907
O O2 0.779006 0.160036 0.234527
O O3 0.812452 0.328775 0.245760
O O4 0.815347 0.240833 0.000000
O O5 0.422164 0.168473 0.202081
O O6 0.323400 0.122427 0.276019
O O7 0.395439 0.000000 0.194922
O O8 0.352174 0.110631 0.000000
O O9 0.925724 0.336330 0.209680
O O10 0.000000 0.203671 0.243600
O O11 0.949768 0.226126 0.000000
O O12 0.087432 0.370245 0.500000
O O13 0.091764 0.500000 0.697154
O O14 0.000000 0.418818 0.640131
O O15 0.500000 0.714344 0.234910
O O16 0.395928 0.662712 0.243515
O O17 0.437827 0.708344 0.000000
O O18 0.258201 0.133535 0.500000
O O19 0.246611 0.000000 0.311984
O O20 0.638096 0.620127 0.500000
O O21 0.633778 0.500000 0.290590
O O22 0.708893 0.626302 0.283187
O O23 0.779557 0.613254 0.500000
O O24 0.784887 0.500000 0.719270
#
# Coordination Sequence:
#
# PCOD8199109 Si02
#       8
#     8   8   8   8   8   8   8   8
#     4  11  22  34  53  80 107 136 171 214 261 310
#     4   9  18  34  56  80 107 139 172 207 251 305
#     4   9  19  34  48  65  94 132 170 205 245 297
#     4   8  14  25  41  61  85 116 158 204 243 281
#     4  10  21  34  49  75 109 142 177 215 255 301
#     4  10  21  37  58  83 108 133 165 210 264 319
#     4   9  19  36  55  73  96 132 178 223 266 310
#     4   9  19  36  56  78 106 140 177 219 268 318
#
# _framework density 19.266324999999998
#
# number of rings (size 3 to 8) (size 9 to 14) (size 15 to 20)
#    0.000    2.625    0.000    2.625    0.000    6.750 
#    0.000    7.500    0.000    0.375    0.000    5.250 
#    0.000    0.000    0.000    0.000    0.000    0.000 
#
# Total GULP energy -792840.504651 kJ/mol
# GULP energy per Si atom -12388.132885 kJ/mol
# Density = 1.922247 g / cm^3
# Si number density = 19.266325 Si / 1000 Ang^3
#
#
#
# Elastic Constant Matrix: (Units=GPa)
#
#
# Indices 1 2 3 4 5 6 
#
# 1 134.0532 45.6220 38.0013 0.0000 0.0000 0.0000
# 2 45.6220 56.4687 25.9835 0.0000 0.0000 0.0000
# 3 38.0013 25.9835 43.3793 0.0000 0.0000 0.0000
# 4 0.0000 0.0000 0.0000 28.4973 0.0000 0.0000
# 5 0.0000 0.0000 0.0000 0.0000 7.3421 0.0000
# 6 0.0000 0.0000 0.0000 0.0000 0.0000 -3.3184
#
#
#
# Elastic Compliance Matrix: (Units=1/GPa)
#
#
# Indices 1 2 3 4 5 6 
#
# 1 0.011365 -0.006351 -0.006152 0.000000 0.000000 0.000000
# 2 -0.006351 0.027996 -0.011205 0.000000 0.000000 0.000000
# 3 -0.006152 -0.011205 0.035153 0.000000 0.000000 0.000000
# 4 0.000000 0.000000 0.000000 0.035091 0.000000 0.000000
# 5 0.000000 0.000000 0.000000 0.000000 0.136201 0.000000
# 6 0.000000 0.000000 0.000000 0.000000 0.000000 -0.301348
#
#
# Mechanical properties :
#
#
# Convention : Reuss Voigt Hill
#
# Bulk Modulus (GPa) = 36.90333 50.34609 43.62471
# Shear Modulus (GPa) = 5501.18086 14.79048 2757.98567
#
# Velocity S-wave (km/s) = 53.49330 2.77372 37.87629
# Velocity P-wave (km/s) = 61.92394 6.03709 43.99443
#
# Compressibility (1/GPa) = 0.02709783
#
# Stress axis : x y z
#
# Youngs Moduli (GPa) = 87.98785 35.71886 28.44676
#
# Poissons Ratio (x) = 0.22687 0.17500
# Poissons Ratio (y) = 0.55885 0.31876
# Poissons Ratio (z) = 0.54128 0.40024
#
# Static dielectric constant tensor:
#      x y z
#    x 3.852400 0.000000 0.000000 
#    y 0.000000 3.500340 0.000000 
#    z 0.000000 0.000000 3.467460 
# 
# 
# High freq. dielectric constant tensor:
#      x y z
#    x 1.760420 0.000000 0.000000 
#    y 0.000000 1.731710 0.000000 
#    z 0.000000 0.000000 1.739200 
# 
# From -- ./inp_files/12684.got.cif
#   From: 2010.03.12/outbox.cif.g09.slc.cpg/sg47_7_cif.got.tgz:12684.got - 2010.04.14 03:12:58.
