data_PCOD8199853
_publ_section_title
;
Structure prediction by ZEFSAII (Michael W. Deem and Ramdas Pophale) SiO2 
 PCOD8199853
Probable space group: P M M M
;
_chemical_formula_sum "Si O2"
_cell_formula_units_Z 48
_cell_length_a 15.499621
_cell_length_b 17.102720
_cell_length_c 9.295112
_cell_angle_alpha 90.000000
_cell_angle_beta 90.000000
_cell_angle_gamma 90.000000
_cell_volume 2464.001067
_symmetry_space_group_name_H-M "P M M M"
_symmetry_group_IT_number 47
_symmetry_cell_setting 'orthorhombic'
loop_
_space_group_symop_operation_xyz
x,y,z
-x,-y,z
x,-y,-z
-x,y,-z
-x,-y,-z
x,y,-z
-x,y,z
x,-y,z
loop_
_atom_site_type_symbol
_atom_site_label
_atom_site_fract_x
_atom_site_fract_y
_atom_site_fract_z
Si Si1 0.901658 0.817799 0.829943
Si Si2 0.754639 0.089747 0.667528
Si Si3 0.100377 0.359006 0.160405
Si Si4 0.598773 0.347719 0.841462
Si Si5 0.599552 0.200201 0.332919
Si Si6 0.833190 0.500000 0.656749
Si Si7 0.366876 0.500000 0.659097
O O1 0.834724 0.873834 0.752093
O O2 0.882207 0.728500 0.782588
O O3 0.000000 0.840149 0.786220
O O4 0.890511 0.826320 0.000000
O O5 0.775253 0.099565 0.500000
O O6 0.662440 0.128442 0.706340
O O7 0.746547 0.000000 0.713506
O O8 0.145025 0.420804 0.262212
O O9 0.000000 0.377575 0.157851
O O10 0.138440 0.368936 0.000000
O O11 0.500000 0.328110 0.865623
O O12 0.637568 0.273923 0.755685
O O13 0.605425 0.425238 0.748791
O O14 0.643143 0.356807 0.000000
O O15 0.606014 0.222654 0.500000
O O16 0.500000 0.178344 0.293967
O O17 0.879051 0.500000 0.500000
O O18 0.733088 0.500000 0.634610
O O19 0.411158 0.500000 0.500000
#
# Coordination Sequence:
#
# PCOD8199853 Si02
#       7
#     8   8   8   8   8   4   4
#     4   9  20  39  61  85 113 149 193 236 282 339
#     4  10  22  38  58  87 119 149 185 232 284 339
#     4   9  19  37  58  78 104 142 186 229 275 328
#     4  10  21  37  57  81 108 141 186 236 280 324
#     4   9  19  37  60  84 114 153 191 229 280 340
#     4  11  24  35  48  78 114 145 182 227 272 322
#     4  11  24  37  50  76 114 151 186 225 272 328
#
# _framework density 19.480511
#
# number of rings (size 3 to 8) (size 9 to 14) (size 15 to 20)
#    0.000    2.333    0.000    2.500    2.333    7.333 
#    0.000    5.000    0.000    0.000    0.000    3.500 
#    0.000    0.000    0.000    0.000    0.000    0.000 
#
# Total GULP energy -595033.290781 kJ/mol
# GULP energy per Si atom -12396.526891 kJ/mol
# Density = 1.943617 g / cm^3
# Si number density = 19.480511 Si / 1000 Ang^3
#
#
#
# Elastic Constant Matrix: (Units=GPa)
#
#
# Indices 1 2 3 4 5 6 
#
# 1 90.9079 65.9582 45.4647 0.0000 0.0000 0.0000
# 2 65.9582 157.1128 73.1005 0.0000 0.0000 0.0000
# 3 45.4647 73.1005 106.2677 0.0000 0.0000 0.0000
# 4 0.0000 0.0000 0.0000 28.3058 0.0000 0.0000
# 5 0.0000 0.0000 0.0000 0.0000 39.4163 0.0000
# 6 0.0000 0.0000 0.0000 0.0000 0.0000 37.1241
#
#
#
# Elastic Compliance Matrix: (Units=1/GPa)
#
#
# Indices 1 2 3 4 5 6 
#
# 1 0.016612 -0.005394 -0.003397 0.000000 0.000000 0.000000
# 2 -0.005394 0.011112 -0.005336 0.000000 0.000000 0.000000
# 3 -0.003397 -0.005336 0.014534 0.000000 0.000000 0.000000
# 4 0.000000 0.000000 0.000000 0.035328 0.000000 0.000000
# 5 0.000000 0.000000 0.000000 0.000000 0.025370 0.000000
# 6 0.000000 0.000000 0.000000 0.000000 0.000000 0.026937
#
#
# Mechanical properties :
#
#
# Convention : Reuss Voigt Hill
#
# Bulk Modulus (GPa) = 71.40404 80.37059 75.88731
# Shear Modulus (GPa) = 30.70945 32.28690 31.49818
#
# Velocity S-wave (km/s) = 3.97472 4.07553 4.02544
# Velocity P-wave (km/s) = 7.60251 7.96825 7.78753
#
# Compressibility (1/GPa) = 0.01400481
#
# Stress axis : x y z
#
# Youngs Moduli (GPa) = 60.19605 89.99305 68.80227
#
# Poissons Ratio (x) = 0.48538 0.23373
# Poissons Ratio (y) = 0.32467 0.36715
# Poissons Ratio (z) = 0.20450 0.48023
#
# Static dielectric constant tensor:
#      x y z
#    x 3.550500 0.000000 0.000000 
#    y 0.000000 3.491160 0.000000 
#    z 0.000000 0.000000 3.972460 
# 
# 
# High freq. dielectric constant tensor:
#      x y z
#    x 1.759300 0.000000 0.000000 
#    y 0.000000 1.757900 0.000000 
#    z 0.000000 0.000000 1.760490 
# 
# From -- ./inp_files/6475.got.cif
#   From: 2010.03.12/outbox.cif.g09.slc.cpg/sg47_4_cif.got.tgz:6475.got - 2010.04.14 03:12:58.
