data_PCOD8199728
_publ_section_title
;
Structure prediction by ZEFSAII (Michael W. Deem and Ramdas Pophale) SiO2 
 PCOD8199728
Probable space group: P M M M
;
_chemical_formula_sum "Si O2"
_cell_formula_units_Z 40
_cell_length_a 8.973116
_cell_length_b 9.449630
_cell_length_c 25.522326
_cell_angle_alpha 90.000000
_cell_angle_beta 90.000000
_cell_angle_gamma 90.000000
_cell_volume 2164.105047
_symmetry_space_group_name_H-M "P M M M"
_symmetry_group_IT_number 47
_symmetry_cell_setting 'orthorhombic'
loop_
_space_group_symop_operation_xyz
x,y,z
-x,-y,z
x,-y,-z
-x,y,-z
-x,-y,-z
x,y,-z
-x,y,z
x,-y,z
loop_
_atom_site_type_symbol
_atom_site_label
_atom_site_fract_x
_atom_site_fract_y
_atom_site_fract_z
Si Si1 0.172916 0.335850 0.654375
Si Si2 0.822837 0.159399 0.557523
Si Si3 0.825676 0.164596 0.852572
Si Si4 0.324251 0.662372 0.760885
Si Si5 0.328501 0.337869 0.060878
O O1 0.198983 0.500000 0.644082
O O2 0.241574 0.257169 0.603716
O O3 0.259948 0.283864 0.705653
O O4 0.000000 0.298995 0.662846
O O5 0.766423 0.210948 0.500000
O O6 0.000000 0.166454 0.558325
O O7 0.767732 0.000000 0.567667
O O8 0.739127 0.239192 0.805870
O O9 0.777543 0.233322 0.907404
O O10 0.000000 0.188002 0.844268
O O11 0.783110 0.000000 0.853494
O O12 0.500000 0.677803 0.759629
O O13 0.275779 0.500000 0.771441
O O14 0.500000 0.307668 0.075594
O O15 0.289177 0.500000 0.074892
O O16 0.299978 0.308498 0.000000
#
# Coordination Sequence:
#
# PCOD8199728 Si02
#       5
#     8   8   8   8   8
#     4   9  17  29  47  72  99 126 160 205 254 301
#     4   8  14  25  42  66  96 128 161 199 245 296
#     4  11  24  38  53  78 110 140 172 213 259 305
#     4  10  21  37  56  76 100 133 173 215 259 310
#     4   9  19  37  60  84 109 139 176 214 252 299
#
# _framework density 18.483391000000001
#
# number of rings (size 3 to 8) (size 9 to 14) (size 15 to 20)
#    0.000    2.600    0.000    3.000    0.000    7.600 
#    0.000    7.000    0.000    0.600    0.000    4.200 
#    0.000    0.000    0.000    0.000    0.000    0.000 
#
# Total GULP energy -495993.342279 kJ/mol
# GULP energy per Si atom -12399.833557 kJ/mol
# Density = 1.844132 g / cm^3
# Si number density = 18.483391 Si / 1000 Ang^3
#
#
#
# Elastic Constant Matrix: (Units=GPa)
#
#
# Indices 1 2 3 4 5 6 
#
# 1 47.4499 35.7989 40.9592 0.0000 0.0000 0.0000
# 2 35.7989 87.4918 71.0915 0.0000 0.0000 0.0000
# 3 40.9592 71.0915 139.9630 0.0000 0.0000 0.0000
# 4 0.0000 0.0000 0.0000 14.0471 0.0000 0.0000
# 5 0.0000 0.0000 0.0000 0.0000 -3.6149 0.0000
# 6 0.0000 0.0000 0.0000 0.0000 0.0000 23.1188
#
#
#
# Elastic Compliance Matrix: (Units=1/GPa)
#
#
# Indices 1 2 3 4 5 6 
#
# 1 0.032167 -0.009387 -0.004645 0.000000 0.000000 0.000000
# 2 -0.009387 0.022201 -0.008530 0.000000 0.000000 0.000000
# 3 -0.004645 -0.008530 0.012837 0.000000 0.000000 0.000000
# 4 0.000000 0.000000 0.000000 0.071189 0.000000 0.000000
# 5 0.000000 0.000000 0.000000 0.000000 -0.276635 0.000000
# 6 0.000000 0.000000 0.000000 0.000000 0.000000 0.043255
#
#
# Mechanical properties :
#
#
# Convention : Reuss Voigt Hill
#
# Bulk Modulus (GPa) = 45.28862 63.40045 54.34453
# Shear Modulus (GPa) = -117.64244 15.18055 -51.23095
#
# Velocity S-wave (km/s) = -7.98660 2.86896 -5.27043
# Velocity P-wave (km/s) = 7.77768 6.73426 2.75154
#
# Compressibility (1/GPa) = 0.02208060
#
# Stress axis : x y z
#
# Youngs Moduli (GPa) = 31.08776 45.04238 77.90171
#
# Poissons Ratio (x) = 0.42282 0.36189
# Poissons Ratio (y) = 0.29182 0.66448
# Poissons Ratio (z) = 0.14442 0.38420
#
# Static dielectric constant tensor:
#      x y z
#    x 3.179880 0.000000 0.000000 
#    y 0.000000 3.452220 0.000000 
#    z 0.000000 0.000000 3.712070 
# 
# 
# High freq. dielectric constant tensor:
#      x y z
#    x 1.693300 0.000000 0.000000 
#    y 0.000000 1.712020 0.000000 
#    z 0.000000 0.000000 1.733750 
# 
# From -- ./inp_files/1368.got.cif
#   From: 2010.03.12/outbox.cif.g09.slc.cpg/sg47_1_cif.got.tgz:1368.got - 2010.04.14 03:12:58.
