data_PCOD8199637
_publ_section_title
;
Structure prediction by ZEFSAII (Michael W. Deem and Ramdas Pophale) SiO2 
 PCOD8199637
Probable space group: P M M M
;
_chemical_formula_sum "Si O2"
_cell_formula_units_Z 48
_cell_length_a 9.536267
_cell_length_b 9.266161
_cell_length_c 27.521133
_cell_angle_alpha 90.000000
_cell_angle_beta 90.000000
_cell_angle_gamma 90.000000
_cell_volume 2431.893506
_symmetry_space_group_name_H-M "P M M M"
_symmetry_group_IT_number 47
_symmetry_cell_setting 'orthorhombic'
loop_
_space_group_symop_operation_xyz
x,y,z
-x,-y,z
x,-y,-z
-x,y,-z
-x,-y,-z
x,y,-z
-x,y,z
x,-y,z
loop_
_atom_site_type_symbol
_atom_site_label
_atom_site_fract_x
_atom_site_fract_y
_atom_site_fract_z
Si Si1 0.337848 0.670478 0.229714
Si Si2 0.500000 0.341586 0.943165
Si Si3 0.771830 0.830034 0.055356
Si Si4 0.661327 0.167690 0.405925
Si Si5 0.666367 0.337898 0.500000
Si Si6 0.837059 0.169112 0.688546
Si Si7 0.849001 0.338225 0.858612
O O1 0.500000 0.720736 0.231257
O O2 0.324461 0.500000 0.237577
O O3 0.247949 0.747807 0.270542
O O4 0.271824 0.716100 0.177847
O O5 0.500000 0.500000 0.917626
O O6 0.631170 0.248222 0.927299
O O7 0.500000 0.364405 0.000000
O O8 0.876889 0.767047 0.095121
O O9 0.754508 0.000000 0.060202
O O10 0.816779 0.790641 0.000000
O O11 0.500000 0.208362 0.392681
O O12 0.718937 0.256068 0.451975
O O13 0.763415 0.209516 0.362038
O O14 0.671956 0.000000 0.419159
O O15 0.727093 0.500000 0.500000
O O16 0.500000 0.338125 0.500000
O O17 0.000000 0.217364 0.687226
O O18 0.824250 0.000000 0.699340
O O19 0.813396 0.500000 0.877274
O O20 0.000000 0.338128 0.831164
#
# Coordination Sequence:
#
# PCOD8199637 Si02
#       7
#     8   4   8   8   4   8   8
#     4  10  22  40  62  87 113 143 184 234 285 337
#     4   9  17  31  53  79 107 141 179 219 265 316
#     4  10  21  36  55  82 115 147 183 228 278 331
#     4   9  17  31  52  77 108 148 192 235 281 334
#     4   9  17  29  48  77 110 144 188 241 288 329
#     4  10  21  37  58  85 116 150 189 233 284 342
#     4  10  22  39  58  82 113 149 189 231 277 335
#
# _framework density 19.737704999999998
#
# number of rings (size 3 to 8) (size 9 to 14) (size 15 to 20)
#    0.000    2.333    0.000    2.000    1.167    7.000 
#    0.000    3.750    0.000    2.500    0.000    0.000 
#    0.000    0.000    0.000    0.000    0.000    0.000 
#
# Total GULP energy -594943.736580 kJ/mol
# GULP energy per Si atom -12394.661179 kJ/mol
# Density = 1.969278 g / cm^3
# Si number density = 19.737705 Si / 1000 Ang^3
#
#
#
# Elastic Constant Matrix: (Units=GPa)
#
#
# Indices 1 2 3 4 5 6 
#
# 1 131.7714 42.4252 69.9790 0.0000 0.0000 0.0000
# 2 42.4252 84.8228 71.7684 0.0000 0.0000 0.0000
# 3 69.9790 71.7684 149.2772 0.0000 0.0000 0.0000
# 4 0.0000 0.0000 0.0000 37.8599 0.0000 0.0000
# 5 0.0000 0.0000 0.0000 0.0000 11.8707 0.0000
# 6 0.0000 0.0000 0.0000 0.0000 0.0000 25.0459
#
#
#
# Elastic Compliance Matrix: (Units=1/GPa)
#
#
# Indices 1 2 3 4 5 6 
#
# 1 0.010263 -0.001791 -0.003950 0.000000 0.000000 0.000000
# 2 -0.001791 0.020186 -0.008865 0.000000 0.000000 0.000000
# 3 -0.003950 -0.008865 0.012813 0.000000 0.000000 0.000000
# 4 0.000000 0.000000 0.000000 0.026413 0.000000 0.000000
# 5 0.000000 0.000000 0.000000 0.000000 0.084241 0.000000
# 6 0.000000 0.000000 0.000000 0.000000 0.000000 0.039927
#
#
# Mechanical properties :
#
#
# Convention : Reuss Voigt Hill
#
# Bulk Modulus (GPa) = 71.17845 81.57962 76.37904
# Shear Modulus (GPa) = 21.95492 27.06855 24.51173
#
# Velocity S-wave (km/s) = 3.33878 3.70728 3.52785
# Velocity P-wave (km/s) = 7.14169 7.72961 7.44146
#
# Compressibility (1/GPa) = 0.01404920
#
# Stress axis : x y z
#
# Youngs Moduli (GPa) = 97.43391 49.53931 78.04624
#
# Poissons Ratio (x) = 0.08873 0.30830
# Poissons Ratio (y) = 0.17451 0.69190
# Poissons Ratio (z) = 0.38488 0.43918
#
# Static dielectric constant tensor:
#      x y z
#    x 3.726350 0.000000 0.000000 
#    y 0.000000 3.568360 0.000000 
#    z 0.000000 0.000000 3.552270 
# 
# 
# High freq. dielectric constant tensor:
#      x y z
#    x 1.770810 0.000000 0.000000 
#    y 0.000000 1.764450 0.000000 
#    z 0.000000 0.000000 1.766200 
# 
# From -- ./inp_files/34213.got.cif
#   From: 2010.03.12/outbox.cif.g09.slc.cpg/sg47_18_cif.got.tgz:34213.got - 2010.04.14 03:12:58.
