data_PCOD8199879
_publ_section_title
;
Structure prediction by ZEFSAII (Michael W. Deem and Ramdas Pophale) SiO2 
 PCOD8199879
Probable space group: P M M M
;
_chemical_formula_sum "Si O2"
_cell_formula_units_Z 32
_cell_length_a 12.989656
_cell_length_b 14.675786
_cell_length_c 8.189695
_cell_angle_alpha 90.000000
_cell_angle_beta 90.000000
_cell_angle_gamma 90.000000
_cell_volume 1561.229498
_symmetry_space_group_name_H-M "P M M M"
_symmetry_group_IT_number 47
_symmetry_cell_setting 'orthorhombic'
loop_
_space_group_symop_operation_xyz
x,y,z
-x,-y,z
x,-y,-z
-x,y,-z
-x,-y,-z
x,y,-z
-x,y,z
x,-y,z
loop_
_atom_site_type_symbol
_atom_site_label
_atom_site_fract_x
_atom_site_fract_y
_atom_site_fract_z
Si Si1 0.212861 0.100877 0.689104
Si Si2 0.756851 0.394693 0.814829
Si Si3 0.385553 0.767881 0.813156
Si Si4 0.000000 0.103547 0.190456
Si Si5 0.886217 0.392301 0.500000
O O1 0.202890 0.088178 0.500000
O O2 0.310766 0.162656 0.723751
O O3 0.106710 0.149603 0.749100
O O4 0.226386 0.000000 0.770784
O O5 0.726970 0.500000 0.789275
O O6 0.653440 0.335900 0.795923
O O7 0.832281 0.360801 0.669409
O O8 0.803823 0.380465 0.000000
O O9 0.500000 0.773412 0.735986
O O10 0.388918 0.797999 0.000000
O O11 0.000000 0.000000 0.257168
O O12 0.000000 0.109519 0.000000
O O13 0.893187 0.500000 0.500000
O O14 0.000000 0.348870 0.500000
#
# Coordination Sequence:
#
# PCOD8199879 Si02
#       5
#     8   8   8   4   4
#     4  10  21  37  57  83 115 149 186 231 285 341
#     4   9  19  37  59  84 116 152 192 239 290 343
#     4  10  22  39  58  82 112 148 192 240 287 337
#     4   9  17  33  59  85 110 143 184 231 279 336
#     4   9  18  34  57  85 116 151 193 238 286 344
#
# _framework density 20.496668
#
# number of rings (size 3 to 8) (size 9 to 14) (size 15 to 20)
#    0.000    2.500    0.000    1.125    1.750    5.000 
#    2.250    7.500    0.000    2.250    0.000    0.000 
#    0.000    0.000    0.000    0.000    0.000    0.000 
#
# Total GULP energy -396539.934658 kJ/mol
# GULP energy per Si atom -12391.872958 kJ/mol
# Density = 2.045002 g / cm^3
# Si number density = 20.496668 Si / 1000 Ang^3
#
#
#
# Elastic Constant Matrix: (Units=GPa)
#
#
# Indices 1 2 3 4 5 6 
#
# 1 185.9706 54.8677 67.3452 0.0000 0.0000 0.0000
# 2 54.8677 70.1910 30.0373 0.0000 0.0000 0.0000
# 3 67.3452 30.0373 107.8698 0.0000 0.0000 0.0000
# 4 0.0000 0.0000 0.0000 22.8152 0.0000 0.0000
# 5 0.0000 0.0000 0.0000 0.0000 9.2587 0.0000
# 6 0.0000 0.0000 0.0000 0.0000 0.0000 29.6073
#
#
#
# Elastic Compliance Matrix: (Units=1/GPa)
#
#
# Indices 1 2 3 4 5 6 
#
# 1 0.008141 -0.004756 -0.003759 0.000000 0.000000 0.000000
# 2 -0.004756 0.018952 -0.002308 0.000000 0.000000 0.000000
# 3 -0.003759 -0.002308 0.012260 0.000000 0.000000 0.000000
# 4 0.000000 0.000000 0.000000 0.043830 0.000000 0.000000
# 5 0.000000 0.000000 0.000000 0.000000 0.108006 0.000000
# 6 0.000000 0.000000 0.000000 0.000000 0.000000 0.033775
#
#
# Mechanical properties :
#
#
# Convention : Reuss Voigt Hill
#
# Bulk Modulus (GPa) = 56.47115 74.28130 65.37622
# Shear Modulus (GPa) = 19.80096 26.45500 23.12798
#
# Velocity S-wave (km/s) = 3.11152 3.59653 3.36278
# Velocity P-wave (km/s) = 6.36553 7.31888 6.85879
#
# Compressibility (1/GPa) = 0.01770816
#
# Stress axis : x y z
#
# Youngs Moduli (GPa) = 122.82986 52.76460 81.56773
#
# Poissons Ratio (x) = 0.25093 0.30658
# Poissons Ratio (y) = 0.58413 0.18829
# Poissons Ratio (z) = 0.46166 0.12180
#
# Static dielectric constant tensor:
#      x y z
#    x 3.489680 0.000000 0.000000 
#    y 0.000000 3.610600 0.000000 
#    z 0.000000 0.000000 3.835820 
# 
# 
# High freq. dielectric constant tensor:
#      x y z
#    x 1.792740 0.000000 0.000000 
#    y 0.000000 1.790280 0.000000 
#    z 0.000000 0.000000 1.807880 
# 
# From -- ./inp_files/3431.got.cif
#   From: 2010.03.12/outbox.cif.g09.slc.cpg/sg47_2_cif.got.tgz:3431.got - 2010.04.14 03:12:58.
