data_PCOD8199587
_publ_section_title
;
Structure prediction by ZEFSAII (Michael W. Deem and Ramdas Pophale) SiO2 
 PCOD8199587
Probable space group: P M M M
;
_chemical_formula_sum "Si O2"
_cell_formula_units_Z 64
_cell_length_a 15.499385
_cell_length_b 9.290730
_cell_length_c 23.761709
_cell_angle_alpha 90.000000
_cell_angle_beta 90.000000
_cell_angle_gamma 90.000000
_cell_volume 3421.700382
_symmetry_space_group_name_H-M "P M M M"
_symmetry_group_IT_number 47
_symmetry_cell_setting 'orthorhombic'
loop_
_space_group_symop_operation_xyz
x,y,z
-x,-y,z
x,-y,-z
-x,y,-z
-x,-y,-z
x,y,-z
-x,y,z
x,-y,z
loop_
_atom_site_type_symbol
_atom_site_label
_atom_site_fract_x
_atom_site_fract_y
_atom_site_fract_z
Si Si1 0.162473 0.335487 0.061660
Si Si2 0.593139 0.170843 0.822713
Si Si3 0.598722 0.666367 0.565546
Si Si4 0.243213 0.830345 0.244052
Si Si5 0.750411 0.169961 0.625972
Si Si6 0.098359 0.664965 0.434032
Si Si7 0.096379 0.665164 0.180000
Si Si8 0.663108 0.831200 0.061430
O O1 0.193556 0.500000 0.064211
O O2 0.097850 0.301698 0.112891
O O3 0.244735 0.237744 0.070993
O O4 0.119641 0.303900 0.000000
O O5 0.500000 0.228646 0.801149
O O6 0.670378 0.234389 0.784948
O O7 0.601470 0.219674 0.888004
O O8 0.595253 0.000000 0.818115
O O9 0.614532 0.696688 0.500000
O O10 0.500000 0.704954 0.581736
O O11 0.617908 0.500000 0.579211
O O12 0.663145 0.765069 0.600601
O O13 0.246256 0.787383 0.308945
O O14 0.159704 0.764002 0.215290
O O15 0.237452 0.000000 0.235355
O O16 0.836515 0.231171 0.597852
O O17 0.748245 0.000000 0.616356
O O18 0.112282 0.687102 0.500000
O O19 0.118044 0.500000 0.417503
O O20 0.000000 0.704712 0.417321
O O21 0.121609 0.500000 0.191433
O O22 0.000000 0.698073 0.201230
O O23 0.678239 0.000000 0.064958
O O24 0.624095 0.788290 0.000000
#
# Coordination Sequence:
#
# PCOD8199587 Si02
#       8
#     8   8   8   8   8   8   8   8
#     4   9  17  30  50  75 103 133 163 204 264 326
#     4   9  17  31  52  74  98 132 172 214 260 307
#     4   9  19  37  60  85 114 148 184 221 263 315
#     4  10  22  39  54  73 105 143 181 220 262 309
#     4  11  23  35  53  82 113 146 183 225 273 320
#     4   9  19  37  60  84 110 142 179 218 264 321
#     4  10  21  36  55  78 102 133 176 223 268 315
#     4   9  16  27  48  76 101 127 164 210 258 311
#
# _framework density 18.704151
#
# number of rings (size 3 to 8) (size 9 to 14) (size 15 to 20)
#    0.000    2.500    1.250    1.500    0.000    5.250 
#    0.000    7.500    0.000    1.500    0.000    4.375 
#    0.000    0.000    0.000    0.000    0.000    0.000 
#
# Total GULP energy -793289.429510 kJ/mol
# GULP energy per Si atom -12395.147336 kJ/mol
# Density = 1.866158 g / cm^3
# Si number density = 18.704151 Si / 1000 Ang^3
#
#
#
# Elastic Constant Matrix: (Units=GPa)
#
#
# Indices 1 2 3 4 5 6 
#
# 1 130.8509 40.7564 75.2215 0.0000 0.0000 0.0000
# 2 40.7564 38.6172 49.4415 0.0000 0.0000 0.0000
# 3 75.2215 49.4415 116.8138 0.0000 0.0000 0.0000
# 4 0.0000 0.0000 0.0000 23.2950 0.0000 0.0000
# 5 0.0000 0.0000 0.0000 0.0000 7.5830 0.0000
# 6 0.0000 0.0000 0.0000 0.0000 0.0000 22.5056
#
#
#
# Elastic Compliance Matrix: (Units=1/GPa)
#
#
# Indices 1 2 3 4 5 6 
#
# 1 0.012834 -0.006470 -0.005526 0.000000 0.000000 0.000000
# 2 -0.006470 0.059787 -0.021139 0.000000 0.000000 0.000000
# 3 -0.005526 -0.021139 0.021066 0.000000 0.000000 0.000000
# 4 0.000000 0.000000 0.000000 0.042928 0.000000 0.000000
# 5 0.000000 0.000000 0.000000 0.000000 0.131873 0.000000
# 6 0.000000 0.000000 0.000000 0.000000 0.000000 0.044433
#
#
# Mechanical properties :
#
#
# Convention : Reuss Voigt Hill
#
# Bulk Modulus (GPa) = 36.47239 68.56896 52.52068
# Shear Modulus (GPa) = 12.87561 18.73425 15.80493
#
# Velocity S-wave (km/s) = 2.62655 3.16825 2.91004
# Velocity P-wave (km/s) = 5.36100 7.07977 6.27947
#
# Compressibility (1/GPa) = 0.02741800
#
# Stress axis : x y z
#
# Youngs Moduli (GPa) = 77.91613 16.72591 47.47004
#
# Poissons Ratio (x) = 0.10822 0.26232
# Poissons Ratio (y) = 0.50415 1.00345
# Poissons Ratio (z) = 0.43056 0.35356
#
# Static dielectric constant tensor:
#      x y z
#    x 3.610050 0.000000 0.000000 
#    y 0.000000 3.247210 0.000000 
#    z 0.000000 0.000000 3.625990 
# 
# 
# High freq. dielectric constant tensor:
#      x y z
#    x 1.727810 0.000000 0.000000 
#    y 0.000000 1.705750 0.000000 
#    z 0.000000 0.000000 1.731640 
# 
# From -- ./inp_files/32786.got.cif
#   From: 2010.03.12/outbox.cif.g09.slc.cpg/sg47_17_cif.got.tgz:32786.got - 2010.04.14 03:12:58.
