data_PCOD8199510
_publ_section_title
;
Structure prediction by ZEFSAII (Michael W. Deem and Ramdas Pophale) SiO2 
 PCOD8199510
Probable space group: P M M M
;
_chemical_formula_sum "Si O2"
_cell_formula_units_Z 56
_cell_length_a 14.167246
_cell_length_b 9.001784
_cell_length_c 25.564456
_cell_angle_alpha 90.000000
_cell_angle_beta 90.000000
_cell_angle_gamma 90.000000
_cell_volume 3260.247559
_symmetry_space_group_name_H-M "P M M M"
_symmetry_group_IT_number 47
_symmetry_cell_setting 'orthorhombic'
loop_
_space_group_symop_operation_xyz
x,y,z
-x,-y,z
x,-y,-z
-x,y,-z
-x,-y,-z
x,y,-z
-x,y,z
x,-y,z
loop_
_atom_site_type_symbol
_atom_site_label
_atom_site_fract_x
_atom_site_fract_y
_atom_site_fract_z
Si Si1 0.892907 0.327785 0.439829
Si Si2 0.609820 0.325839 0.000000
Si Si3 0.393912 0.823334 0.500000
Si Si4 0.106930 0.328906 0.938997
Si Si5 0.608972 0.326396 0.305806
Si Si6 0.391819 0.170739 0.800299
Si Si7 0.717494 0.175873 0.601339
Si Si8 0.714543 0.825899 0.095003
O O1 0.880109 0.279483 0.500000
O O2 0.867298 0.500000 0.432891
O O3 0.825195 0.229775 0.403537
O O4 0.000000 0.297256 0.421761
O O5 0.655158 0.258606 0.948405
O O6 0.629836 0.500000 0.000000
O O7 0.500000 0.286948 0.000000
O O8 0.500000 0.759172 0.500000
O O9 0.340997 0.763610 0.551457
O O10 0.395050 0.000000 0.500000
O O11 0.123014 0.500000 0.923760
O O12 0.176655 0.225681 0.905716
O O13 0.000000 0.280768 0.925966
O O14 0.128610 0.305099 0.000000
O O15 0.500000 0.286683 0.317038
O O16 0.628576 0.500000 0.310572
O O17 0.637895 0.273419 0.248090
O O18 0.673195 0.240563 0.346540
O O19 0.500000 0.199159 0.816655
O O20 0.326776 0.216639 0.848713
O O21 0.376103 0.000000 0.784088
O O22 0.714923 0.000000 0.604603
O O23 0.707515 0.000000 0.083880
#
# Coordination Sequence:
#
# PCOD8199510 Si02
#       8
#     8   4   4   8   8   8   8   8
#     4   9  18  33  52  74 104 140 174 212 259 310
#     4  11  23  35  48  71 106 145 177 206 250 309
#     4   9  18  30  44  69 104 138 169 201 246 305
#     4   9  18  33  52  74 104 141 177 212 253 307
#     4  10  21  36  54  77 103 135 178 221 259 305
#     4   9  19  36  55  75 102 137 174 213 260 311
#     4  11  20  32  52  77 106 139 173 214 260 307
#     4  11  21  33  53  80 107 135 170 216 265 310
#
# _framework density 17.176611000000001
#
# number of rings (size 3 to 8) (size 9 to 14) (size 15 to 20)
#    0.000    2.143    1.429    3.214    0.000    4.286 
#    0.000    2.857    0.000    2.571    0.000    4.000 
#    0.000    0.000    0.000    0.000    0.000    0.000 
#
# Total GULP energy -694570.785892 kJ/mol
# GULP energy per Si atom -12403.049748 kJ/mol
# Density = 1.713752 g / cm^3
# Si number density = 17.176611 Si / 1000 Ang^3
#
#
#
# Elastic Constant Matrix: (Units=GPa)
#
#
# Indices 1 2 3 4 5 6 
#
# 1 121.9820 57.7312 69.6200 0.0000 0.0000 0.0000
# 2 57.7312 72.3132 49.6228 0.0000 0.0000 0.0000
# 3 69.6200 49.6228 99.2030 0.0000 0.0000 0.0000
# 4 0.0000 0.0000 0.0000 24.7296 0.0000 0.0000
# 5 0.0000 0.0000 0.0000 0.0000 25.8381 0.0000
# 6 0.0000 0.0000 0.0000 0.0000 0.0000 30.7408
#
#
#
# Elastic Compliance Matrix: (Units=1/GPa)
#
#
# Indices 1 2 3 4 5 6 
#
# 1 0.016110 -0.007770 -0.007419 0.000000 0.000000 0.000000
# 2 -0.007770 0.024804 -0.006954 0.000000 0.000000 0.000000
# 3 -0.007419 -0.006954 0.018766 0.000000 0.000000 0.000000
# 4 0.000000 0.000000 0.000000 0.040437 0.000000 0.000000
# 5 0.000000 0.000000 0.000000 0.000000 0.038703 0.000000
# 6 0.000000 0.000000 0.000000 0.000000 0.000000 0.032530
#
#
# Mechanical properties :
#
#
# Convention : Reuss Voigt Hill
#
# Bulk Modulus (GPa) = 64.96642 71.93845 68.45244
# Shear Modulus (GPa) = 22.64830 24.02999 23.33915
#
# Velocity S-wave (km/s) = 3.63513 3.74437 3.69016
# Velocity P-wave (km/s) = 7.45142 7.78886 7.62201
#
# Compressibility (1/GPa) = 0.01539257
#
# Stress axis : x y z
#
# Youngs Moduli (GPa) = 62.07489 40.31561 53.28901
#
# Poissons Ratio (x) = 0.31326 0.39534
# Poissons Ratio (y) = 0.48233 0.37060
# Poissons Ratio (z) = 0.46053 0.28037
#
# Static dielectric constant tensor:
#      x y z
#    x 3.294110 0.000000 0.000000 
#    y 0.000000 3.156040 0.000000 
#    z 0.000000 0.000000 3.090920 
# 
# 
# High freq. dielectric constant tensor:
#      x y z
#    x 1.666220 0.000000 0.000000 
#    y 0.000000 1.664180 0.000000 
#    z 0.000000 0.000000 1.646670 
# 
# From -- ./inp_files/31064.got.cif
#   From: 2010.03.12/outbox.cif.g09.slc.cpg/sg47_16_cif.got.tgz:31064.got - 2010.04.14 03:12:58.
