data_PCOD8199526
_publ_section_title
;
Structure prediction by ZEFSAII (Michael W. Deem and Ramdas Pophale) SiO2 
 PCOD8199526
Probable space group: P M M M
;
_chemical_formula_sum "Si O2"
_cell_formula_units_Z 44
_cell_length_a 9.206634
_cell_length_b 14.914837
_cell_length_c 17.400991
_cell_angle_alpha 90.000000
_cell_angle_beta 90.000000
_cell_angle_gamma 90.000000
_cell_volume 2389.424830
_symmetry_space_group_name_H-M "P M M M"
_symmetry_group_IT_number 47
_symmetry_cell_setting 'orthorhombic'
loop_
_space_group_symop_operation_xyz
x,y,z
-x,-y,z
x,-y,-z
-x,y,-z
-x,-y,-z
x,y,-z
-x,y,z
x,-y,z
loop_
_atom_site_type_symbol
_atom_site_label
_atom_site_fract_x
_atom_site_fract_y
_atom_site_fract_z
Si Si1 0.832158 0.852237 0.086035
Si Si2 0.164928 0.741308 0.691567
Si Si3 0.333063 0.898912 0.236053
Si Si4 0.159667 0.338980 0.858112
Si Si5 0.333730 0.601116 0.409408
Si Si6 0.329799 0.500000 0.085112
O O1 0.733506 0.898739 0.150107
O O2 0.807376 0.745551 0.087779
O O3 0.000000 0.874629 0.105246
O O4 0.791666 0.886326 0.000000
O O5 0.250638 0.834723 0.703589
O O6 0.168128 0.688088 0.770244
O O7 0.235906 0.677942 0.627903
O O8 0.000000 0.763840 0.666736
O O9 0.500000 0.867670 0.230266
O O10 0.321110 0.000000 0.268100
O O11 0.281196 0.412458 0.870103
O O12 0.000000 0.378117 0.877180
O O13 0.318082 0.612014 0.500000
O O14 0.500000 0.615654 0.383705
O O15 0.283935 0.500000 0.385296
O O16 0.500000 0.500000 0.081712
O O17 0.261439 0.500000 0.000000
#
# Coordination Sequence:
#
# PCOD8199526 Si02
#       6
#     8   8   8   8   8   4
#     4   9  18  33  52  73  98 131 173 222 276 328
#     4  10  21  36  56  81 108 140 179 221 265 314
#     4  10  21  36  54  77 105 139 180 224 274 329
#     4   9  19  34  49  67  94 131 173 214 259 312
#     4   9  19  36  58  86 119 151 179 209 253 310
#     4  11  23  33  43  65  94 127 172 221 265 308
#
# _framework density 18.414472
#
# number of rings (size 3 to 8) (size 9 to 14) (size 15 to 20)
#    0.000    2.455    0.000    3.545    1.273    8.000 
#    0.000    2.727    0.000    0.545    0.000    3.818 
#    0.000    0.000    0.000    0.000    0.000    0.000 
#
# Total GULP energy -545510.557101 kJ/mol
# GULP energy per Si atom -12397.967207 kJ/mol
# Density = 1.837256 g / cm^3
# Si number density = 18.414472 Si / 1000 Ang^3
#
#
#
# Elastic Constant Matrix: (Units=GPa)
#
#
# Indices 1 2 3 4 5 6 
#
# 1 118.5515 63.7816 36.1253 0.0000 0.0000 0.0000
# 2 63.7816 107.9404 35.4793 0.0000 0.0000 0.0000
# 3 36.1253 35.4793 50.4975 0.0000 0.0000 0.0000
# 4 0.0000 0.0000 0.0000 12.5714 0.0000 0.0000
# 5 0.0000 0.0000 0.0000 0.0000 29.2215 0.0000
# 6 0.0000 0.0000 0.0000 0.0000 0.0000 27.2989
#
#
#
# Elastic Compliance Matrix: (Units=1/GPa)
#
#
# Indices 1 2 3 4 5 6 
#
# 1 0.013343 -0.006172 -0.005209 0.000000 0.000000 0.000000
# 2 -0.006172 0.014902 -0.006054 0.000000 0.000000 0.000000
# 3 -0.005209 -0.006054 0.027783 0.000000 0.000000 0.000000
# 4 0.000000 0.000000 0.000000 0.079546 0.000000 0.000000
# 5 0.000000 0.000000 0.000000 0.000000 0.034221 0.000000
# 6 0.000000 0.000000 0.000000 0.000000 0.000000 0.036632
#
#
# Mechanical properties :
#
#
# Convention : Reuss Voigt Hill
#
# Bulk Modulus (GPa) = 47.26581 60.86241 54.06411
# Shear Modulus (GPa) = 20.13292 23.25856 21.69574
#
# Velocity S-wave (km/s) = 3.31013 3.55781 3.43620
# Velocity P-wave (km/s) = 6.35081 7.07110 6.72061
#
# Compressibility (1/GPa) = 0.02115694
#
# Stress axis : x y z
#
# Youngs Moduli (GPa) = 74.94473 67.10732 35.99326
#
# Poissons Ratio (x) = 0.41421 0.18749
# Poissons Ratio (y) = 0.46258 0.21791
# Poissons Ratio (z) = 0.39038 0.40628
#
# Static dielectric constant tensor:
#      x y z
#    x 3.525040 0.000000 0.000000 
#    y 0.000000 3.015070 0.000000 
#    z 0.000000 0.000000 3.212190 
# 
# 
# High freq. dielectric constant tensor:
#      x y z
#    x 1.718420 0.000000 0.000000 
#    y 0.000000 1.714440 0.000000 
#    z 0.000000 0.000000 1.693380 
# 
# From -- ./inp_files/6075.got.cif
#   From: 2010.03.12/outbox.cif.g09.slc.cpg/sg47_4_cif.got.tgz:6075.got - 2010.04.14 03:12:58.
