data_PCOD8199369
_publ_section_title
;
Structure prediction by ZEFSAII (Michael W. Deem and Ramdas Pophale) SiO2 
 PCOD8199369
Probable space group: P M M M
;
_chemical_formula_sum "Si O2"
_cell_formula_units_Z 36
_cell_length_a 10.195437
_cell_length_b 19.959800
_cell_length_c 9.380089
_cell_angle_alpha 90.000000
_cell_angle_beta 90.000000
_cell_angle_gamma 90.000000
_cell_volume 1908.837638
_symmetry_space_group_name_H-M "P M M M"
_symmetry_group_IT_number 47
_symmetry_cell_setting 'orthorhombic'
loop_
_space_group_symop_operation_xyz
x,y,z
-x,-y,z
x,-y,-z
-x,y,-z
-x,-y,-z
x,y,-z
-x,y,z
x,-y,z
loop_
_atom_site_type_symbol
_atom_site_label
_atom_site_fract_x
_atom_site_fract_y
_atom_site_fract_z
Si Si1 0.655389 0.426274 0.659278
Si Si2 0.653042 0.701028 0.167674
Si Si3 0.254756 0.925275 0.338280
Si Si4 0.854360 0.211871 0.663158
Si Si5 0.500000 0.920989 0.842973
O O1 0.706772 0.408898 0.500000
O O2 0.500000 0.428302 0.658114
O O3 0.708448 0.500000 0.705716
O O4 0.703085 0.370019 0.769697
O O5 0.500000 0.714983 0.205153
O O6 0.743309 0.758138 0.235321
O O7 0.675684 0.699410 0.000000
O O8 0.306828 0.928476 0.500000
O O9 0.142427 0.869358 0.321822
O O10 0.372073 0.898026 0.240803
O O11 0.204781 0.000000 0.292435
O O12 0.822374 0.232033 0.500000
O O13 0.000000 0.237139 0.706206
O O14 0.500000 0.000000 0.856933
O O15 0.500000 0.887111 0.000000
#
# Coordination Sequence:
#
# PCOD8199369 Si02
#       5
#     8   8   8   8   4
#     4   8  14  27  50  80 111 141 174 214 260 308
#     4  10  21  35  53  80 111 144 181 218 260 312
#     4   9  18  33  53  76 101 130 169 218 271 323
#     4  10  22  38  55  76 103 139 180 222 272 324
#     4   9  17  29  47  73 103 131 160 201 254 311
#
# _framework density 18.859643999999999
#
# number of rings (size 3 to 8) (size 9 to 14) (size 15 to 20)
#    0.000    2.778    0.000    1.667    1.556    4.889 
#    0.000    4.444    0.000    0.667    0.000    9.333 
#    0.000    0.000    0.000    0.000    0.000    0.000 
#
# Total GULP energy -446113.849614 kJ/mol
# GULP energy per Si atom -12392.051378 kJ/mol
# Density = 1.881672 g / cm^3
# Si number density = 18.859644 Si / 1000 Ang^3
#
#
#
# Elastic Constant Matrix: (Units=GPa)
#
#
# Indices 1 2 3 4 5 6 
#
# 1 70.8105 42.1752 47.6045 0.0000 0.0000 0.0000
# 2 42.1752 115.0799 53.1826 0.0000 0.0000 0.0000
# 3 47.6045 53.1826 104.5114 0.0000 0.0000 0.0000
# 4 0.0000 0.0000 0.0000 18.4557 0.0000 0.0000
# 5 0.0000 0.0000 0.0000 0.0000 17.0591 0.0000
# 6 0.0000 0.0000 0.0000 0.0000 0.0000 10.3410
#
#
#
# Elastic Compliance Matrix: (Units=1/GPa)
#
#
# Indices 1 2 3 4 5 6 
#
# 1 0.021995 -0.004486 -0.007736 0.000000 0.000000 0.000000
# 2 -0.004486 0.012276 -0.004204 0.000000 0.000000 0.000000
# 3 -0.007736 -0.004204 0.015231 0.000000 0.000000 0.000000
# 4 0.000000 0.000000 0.000000 0.054184 0.000000 0.000000
# 5 0.000000 0.000000 0.000000 0.000000 0.058620 0.000000
# 6 0.000000 0.000000 0.000000 0.000000 0.000000 0.096702
#
#
# Mechanical properties :
#
#
# Convention : Reuss Voigt Hill
#
# Bulk Modulus (GPa) = 60.05511 64.03628 62.04569
# Shear Modulus (GPa) = 16.81187 19.00047 17.90617
#
# Velocity S-wave (km/s) = 2.98891 3.17751 3.08465
# Velocity P-wave (km/s) = 6.61995 6.89129 6.75698
#
# Compressibility (1/GPa) = 0.01665137
#
# Stress axis : x y z
#
# Youngs Moduli (GPa) = 45.46588 81.45784 65.65502
#
# Poissons Ratio (x) = 0.36540 0.50789
# Poissons Ratio (y) = 0.20395 0.27600
# Poissons Ratio (z) = 0.35171 0.34243
#
# Static dielectric constant tensor:
#      x y z
#    x 3.073670 0.000000 0.000000 
#    y 0.000000 3.700460 0.000000 
#    z 0.000000 0.000000 3.572780 
# 
# 
# High freq. dielectric constant tensor:
#      x y z
#    x 1.689750 0.000000 0.000000 
#    y 0.000000 1.738360 0.000000 
#    z 0.000000 0.000000 1.728360 
# 
# From -- ./inp_files/3916.got.cif
#   From: 2010.03.12/outbox.cif.g09.slc.cpg/sg47_2_cif.got.tgz:3916.got - 2010.04.14 03:12:58.
