data_PCOD8199111
_publ_section_title
;
Structure prediction by ZEFSAII (Michael W. Deem and Ramdas Pophale) SiO2 
 PCOD8199111
Probable space group: P M M M
;
_chemical_formula_sum "Si O2"
_cell_formula_units_Z 52
_cell_length_a 13.410604
_cell_length_b 9.192933
_cell_length_c 22.835491
_cell_angle_alpha 90.000000
_cell_angle_beta 90.000000
_cell_angle_gamma 90.000000
_cell_volume 2815.222906
_symmetry_space_group_name_H-M "P M M M"
_symmetry_group_IT_number 47
_symmetry_cell_setting 'orthorhombic'
loop_
_space_group_symop_operation_xyz
x,y,z
-x,-y,z
x,-y,-z
-x,y,-z
-x,-y,-z
x,y,-z
-x,y,z
x,-y,z
loop_
_atom_site_type_symbol
_atom_site_label
_atom_site_fract_x
_atom_site_fract_y
_atom_site_fract_z
Si Si1 0.886790 0.170266 0.567888
Si Si2 0.207341 0.828979 0.936109
Si Si3 0.702581 0.330672 0.626140
Si Si4 0.112222 0.168989 0.180654
Si Si5 0.610977 0.168366 0.860424
Si Si6 0.500000 0.327411 0.433295
Si Si7 0.284792 0.668838 0.238429
O O1 0.869982 0.207754 0.500000
O O2 0.803413 0.253244 0.605023
O O3 0.000000 0.217018 0.586276
O O4 0.873317 0.000000 0.579422
O O5 0.127919 0.778878 0.886857
O O6 0.316525 0.782430 0.912903
O O7 0.200996 0.000000 0.944606
O O8 0.187233 0.755518 0.000000
O O9 0.715459 0.500000 0.611132
O O10 0.601945 0.266924 0.596100
O O11 0.687444 0.303326 0.694657
O O12 0.177901 0.260132 0.225446
O O13 0.000000 0.197483 0.199556
O O14 0.142299 0.000000 0.185735
O O15 0.500000 0.198942 0.882718
O O16 0.630585 0.258642 0.801507
O O17 0.628734 0.000000 0.844708
O O18 0.500000 0.500000 0.427218
O O19 0.500000 0.274479 0.500000
O O20 0.278842 0.500000 0.223212
#
# Coordination Sequence:
#
# PCOD8199111 Si02
#       7
#     8   8   8   8   8   4   8
#     4   9  19  36  56  78 106 138 169 206 256 310
#     4   8  14  26  46  74 103 126 158 208 258 304
#     4  10  21  35  54  79 104 135 175 217 257 304
#     4   9  18  33  52  73 100 134 169 208 257 309
#     4   9  18  32  50  72  99 131 167 206 251 304
#     4   9  18  34  55  77 103 133 164 205 258 308
#     4  10  21  34  50  73 101 133 170 212 251 297
#
# _framework density 18.471005000000002
#
# number of rings (size 3 to 8) (size 9 to 14) (size 15 to 20)
#    0.000    2.846    0.000    2.308    1.077    4.308 
#    0.000    7.308    0.000    8.769    0.000    8.615 
#    0.000    0.000    0.000    0.000    0.000    0.000 
#
# Total GULP energy -644532.311686 kJ/mol
# GULP energy per Si atom -12394.852148 kJ/mol
# Density = 1.842896 g / cm^3
# Si number density = 18.471005 Si / 1000 Ang^3
#
#
#
# Elastic Constant Matrix: (Units=GPa)
#
#
# Indices 1 2 3 4 5 6 
#
# 1 91.2631 22.8357 22.9730 0.0000 0.0000 0.0000
# 2 22.8357 44.9699 29.3244 0.0000 0.0000 0.0000
# 3 22.9730 29.3244 82.5296 0.0000 0.0000 0.0000
# 4 0.0000 0.0000 0.0000 21.5255 0.0000 0.0000
# 5 0.0000 0.0000 0.0000 0.0000 19.7959 0.0000
# 6 0.0000 0.0000 0.0000 0.0000 0.0000 22.6926
#
#
#
# Elastic Compliance Matrix: (Units=1/GPa)
#
#
# Indices 1 2 3 4 5 6 
#
# 1 0.012717 -0.005401 -0.001621 0.000000 0.000000 0.000000
# 2 -0.005401 0.031237 -0.009596 0.000000 0.000000 0.000000
# 3 -0.001621 -0.009596 0.015978 0.000000 0.000000 0.000000
# 4 0.000000 0.000000 0.000000 0.046456 0.000000 0.000000
# 5 0.000000 0.000000 0.000000 0.000000 0.050516 0.000000
# 6 0.000000 0.000000 0.000000 0.000000 0.000000 0.044067
#
#
# Mechanical properties :
#
#
# Convention : Reuss Voigt Hill
#
# Bulk Modulus (GPa) = 37.45782 41.00318 39.23050
# Shear Modulus (GPa) = 20.56737 22.37811 21.47274
#
# Velocity S-wave (km/s) = 3.34053 3.48448 3.41326
# Velocity P-wave (km/s) = 5.93314 6.19965 6.06785
#
# Compressibility (1/GPa) = 0.02669670
#
# Stress axis : x y z
#
# Youngs Moduli (GPa) = 78.63704 32.01353 62.58757
#
# Poissons Ratio (x) = 0.17289 0.10145
# Poissons Ratio (y) = 0.42468 0.60057
# Poissons Ratio (z) = 0.12746 0.30719
#
# Static dielectric constant tensor:
#      x y z
#    x 3.563970 0.000000 0.000000 
#    y 0.000000 3.127720 0.000000 
#    z 0.000000 0.000000 3.457850 
# 
# 
# High freq. dielectric constant tensor:
#      x y z
#    x 1.726650 0.000000 0.000000 
#    y 0.000000 1.682310 0.000000 
#    z 0.000000 0.000000 1.717760 
# 
# From -- ./inp_files/25463.got.cif
#   From: 2010.03.12/outbox.cif.g09.slc.cpg/sg47_13_cif.got.tgz:25463.got - 2010.04.14 03:12:58.
