data_PCOD8199735
_publ_section_title
;
Structure prediction by ZEFSAII (Michael W. Deem and Ramdas Pophale) SiO2 
 PCOD8199735
Probable space group: P M M M
;
_chemical_formula_sum "Si O2"
_cell_formula_units_Z 32
_cell_length_a 9.555628
_cell_length_b 20.815299
_cell_length_c 8.820892
_cell_angle_alpha 90.000000
_cell_angle_beta 90.000000
_cell_angle_gamma 90.000000
_cell_volume 1754.504122
_symmetry_space_group_name_H-M "P M M M"
_symmetry_group_IT_number 47
_symmetry_cell_setting 'orthorhombic'
loop_
_space_group_symop_operation_xyz
x,y,z
-x,-y,z
x,-y,-z
-x,y,-z
-x,-y,-z
x,y,-z
-x,y,z
x,-y,z
loop_
_atom_site_type_symbol
_atom_site_label
_atom_site_fract_x
_atom_site_fract_y
_atom_site_fract_z
Si Si1 0.838042 0.744666 0.825330
Si Si2 0.666347 0.000000 0.833718
Si Si3 0.339161 0.500000 0.179190
Si Si4 0.342914 0.137557 0.181356
Si Si5 0.160668 0.388342 0.678150
O O1 0.755584 0.805712 0.757983
O O2 0.795076 0.682899 0.727895
O O3 0.000000 0.760939 0.807100
O O4 0.798207 0.731225 0.000000
O O5 0.708758 0.932367 0.752191
O O6 0.500000 0.000000 0.851089
O O7 0.736184 0.000000 0.000000
O O8 0.500000 0.500000 0.234610
O O9 0.262949 0.562880 0.239871
O O10 0.329817 0.500000 0.000000
O O11 0.500000 0.152692 0.236836
O O12 0.337601 0.133629 0.000000
O O13 0.179631 0.395907 0.500000
O O14 0.000000 0.402427 0.726329
#
# Coordination Sequence:
#
# PCOD8199735 Si02
#       5
#     8   4   4   8   8
#     4   9  17  29  45  67  95 124 155 195 241 285
#     4   7  10  18  33  55  84 117 152 190 234 283
#     4  11  24  39  56  80 106 129 156 195 242 288
#     4   8  13  22  38  60  87 120 156 193 235 285
#     4  10  21  37  56  76  99 131 168 201 237 286
#
# _framework density 18.238771
#
# number of rings (size 3 to 8) (size 9 to 14) (size 15 to 20)
#    0.000    3.000    0.000    3.000    0.000    5.000 
#    0.000    3.125    0.000    3.750    0.000    0.875 
#    0.000    7.000    0.000    0.000    0.000    0.000 
#
# Total GULP energy -396558.270481 kJ/mol
# GULP energy per Si atom -12392.445953 kJ/mol
# Density = 1.819726 g / cm^3
# Si number density = 18.238771 Si / 1000 Ang^3
#
#
#
# Elastic Constant Matrix: (Units=GPa)
#
#
# Indices 1 2 3 4 5 6 
#
# 1 91.8396 91.0366 29.8551 0.0000 0.0000 0.0000
# 2 91.0366 178.6050 33.7091 0.0000 0.0000 0.0000
# 3 29.8551 33.7091 34.7789 0.0000 0.0000 0.0000
# 4 0.0000 0.0000 0.0000 -7.4771 0.0000 0.0000
# 5 0.0000 0.0000 0.0000 0.0000 14.8889 0.0000
# 6 0.0000 0.0000 0.0000 0.0000 0.0000 32.6402
#
#
#
# Elastic Compliance Matrix: (Units=1/GPa)
#
#
# Indices 1 2 3 4 5 6 
#
# 1 0.025135 -0.010696 -0.011210 0.000000 0.000000 0.000000
# 2 -0.010696 0.011404 -0.001872 0.000000 0.000000 0.000000
# 3 -0.011210 -0.001872 0.040190 0.000000 0.000000 0.000000
# 4 0.000000 0.000000 0.000000 -0.133742 0.000000 0.000000
# 5 0.000000 0.000000 0.000000 0.000000 0.067164 0.000000
# 6 0.000000 0.000000 0.000000 0.000000 0.000000 0.030637
#
#
# Mechanical properties :
#
#
# Convention : Reuss Voigt Hill
#
# Bulk Modulus (GPa) = 34.27654 68.26945 51.27299
# Shear Modulus (GPa) = 50.98584 18.05192 34.51888
#
# Velocity S-wave (km/s) = 5.29295 3.14945 4.35513
# Velocity P-wave (km/s) = 7.49585 7.12303 7.31182
#
# Compressibility (1/GPa) = 0.02917447
#
# Stress axis : x y z
#
# Youngs Moduli (GPa) = 39.78536 87.68909 24.88199
#
# Poissons Ratio (x) = 0.93791 0.27892
# Poissons Ratio (y) = 0.42554 0.04657
# Poissons Ratio (z) = 0.44598 0.16412
#
# Static dielectric constant tensor:
#      x y z
#    x 3.316510 0.000000 0.000000 
#    y 0.000000 3.827250 0.000000 
#    z 0.000000 0.000000 2.970220 
# 
# 
# High freq. dielectric constant tensor:
#      x y z
#    x 1.688260 0.000000 0.000000 
#    y 0.000000 1.730760 0.000000 
#    z 0.000000 0.000000 1.662250 
# 
# From -- ./inp_files/3575.got.cif
#   From: 2010.03.12/outbox.cif.g09.slc.cpg/sg47_2_cif.got.tgz:3575.got - 2010.04.14 03:12:58.
