data_PCOD8199393
_publ_section_title
;
Structure prediction by ZEFSAII (Michael W. Deem and Ramdas Pophale) SiO2 
 PCOD8199393
Probable space group: P M M M
;
_chemical_formula_sum "Si O2"
_cell_formula_units_Z 56
_cell_length_a 9.217463
_cell_length_b 21.490778
_cell_length_c 14.269043
_cell_angle_alpha 90.000000
_cell_angle_beta 90.000000
_cell_angle_gamma 90.000000
_cell_volume 2826.561164
_symmetry_space_group_name_H-M "P M M M"
_symmetry_group_IT_number 47
_symmetry_cell_setting 'orthorhombic'
loop_
_space_group_symop_operation_xyz
x,y,z
-x,-y,z
x,-y,-z
-x,y,-z
-x,-y,-z
x,y,-z
-x,y,z
x,-y,z
loop_
_atom_site_type_symbol
_atom_site_label
_atom_site_fract_x
_atom_site_fract_y
_atom_site_fract_z
Si Si1 0.329682 0.241986 0.110966
Si Si2 0.333864 0.926530 0.605926
Si Si3 0.831411 0.160354 0.741700
Si Si4 0.162308 0.364514 0.107952
Si Si5 0.840808 0.500000 0.851469
Si Si6 0.837708 0.726758 0.607455
Si Si7 0.344768 0.382202 0.605220
Si Si8 0.158588 0.500000 0.633554
O O1 0.500000 0.242945 0.135142
O O2 0.252471 0.184493 0.165273
O O3 0.261308 0.308047 0.146966
O O4 0.304935 0.231698 0.000000
O O5 0.281164 0.907083 0.500000
O O6 0.500000 0.904588 0.619085
O O7 0.239095 0.899815 0.692464
O O8 0.321570 0.000000 0.615521
O O9 0.813686 0.210353 0.661005
O O10 0.000000 0.147691 0.767630
O O11 0.235951 0.433915 0.121211
O O12 0.000000 0.362986 0.154927
O O13 0.144652 0.351055 0.000000
O O14 0.856861 0.500000 0.742627
O O15 0.000000 0.500000 0.900378
O O16 0.797474 0.739837 0.500000
O O17 0.736919 0.674375 0.656485
O O18 0.000000 0.701088 0.616792
O O19 0.373013 0.360136 0.500000
O O20 0.500000 0.395889 0.655012
O O21 0.245282 0.441387 0.599430
O O22 0.000000 0.500000 0.586418
#
# Coordination Sequence:
#
# PCOD8199393 Si02
#       8
#     8   8   8   8   4   8   8   4
#     4  10  22  39  57  80 112 150 193 241 293 349
#     4   9  19  37  61  91 129 169 202 230 267 322
#     4  11  22  35  58  88 118 152 192 237 283 331
#     4   9  17  33  56  77  99 131 173 224 284 347
#     4   9  19  32  49  74 100 127 166 217 276 345
#     4   9  19  35  53  76 107 140 175 218 272 332
#     4  10  21  36  51  67  90 124 170 221 268 319
#     4  11  22  33  47  67  94 127 166 213 265 328
#
# _framework density 19.812059999999999
#
# number of rings (size 3 to 8) (size 9 to 14) (size 15 to 20)
#    0.000    2.286    0.000    2.786    2.000    5.714 
#    0.000    3.214    0.000    2.143    0.000    3.000 
#    0.000    0.000    0.000    0.000    0.000    0.000 
#
# Total GULP energy -693771.346700 kJ/mol
# GULP energy per Si atom -12388.774048 kJ/mol
# Density = 1.976697 g / cm^3
# Si number density = 19.812060 Si / 1000 Ang^3
#
#
#
# Elastic Constant Matrix: (Units=GPa)
#
#
# Indices 1 2 3 4 5 6 
#
# 1 127.2162 46.3637 39.1493 0.0000 0.0000 0.0000
# 2 46.3637 79.3913 29.8552 0.0000 0.0000 0.0000
# 3 39.1493 29.8552 69.8291 0.0000 0.0000 0.0000
# 4 0.0000 0.0000 0.0000 41.7239 0.0000 0.0000
# 5 0.0000 0.0000 0.0000 0.0000 23.7381 0.0000
# 6 0.0000 0.0000 0.0000 0.0000 0.0000 38.5077
#
#
#
# Elastic Compliance Matrix: (Units=1/GPa)
#
#
# Indices 1 2 3 4 5 6 
#
# 1 0.010858 -0.004828 -0.004023 0.000000 0.000000 0.000000
# 2 -0.004828 0.017156 -0.004628 0.000000 0.000000 0.000000
# 3 -0.004023 -0.004628 0.018555 0.000000 0.000000 0.000000
# 4 0.000000 0.000000 0.000000 0.023967 0.000000 0.000000
# 5 0.000000 0.000000 0.000000 0.000000 0.042126 0.000000
# 6 0.000000 0.000000 0.000000 0.000000 0.000000 0.025969
#
#
# Mechanical properties :
#
#
# Convention : Reuss Voigt Hill
#
# Bulk Modulus (GPa) = 50.99426 56.35255 53.67341
# Shear Modulus (GPa) = 29.04820 31.53181 30.29000
#
# Velocity S-wave (km/s) = 3.83324 3.99375 3.91431
# Velocity P-wave (km/s) = 6.73695 7.05493 6.89777
#
# Compressibility (1/GPa) = 0.01961005
#
# Stress axis : x y z
#
# Youngs Moduli (GPa) = 92.09439 58.28927 53.89354
#
# Poissons Ratio (x) = 0.28143 0.21684
# Poissons Ratio (y) = 0.44465 0.24942
# Poissons Ratio (z) = 0.37054 0.26976
#
# Static dielectric constant tensor:
#      x y z
#    x 4.020730 0.000000 0.000000 
#    y 0.000000 3.585230 0.000000 
#    z 0.000000 0.000000 3.531520 
# 
# 
# High freq. dielectric constant tensor:
#      x y z
#    x 1.768760 0.000000 0.000000 
#    y 0.000000 1.757570 0.000000 
#    z 0.000000 0.000000 1.765750 
# 
# From -- ./inp_files/21616.got.cif
#   From: 2010.03.12/outbox.cif.g09.slc.cpg/sg47_11_cif.got.tgz:21616.got - 2010.04.14 03:12:58.
