data_PCOD8199883
_publ_section_title
;
Structure prediction by ZEFSAII (Michael W. Deem and Ramdas Pophale) SiO2 
 PCOD8199883
Probable space group: P M M M
;
_chemical_formula_sum "Si O2"
_cell_formula_units_Z 48
_cell_length_a 28.732015
_cell_length_b 9.939406
_cell_length_c 8.659777
_cell_angle_alpha 90.000000
_cell_angle_beta 90.000000
_cell_angle_gamma 90.000000
_cell_volume 2473.051861
_symmetry_space_group_name_H-M "P M M M"
_symmetry_group_IT_number 47
_symmetry_cell_setting 'orthorhombic'
loop_
_space_group_symop_operation_xyz
x,y,z
-x,-y,z
x,-y,-z
-x,y,-z
-x,-y,-z
x,y,-z
-x,y,z
x,-y,z
loop_
_atom_site_type_symbol
_atom_site_label
_atom_site_fract_x
_atom_site_fract_y
_atom_site_fract_z
Si Si1 0.892490 0.753886 0.182333
Si Si2 0.553591 0.345772 0.822258
Si Si3 0.798640 0.343906 0.681290
Si Si4 0.051365 0.500000 0.816705
Si Si5 0.052774 0.000000 0.681725
Si Si6 0.276536 0.154406 0.820119
Si Si7 0.374055 0.847876 0.323425
O O1 0.839320 0.735406 0.230901
O O2 0.920954 0.627211 0.244320
O O3 0.917317 0.875665 0.263800
O O4 0.895042 0.773971 0.000000
O O5 0.500000 0.323555 0.777360
O O6 0.567969 0.500000 0.792901
O O7 0.584015 0.251469 0.714016
O O8 0.562013 0.307012 0.000000
O O9 0.807874 0.337883 0.500000
O O10 0.794927 0.500000 0.736505
O O11 0.752172 0.262605 0.721798
O O12 0.000000 0.500000 0.743679
O O13 0.048662 0.500000 0.000000
O O14 0.049113 0.000000 0.500000
O O15 0.000000 0.000000 0.751830
O O16 0.330401 0.183932 0.785899
O O17 0.263968 0.000000 0.772717
O O18 0.266653 0.177820 0.000000
O O19 0.358425 0.826889 0.500000
O O20 0.391584 0.000000 0.295343
#
# Coordination Sequence:
#
# PCOD8199883 Si02
#       7
#     8   8   8   4   4   8   8
#     4  11  22  39  63  89 119 153 195 242 287 341
#     4   9  19  36  57  82 114 154 200 246 291 342
#     4  11  24  41  61  87 121 156 192 235 291 353
#     4   9  18  34  59  89 117 147 187 237 288 333
#     4  11  25  43  61  87 123 159 195 237 288 345
#     4  10  22  40  63  88 114 149 196 244 292 347
#     4  10  21  37  57  84 118 153 192 239 294 352
#
# _framework density 19.409217999999999
#
# number of rings (size 3 to 8) (size 9 to 14) (size 15 to 20)
#    0.000    1.833    0.833    3.250    1.167    6.000 
#    0.000    2.500    0.000    2.000    0.000    0.000 
#    0.000    0.000    0.000    0.000    0.000    0.000 
#
# Total GULP energy -595293.795933 kJ/mol
# GULP energy per Si atom -12401.954082 kJ/mol
# Density = 1.936504 g / cm^3
# Si number density = 19.409218 Si / 1000 Ang^3
#
#
#
# Elastic Constant Matrix: (Units=GPa)
#
#
# Indices 1 2 3 4 5 6 
#
# 1 95.9393 60.6191 21.4597 0.0000 0.0000 0.0000
# 2 60.6191 129.7427 33.7697 0.0000 0.0000 0.0000
# 3 21.4597 33.7697 57.6962 0.0000 0.0000 0.0000
# 4 0.0000 0.0000 0.0000 33.4211 0.0000 0.0000
# 5 0.0000 0.0000 0.0000 0.0000 31.9312 0.0000
# 6 0.0000 0.0000 0.0000 0.0000 0.0000 44.1130
#
#
#
# Elastic Compliance Matrix: (Units=1/GPa)
#
#
# Indices 1 2 3 4 5 6 
#
# 1 0.014935 -0.006526 -0.001735 0.000000 0.000000 0.000000
# 2 -0.006526 0.011945 -0.004564 0.000000 0.000000 0.000000
# 3 -0.001735 -0.004564 0.020649 0.000000 0.000000 0.000000
# 4 0.000000 0.000000 0.000000 0.029921 0.000000 0.000000
# 5 0.000000 0.000000 0.000000 0.000000 0.031317 0.000000
# 6 0.000000 0.000000 0.000000 0.000000 0.000000 0.022669
#
#
# Mechanical properties :
#
#
# Convention : Reuss Voigt Hill
#
# Bulk Modulus (GPa) = 45.70821 57.23058 51.46940
# Shear Modulus (GPa) = 30.41741 33.06170 31.73955
#
# Velocity S-wave (km/s) = 3.96304 4.13171 4.04825
# Velocity P-wave (km/s) = 6.67396 7.23268 6.95893
#
# Compressibility (1/GPa) = 0.02187791
#
# Stress axis : x y z
#
# Youngs Moduli (GPa) = 66.95651 83.71872 48.42912
#
# Poissons Ratio (x) = 0.54638 0.08403
# Poissons Ratio (y) = 0.43699 0.22102
# Poissons Ratio (z) = 0.11617 0.38208
#
# Static dielectric constant tensor:
#      x y z
#    x 3.528290 0.000000 0.000000 
#    y 0.000000 3.624660 0.000000 
#    z 0.000000 0.000000 3.456510 
# 
# 
# High freq. dielectric constant tensor:
#      x y z
#    x 1.761380 0.000000 0.000000 
#    y 0.000000 1.764760 0.000000 
#    z 0.000000 0.000000 1.754150 
# 
# From -- ./inp_files/13998.got.cif
#   From: 2010.03.12/outbox.cif.g09.slc.cpg/sg47_7_cif.got.tgz:13998.got - 2010.04.14 03:12:58.
