data_PCOD8199297
_publ_section_title
;
Structure prediction by ZEFSAII (Michael W. Deem and Ramdas Pophale) SiO2 
 PCOD8199297
Probable space group: P M M M
;
_chemical_formula_sum "Si O2"
_cell_formula_units_Z 44
_cell_length_a 28.158227
_cell_length_b 9.276266
_cell_length_c 9.337353
_cell_angle_alpha 90.000000
_cell_angle_beta 90.000000
_cell_angle_gamma 90.000000
_cell_volume 2438.946518
_symmetry_space_group_name_H-M "P M M M"
_symmetry_group_IT_number 47
_symmetry_cell_setting 'orthorhombic'
loop_
_space_group_symop_operation_xyz
x,y,z
-x,-y,z
x,-y,-z
-x,y,-z
-x,-y,-z
x,y,-z
-x,y,z
x,-y,z
loop_
_atom_site_type_symbol
_atom_site_label
_atom_site_fract_x
_atom_site_fract_y
_atom_site_fract_z
Si Si1 0.500000 0.837322 0.670171
Si Si2 0.683565 0.671395 0.161854
Si Si3 0.225470 0.668449 0.334086
Si Si4 0.132130 0.833664 0.332683
Si Si5 0.407922 0.331737 0.333157
Si Si6 0.945355 0.336275 0.166272
O O1 0.500000 0.835878 0.500000
O O2 0.453378 0.754668 0.725602
O O3 0.500000 0.000000 0.730352
O O4 0.683831 0.500000 0.163777
O O5 0.730302 0.728440 0.242866
O O6 0.637130 0.726977 0.245137
O O7 0.683126 0.731439 0.000000
O O8 0.236177 0.701176 0.500000
O O9 0.216956 0.500000 0.307470
O O10 0.178915 0.750748 0.279001
O O11 0.124592 0.808390 0.500000
O O12 0.085965 0.773901 0.255058
O O13 0.138421 0.000000 0.293389
O O14 0.398155 0.301629 0.500000
O O15 0.417393 0.500000 0.305688
O O16 0.934177 0.500000 0.213696
O O17 0.000000 0.299129 0.197753
O O18 0.933738 0.316351 0.000000
#
# Coordination Sequence:
#
# PCOD8199297 Si02
#       6
#     4   8   8   8   8   8
#     4   9  17  29  46  69  94 120 154 193 230 272
#     4   9  17  29  47  72  97 120 153 198 242 283
#     4   9  17  31  51  72  95 126 163 201 242 288
#     4  10  21  35  51  75 106 136 167 205 249 297
#     4   9  16  28  48  71  93 119 153 192 233 278
#     4   9  19  36  56  77 101 131 169 210 250 295
#
# _framework density 18.040576000000001
#
# number of rings (size 3 to 8) (size 9 to 14) (size 15 to 20)
#    0.000    2.818    0.000    1.909    0.000    6.182 
#    0.000    5.909    0.000    8.727    0.000    0.000 
#    0.000    0.000    0.000    0.000    0.000    0.000 
#
# Total GULP energy -545650.102129 kJ/mol
# GULP energy per Si atom -12401.138685 kJ/mol
# Density = 1.799951 g / cm^3
# Si number density = 18.040576 Si / 1000 Ang^3
#
#
#
# Elastic Constant Matrix: (Units=GPa)
#
#
# Indices 1 2 3 4 5 6 
#
# 1 159.3829 66.8704 67.4298 0.0000 0.0000 0.0000
# 2 66.8704 72.9634 39.3219 0.0000 0.0000 0.0000
# 3 67.4298 39.3219 71.3076 0.0000 0.0000 0.0000
# 4 0.0000 0.0000 0.0000 17.5926 0.0000 0.0000
# 5 0.0000 0.0000 0.0000 0.0000 10.4280 0.0000
# 6 0.0000 0.0000 0.0000 0.0000 0.0000 6.0175
#
#
#
# Elastic Compliance Matrix: (Units=1/GPa)
#
#
# Indices 1 2 3 4 5 6 
#
# 1 0.012750 -0.007381 -0.007986 0.000000 0.000000 0.000000
# 2 -0.007381 0.023774 -0.006130 0.000000 0.000000 0.000000
# 3 -0.007986 -0.006130 0.024956 0.000000 0.000000 0.000000
# 4 0.000000 0.000000 0.000000 0.056842 0.000000 0.000000
# 5 0.000000 0.000000 0.000000 0.000000 0.095896 0.000000
# 6 0.000000 0.000000 0.000000 0.000000 0.000000 0.166183
#
#
# Mechanical properties :
#
#
# Convention : Reuss Voigt Hill
#
# Bulk Modulus (GPa) = 54.09851 72.32200 63.21026
# Shear Modulus (GPa) = 11.63991 15.47641 13.55816
#
# Velocity S-wave (km/s) = 2.54285 2.93211 2.74439
# Velocity P-wave (km/s) = 6.21882 7.18600 6.71983
#
# Compressibility (1/GPa) = 0.01848480
#
# Stress axis : x y z
#
# Youngs Moduli (GPa) = 78.43372 42.06290 40.07049
#
# Poissons Ratio (x) = 0.31047 0.32001
# Poissons Ratio (y) = 0.57892 0.24564
# Poissons Ratio (z) = 0.62638 0.25786
#
# Static dielectric constant tensor:
#      x y z
#    x 3.472290 0.000000 0.000000 
#    y 0.000000 3.142040 0.000000 
#    z 0.000000 0.000000 3.222460 
# 
# 
# High freq. dielectric constant tensor:
#      x y z
#    x 1.712270 0.000000 0.000000 
#    y 0.000000 1.674990 0.000000 
#    z 0.000000 0.000000 1.683420 
# 
# From -- ./inp_files/2296.got.cif
#   From: 2010.03.12/outbox.cif.g09.slc.cpg/sg47_2_cif.got.tgz:2296.got - 2010.04.14 03:12:58.
