data_PCOD8199846
_publ_section_title
;
Structure prediction by ZEFSAII (Michael W. Deem and Ramdas Pophale) SiO2 
 PCOD8199846
Probable space group: P M M M
;
_chemical_formula_sum "Si O2"
_cell_formula_units_Z 48
_cell_length_a 9.134981
_cell_length_b 30.815812
_cell_length_c 9.406590
_cell_angle_alpha 90.000000
_cell_angle_beta 90.000000
_cell_angle_gamma 90.000000
_cell_volume 2647.972554
_symmetry_space_group_name_H-M "P M M M"
_symmetry_group_IT_number 47
_symmetry_cell_setting 'orthorhombic'
loop_
_space_group_symop_operation_xyz
x,y,z
-x,-y,z
x,-y,-z
-x,y,-z
-x,-y,-z
x,y,-z
-x,y,z
x,-y,z
loop_
_atom_site_type_symbol
_atom_site_label
_atom_site_fract_x
_atom_site_fract_y
_atom_site_fract_z
Si Si1 0.832440 0.663103 0.164561
Si Si2 0.671621 0.575365 0.164892
Si Si3 0.329364 0.084824 0.165118
Si Si4 0.828123 0.500000 0.667381
Si Si5 0.829280 0.253788 0.663888
Si Si6 0.328697 0.167986 0.663656
Si Si7 0.834794 0.000000 0.830863
O O1 0.729656 0.622907 0.204320
O O2 0.773148 0.704322 0.251113
O O3 0.000000 0.651758 0.206245
O O4 0.820092 0.675021 0.000000
O O5 0.500000 0.572764 0.197761
O O6 0.756522 0.542173 0.263990
O O7 0.703953 0.564380 0.000000
O O8 0.500000 0.076984 0.193066
O O9 0.270860 0.126880 0.248092
O O10 0.245728 0.042919 0.226638
O O11 0.295280 0.092255 0.000000
O O12 0.796248 0.500000 0.500000
O O13 0.000000 0.500000 0.700453
O O14 0.789863 0.261618 0.500000
O O15 0.748597 0.211155 0.722817
O O16 0.000000 0.246544 0.688863
O O17 0.287049 0.160026 0.500000
O O18 0.500000 0.174431 0.685977
O O19 0.000000 0.000000 0.773713
O O20 0.827773 0.000000 0.000000
#
# Coordination Sequence:
#
# PCOD8199846 Si02
#       7
#     8   8   8   4   8   8   4
#     4   9  18  33  52  74 101 133 168 205 246 294
#     4  10  21  37  57  81 108 138 172 211 257 306
#     4   9  17  30  48  68  90 119 154 190 230 278
#     4  11  24  39  56  80 108 139 176 215 254 300
#     4   9  18  32  49  69  95 128 163 199 241 288
#     4   9  18  32  48  67  93 124 157 193 235 284
#     4   9  17  29  46  69  94 118 148 189 234 278
#
# _framework density 18.127075999999999
#
# number of rings (size 3 to 8) (size 9 to 14) (size 15 to 20)
#    0.000    2.667    0.000    1.250    0.000    6.333 
#    0.000    2.083    0.000    2.500    0.000    0.000 
#    0.000    0.000    0.000    0.000    0.000    0.000 
#
# Total GULP energy -595304.801420 kJ/mol
# GULP energy per Si atom -12402.183363 kJ/mol
# Density = 1.808582 g / cm^3
# Si number density = 18.127076 Si / 1000 Ang^3
#
#
#
# Elastic Constant Matrix: (Units=GPa)
#
#
# Indices 1 2 3 4 5 6 
#
# 1 83.7662 79.9398 48.1130 0.0000 0.0000 0.0000
# 2 79.9398 188.9220 80.4607 0.0000 0.0000 0.0000
# 3 48.1130 80.4607 67.3062 0.0000 0.0000 0.0000
# 4 0.0000 0.0000 0.0000 10.3298 0.0000 0.0000
# 5 0.0000 0.0000 0.0000 0.0000 20.6315 0.0000
# 6 0.0000 0.0000 0.0000 0.0000 0.0000 39.1353
#
#
#
# Elastic Compliance Matrix: (Units=1/GPa)
#
#
# Indices 1 2 3 4 5 6 
#
# 1 0.022752 -0.005502 -0.009688 0.000000 0.000000 0.000000
# 2 -0.005502 0.012114 -0.010548 0.000000 0.000000 0.000000
# 3 -0.009688 -0.010548 0.034392 0.000000 0.000000 0.000000
# 4 0.000000 0.000000 0.000000 0.096807 0.000000 0.000000
# 5 0.000000 0.000000 0.000000 0.000000 0.048469 0.000000
# 6 0.000000 0.000000 0.000000 0.000000 0.000000 0.025552
#
#
# Mechanical properties :
#
#
# Convention : Reuss Voigt Hill
#
# Bulk Modulus (GPa) = 56.23158 84.11350 70.17254
# Shear Modulus (GPa) = 16.80728 22.78472 19.79600
#
# Velocity S-wave (km/s) = 3.04829 3.54919 3.30823
# Velocity P-wave (km/s) = 6.59375 7.95604 7.30671
#
# Compressibility (1/GPa) = 0.01778360
#
# Stress axis : x y z
#
# Youngs Moduli (GPa) = 43.95125 82.55187 29.07612
#
# Poissons Ratio (x) = 0.45416 0.28168
# Poissons Ratio (y) = 0.24180 0.30671
# Poissons Ratio (z) = 0.42578 0.87079
#
# Static dielectric constant tensor:
#      x y z
#    x 3.332210 0.000000 0.000000 
#    y 0.000000 3.547000 0.000000 
#    z 0.000000 0.000000 3.242330 
# 
# 
# High freq. dielectric constant tensor:
#      x y z
#    x 1.699730 0.000000 0.000000 
#    y 0.000000 1.715040 0.000000 
#    z 0.000000 0.000000 1.685700 
# 
# From -- ./inp_files/2755.got.cif
#   From: 2010.03.12/outbox.cif.g09.slc.cpg/sg47_2_cif.got.tgz:2755.got - 2010.04.14 03:12:58.
