data_PCOD8199744
_publ_section_title
;
Structure prediction by ZEFSAII (Michael W. Deem and Ramdas Pophale) SiO2 
 PCOD8199744
Probable space group: P M M M
;
_chemical_formula_sum "Si O2"
_cell_formula_units_Z 48
_cell_length_a 31.111603
_cell_length_b 9.165969
_cell_length_c 8.639629
_cell_angle_alpha 90.000000
_cell_angle_beta 90.000000
_cell_angle_gamma 90.000000
_cell_volume 2463.745625
_symmetry_space_group_name_H-M "P M M M"
_symmetry_group_IT_number 47
_symmetry_cell_setting 'orthorhombic'
loop_
_space_group_symop_operation_xyz
x,y,z
-x,-y,z
x,-y,-z
-x,y,-z
-x,-y,-z
x,y,-z
-x,y,z
x,-y,z
loop_
_atom_site_type_symbol
_atom_site_label
_atom_site_fract_x
_atom_site_fract_y
_atom_site_fract_z
Si Si1 0.763176 0.669525 0.820300
Si Si2 0.920220 0.332778 0.181216
Si Si3 0.500000 0.174009 0.670604
Si Si4 0.841139 0.169378 0.680170
Si Si5 0.000000 0.164089 0.682297
Si Si6 0.408155 0.836171 0.685186
Si Si7 0.674249 0.670547 0.324052
O O1 0.770698 0.500000 0.778108
O O2 0.794335 0.768089 0.717561
O O3 0.714815 0.717485 0.779187
O O4 0.772001 0.699025 0.000000
O O5 0.919265 0.500000 0.238458
O O6 0.875173 0.258197 0.219124
O O7 0.957874 0.248386 0.266154
O O8 0.928878 0.324805 0.000000
O O9 0.500000 0.244236 0.500000
O O10 0.545279 0.220491 0.752663
O O11 0.500000 0.000000 0.656337
O O12 0.851453 0.190947 0.500000
O O13 0.843156 0.000000 0.726769
O O14 0.000000 0.155113 0.500000
O O15 0.000000 0.000000 0.752200
O O16 0.410529 0.828563 0.500000
O O17 0.368760 0.740417 0.748602
O O18 0.399454 0.000000 0.741900
O O19 0.682143 0.724270 0.500000
O O20 0.667013 0.500000 0.318391
#
# Coordination Sequence:
#
# PCOD8199744 Si02
#       7
#     8   8   4   8   4   8   8
#     4  10  21  37  56  77 102 136 177 217 260 314
#     4  11  24  41  62  89 119 152 191 230 270 321
#     4   7  10  18  33  55  84 117 152 192 240 293
#     4  11  24  40  59  85 114 143 178 221 269 320
#     4  11  24  41  62  90 122 155 194 237 278 320
#     4   8  13  22  38  60  87 120 157 196 241 297
#     4   9  17  29  45  67  96 127 159 201 254 306
#
# _framework density 19.482531999999999
#
# number of rings (size 3 to 8) (size 9 to 14) (size 15 to 20)
#    0.000    2.333    0.000    4.000    0.000   10.000 
#    0.000    2.083    0.000    2.500    0.000    0.583 
#    0.000    4.667    0.000    0.000    0.000    0.000 
#
# Total GULP energy -595054.195880 kJ/mol
# GULP energy per Si atom -12396.962414 kJ/mol
# Density = 1.943819 g / cm^3
# Si number density = 19.482532 Si / 1000 Ang^3
#
#
#
# Elastic Constant Matrix: (Units=GPa)
#
#
# Indices 1 2 3 4 5 6 
#
# 1 146.5874 63.4785 18.1518 0.0000 0.0000 0.0000
# 2 63.4785 100.4311 29.0504 0.0000 0.0000 0.0000
# 3 18.1518 29.0504 39.1952 0.0000 0.0000 0.0000
# 4 0.0000 0.0000 0.0000 20.0597 0.0000 0.0000
# 5 0.0000 0.0000 0.0000 0.0000 -51.0889 0.0000
# 6 0.0000 0.0000 0.0000 0.0000 0.0000 40.5808
#
#
#
# Elastic Compliance Matrix: (Units=1/GPa)
#
#
# Indices 1 2 3 4 5 6 
#
# 1 0.009393 -0.005955 0.000064 0.000000 0.000000 0.000000
# 2 -0.005955 0.016450 -0.009434 0.000000 0.000000 0.000000
# 3 0.000064 -0.009434 0.032476 0.000000 0.000000 0.000000
# 4 0.000000 0.000000 0.000000 0.049851 0.000000 0.000000
# 5 0.000000 0.000000 0.000000 0.000000 -0.019574 0.000000
# 6 0.000000 0.000000 0.000000 0.000000 0.000000 0.024642
#
#
# Mechanical properties :
#
#
# Convention : Reuss Voigt Hill
#
# Bulk Modulus (GPa) = 36.14326 56.39725 46.27026
# Shear Modulus (GPa) = 32.65560 13.61251 23.13405
#
# Velocity S-wave (km/s) = 4.09852 2.64617 3.44964
# Velocity P-wave (km/s) = 6.40227 6.19247 6.29824
#
# Compressibility (1/GPa) = 0.02766767
#
# Stress axis : x y z
#
# Youngs Moduli (GPa) = 106.46373 60.78958 30.79180
#
# Poissons Ratio (x) = 0.36202 -0.00197
# Poissons Ratio (y) = 0.63403 0.29050
# Poissons Ratio (z) = -0.00681 0.57351
#
# Static dielectric constant tensor:
#      x y z
#    x 4.021700 0.000000 0.000000 
#    y 0.000000 3.582920 0.000000 
#    z 0.000000 0.000000 3.270280 
# 
# 
# High freq. dielectric constant tensor:
#      x y z
#    x 1.782490 0.000000 0.000000 
#    y 0.000000 1.748760 0.000000 
#    z 0.000000 0.000000 1.728310 
# 
# From -- ./inp_files/13814.got.cif
#   From: 2010.03.12/outbox.cif.g09.slc.cpg/sg47_7_cif.got.tgz:13814.got - 2010.04.14 03:12:58.
