data_PCOD8199798
_publ_section_title
;
Structure prediction by ZEFSAII (Michael W. Deem and Ramdas Pophale) SiO2 
 PCOD8199798
Probable space group: P M M M
;
_chemical_formula_sum "Si O2"
_cell_formula_units_Z 64
_cell_length_a 9.308086
_cell_length_b 15.447359
_cell_length_c 23.672781
_cell_angle_alpha 90.000000
_cell_angle_beta 90.000000
_cell_angle_gamma 90.000000
_cell_volume 3403.799008
_symmetry_space_group_name_H-M "P M M M"
_symmetry_group_IT_number 47
_symmetry_cell_setting 'orthorhombic'
loop_
_space_group_symop_operation_xyz
x,y,z
-x,-y,z
x,-y,-z
-x,y,-z
-x,-y,-z
x,y,-z
-x,y,z
x,-y,z
loop_
_atom_site_type_symbol
_atom_site_label
_atom_site_fract_x
_atom_site_fract_y
_atom_site_fract_z
Si Si1 0.171882 0.257864 0.365061
Si Si2 0.337102 0.404328 0.166949
Si Si3 0.665071 0.600031 0.434335
Si Si4 0.670264 0.748868 0.247252
Si Si5 0.170421 0.904326 0.436772
Si Si6 0.832874 0.649750 0.937040
Si Si7 0.336526 0.903968 0.831800
Si Si8 0.832582 0.849777 0.063110
O O1 0.227890 0.341865 0.397909
O O2 0.238806 0.255109 0.303582
O O3 0.228446 0.170936 0.396125
O O4 0.000000 0.262221 0.361661
O O5 0.500000 0.380883 0.151582
O O6 0.324038 0.500000 0.194289
O O7 0.279379 0.334433 0.211418
O O8 0.251006 0.405695 0.108668
O O9 0.695036 0.618093 0.500000
O O10 0.500000 0.622433 0.419345
O O11 0.696647 0.500000 0.419872
O O12 0.500000 0.748243 0.260364
O O13 0.720111 0.834748 0.213676
O O14 0.229903 0.887689 0.500000
O O15 0.000000 0.901301 0.438035
O O16 0.221304 0.000000 0.415714
O O17 0.793028 0.749752 0.929052
O O18 0.000000 0.634133 0.927239
O O19 0.789174 0.619096 0.000000
O O20 0.500000 0.881097 0.846760
O O21 0.251095 0.903985 0.890355
O O22 0.321568 0.000000 0.805207
O O23 0.000000 0.865744 0.072507
O O24 0.788511 0.880463 0.000000
#
# Coordination Sequence:
#
# PCOD8199798 Si02
#       8
#     8   8   8   8   8   8   8   8
#     4  11  22  34  55  86 114 143 185 234 276 316
#     4  10  21  37  57  78  99 132 180 225 266 317
#     4   9  19  37  60  85 115 152 188 220 265 328
#     4  10  22  40  55  72 105 146 184 225 272 319
#     4   8  15  30  52  79 113 148 177 210 260 320
#     4   9  18  33  54  80 109 138 167 206 264 329
#     4  10  21  37  57  79 103 137 183 229 272 321
#     4   9  18  33  54  80 109 139 171 212 268 333
#
# _framework density 18.802520000000001
#
# number of rings (size 3 to 8) (size 9 to 14) (size 15 to 20)
#    0.000    2.500    1.250    2.250    0.000    4.500 
#    0.000    5.625    0.000    1.125    0.000    4.375 
#    0.000    0.000    0.000    0.000    0.000    0.000 
#
# Total GULP energy -793496.842729 kJ/mol
# GULP energy per Si atom -12398.388168 kJ/mol
# Density = 1.875972 g / cm^3
# Si number density = 18.802520 Si / 1000 Ang^3
#
#
#
# Elastic Constant Matrix: (Units=GPa)
#
#
# Indices 1 2 3 4 5 6 
#
# 1 54.2679 43.3850 51.5929 0.0000 0.0000 0.0000
# 2 43.3850 130.5648 77.4564 0.0000 0.0000 0.0000
# 3 51.5929 77.4564 131.9031 0.0000 0.0000 0.0000
# 4 0.0000 0.0000 0.0000 12.8559 0.0000 0.0000
# 5 0.0000 0.0000 0.0000 0.0000 28.9818 0.0000
# 6 0.0000 0.0000 0.0000 0.0000 0.0000 21.6745
#
#
#
# Elastic Compliance Matrix: (Units=1/GPa)
#
#
# Indices 1 2 3 4 5 6 
#
# 1 0.031178 -0.004796 -0.009378 0.000000 0.000000 0.000000
# 2 -0.004796 0.012491 -0.005459 0.000000 0.000000 0.000000
# 3 -0.009378 -0.005459 0.014455 0.000000 0.000000 0.000000
# 4 0.000000 0.000000 0.000000 0.077785 0.000000 0.000000
# 5 0.000000 0.000000 0.000000 0.000000 0.034504 0.000000
# 6 0.000000 0.000000 0.000000 0.000000 0.000000 0.046137
#
#
# Mechanical properties :
#
#
# Convention : Reuss Voigt Hill
#
# Bulk Modulus (GPa) = 53.03168 73.51162 63.27165
# Shear Modulus (GPa) = 19.07634 22.32255 20.69944
#
# Velocity S-wave (km/s) = 3.18868 3.44933 3.32156
# Velocity P-wave (km/s) = 6.46704 7.41926 6.95946
#
# Compressibility (1/GPa) = 0.01885665
#
# Stress axis : x y z
#
# Youngs Moduli (GPa) = 32.07419 80.05516 69.17832
#
# Poissons Ratio (x) = 0.38397 0.64879
# Poissons Ratio (y) = 0.15384 0.37766
# Poissons Ratio (z) = 0.30081 0.43704
#
# Static dielectric constant tensor:
#      x y z
#    x 3.227440 0.000000 0.000000 
#    y 0.000000 3.639590 0.000000 
#    z 0.000000 0.000000 3.385730 
# 
# 
# High freq. dielectric constant tensor:
#      x y z
#    x 1.710260 0.000000 0.000000 
#    y 0.000000 1.742240 0.000000 
#    z 0.000000 0.000000 1.724590 
# 
# From -- ./inp_files/7914.got.cif
#   From: 2010.03.12/outbox.cif.g09.slc.cpg/sg47_4_cif.got.tgz:7914.got - 2010.04.14 03:12:58.
