data_PCOD8199648
_publ_section_title
;
Structure prediction by ZEFSAII (Michael W. Deem and Ramdas Pophale) SiO2 
 PCOD8199648
Probable space group: P M M M
;
_chemical_formula_sum "Si O2"
_cell_formula_units_Z 56
_cell_length_a 13.977023
_cell_length_b 22.345135
_cell_length_c 9.787224
_cell_angle_alpha 90.000000
_cell_angle_beta 90.000000
_cell_angle_gamma 90.000000
_cell_volume 3056.730784
_symmetry_space_group_name_H-M "P M M M"
_symmetry_group_IT_number 47
_symmetry_cell_setting 'orthorhombic'
loop_
_space_group_symop_operation_xyz
x,y,z
-x,-y,z
x,-y,-z
-x,y,-z
-x,-y,-z
x,y,-z
-x,y,z
x,-y,z
loop_
_atom_site_type_symbol
_atom_site_label
_atom_site_fract_x
_atom_site_fract_y
_atom_site_fract_z
Si Si1 0.111000 0.873731 0.157666
Si Si2 0.789347 0.370487 0.749286
Si Si3 0.392312 0.569015 0.658628
Si Si4 0.772761 0.242251 0.155000
Si Si5 0.113337 0.431384 0.000000
Si Si6 0.389600 0.151821 0.842170
Si Si7 0.113198 0.568104 0.500000
Si Si8 0.733409 0.070011 0.341812
O O1 0.142742 0.805274 0.180915
O O2 0.168012 0.916071 0.262091
O O3 0.000000 0.880178 0.192628
O O4 0.132449 0.892291 0.000000
O O5 0.679331 0.392028 0.749482
O O6 0.789297 0.298467 0.746448
O O7 0.845259 0.396596 0.874380
O O8 0.848990 0.395311 0.625660
O O9 0.366776 0.578143 0.500000
O O10 0.500000 0.590902 0.689006
O O11 0.381171 0.500000 0.699405
O O12 0.670508 0.211860 0.187472
O O13 0.774669 0.265854 0.000000
O O14 0.147531 0.500000 0.000000
O O15 0.000000 0.427235 0.000000
O O16 0.500000 0.165838 0.813129
O O17 0.354501 0.100640 0.738380
O O18 0.372901 0.131268 0.000000
O O19 0.153532 0.500000 0.500000
O O20 0.000000 0.566619 0.500000
O O21 0.739176 0.092372 0.500000
O O22 0.713980 0.000000 0.338374
#
# Coordination Sequence:
#
# PCOD8199648 Si02
#       8
#     8   8   8   8   4   8   4   8
#     4   9  19  37  60  81 107 148 197 245 285 325
#     4  12  21  37  60  82 111 149 185 234 291 344
#     4   9  18  34  56  79 103 136 178 223 276 337
#     4   9  19  37  56  82 112 143 183 230 283 342
#     4  11  24  38  55  83 115 147 185 230 288 352
#     4   9  19  38  63  84 110 150 192 235 278 323
#     4  11  24  40  57  79 109 147 193 238 282 342
#     4  10  21  36  55  84 124 159 187 226 278 336
#
# _framework density 18.320225000000001
#
# number of rings (size 3 to 8) (size 9 to 14) (size 15 to 20)
#    0.000    2.143    1.429    3.429    0.000    5.143 
#    5.143    3.214    0.000    1.286    0.000    0.000 
#    0.000    0.000    0.000    0.000    0.000    0.000 
#
# Total GULP energy -694321.207097 kJ/mol
# GULP energy per Si atom -12398.592984 kJ/mol
# Density = 1.827853 g / cm^3
# Si number density = 18.320225 Si / 1000 Ang^3
#
#
#
# Elastic Constant Matrix: (Units=GPa)
#
#
# Indices 1 2 3 4 5 6 
#
# 1 101.8505 33.7485 42.7015 0.0000 0.0000 0.0000
# 2 33.7485 104.4635 55.8919 0.0000 0.0000 0.0000
# 3 42.7015 55.8919 114.1553 0.0000 0.0000 0.0000
# 4 0.0000 0.0000 0.0000********** 0.0000 0.0000
# 5 0.0000 0.0000 0.0000 0.0000 22.3692 0.0000
# 6 0.0000 0.0000 0.0000 0.0000 0.0000 8.5347
#
#
#
# Elastic Compliance Matrix: (Units=1/GPa)
#
#
# Indices 1 2 3 4 5 6 
#
# 1 0.011942 -0.001989 -0.003493 0.000000 0.000000 0.000000
# 2 -0.001989 0.013302 -0.005769 0.000000 0.000000 0.000000
# 3 -0.003493 -0.005769 0.012891 0.000000 0.000000 0.000000
# 4 0.000000 0.000000 0.000000 -0.000050 0.000000 0.000000
# 5 0.000000 0.000000 0.000000 0.000000 0.044704 0.000000
# 6 0.000000 0.000000 0.000000 0.000000 0.000000 0.117169
#
#
# Mechanical properties :
#
#
# Convention : Reuss Voigt Hill
#
# Bulk Modulus (GPa) = 63.96740 65.01702 64.49221
# Shear Modulus (GPa) = 21.96147 -3997.61565 -1987.82709
#
# Velocity S-wave (km/s) = 3.46606 -46.76339 -32.97576
# Velocity P-wave (km/s) = 7.14214 53.66737 37.61101
#
# Compressibility (1/GPa) = 0.01563296
#
# Stress axis : x y z
#
# Youngs Moduli (GPa) = 83.73854 75.17794 77.57281
#
# Poissons Ratio (x) = 0.14953 0.27098
# Poissons Ratio (y) = 0.16656 0.44749
# Poissons Ratio (z) = 0.29252 0.43368
#
# Static dielectric constant tensor:
#      x y z
#    x 3.552710 0.000000 0.000000 
#    y 0.000000 3.277290 0.000000 
#    z 0.000000 0.000000 3.340110 
# 
# 
# High freq. dielectric constant tensor:
#      x y z
#    x 1.722400 0.000000 0.000000 
#    y 0.000000 1.702280 0.000000 
#    z 0.000000 0.000000 1.705350 
# 
# From -- ./inp_files/7460.got.cif
#   From: 2010.03.12/outbox.cif.g09.slc.cpg/sg47_4_cif.got.tgz:7460.got - 2010.04.14 03:12:58.
