data_PCOD8199721
_publ_section_title
;
Structure prediction by ZEFSAII (Michael W. Deem and Ramdas Pophale) SiO2 
 PCOD8199721
Probable space group: P M M M
;
_chemical_formula_sum "Si O2"
_cell_formula_units_Z 36
_cell_length_a 15.630007
_cell_length_b 8.050067
_cell_length_c 14.637844
_cell_angle_alpha 90.000000
_cell_angle_beta 90.000000
_cell_angle_gamma 90.000000
_cell_volume 1841.771643
_symmetry_space_group_name_H-M "P M M M"
_symmetry_group_IT_number 47
_symmetry_cell_setting 'orthorhombic'
loop_
_space_group_symop_operation_xyz
x,y,z
-x,-y,z
x,-y,-z
-x,y,-z
-x,-y,-z
x,y,-z
-x,y,z
x,-y,z
loop_
_atom_site_type_symbol
_atom_site_label
_atom_site_fract_x
_atom_site_fract_y
_atom_site_fract_z
Si Si1 0.591824 0.000000 0.892896
Si Si2 0.297866 0.686201 0.897440
Si Si3 0.096520 0.692572 0.395063
Si Si4 0.753319 0.809583 0.277495
Si Si5 0.595584 0.802556 0.603111
O O1 0.634893 0.826132 0.864914
O O2 0.500000 0.000000 0.843217
O O3 0.580884 0.000000 0.000000
O O4 0.337228 0.500000 0.896861
O O5 0.227975 0.705066 0.816588
O O6 0.261794 0.724636 0.000000
O O7 0.106488 0.744680 0.500000
O O8 0.118609 0.500000 0.381786
O O9 0.161658 0.802292 0.337459
O O10 0.000000 0.730050 0.361936
O O11 0.670772 0.732670 0.331118
O O12 0.735320 0.000000 0.251266
O O13 0.612689 0.737620 0.500000
O O14 0.500000 0.744603 0.634721
O O15 0.600517 0.000000 0.603667
#
# Coordination Sequence:
#
# PCOD8199721 Si02
#       5
#     4   8   8   8   8
#     4   9  18  34  54  76 104 139 184 238 290 337
#     4  10  21  37  55  77 108 147 190 235 286 341
#     4   9  19  36  56  79 111 149 186 229 282 339
#     4  11  20  31  53  84 109 143 187 233 284 337
#     4   8  15  28  45  69 104 143 180 217 262 321
#
# _framework density 19.546396999999999
#
# number of rings (size 3 to 8) (size 9 to 14) (size 15 to 20)
#    0.000    2.556    1.111    2.667    0.000    3.111 
#    0.000    3.333    0.000    2.667    0.000   12.444 
#    0.000    0.000    0.000    0.000    0.000    0.000 
#
# Total GULP energy -446004.727290 kJ/mol
# GULP energy per Si atom -12389.020202 kJ/mol
# Density = 1.950191 g / cm^3
# Si number density = 19.546397 Si / 1000 Ang^3
#
#
#
# Elastic Constant Matrix: (Units=GPa)
#
#
# Indices 1 2 3 4 5 6 
#
# 1 99.4003 24.8876 58.5613 0.0000 0.0000 0.0000
# 2 24.8876 81.1061 32.0410 0.0000 0.0000 0.0000
# 3 58.5613 32.0410 119.5580 0.0000 0.0000 0.0000
# 4 0.0000 0.0000 0.0000 24.3402 0.0000 0.0000
# 5 0.0000 0.0000 0.0000 0.0000 11.6404 0.0000
# 6 0.0000 0.0000 0.0000 0.0000 0.0000 9.1736
#
#
#
# Elastic Compliance Matrix: (Units=1/GPa)
#
#
# Indices 1 2 3 4 5 6 
#
# 1 0.014378 -0.001823 -0.006554 0.000000 0.000000 0.000000
# 2 -0.001823 0.014021 -0.002865 0.000000 0.000000 0.000000
# 3 -0.006554 -0.002865 0.012342 0.000000 0.000000 0.000000
# 4 0.000000 0.000000 0.000000 0.041084 0.000000 0.000000
# 5 0.000000 0.000000 0.000000 0.000000 0.085908 0.000000
# 6 0.000000 0.000000 0.000000 0.000000 0.000000 0.109008
#
#
# Mechanical properties :
#
#
# Convention : Reuss Voigt Hill
#
# Bulk Modulus (GPa) = 54.77124 59.00494 56.88809
# Shear Modulus (GPa) = 16.37681 21.33582 18.85631
#
# Velocity S-wave (km/s) = 2.89769 3.30744 3.10932
# Velocity P-wave (km/s) = 6.26717 6.69613 6.48520
#
# Compressibility (1/GPa) = 0.01825776
#
# Stress axis : x y z
#
# Youngs Moduli (GPa) = 69.55063 71.32408 81.02324
#
# Poissons Ratio (x) = 0.13001 0.53103
# Poissons Ratio (y) = 0.12677 0.23210
# Poissons Ratio (z) = 0.45584 0.20432
#
# Static dielectric constant tensor:
#      x y z
#    x 3.492030 0.000000 0.000000 
#    y 0.000000 3.358060 0.000000 
#    z 0.000000 0.000000 3.791880 
# 
# 
# High freq. dielectric constant tensor:
#      x y z
#    x 1.726730 0.000000 0.000000 
#    y 0.000000 1.748620 0.000000 
#    z 0.000000 0.000000 1.772080 
# 
# From -- ./inp_files/5552.got.cif
#   From: 2010.03.12/outbox.cif.g09.slc.cpg/sg47_3_cif.got.tgz:5552.got - 2010.04.14 03:12:58.
