data_PCOD8199118
_publ_section_title
;
Structure prediction by ZEFSAII (Michael W. Deem and Ramdas Pophale) SiO2 
 PCOD8199118
Probable space group: P M M M
;
_chemical_formula_sum "Si O2"
_cell_formula_units_Z 48
_cell_length_a 8.833228
_cell_length_b 29.578287
_cell_length_c 9.744391
_cell_angle_alpha 90.000000
_cell_angle_beta 90.000000
_cell_angle_gamma 90.000000
_cell_volume 2545.934118
_symmetry_space_group_name_H-M "P M M M"
_symmetry_group_IT_number 47
_symmetry_cell_setting 'orthorhombic'
loop_
_space_group_symop_operation_xyz
x,y,z
-x,-y,z
x,-y,-z
-x,y,-z
-x,-y,-z
x,y,-z
-x,y,z
x,-y,z
loop_
_atom_site_type_symbol
_atom_site_label
_atom_site_fract_x
_atom_site_fract_y
_atom_site_fract_z
Si Si1 0.318772 0.855065 0.155330
Si Si2 0.679759 0.773878 0.343044
Si Si3 0.822742 0.698320 0.842510
Si Si4 0.321647 0.448643 0.500000
Si Si5 0.176799 0.402976 0.754823
Si Si6 0.667278 0.447714 0.000000
Si Si7 0.330942 0.047832 0.837219
O O1 0.500000 0.857006 0.155515
O O2 0.257457 0.817779 0.261756
O O3 0.253828 0.904372 0.206792
O O4 0.262548 0.843589 0.000000
O O5 0.741226 0.774043 0.500000
O O6 0.500000 0.773856 0.343178
O O7 0.735091 0.730118 0.262415
O O8 0.782448 0.647860 0.797162
O O9 0.000000 0.707971 0.829929
O O10 0.768884 0.706002 0.000000
O O11 0.253202 0.500000 0.500000
O O12 0.500000 0.452768 0.500000
O O13 0.269888 0.418330 0.625044
O O14 0.000000 0.408838 0.726320
O O15 0.229928 0.435979 0.872332
O O16 0.636109 0.500000 0.000000
O O17 0.500000 0.423818 0.000000
O O18 0.500000 0.046322 0.775937
O O19 0.248832 0.000000 0.791625
O O20 0.340170 0.049416 0.000000
#
# Coordination Sequence:
#
# PCOD8199118 Si02
#       7
#     8   8   8   4   8   4   8
#     4   8  13  23  40  62  92 130 171 216 262 308
#     4  10  21  34  50  76 106 138 176 216 262 318
#     4  10  22  41  60  80 106 135 172 221 271 315
#     4  11  25  43  61  87 123 155 185 225 270 317
#     4  11  23  41  63  87 114 149 190 228 270 324
#     4  11  23  39  61  91 123 151 181 223 274 321
#     4   7   9  14  28  53  84 120 164 211 257 304
#
# _framework density 18.853590000000001
#
# number of rings (size 3 to 8) (size 9 to 14) (size 15 to 20)
#    0.000    2.500    0.833    3.500    1.167    6.000 
#    0.000    0.000    0.000    0.500    0.000    3.500 
#    0.000    0.667    0.000    7.667    0.000    8.833 
#
# Total GULP energy -594646.355972 kJ/mol
# GULP energy per Si atom -12388.465749 kJ/mol
# Density = 1.881068 g / cm^3
# Si number density = 18.853590 Si / 1000 Ang^3
#
#
#
# Elastic Constant Matrix: (Units=GPa)
#
#
# Indices 1 2 3 4 5 6 
#
# 1 25.7948 29.2842 20.6570 0.0000 0.0000 0.0000
# 2 29.2842 125.0246 61.2711 0.0000 0.0000 0.0000
# 3 20.6570 61.2711 136.6557 0.0000 0.0000 0.0000
# 4 0.0000 0.0000 0.0000 71.3825 0.0000 0.0000
# 5 0.0000 0.0000 0.0000 0.0000 -14.2790 0.0000
# 6 0.0000 0.0000 0.0000 0.0000 0.0000 -1.1939
#
#
#
# Elastic Compliance Matrix: (Units=1/GPa)
#
#
# Indices 1 2 3 4 5 6 
#
# 1 0.053871 -0.011057 -0.003186 0.000000 0.000000 0.000000
# 2 -0.011057 0.012520 -0.003942 0.000000 0.000000 0.000000
# 3 -0.003186 -0.003942 0.009567 0.000000 0.000000 0.000000
# 4 0.000000 0.000000 0.000000 0.014009 0.000000 0.000000
# 5 0.000000 0.000000 0.000000 0.000000 -0.070033 0.000000
# 6 0.000000 0.000000 0.000000 0.000000 0.000000 -0.837558
#
#
# Mechanical properties :
#
#
# Convention : Reuss Voigt Hill
#
# Bulk Modulus (GPa) = 25.25980 56.65551 40.95765
# Shear Modulus (GPa) = -6.50993 22.93277 8.21142
#
# Velocity S-wave (km/s) = -1.86021 3.49142 2.08921
# Velocity P-wave (km/s) = 2.96869 6.80947 5.25271
#
# Compressibility (1/GPa) = 0.03958860
#
# Stress axis : x y z
#
# Youngs Moduli (GPa) = 18.56274 79.87071 104.52869
#
# Poissons Ratio (x) = 0.88312 0.33300
# Poissons Ratio (y) = 0.20525 0.41207
# Poissons Ratio (z) = 0.05914 0.31487
#
# Static dielectric constant tensor:
#      x y z
#    x 3.101530 0.000000 0.000000 
#    y 0.000000 4.018110 0.000000 
#    z 0.000000 0.000000 3.467810 
# 
# 
# High freq. dielectric constant tensor:
#      x y z
#    x 1.689590 0.000000 0.000000 
#    y 0.000000 1.756410 0.000000 
#    z 0.000000 0.000000 1.718920 
# 
# From -- ./inp_files/2561.got.cif
#   From: 2010.03.12/outbox.cif.g09.slc.cpg/sg47_2_cif.got.tgz:2561.got - 2010.04.14 03:12:58.
