data_PCOD8199671
_publ_section_title
;
Structure prediction by ZEFSAII (Michael W. Deem and Ramdas Pophale) SiO2 
 PCOD8199671
Probable space group: P M M M
;
_chemical_formula_sum "Si O2"
_cell_formula_units_Z 64
_cell_length_a 14.707613
_cell_length_b 9.136425
_cell_length_c 24.456066
_cell_angle_alpha 90.000000
_cell_angle_beta 90.000000
_cell_angle_gamma 90.000000
_cell_volume 3286.283945
_symmetry_space_group_name_H-M "P M M M"
_symmetry_group_IT_number 47
_symmetry_cell_setting 'orthorhombic'
loop_
_space_group_symop_operation_xyz
x,y,z
-x,-y,z
x,-y,-z
-x,y,-z
-x,-y,-z
x,y,-z
-x,y,z
x,-y,z
loop_
_atom_site_type_symbol
_atom_site_label
_atom_site_fract_x
_atom_site_fract_y
_atom_site_fract_z
Si Si1 0.901021 0.672516 0.595102
Si Si2 0.719889 0.168510 0.236602
Si Si3 0.742993 0.671550 0.872965
Si Si4 0.100094 0.163701 0.295532
Si Si5 0.399537 0.161945 0.064344
Si Si6 0.894812 0.829275 0.062327
Si Si7 0.707500 0.671304 0.439080
Si Si8 0.605110 0.172368 0.341447
O O1 0.906239 0.500000 0.593063
O O2 0.884444 0.720243 0.657041
O O3 0.813244 0.725976 0.561107
O O4 0.000000 0.734566 0.573920
O O5 0.702956 0.264892 0.183455
O O6 0.826335 0.190589 0.248940
O O7 0.658568 0.225634 0.287277
O O8 0.695737 0.000000 0.224112
O O9 0.756420 0.500000 0.867145
O O10 0.666907 0.709752 0.917244
O O11 0.838016 0.740132 0.892841
O O12 0.000000 0.182539 0.269093
O O13 0.112079 0.000000 0.320213
O O14 0.500000 0.189042 0.089043
O O15 0.364431 0.000000 0.082838
O O16 0.404827 0.167662 0.000000
O O17 0.000000 0.791628 0.072028
O O18 0.876040 0.000000 0.071677
O O19 0.867021 0.786670 0.000000
O O20 0.669379 0.702605 0.500000
O O21 0.702900 0.500000 0.424859
O O22 0.646369 0.754945 0.395477
O O23 0.500000 0.218219 0.335563
O O24 0.616876 0.000000 0.348696
#
# Coordination Sequence:
#
# PCOD8199671 Si02
#       8
#     8   8   8   8   8   8   8   8
#     4   9  17  30  51  79 111 146 180 215 260 317
#     4  10  21  38  57  78 107 146 191 234 279 336
#     4  12  25  36  53  86 124 155 186 232 290 349
#     4   9  17  31  54  80 103 132 175 225 272 318
#     4   9  19  38  63  86 109 144 190 235 279 333
#     4   9  19  38  63  87 114 156 208 252 288 333
#     4  10  21  36  56  84 117 150 184 224 274 338
#     4  10  22  41  63  84 106 138 186 241 291 337
#
# _framework density 19.474883999999999
#
# number of rings (size 3 to 8) (size 9 to 14) (size 15 to 20)
#    0.000    2.250    1.250    2.250    0.000    5.500 
#    0.000    6.250    0.000    0.000    0.000    2.625 
#    0.000    0.000    0.000    0.000    0.000    0.000 
#
# Total GULP energy -793304.620648 kJ/mol
# GULP energy per Si atom -12395.384698 kJ/mol
# Density = 1.943056 g / cm^3
# Si number density = 19.474884 Si / 1000 Ang^3
#
#
#
# Elastic Constant Matrix: (Units=GPa)
#
#
# Indices 1 2 3 4 5 6 
#
# 1 119.3131 43.3040 50.8926 0.0000 0.0000 0.0000
# 2 43.3040 57.2332 41.2305 0.0000 0.0000 0.0000
# 3 50.8926 41.2305 93.4475 0.0000 0.0000 0.0000
# 4 0.0000 0.0000 0.0000 25.4075 0.0000 0.0000
# 5 0.0000 0.0000 0.0000 0.0000 10.6493 0.0000
# 6 0.0000 0.0000 0.0000 0.0000 0.0000 16.8504
#
#
#
# Elastic Compliance Matrix: (Units=1/GPa)
#
#
# Indices 1 2 3 4 5 6 
#
# 1 0.012428 -0.006637 -0.003840 0.000000 0.000000 0.000000
# 2 -0.006637 0.029158 -0.009250 0.000000 0.000000 0.000000
# 3 -0.003840 -0.009250 0.016874 0.000000 0.000000 0.000000
# 4 0.000000 0.000000 0.000000 0.039359 0.000000 0.000000
# 5 0.000000 0.000000 0.000000 0.000000 0.093903 0.000000
# 6 0.000000 0.000000 0.000000 0.000000 0.000000 0.059346
#
#
# Mechanical properties :
#
#
# Convention : Reuss Voigt Hill
#
# Bulk Modulus (GPa) = 52.61754 60.09422 56.35588
# Shear Modulus (GPa) = 16.84309 19.55255 18.19782
#
# Velocity S-wave (km/s) = 2.94404 3.17201 3.06015
# Velocity P-wave (km/s) = 6.21557 6.65882 6.44101
#
# Compressibility (1/GPa) = 0.01900507
#
# Stress axis : x y z
#
# Youngs Moduli (GPa) = 80.46227 34.29589 59.26274
#
# Poissons Ratio (x) = 0.22762 0.22758
# Poissons Ratio (y) = 0.53403 0.54820
# Poissons Ratio (z) = 0.30899 0.31725
#
# Static dielectric constant tensor:
#      x y z
#    x 3.897960 0.000000 0.000000 
#    y 0.000000 3.426740 0.000000 
#    z 0.000000 0.000000 3.386000 
# 
# 
# High freq. dielectric constant tensor:
#      x y z
#    x 1.772200 0.000000 0.000000 
#    y 0.000000 1.737700 0.000000 
#    z 0.000000 0.000000 1.747100 
# 
# From -- ./inp_files/32780.got.cif
#   From: 2010.03.12/outbox.cif.g09.slc.cpg/sg47_17_cif.got.tgz:32780.got - 2010.04.14 03:12:58.
