data_PCOD8199431
_publ_section_title
;
Structure prediction by ZEFSAII (Michael W. Deem and Ramdas Pophale) SiO2 
 PCOD8199431
Probable space group: P M M M
;
_chemical_formula_sum "Si O2"
_cell_formula_units_Z 64
_cell_length_a 27.696323
_cell_length_b 9.044958
_cell_length_c 14.350801
_cell_angle_alpha 90.000000
_cell_angle_beta 90.000000
_cell_angle_gamma 90.000000
_cell_volume 3595.048984
_symmetry_space_group_name_H-M "P M M M"
_symmetry_group_IT_number 47
_symmetry_cell_setting 'orthorhombic'
loop_
_space_group_symop_operation_xyz
x,y,z
-x,-y,z
x,-y,-z
-x,y,-z
-x,-y,-z
x,y,-z
-x,y,z
x,-y,z
loop_
_atom_site_type_symbol
_atom_site_label
_atom_site_fract_x
_atom_site_fract_y
_atom_site_fract_z
Si Si1 0.825312 0.326020 0.106575
Si Si2 0.134662 0.174413 0.275561
Si Si3 0.365177 0.825846 0.223666
Si Si4 0.273021 0.169848 0.107599
Si Si5 0.055828 0.330500 0.393030
Si Si6 0.214860 0.330831 0.607929
Si Si7 0.325462 0.327590 0.394324
Si Si8 0.444205 0.329326 0.105944
O O1 0.827730 0.500000 0.121810
O O2 0.864332 0.247051 0.172754
O O3 0.772155 0.270851 0.135486
O O4 0.836983 0.281933 0.000000
O O5 0.086156 0.224743 0.326704
O O6 0.181610 0.222994 0.332869
O O7 0.134299 0.000000 0.265009
O O8 0.318762 0.772580 0.165230
O O9 0.360967 0.763263 0.327887
O O10 0.413587 0.767607 0.176693
O O11 0.368469 0.000000 0.227831
O O12 0.260075 0.000000 0.130895
O O13 0.286623 0.189310 0.000000
O O14 0.065225 0.285633 0.500000
O O15 0.071747 0.500000 0.377249
O O16 0.000000 0.309374 0.367371
O O17 0.200924 0.314096 0.500000
O O18 0.206406 0.500000 0.639809
O O19 0.269996 0.282713 0.624621
O O20 0.339588 0.287802 0.500000
O O21 0.332611 0.500000 0.375381
O O22 0.500000 0.302989 0.130088
O O23 0.430318 0.500000 0.118781
O O24 0.433501 0.279403 0.000000
#
# Coordination Sequence:
#
# PCOD8199431 Si02
#       8
#     8   8   8   8   8   8   8   8
#     4  10  21  36  53  72  96 132 178 220 253 289
#     4  12  23  32  49  77 107 138 168 203 253 307
#     4  11  21  31  49  77 105 134 166 202 251 306
#     4   9  18  32  48  71 106 139 165 199 247 302
#     4   9  19  37  59  80 103 133 168 206 248 294
#     4   9  18  33  52  74 102 136 174 213 248 288
#     4   9  19  35  52  70  96 134 177 216 251 288
#     4   9  19  36  56  77 101 130 165 204 245 292
#
# _framework density 17.80226
#
# number of rings (size 3 to 8) (size 9 to 14) (size 15 to 20)
#    0.000    2.250    0.000    4.875    0.000    7.750 
#    0.000    3.750    0.000    0.750    0.000    5.250 
#    0.000    0.000    0.000    0.000    0.000    0.000 
#
# Total GULP energy -793795.893993 kJ/mol
# GULP energy per Si atom -12403.060844 kJ/mol
# Density = 1.776174 g / cm^3
# Si number density = 17.802260 Si / 1000 Ang^3
#
#
#
# Elastic Constant Matrix: (Units=GPa)
#
#
# Indices 1 2 3 4 5 6 
#
# 1 77.2357 48.9279 60.2569 0.0000 0.0000 0.0000
# 2 48.9279 90.9662 55.0849 0.0000 0.0000 0.0000
# 3 60.2569 55.0849 105.2164 0.0000 0.0000 0.0000
# 4 0.0000 0.0000 0.0000 24.8517 0.0000 0.0000
# 5 0.0000 0.0000 0.0000 0.0000 32.1199 0.0000
# 6 0.0000 0.0000 0.0000 0.0000 0.0000 23.1985
#
#
#
# Elastic Compliance Matrix: (Units=1/GPa)
#
#
# Indices 1 2 3 4 5 6 
#
# 1 0.026410 -0.007389 -0.011257 0.000000 0.000000 0.000000
# 2 -0.007389 0.018163 -0.005278 0.000000 0.000000 0.000000
# 3 -0.011257 -0.005278 0.018714 0.000000 0.000000 0.000000
# 4 0.000000 0.000000 0.000000 0.040239 0.000000 0.000000
# 5 0.000000 0.000000 0.000000 0.000000 0.031133 0.000000
# 6 0.000000 0.000000 0.000000 0.000000 0.000000 0.043106
#
#
# Mechanical properties :
#
#
# Convention : Reuss Voigt Hill
#
# Bulk Modulus (GPa) = 64.76195 66.88419 65.82307
# Shear Modulus (GPa) = 21.66766 23.31059 22.48912
#
# Velocity S-wave (km/s) = 3.49252 3.62251 3.55811
# Velocity P-wave (km/s) = 7.26093 7.42624 7.34405
#
# Compressibility (1/GPa) = 0.01544116
#
# Stress axis : x y z
#
# Youngs Moduli (GPa) = 37.86422 55.05654 53.43600
#
# Poissons Ratio (x) = 0.40679 0.60151
# Poissons Ratio (y) = 0.27977 0.28202
# Poissons Ratio (z) = 0.42623 0.29057
#
# Static dielectric constant tensor:
#      x y z
#    x 3.122940 0.000000 0.000000 
#    y 0.000000 3.193910 0.000000 
#    z 0.000000 0.000000 3.395290 
# 
# 
# High freq. dielectric constant tensor:
#      x y z
#    x 1.668870 0.000000 0.000000 
#    y 0.000000 1.687260 0.000000 
#    z 0.000000 0.000000 1.693190 
# 
# From -- ./inp_files/25543.got.cif
#   From: 2010.03.12/outbox.cif.g09.slc.cpg/sg47_13_cif.got.tgz:25543.got - 2010.04.14 03:12:58.
