data_PCOD8199439
_publ_section_title
;
Structure prediction by ZEFSAII (Michael W. Deem and Ramdas Pophale) SiO2 
 PCOD8199439
Probable space group: P M M M
;
_chemical_formula_sum "Si O2"
_cell_formula_units_Z 56
_cell_length_a 14.663376
_cell_length_b 8.868247
_cell_length_c 23.310029
_cell_angle_alpha 90.000000
_cell_angle_beta 90.000000
_cell_angle_gamma 90.000000
_cell_volume 3031.199813
_symmetry_space_group_name_H-M "P M M M"
_symmetry_group_IT_number 47
_symmetry_cell_setting 'orthorhombic'
loop_
_space_group_symop_operation_xyz
x,y,z
-x,-y,z
x,-y,-z
-x,y,-z
-x,-y,-z
x,y,-z
-x,y,z
x,-y,z
loop_
_atom_site_type_symbol
_atom_site_label
_atom_site_fract_x
_atom_site_fract_y
_atom_site_fract_z
Si Si1 0.395600 0.177785 0.289023
Si Si2 0.606217 0.326949 0.829806
Si Si3 0.103141 0.825646 0.433017
Si Si4 0.101014 0.678909 0.244827
Si Si5 0.281368 0.679706 0.062854
Si Si6 0.099910 0.679208 0.116886
Si Si7 0.230952 0.678568 0.343640
O O1 0.500000 0.227662 0.301170
O O2 0.364095 0.235884 0.226482
O O3 0.331909 0.249916 0.338339
O O4 0.385355 0.000000 0.290582
O O5 0.500000 0.312024 0.841910
O O6 0.635998 0.500000 0.819618
O O7 0.654718 0.257687 0.886307
O O8 0.118436 0.798435 0.500000
O O9 0.179556 0.727457 0.401285
O O10 0.000000 0.775013 0.416007
O O11 0.117073 0.000000 0.417195
O O12 0.102647 0.500000 0.247733
O O13 0.126369 0.734581 0.180919
O O14 0.172948 0.744012 0.290103
O O15 0.000000 0.737794 0.261155
O O16 0.286302 0.500000 0.063357
O O17 0.177568 0.736095 0.073455
O O18 0.312203 0.740255 0.000000
O O19 0.095537 0.500000 0.117042
O O20 0.000000 0.742742 0.098808
O O21 0.240816 0.500000 0.343307
#
# Coordination Sequence:
#
# PCOD8199439 Si02
#       7
#     8   8   8   8   8   8   8
#     4  10  21  36  53  73  98 129 165 205 253 313
#     4   9  17  30  48  68  90 117 151 194 246 301
#     4   9  19  36  55  76 109 153 191 216 241 281
#     4   8  14  24  39  64  97 127 154 189 239 295
#     4   9  16  24  36  58  87 117 151 192 238 290
#     4   8  13  21  32  48  78 119 153 181 221 277
#     4  11  20  30  51  80 107 134 167 212 261 303
#
# _framework density 18.474533000000001
#
# number of rings (size 3 to 8) (size 9 to 14) (size 15 to 20)
#    0.000    2.857    0.000    3.429    0.000    4.857 
#    0.000    3.571    0.000    0.857    0.000    5.000 
#    0.000    0.000    0.000    5.143    0.000    4.571 
#
# Total GULP energy -694097.672605 kJ/mol
# GULP energy per Si atom -12394.601297 kJ/mol
# Density = 1.843248 g / cm^3
# Si number density = 18.474533 Si / 1000 Ang^3
#
#
#
# Elastic Constant Matrix: (Units=GPa)
#
#
# Indices 1 2 3 4 5 6 
#
# 1 101.2425 33.8571 56.9078 0.0000 0.0000 0.0000
# 2 33.8571 41.9463 29.0212 0.0000 0.0000 0.0000
# 3 56.9078 29.0212 84.2454 0.0000 0.0000 0.0000
# 4 0.0000 0.0000 0.0000 13.0790 0.0000 0.0000
# 5 0.0000 0.0000 0.0000 0.0000 31.0626 0.0000
# 6 0.0000 0.0000 0.0000 0.0000 0.0000 18.4262
#
#
#
# Elastic Compliance Matrix: (Units=1/GPa)
#
#
# Indices 1 2 3 4 5 6 
#
# 1 0.017717 -0.007904 -0.009245 0.000000 0.000000 0.000000
# 2 -0.007904 0.034826 -0.006658 0.000000 0.000000 0.000000
# 3 -0.009245 -0.006658 0.020409 0.000000 0.000000 0.000000
# 4 0.000000 0.000000 0.000000 0.076459 0.000000 0.000000
# 5 0.000000 0.000000 0.000000 0.000000 0.032193 0.000000
# 6 0.000000 0.000000 0.000000 0.000000 0.000000 0.054270
#
#
# Mechanical properties :
#
#
# Convention : Reuss Voigt Hill
#
# Bulk Modulus (GPa) = 39.46659 51.88959 45.67809
# Shear Modulus (GPa) = 17.12717 19.69010 18.40863
#
# Velocity S-wave (km/s) = 3.04808 3.26820 3.16006
# Velocity P-wave (km/s) = 5.81350 6.51073 6.17197
#
# Compressibility (1/GPa) = 0.02533789
#
# Stress axis : x y z
#
# Youngs Moduli (GPa) = 56.44251 28.71412 48.99886
#
# Poissons Ratio (x) = 0.22696 0.45300
# Poissons Ratio (y) = 0.44613 0.32622
# Poissons Ratio (z) = 0.52182 0.19117
#
# Static dielectric constant tensor:
#      x y z
#    x 3.648010 0.000000 0.000000 
#    y 0.000000 2.920940 0.000000 
#    z 0.000000 0.000000 3.410780 
# 
# 
# High freq. dielectric constant tensor:
#      x y z
#    x 1.724900 0.000000 0.000000 
#    y 0.000000 1.666180 0.000000 
#    z 0.000000 0.000000 1.705470 
# 
# From -- ./inp_files/30978.got.cif
#   From: 2010.03.12/outbox.cif.g09.slc.cpg/sg47_16_cif.got.tgz:30978.got - 2010.04.14 03:12:58.
