data_PCOD8199513
_publ_section_title
;
Structure prediction by ZEFSAII (Michael W. Deem and Ramdas Pophale) SiO2 
 PCOD8199513
Probable space group: P M M M
;
_chemical_formula_sum "Si O2"
_cell_formula_units_Z 56
_cell_length_a 13.463789
_cell_length_b 8.773413
_cell_length_c 24.060431
_cell_angle_alpha 90.000000
_cell_angle_beta 90.000000
_cell_angle_gamma 90.000000
_cell_volume 2842.099469
_symmetry_space_group_name_H-M "P M M M"
_symmetry_group_IT_number 47
_symmetry_cell_setting 'orthorhombic'
loop_
_space_group_symop_operation_xyz
x,y,z
-x,-y,z
x,-y,-z
-x,y,-z
-x,-y,-z
x,y,-z
-x,y,z
x,-y,z
loop_
_atom_site_type_symbol
_atom_site_label
_atom_site_fract_x
_atom_site_fract_y
_atom_site_fract_z
Si Si1 0.341282 0.173933 0.060316
Si Si2 0.000000 0.680619 0.731716
Si Si3 0.863286 0.675243 0.938629
Si Si4 0.885037 0.175899 0.436988
Si Si5 0.000000 0.822771 0.852578
Si Si6 0.615941 0.179827 0.724533
Si Si7 0.802096 0.321166 0.332723
Si Si8 0.609058 0.335007 0.165874
O O1 0.251889 0.291956 0.060217
O O2 0.406863 0.231760 0.111030
O O3 0.306768 0.000000 0.070179
O O4 0.396120 0.185722 0.000000
O O5 0.000000 0.732738 0.795271
O O6 0.898283 0.741270 0.702216
O O7 0.000000 0.500000 0.728973
O O8 0.884487 0.500000 0.923809
O O9 0.905761 0.780204 0.890093
O O10 0.908024 0.712789 0.000000
O O11 0.849747 0.205758 0.500000
O O12 0.820696 0.283268 0.397160
O O13 0.000000 0.219977 0.430612
O O14 0.868304 0.000000 0.420746
O O15 0.000000 0.000000 0.838629
O O16 0.500000 0.226311 0.711290
O O17 0.695866 0.244818 0.681180
O O18 0.658090 0.240947 0.783966
O O19 0.624077 0.000000 0.725592
O O20 0.790114 0.500000 0.323595
O O21 0.500000 0.372133 0.187159
O O22 0.663545 0.500000 0.155858
#
# Coordination Sequence:
#
# PCOD8199513 Si02
#       8
#     8   4   8   8   4   8   8   8
#     4  10  21  36  54  77 104 134 172 221 279 341
#     4  10  24  41  54  81 122 162 197 236 295 356
#     4  10  21  38  58  76  99 135 177 224 280 343
#     4   9  18  34  58  89 126 167 207 245 288 342
#     4  12  25  37  54  78 105 140 183 231 281 342
#     4  10  22  40  62  87 116 155 202 249 297 351
#     4  11  22  38  61  89 125 162 200 247 294 347
#     4  10  21  37  57  80 106 138 179 227 283 348
#
# _framework density 19.703742999999999
#
# number of rings (size 3 to 8) (size 9 to 14) (size 15 to 20)
#    0.000    1.857    0.714    3.429    2.000    6.000 
#    0.000    2.143    0.000    0.429    0.000    3.000 
#    0.000    0.000    0.000    0.000    0.000    0.000 
#
# Total GULP energy -693786.416756 kJ/mol
# GULP energy per Si atom -12389.043156 kJ/mol
# Density = 1.965890 g / cm^3
# Si number density = 19.703743 Si / 1000 Ang^3
#
#
#
# Elastic Constant Matrix: (Units=GPa)
#
#
# Indices 1 2 3 4 5 6 
#
# 1 90.5030 31.0187 40.6268 0.0000 0.0000 0.0000
# 2 31.0187 71.4276 32.7465 0.0000 0.0000 0.0000
# 3 40.6268 32.7465 120.1835 0.0000 0.0000 0.0000
# 4 0.0000 0.0000 0.0000 34.8156 0.0000 0.0000
# 5 0.0000 0.0000 0.0000 0.0000 25.3305 0.0000
# 6 0.0000 0.0000 0.0000 0.0000 0.0000 25.2616
#
#
#
# Elastic Compliance Matrix: (Units=1/GPa)
#
#
# Indices 1 2 3 4 5 6 
#
# 1 0.014204 -0.004533 -0.003566 0.000000 0.000000 0.000000
# 2 -0.004533 0.017446 -0.003221 0.000000 0.000000 0.000000
# 3 -0.003566 -0.003221 0.010404 0.000000 0.000000 0.000000
# 4 0.000000 0.000000 0.000000 0.028723 0.000000 0.000000
# 5 0.000000 0.000000 0.000000 0.000000 0.039478 0.000000
# 6 0.000000 0.000000 0.000000 0.000000 0.000000 0.039586
#
#
# Mechanical properties :
#
#
# Convention : Reuss Voigt Hill
#
# Bulk Modulus (GPa) = 51.51421 54.54423 53.02922
# Shear Modulus (GPa) = 27.94046 28.92967 28.43507
#
# Velocity S-wave (km/s) = 3.76976 3.83591 3.80298
# Velocity P-wave (km/s) = 6.71932 6.88195 6.80112
#
# Compressibility (1/GPa) = 0.01941212
#
# Stress axis : x y z
#
# Youngs Moduli (GPa) = 70.40263 57.32129 96.11884
#
# Poissons Ratio (x) = 0.25986 0.34279
# Poissons Ratio (y) = 0.31916 0.30959
# Poissons Ratio (z) = 0.25108 0.18463
#
# Static dielectric constant tensor:
#      x y z
#    x 3.502720 0.000000 0.000000 
#    y 0.000000 3.615230 0.000000 
#    z 0.000000 0.000000 3.610460 
# 
# 
# High freq. dielectric constant tensor:
#      x y z
#    x 1.753350 0.000000 0.000000 
#    y 0.000000 1.774330 0.000000 
#    z 0.000000 0.000000 1.762030 
# 
# From -- ./inp_files/31058.got.cif
#   From: 2010.03.12/outbox.cif.g09.slc.cpg/sg47_16_cif.got.tgz:31058.got - 2010.04.14 03:12:58.
