data_PCOD8199894
_publ_section_title
;
Structure prediction by ZEFSAII (Michael W. Deem and Ramdas Pophale) SiO2 
 PCOD8199894
Probable space group: P M M M
;
_chemical_formula_sum "Si O2"
_cell_formula_units_Z 36
_cell_length_a 14.306387
_cell_length_b 14.672750
_cell_length_c 9.119270
_cell_angle_alpha 90.000000
_cell_angle_beta 90.000000
_cell_angle_gamma 90.000000
_cell_volume 1914.262806
_symmetry_space_group_name_H-M "P M M M"
_symmetry_group_IT_number 47
_symmetry_cell_setting 'orthorhombic'
loop_
_space_group_symop_operation_xyz
x,y,z
-x,-y,z
x,-y,-z
-x,y,-z
-x,-y,-z
x,y,-z
-x,y,z
x,-y,z
loop_
_atom_site_type_symbol
_atom_site_label
_atom_site_fract_x
_atom_site_fract_y
_atom_site_fract_z
Si Si1 0.109722 0.000000 0.828193
Si Si2 0.605869 0.500000 0.327306
Si Si3 0.775097 0.845564 0.670543
Si Si4 0.890312 0.500000 0.831723
Si Si5 0.765405 0.364028 0.672405
Si Si6 0.398281 0.893490 0.840178
O O1 0.152549 0.092094 0.760084
O O2 0.000000 0.000000 0.796208
O O3 0.132844 0.000000 0.000000
O O4 0.500000 0.500000 0.257470
O O5 0.593672 0.500000 0.500000
O O6 0.665598 0.590344 0.279149
O O7 0.795595 0.860914 0.500000
O O8 0.778604 0.740507 0.717353
O O9 0.669685 0.872846 0.706428
O O10 0.850637 0.410714 0.754641
O O11 0.000000 0.500000 0.811870
O O12 0.859459 0.500000 0.000000
O O13 0.777671 0.378709 0.500000
O O14 0.500000 0.850547 0.803798
O O15 0.408613 0.000000 0.854198
O O16 0.362948 0.856147 0.000000
#
# Coordination Sequence:
#
# PCOD8199894 Si02
#       6
#     4   4   8   4   8   8
#     4  11  25  43  60  77 104 147 193 238 292 349
#     4   8  14  30  56  81 110 147 181 214 256 316
#     4  11  22  36  57  85 115 146 186 237 286 335
#     4  10  21  37  58  83 108 137 179 230 278 328
#     4   9  20  36  55  83 115 147 181 221 278 337
#     4   9  18  33  53  77 109 150 189 223 266 321
#
# _framework density 18.806194999999999
#
# number of rings (size 3 to 8) (size 9 to 14) (size 15 to 20)
#    0.000    2.333    1.111    2.667    0.000    5.778 
#    0.000    7.778    0.000    5.333    0.000    0.000 
#    0.000    0.000    0.000    0.000    0.000    0.000 
#
# Total GULP energy -446095.568899 kJ/mol
# GULP energy per Si atom -12391.543581 kJ/mol
# Density = 1.876339 g / cm^3
# Si number density = 18.806195 Si / 1000 Ang^3
#
#
#
# Elastic Constant Matrix: (Units=GPa)
#
#
# Indices 1 2 3 4 5 6 
#
# 1 117.1983 69.9716 52.4725 0.0000 0.0000 0.0000
# 2 69.9716 141.3670 55.1987 0.0000 0.0000 0.0000
# 3 52.4725 55.1987 62.5097 0.0000 0.0000 0.0000
# 4 0.0000 0.0000 0.0000 55.3871 0.0000 0.0000
# 5 0.0000 0.0000 0.0000 0.0000 45.8539 0.0000
# 6 0.0000 0.0000 0.0000 0.0000 0.0000 -7.5439
#
#
#
# Elastic Compliance Matrix: (Units=1/GPa)
#
#
# Indices 1 2 3 4 5 6 
#
# 1 0.014899 -0.003802 -0.009149 0.000000 0.000000 0.000000
# 2 -0.003802 0.011767 -0.007199 0.000000 0.000000 0.000000
# 3 -0.009149 -0.007199 0.030035 0.000000 0.000000 0.000000
# 4 0.000000 0.000000 0.000000 0.018055 0.000000 0.000000
# 5 0.000000 0.000000 0.000000 0.000000 0.021808 0.000000
# 6 0.000000 0.000000 0.000000 0.000000 0.000000 -0.132557
#
#
# Mechanical properties :
#
#
# Convention : Reuss Voigt Hill
#
# Bulk Modulus (GPa) = 60.97630 75.15116 68.06373
# Shear Modulus (GPa) = 511.65502 28.30156 269.97829
#
# Velocity S-wave (km/s) = 16.51236 3.88352 11.99457
# Velocity P-wave (km/s) = 19.90070 7.75607 15.10289
#
# Compressibility (1/GPa) = 0.01639981
#
# Stress axis : x y z
#
# Youngs Moduli (GPa) = 67.11974 84.98700 33.29500
#
# Poissons Ratio (x) = 0.32311 0.30462
# Poissons Ratio (y) = 0.25518 0.23969
# Poissons Ratio (z) = 0.61409 0.61181
#
# Static dielectric constant tensor:
#      x y z
#    x 3.809650 0.000000 0.000000 
#    y 0.000000 3.168140 0.000000 
#    z 0.000000 0.000000 3.447710 
# 
# 
# High freq. dielectric constant tensor:
#      x y z
#    x 1.734010 0.000000 0.000000 
#    y 0.000000 1.726220 0.000000 
#    z 0.000000 0.000000 1.723210 
# 
# From -- ./inp_files/5626.got.cif
#   From: 2010.03.12/outbox.cif.g09.slc.cpg/sg47_3_cif.got.tgz:5626.got - 2010.04.14 03:12:58.
