data_PCOD8199336
_publ_section_title
;
Structure prediction by ZEFSAII (Michael W. Deem and Ramdas Pophale) SiO2 
 PCOD8199336
Probable space group: P M M M
;
_chemical_formula_sum "Si O2"
_cell_formula_units_Z 64
_cell_length_a 9.080889
_cell_length_b 20.711710
_cell_length_c 17.934583
_cell_angle_alpha 90.000000
_cell_angle_beta 90.000000
_cell_angle_gamma 90.000000
_cell_volume 3373.149633
_symmetry_space_group_name_H-M "P M M M"
_symmetry_group_IT_number 47
_symmetry_cell_setting 'orthorhombic'
loop_
_space_group_symop_operation_xyz
x,y,z
-x,-y,z
x,-y,-z
-x,y,-z
-x,-y,-z
x,y,-z
-x,y,z
x,-y,z
loop_
_atom_site_type_symbol
_atom_site_label
_atom_site_fract_x
_atom_site_fract_y
_atom_site_fract_z
Si Si1 0.326735 0.426538 0.866535
Si Si2 0.340253 0.425146 0.699705
Si Si3 0.824289 0.791726 0.785950
Si Si4 0.168440 0.884732 0.417876
Si Si5 0.833845 0.355179 0.582695
Si Si6 0.672627 0.236177 0.364270
Si Si7 0.171994 0.930960 0.258522
Si Si8 0.169161 0.697755 0.916619
O O1 0.500000 0.424555 0.881487
O O2 0.269895 0.500000 0.884596
O O3 0.288197 0.405573 0.782200
O O4 0.250533 0.371369 0.915588
O O5 0.500000 0.391965 0.681305
O O6 0.367802 0.500000 0.698870
O O7 0.213047 0.409113 0.641556
O O8 0.754249 0.756443 0.715059
O O9 0.765651 0.867015 0.783914
O O10 0.770681 0.753135 0.859756
O O11 0.000000 0.791012 0.778341
O O12 0.192805 0.917673 0.500000
O O13 0.276824 0.824579 0.412207
O O14 0.203828 0.930787 0.347894
O O15 0.000000 0.860207 0.411110
O O16 0.824276 0.385197 0.500000
O O17 0.718242 0.297351 0.587329
O O18 0.000000 0.331975 0.600257
O O19 0.500000 0.232894 0.350408
O O20 0.000000 0.932179 0.243367
O O21 0.239377 0.000000 0.229339
O O22 0.000000 0.683880 0.897316
O O23 0.188196 0.726118 0.000000
#
# Coordination Sequence:
#
# PCOD8199336 Si02
#       8
#     8   8   8   8   8   8   8   8
#     4   9  19  36  56  78 104 133 165 201 242 291
#     4   9  19  36  55  73  94 122 159 203 248 295
#     4   9  18  34  54  74 100 133 166 204 250 298
#     4   9  17  29  45  67  98 133 166 203 249 298
#     4  11  23  35  47  66  94 127 164 208 255 300
#     4  11  21  32  49  71  94 123 164 209 250 296
#     4   8  14  26  47  74  99 128 171 215 251 292
#     4  10  21  35  52  77 107 136 165 199 242 293
#
# _framework density 18.973365000000001
#
# number of rings (size 3 to 8) (size 9 to 14) (size 15 to 20)
#    0.000    2.500    0.000    4.125    0.000    7.250 
#    0.000    5.000    0.000    6.375    0.000    6.125 
#    0.000    0.000    0.000    5.625    0.000    6.250 
#
# Total GULP energy -792917.779017 kJ/mol
# GULP energy per Si atom -12389.340297 kJ/mol
# Density = 1.893018 g / cm^3
# Si number density = 18.973365 Si / 1000 Ang^3
#
#
#
# Elastic Constant Matrix: (Units=GPa)
#
#
# Indices 1 2 3 4 5 6 
#
# 1 48.0556 16.2948 24.5600 0.0000 0.0000 0.0000
# 2 16.2948 65.8814 46.4998 0.0000 0.0000 0.0000
# 3 24.5600 46.4998 90.1597 0.0000 0.0000 0.0000
# 4 0.0000 0.0000 0.0000 13.1770 0.0000 0.0000
# 5 0.0000 0.0000 0.0000 0.0000 29.1534 0.0000
# 6 0.0000 0.0000 0.0000 0.0000 0.0000 7.4812
#
#
#
# Elastic Compliance Matrix: (Units=1/GPa)
#
#
# Indices 1 2 3 4 5 6 
#
# 1 0.024360 -0.002109 -0.005548 0.000000 0.000000 0.000000
# 2 -0.002109 0.024049 -0.011829 0.000000 0.000000 0.000000
# 3 -0.005548 -0.011829 0.018703 0.000000 0.000000 0.000000
# 4 0.000000 0.000000 0.000000 0.075890 0.000000 0.000000
# 5 0.000000 0.000000 0.000000 0.000000 0.034301 0.000000
# 6 0.000000 0.000000 0.000000 0.000000 0.000000 0.133668
#
#
# Mechanical properties :
#
#
# Convention : Reuss Voigt Hill
#
# Bulk Modulus (GPa) = 35.53591 42.08957 38.81274
# Shear Modulus (GPa) = 13.91498 17.74512 15.83005
#
# Velocity S-wave (km/s) = 2.71107 3.06153 2.89161
# Velocity P-wave (km/s) = 5.34508 5.89313 5.62578
#
# Compressibility (1/GPa) = 0.02814055
#
# Stress axis : x y z
#
# Youngs Moduli (GPa) = 41.05120 41.58097 53.46600
#
# Poissons Ratio (x) = 0.08771 0.29662
# Poissons Ratio (y) = 0.08659 0.63244
# Poissons Ratio (z) = 0.22775 0.49186
#
# Static dielectric constant tensor:
#      x y z
#    x 3.233430 0.000000 0.000000 
#    y 0.000000 3.667430 0.000000 
#    z 0.000000 0.000000 3.681100 
# 
# 
# High freq. dielectric constant tensor:
#      x y z
#    x 1.714680 0.000000 0.000000 
#    y 0.000000 1.731250 0.000000 
#    z 0.000000 0.000000 1.724670 
# 
# From -- ./inp_files/27019.got.cif
#   From: 2010.03.12/outbox.cif.g09.slc.cpg/sg47_14_cif.got.tgz:27019.got - 2010.04.14 03:12:58.
