data_PCOD8199784
_publ_section_title
;
Structure prediction by ZEFSAII (Michael W. Deem and Ramdas Pophale) SiO2 
 PCOD8199784
Probable space group: P M M M
;
_chemical_formula_sum "Si O2"
_cell_formula_units_Z 48
_cell_length_a 10.117517
_cell_length_b 8.804475
_cell_length_c 27.549324
_cell_angle_alpha 90.000000
_cell_angle_beta 90.000000
_cell_angle_gamma 90.000000
_cell_volume 2454.077955
_symmetry_space_group_name_H-M "P M M M"
_symmetry_group_IT_number 47
_symmetry_cell_setting 'orthorhombic'
loop_
_space_group_symop_operation_xyz
x,y,z
-x,-y,z
x,-y,-z
-x,y,-z
-x,-y,-z
x,y,-z
-x,y,z
x,-y,z
loop_
_atom_site_type_symbol
_atom_site_label
_atom_site_fract_x
_atom_site_fract_y
_atom_site_fract_z
Si Si1 0.151003 0.178232 0.180570
Si Si2 0.646272 0.173610 0.353225
Si Si3 0.649624 0.318669 0.895409
Si Si4 0.000000 0.830943 0.442941
Si Si5 0.849397 0.676749 0.282304
Si Si6 0.655846 0.334884 0.000000
Si Si7 0.730762 0.679343 0.444501
O O1 0.248249 0.257682 0.143353
O O2 0.189076 0.230762 0.234365
O O3 0.000000 0.225018 0.168517
O O4 0.171732 0.000000 0.177088
O O5 0.500000 0.185892 0.329682
O O6 0.750351 0.275420 0.324521
O O7 0.631210 0.236416 0.408258
O O8 0.695190 0.000000 0.353753
O O9 0.500000 0.265841 0.882304
O O10 0.655372 0.500000 0.896829
O O11 0.692659 0.252209 0.948948
O O12 0.874561 0.733619 0.426709
O O13 0.000000 0.850039 0.500000
O O14 0.000000 0.000000 0.419055
O O15 0.831194 0.500000 0.270997
O O16 0.000000 0.713264 0.298320
O O17 0.725337 0.500000 0.000000
O O18 0.500000 0.358785 0.000000
O O19 0.699888 0.727774 0.500000
O O20 0.719322 0.500000 0.438659
#
# Coordination Sequence:
#
# PCOD8199784 Si02
#       7
#     8   8   8   4   8   4   8
#     4  10  21  37  56  80 112 148 185 227 278 336
#     4  11  25  42  60  85 117 152 187 226 277 336
#     4   9  17  31  54  82 110 145 190 237 283 330
#     4   9  17  31  53  81 111 143 181 225 269 314
#     4  10  22  41  65  88 109 140 184 233 284 337
#     4   7  12  26  48  75 108 144 186 235 280 325
#     4  10  21  37  58  84 115 150 188 230 275 325
#
# _framework density 19.559280000000001
#
# number of rings (size 3 to 8) (size 9 to 14) (size 15 to 20)
#    0.000    2.333    0.000    3.250    1.167    6.667 
#    0.000    2.500    0.000    4.000    0.000    0.000 
#    0.000    0.000    0.000    0.000    0.000    0.000 
#
# Total GULP energy -594963.234239 kJ/mol
# GULP energy per Si atom -12395.067380 kJ/mol
# Density = 1.951476 g / cm^3
# Si number density = 19.559280 Si / 1000 Ang^3
#
#
#
# Elastic Constant Matrix: (Units=GPa)
#
#
# Indices 1 2 3 4 5 6 
#
# 1 87.4834 23.9864 54.2341 0.0000 0.0000 0.0000
# 2 23.9864 45.5761 15.4335 0.0000 0.0000 0.0000
# 3 54.2341 15.4335 102.4488 0.0000 0.0000 0.0000
# 4 0.0000 0.0000 0.0000 -3.2845 0.0000 0.0000
# 5 0.0000 0.0000 0.0000 0.0000 28.0569 0.0000
# 6 0.0000 0.0000 0.0000 0.0000 0.0000 29.6806
#
#
#
# Elastic Compliance Matrix: (Units=1/GPa)
#
#
# Indices 1 2 3 4 5 6 
#
# 1 0.018872 -0.006901 -0.008951 0.000000 0.000000 0.000000
# 2 -0.006901 0.025644 -0.000210 0.000000 0.000000 0.000000
# 3 -0.008951 -0.000210 0.014531 0.000000 0.000000 0.000000
# 4 0.000000 0.000000 0.000000 -0.304456 0.000000 0.000000
# 5 0.000000 0.000000 0.000000 0.000000 0.035642 0.000000
# 6 0.000000 0.000000 0.000000 0.000000 0.000000 0.033692
#
#
# Mechanical properties :
#
#
# Convention : Reuss Voigt Hill
#
# Bulk Modulus (GPa) = 37.14209 46.97960 42.06084
# Shear Modulus (GPa) = -37.04334 20.34755 -8.34789
#
# Velocity S-wave (km/s) = -4.35662 3.22887 -2.06815
# Velocity P-wave (km/s) = 2.50522 6.16215 3.98095
#
# Compressibility (1/GPa) = 0.02692363
#
# Stress axis : x y z
#
# Youngs Moduli (GPa) = 52.98932 38.99487 68.81897
#
# Poissons Ratio (x) = 0.26911 0.61597
# Poissons Ratio (y) = 0.36568 0.01445
# Poissons Ratio (z) = 0.47429 0.00819
#
# Static dielectric constant tensor:
#      x y z
#    x 3.531430 0.000000 0.000000 
#    y 0.000000 3.476300 0.000000 
#    z 0.000000 0.000000 3.755640 
# 
# 
# High freq. dielectric constant tensor:
#      x y z
#    x 1.752950 0.000000 0.000000 
#    y 0.000000 1.756990 0.000000 
#    z 0.000000 0.000000 1.763380 
# 
# From -- ./inp_files/34116.got.cif
#   From: 2010.03.12/outbox.cif.g09.slc.cpg/sg47_18_cif.got.tgz:34116.got - 2010.04.14 03:12:58.
