data_PCOD8199253
_publ_section_title
;
Structure prediction by ZEFSAII (Michael W. Deem and Ramdas Pophale) SiO2 
 PCOD8199253
Probable space group: P M M M
;
_chemical_formula_sum "Si O2"
_cell_formula_units_Z 48
_cell_length_a 22.696131
_cell_length_b 14.349328
_cell_length_c 8.001703
_cell_angle_alpha 90.000000
_cell_angle_beta 90.000000
_cell_angle_gamma 90.000000
_cell_volume 2605.948448
_symmetry_space_group_name_H-M "P M M M"
_symmetry_group_IT_number 47
_symmetry_cell_setting 'orthorhombic'
loop_
_space_group_symop_operation_xyz
x,y,z
-x,-y,z
x,-y,-z
-x,y,-z
-x,-y,-z
x,y,-z
-x,y,z
x,-y,z
loop_
_atom_site_type_symbol
_atom_site_label
_atom_site_fract_x
_atom_site_fract_y
_atom_site_fract_z
Si Si1 0.149078 0.102176 0.191806
Si Si2 0.384968 0.790171 0.191698
Si Si3 0.567164 0.604207 0.303255
Si Si4 0.930881 0.268573 0.805593
Si Si5 0.274253 0.896069 0.691302
Si Si6 0.930397 0.603255 0.500000
Si Si7 0.500000 0.105747 0.199084
O O1 0.102886 0.176974 0.261951
O O2 0.216206 0.138283 0.211302
O O3 0.141897 0.000000 0.279676
O O4 0.134123 0.090336 0.000000
O O5 0.391459 0.678955 0.211870
O O6 0.326983 0.823828 0.285361
O O7 0.442173 0.841909 0.269325
O O8 0.377584 0.817400 0.000000
O O9 0.571837 0.618787 0.500000
O O10 0.500000 0.618866 0.243313
O O11 0.588193 0.500000 0.253908
O O12 0.910587 0.347871 0.674066
O O13 0.000000 0.248380 0.791521
O O14 0.914562 0.294946 0.000000
O O15 0.256041 0.898162 0.500000
O O16 0.293358 0.000000 0.752453
O O17 0.902279 0.500000 0.500000
O O18 0.000000 0.597094 0.500000
O O19 0.500000 0.000000 0.265574
O O20 0.500000 0.109763 0.000000
#
# Coordination Sequence:
#
# PCOD8199253 Si02
#       7
#     8   8   8   8   8   4   4
#     4   9  18  33  53  77 106 142 180 215 256 307
#     4  11  20  32  51  74 100 130 164 206 254 300
#     4   9  18  33  52  73  99 129 160 199 249 306
#     4   9  18  32  52  81 114 145 180 223 270 320
#     4  10  21  35  51  73 101 136 176 212 247 298
#     4   9  18  32  51  77 109 145 184 225 271 322
#     4   9  18  30  44  67  98 128 157 195 246 301
#
# _framework density 18.419397
#
# number of rings (size 3 to 8) (size 9 to 14) (size 15 to 20)
#    0.000    2.500    0.833    2.000    1.167    2.667 
#    0.000    4.167    0.000    4.500    0.000    2.333 
#    0.000    0.000    0.000    0.000    0.000    0.000 
#
# Total GULP energy -594992.592528 kJ/mol
# GULP energy per Si atom -12395.679011 kJ/mol
# Density = 1.837747 g / cm^3
# Si number density = 18.419397 Si / 1000 Ang^3
#
#
#
# Elastic Constant Matrix: (Units=GPa)
#
#
# Indices 1 2 3 4 5 6 
#
# 1 73.4000 59.6910 19.0551 0.0000 0.0000 0.0000
# 2 59.6910 139.7237 35.8307 0.0000 0.0000 0.0000
# 3 19.0551 35.8307 56.8945 0.0000 0.0000 0.0000
# 4 0.0000 0.0000 0.0000 25.4167 0.0000 0.0000
# 5 0.0000 0.0000 0.0000 0.0000 18.2519 0.0000
# 6 0.0000 0.0000 0.0000 0.0000 0.0000 19.2490
#
#
#
# Elastic Compliance Matrix: (Units=1/GPa)
#
#
# Indices 1 2 3 4 5 6 
#
# 1 0.021006 -0.008551 -0.001650 0.000000 0.000000 0.000000
# 2 -0.008551 0.012016 -0.004704 0.000000 0.000000 0.000000
# 3 -0.001650 -0.004704 0.021091 0.000000 0.000000 0.000000
# 4 0.000000 0.000000 0.000000 0.039344 0.000000 0.000000
# 5 0.000000 0.000000 0.000000 0.000000 0.054789 0.000000
# 6 0.000000 0.000000 0.000000 0.000000 0.000000 0.051951
#
#
# Mechanical properties :
#
#
# Convention : Reuss Voigt Hill
#
# Bulk Modulus (GPa) = 41.14520 55.46352 48.30436
# Shear Modulus (GPa) = 20.99887 22.94630 21.97259
#
# Velocity S-wave (km/s) = 3.38011 3.53337 3.45759
# Velocity P-wave (km/s) = 6.13352 6.84274 6.49781
#
# Compressibility (1/GPa) = 0.02430417
#
# Stress axis : x y z
#
# Youngs Moduli (GPa) = 47.60518 83.22157 47.41286
#
# Poissons Ratio (x) = 0.71161 0.07825
# Poissons Ratio (y) = 0.40706 0.22301
# Poissons Ratio (z) = 0.07856 0.39144
#
# Static dielectric constant tensor:
#      x y z
#    x 3.151490 0.000000 0.000000 
#    y 0.000000 3.679500 0.000000 
#    z 0.000000 0.000000 3.304540 
# 
# 
# High freq. dielectric constant tensor:
#      x y z
#    x 1.688400 0.000000 0.000000 
#    y 0.000000 1.711010 0.000000 
#    z 0.000000 0.000000 1.710730 
# 
# From -- ./inp_files/9228.got.cif
#   From: 2010.03.12/outbox.cif.g09.slc.cpg/sg47_5_cif.got.tgz:9228.got - 2010.04.14 03:12:58.
