data_PCOD8199499
_publ_section_title
;
Structure prediction by ZEFSAII (Michael W. Deem and Ramdas Pophale) SiO2 
 PCOD8199499
Probable space group: P M M M
;
_chemical_formula_sum "Si O2"
_cell_formula_units_Z 52
_cell_length_a 12.595929
_cell_length_b 26.375909
_cell_length_c 8.849478
_cell_angle_alpha 90.000000
_cell_angle_beta 90.000000
_cell_angle_gamma 90.000000
_cell_volume 2940.053909
_symmetry_space_group_name_H-M "P M M M"
_symmetry_group_IT_number 47
_symmetry_cell_setting 'orthorhombic'
loop_
_space_group_symop_operation_xyz
x,y,z
-x,-y,z
x,-y,-z
-x,y,-z
-x,-y,-z
x,y,-z
-x,y,z
x,-y,z
loop_
_atom_site_type_symbol
_atom_site_label
_atom_site_fract_x
_atom_site_fract_y
_atom_site_fract_z
Si Si1 0.873289 0.609454 0.826842
Si Si2 0.000000 0.116099 0.178098
Si Si3 0.191953 0.942318 0.676159
Si Si4 0.000000 0.768463 0.179270
Si Si5 0.193112 0.708720 0.677095
Si Si6 0.620218 0.870164 0.326410
Si Si7 0.377074 0.766186 0.175732
Si Si8 0.115867 0.500000 0.178612
O O1 0.818463 0.649703 0.717520
O O2 0.827927 0.553444 0.777391
O O3 0.000000 0.611158 0.807876
O O4 0.842532 0.621748 0.000000
O O5 0.896123 0.088183 0.235034
O O6 0.000000 0.173777 0.237454
O O7 0.000000 0.114934 0.000000
O O8 0.164119 0.939785 0.500000
O O9 0.306205 0.917987 0.711583
O O10 0.194650 0.000000 0.733878
O O11 0.104766 0.741462 0.238868
O O12 0.000000 0.764614 0.000000
O O13 0.179346 0.716445 0.500000
O O14 0.309262 0.726254 0.729040
O O15 0.633319 0.852987 0.500000
O O16 0.500000 0.887172 0.291427
O O17 0.654638 0.823113 0.222802
O O18 0.500000 0.755765 0.213149
O O19 0.351597 0.759453 0.000000
O O20 0.000000 0.500000 0.255641
O O21 0.100423 0.500000 0.000000
#
# Coordination Sequence:
#
# PCOD8199499 Si02
#       8
#     8   4   8   4   8   8   8   4
#     4   9  16  29  49  72 104 142 179 216 253 299
#     4  11  24  38  53  72  95 129 172 213 250 290
#     4  10  21  36  54  76 102 132 164 198 242 300
#     4  11  23  38  54  74 103 138 174 211 255 308
#     4  12  23  33  50  78 110 139 171 213 261 310
#     4   9  18  34  56  80 104 128 158 202 254 304
#     4  10  21  37  56  76 100 134 175 214 255 307
#     4   7  12  24  45  71  96 135 183 216 248 294
#
# _framework density 17.686751000000001
#
# number of rings (size 3 to 8) (size 9 to 14) (size 15 to 20)
#    0.000    2.077    0.769    4.385    0.000    6.769 
#    0.000    1.923    0.000    1.385    0.000    3.769 
#    0.000    4.308    0.000    0.000    0.000    0.000 
#
# Total GULP energy -644756.625958 kJ/mol
# GULP energy per Si atom -12399.165884 kJ/mol
# Density = 1.764650 g / cm^3
# Si number density = 17.686751 Si / 1000 Ang^3
#
#
#
# Elastic Constant Matrix: (Units=GPa)
#
#
# Indices 1 2 3 4 5 6 
#
# 1 77.2849 57.9487 30.3564 0.0000 0.0000 0.0000
# 2 57.9487 155.8046 44.4673 0.0000 0.0000 0.0000
# 3 30.3564 44.4673 64.4962 0.0000 0.0000 0.0000
# 4 0.0000 0.0000 0.0000 25.3243 0.0000 0.0000
# 5 0.0000 0.0000 0.0000 0.0000 14.8932 0.0000
# 6 0.0000 0.0000 0.0000 0.0000 0.0000 34.2764
#
#
#
# Elastic Compliance Matrix: (Units=1/GPa)
#
#
# Indices 1 2 3 4 5 6 
#
# 1 0.019214 -0.005684 -0.005125 0.000000 0.000000 0.000000
# 2 -0.005684 0.009672 -0.003993 0.000000 0.000000 0.000000
# 3 -0.005125 -0.003993 0.020670 0.000000 0.000000 0.000000
# 4 0.000000 0.000000 0.000000 0.039488 0.000000 0.000000
# 5 0.000000 0.000000 0.000000 0.000000 0.067145 0.000000
# 6 0.000000 0.000000 0.000000 0.000000 0.000000 0.029175
#
#
# Mechanical properties :
#
#
# Convention : Reuss Voigt Hill
#
# Bulk Modulus (GPa) = 50.11912 62.57006 56.34459
# Shear Modulus (GPa) = 22.56150 25.88632 24.22391
#
# Velocity S-wave (km/s) = 3.57545 3.82985 3.70484
# Velocity P-wave (km/s) = 6.74120 7.41691 7.08711
#
# Compressibility (1/GPa) = 0.01995247
#
# Stress axis : x y z
#
# Youngs Moduli (GPa) = 52.04644 103.39252 48.37925
#
# Poissons Ratio (x) = 0.58764 0.24793
# Poissons Ratio (y) = 0.29581 0.19319
# Poissons Ratio (z) = 0.26672 0.41287
#
# Static dielectric constant tensor:
#      x y z
#    x 3.386950 0.000000 0.000000 
#    y 0.000000 3.611230 0.000000 
#    z 0.000000 0.000000 3.225060 
# 
# 
# High freq. dielectric constant tensor:
#      x y z
#    x 1.665340 0.000000 0.000000 
#    y 0.000000 1.692170 0.000000 
#    z 0.000000 0.000000 1.678160 
# 
# From -- ./inp_files/4675.got.cif
#   From: 2010.03.12/outbox.cif.g09.slc.cpg/sg47_3_cif.got.tgz:4675.got - 2010.04.14 03:12:58.
