data_PCOD8199016
_publ_section_title
;
Structure prediction by ZEFSAII (Michael W. Deem and Ramdas Pophale) SiO2 
 PCOD8199016
Probable space group: P M M M
;
_chemical_formula_sum "Si O2"
_cell_formula_units_Z 44
_cell_length_a 7.762518
_cell_length_b 19.674471
_cell_length_c 14.357445
_cell_angle_alpha 90.000000
_cell_angle_beta 90.000000
_cell_angle_gamma 90.000000
_cell_volume 2192.718322
_symmetry_space_group_name_H-M "P M M M"
_symmetry_group_IT_number 47
_symmetry_cell_setting 'orthorhombic'
loop_
_space_group_symop_operation_xyz
x,y,z
-x,-y,z
x,-y,-z
-x,y,-z
-x,-y,-z
x,y,-z
-x,y,z
x,-y,z
loop_
_atom_site_type_symbol
_atom_site_label
_atom_site_fract_x
_atom_site_fract_y
_atom_site_fract_z
Si Si1 0.796630 0.290050 0.899220
Si Si2 0.695462 0.075062 0.712859
Si Si3 0.200974 0.862239 0.895431
Si Si4 0.196219 0.797137 0.601722
Si Si5 0.500000 0.419848 0.392827
Si Si6 0.794392 0.337777 0.702737
O O1 0.723768 0.214058 0.884402
O O2 0.745675 0.338322 0.812963
O O3 0.000000 0.282565 0.902824
O O4 0.730675 0.319099 0.000000
O O5 0.500000 0.077224 0.679231
O O6 0.703204 0.089038 0.823216
O O7 0.795637 0.131548 0.654782
O O8 0.773553 0.000000 0.692891
O O9 0.000000 0.863537 0.870841
O O10 0.235074 0.889104 0.000000
O O11 0.288558 0.800964 0.500000
O O12 0.269736 0.735012 0.662738
O O13 0.000000 0.779419 0.584894
O O14 0.500000 0.500000 0.383295
O O15 0.500000 0.396241 0.500000
O O16 0.322671 0.394561 0.345488
O O17 0.000000 0.351811 0.687198
#
# Coordination Sequence:
#
# PCOD8199016 Si02
#       6
#     8   8   8   8   4   8
#     4   8  14  28  55  89 119 147 186 239 295 349
#     4  11  24  37  49  71 108 151 190 238 299 353
#     4   9  17  32  54  77 103 139 185 235 286 343
#     4  10  21  37  58  83 107 139 190 245 293 342
#     4  11  26  44  63  93 128 162 200 239 287 349
#     4  10  20  38  65  93 123 158 197 244 295 348
#
# _framework density 20.066417000000001
#
# number of rings (size 3 to 8) (size 9 to 14) (size 15 to 20)
#    0.000    2.273    1.818    2.182    1.273    4.364 
#    0.000    5.000    0.000    1.091    0.000    2.545 
#    0.000    0.000    0.000    0.000    0.000    0.000 
#
# Total GULP energy -545247.414721 kJ/mol
# GULP energy per Si atom -12391.986698 kJ/mol
# Density = 2.002074 g / cm^3
# Si number density = 20.066417 Si / 1000 Ang^3
#
#
#
# Elastic Constant Matrix: (Units=GPa)
#
#
# Indices 1 2 3 4 5 6 
#
# 1 51.9365 25.5745 28.0068 0.0000 0.0000 0.0000
# 2 25.5745 86.5334 54.6899 0.0000 0.0000 0.0000
# 3 28.0068 54.6899 156.9904 0.0000 0.0000 0.0000
# 4 0.0000 0.0000 0.0000 25.5817 0.0000 0.0000
# 5 0.0000 0.0000 0.0000 0.0000 13.9965 0.0000
# 6 0.0000 0.0000 0.0000 0.0000 0.0000 25.5998
#
#
#
# Elastic Compliance Matrix: (Units=1/GPa)
#
#
# Indices 1 2 3 4 5 6 
#
# 1 0.023131 -0.005422 -0.002238 0.000000 0.000000 0.000000
# 2 -0.005422 0.016090 -0.004638 0.000000 0.000000 0.000000
# 3 -0.002238 -0.004638 0.008385 0.000000 0.000000 0.000000
# 4 0.000000 0.000000 0.000000 0.039090 0.000000 0.000000
# 5 0.000000 0.000000 0.000000 0.000000 0.071446 0.000000
# 6 0.000000 0.000000 0.000000 0.000000 0.000000 0.039063
#
#
# Mechanical properties :
#
#
# Convention : Reuss Voigt Hill
#
# Bulk Modulus (GPa) = 43.45874 56.88920 50.17397
# Shear Modulus (GPa) = 21.78934 25.51489 23.65211
#
# Velocity S-wave (km/s) = 3.29882 3.56971 3.43693
# Velocity P-wave (km/s) = 6.01781 6.73813 6.38813
#
# Compressibility (1/GPa) = 0.02301033
#
# Stress axis : x y z
#
# Youngs Moduli (GPa) = 43.23234 62.15099 119.26510
#
# Poissons Ratio (x) = 0.33698 0.26688
# Poissons Ratio (y) = 0.23440 0.55314
# Poissons Ratio (z) = 0.09674 0.28825
#
# Static dielectric constant tensor:
#      x y z
#    x 3.355510 0.000000 0.000000 
#    y 0.000000 3.312120 0.000000 
#    z 0.000000 0.000000 4.237990 
# 
# 
# High freq. dielectric constant tensor:
#      x y z
#    x 1.764700 0.000000 0.000000 
#    y 0.000000 1.742420 0.000000 
#    z 0.000000 0.000000 1.801960 
# 
# From -- ./inp_files/20914.got.cif
#   From: 2010.03.12/outbox.cif.g09.slc.cpg/sg47_11_cif.got.tgz:20914.got - 2010.04.14 03:12:58.
