data_PCOD8199696
_publ_section_title
;
Structure prediction by ZEFSAII (Michael W. Deem and Ramdas Pophale) SiO2 
 PCOD8199696
Probable space group: P M M M
;
_chemical_formula_sum "Si O2"
_cell_formula_units_Z 40
_cell_length_a 9.176773
_cell_length_b 9.936239
_cell_length_c 24.254838
_cell_angle_alpha 90.000000
_cell_angle_beta 90.000000
_cell_angle_gamma 90.000000
_cell_volume 2211.619429
_symmetry_space_group_name_H-M "P M M M"
_symmetry_group_IT_number 47
_symmetry_cell_setting 'orthorhombic'
loop_
_space_group_symop_operation_xyz
x,y,z
-x,-y,z
x,-y,-z
-x,y,-z
-x,-y,-z
x,y,-z
-x,y,z
x,-y,z
loop_
_atom_site_type_symbol
_atom_site_label
_atom_site_fract_x
_atom_site_fract_y
_atom_site_fract_z
Si Si1 0.828164 0.500000 0.562026
Si Si2 0.163728 0.659763 0.939786
Si Si3 0.173334 0.231835 0.622491
Si Si4 0.670155 0.842775 0.733341
Si Si5 0.337606 0.000000 0.435606
Si Si6 0.671049 0.346487 0.833427
O O1 0.759373 0.500000 0.500000
O O2 0.776537 0.626164 0.597894
O O3 0.000000 0.500000 0.555388
O O4 0.166968 0.500000 0.939747
O O5 0.263376 0.713008 0.890122
O O6 0.000000 0.712136 0.929914
O O7 0.219859 0.711251 0.000000
O O8 0.234681 0.212558 0.683388
O O9 0.245498 0.127552 0.581542
O O10 0.000000 0.213175 0.623448
O O11 0.500000 0.820639 0.720403
O O12 0.720922 0.754063 0.785279
O O13 0.703721 0.000000 0.744279
O O14 0.500000 0.000000 0.407964
O O15 0.356561 0.000000 0.500000
O O16 0.500000 0.344420 0.840835
O O17 0.724536 0.500000 0.820870
#
# Coordination Sequence:
#
# PCOD8199696 Si02
#       6
#     4   8   8   8   4   8
#     4   9  20  38  57  81 113 141 168 213 270 319
#     4   8  14  26  45  71 103 135 166 208 265 319
#     4  11  22  37  59  84 108 140 181 221 265 319
#     4  10  21  37  54  73 106 145 177 217 268 317
#     4  11  23  39  59  83 111 141 176 219 266 317
#     4   9  18  31  49  75 102 134 177 220 262 309
#
# _framework density 18.086295
#
# number of rings (size 3 to 8) (size 9 to 14) (size 15 to 20)
#    0.000    2.400    1.000    2.100    1.400    2.800 
#    0.000    3.500    0.000    4.200    0.000    4.200 
#    0.000    0.000    0.000    0.000    0.000    0.000 
#
# Total GULP energy -495833.593411 kJ/mol
# GULP energy per Si atom -12395.839835 kJ/mol
# Density = 1.804513 g / cm^3
# Si number density = 18.086295 Si / 1000 Ang^3
#
#
#
# Elastic Constant Matrix: (Units=GPa)
#
#
# Indices 1 2 3 4 5 6 
#
# 1 63.2419 45.0705 57.8796 0.0000 0.0000 0.0000
# 2 45.0705 123.8455 73.5817 0.0000 0.0000 0.0000
# 3 57.8796 73.5817 157.8531 0.0000 0.0000 0.0000
# 4 0.0000 0.0000 0.0000 -0.5224 0.0000 0.0000
# 5 0.0000 0.0000 0.0000 0.0000 29.4969 0.0000
# 6 0.0000 0.0000 0.0000 0.0000 0.0000 19.0645
#
#
#
# Elastic Compliance Matrix: (Units=1/GPa)
#
#
# Indices 1 2 3 4 5 6 
#
# 1 0.026066 -0.005266 -0.007103 0.000000 0.000000 0.000000
# 2 -0.005266 0.012231 -0.003771 0.000000 0.000000 0.000000
# 3 -0.007103 -0.003771 0.010697 0.000000 0.000000 0.000000
# 4 0.000000 0.000000 0.000000 -1.914326 0.000000 0.000000
# 5 0.000000 0.000000 0.000000 0.000000 0.033902 0.000000
# 6 0.000000 0.000000 0.000000 0.000000 0.000000 0.052454
#
#
# Mechanical properties :
#
#
# Convention : Reuss Voigt Hill
#
# Bulk Modulus (GPa) = 59.82551 77.55601 68.69076
# Shear Modulus (GPa) = -2.87171 20.83504 8.98167
#
# Velocity S-wave (km/s) = -1.26144 3.39776 2.23087
# Velocity P-wave (km/s) = 5.57028 7.63985 6.68563
#
# Compressibility (1/GPa) = 0.01671528
#
# Stress axis : x y z
#
# Youngs Moduli (GPa) = 38.36460 81.75764 93.48395
#
# Poissons Ratio (x) = 0.43053 0.66400
# Poissons Ratio (y) = 0.20202 0.35250
# Poissons Ratio (z) = 0.27250 0.30828
#
# Static dielectric constant tensor:
#      x y z
#    x 3.338690 0.000000 0.000000 
#    y 0.000000 3.621010 0.000000 
#    z 0.000000 0.000000 3.680440 
# 
# 
# High freq. dielectric constant tensor:
#      x y z
#    x 1.692110 0.000000 0.000000 
#    y 0.000000 1.683050 0.000000 
#    z 0.000000 0.000000 1.715300 
# 
# From -- ./inp_files/33024.got.cif
#   From: 2010.03.12/outbox.cif.g09.slc.cpg/sg47_17_cif.got.tgz:33024.got - 2010.04.14 03:12:58.
