data_PCOD8199979
_publ_section_title
;
Structure prediction by ZEFSAII (Michael W. Deem and Ramdas Pophale) SiO2 
 PCOD8199979
Probable space group: P M M M
;
_chemical_formula_sum "Si O2"
_cell_formula_units_Z 48
_cell_length_a 9.561994
_cell_length_b 28.801152
_cell_length_c 9.061519
_cell_angle_alpha 90.000000
_cell_angle_beta 90.000000
_cell_angle_gamma 90.000000
_cell_volume 2495.510097
_symmetry_space_group_name_H-M "P M M M"
_symmetry_group_IT_number 47
_symmetry_cell_setting 'orthorhombic'
loop_
_space_group_symop_operation_xyz
x,y,z
-x,-y,z
x,-y,-z
-x,y,-z
-x,-y,-z
x,y,-z
-x,y,z
x,-y,z
loop_
_atom_site_type_symbol
_atom_site_label
_atom_site_fract_x
_atom_site_fract_y
_atom_site_fract_z
Si Si1 0.162931 0.208784 0.673039
Si Si2 0.000000 0.552134 0.173995
Si Si3 0.338818 0.298796 0.328918
Si Si4 0.732287 0.393399 0.174237
Si Si5 0.500000 0.554352 0.336582
Si Si6 0.841081 0.054254 0.329598
Si Si7 0.338087 0.871605 0.174821
O O1 0.176389 0.198549 0.500000
O O2 0.238022 0.256709 0.715904
O O3 0.244299 0.169042 0.758793
O O4 0.000000 0.210686 0.721034
O O5 0.875384 0.584379 0.227661
O O6 0.000000 0.500000 0.245205
O O7 0.000000 0.545613 0.000000
O O8 0.322508 0.311322 0.500000
O O9 0.500000 0.286227 0.291423
O O10 0.288030 0.342001 0.234402
O O11 0.629516 0.429987 0.243062
O O12 0.713616 0.391409 0.000000
O O13 0.500000 0.500000 0.352336
O O14 0.500000 0.577428 0.500000
O O15 0.813547 0.066763 0.500000
O O16 0.727567 0.080080 0.229490
O O17 0.000000 0.069082 0.287525
O O18 0.820573 0.000000 0.301195
O O19 0.500000 0.867629 0.227022
O O20 0.328794 0.869391 0.000000
#
# Coordination Sequence:
#
# PCOD8199979 Si02
#       7
#     8   4   8   8   4   8   8
#     4  10  22  40  63  89 114 149 196 241 289 348
#     4   9  20  38  57  81 115 151 189 233 280 335
#     4  10  21  38  59  84 118 153 186 231 285 343
#     4  11  22  37  60  87 115 151 191 234 284 340
#     4  11  23  39  59  85 117 151 191 237 284 337
#     4   9  19  37  61  88 118 155 201 250 297 351
#     4  11  24  39  56  84 122 160 198 245 297 348
#
# _framework density 19.234546000000002
#
# number of rings (size 3 to 8) (size 9 to 14) (size 15 to 20)
#    0.000    1.833    0.833    3.250    1.167    7.333 
#    0.000    3.750    0.000    3.000    0.000    0.000 
#    0.000    0.000    0.000    0.000    0.000    0.000 
#
# Total GULP energy -595117.712353 kJ/mol
# GULP energy per Si atom -12398.285674 kJ/mol
# Density = 1.919077 g / cm^3
# Si number density = 19.234546 Si / 1000 Ang^3
#
#
#
# Elastic Constant Matrix: (Units=GPa)
#
#
# Indices 1 2 3 4 5 6 
#
# 1 187.4332 80.7797 62.4512 0.0000 0.0000 0.0000
# 2 80.7797 114.4825 53.9819 0.0000 0.0000 0.0000
# 3 62.4512 53.9819 66.2834 0.0000 0.0000 0.0000
# 4 0.0000 0.0000 0.0000 100.2922 0.0000 0.0000
# 5 0.0000 0.0000 0.0000 0.0000 29.2297 0.0000
# 6 0.0000 0.0000 0.0000 0.0000 0.0000 45.2046
#
#
#
# Elastic Compliance Matrix: (Units=1/GPa)
#
#
# Indices 1 2 3 4 5 6 
#
# 1 0.008628 -0.003661 -0.005148 0.000000 0.000000 0.000000
# 2 -0.003661 0.015734 -0.009365 0.000000 0.000000 0.000000
# 3 -0.005148 -0.009365 0.027564 0.000000 0.000000 0.000000
# 4 0.000000 0.000000 0.000000 0.009971 0.000000 0.000000
# 5 0.000000 0.000000 0.000000 0.000000 0.034212 0.000000
# 6 0.000000 0.000000 0.000000 0.000000 0.000000 0.022122
#
#
# Mechanical properties :
#
#
# Convention : Reuss Voigt Hill
#
# Bulk Modulus (GPa) = 64.18923 84.73607 74.46265
# Shear Modulus (GPa) = 31.29502 46.34437 38.81970
#
# Velocity S-wave (km/s) = 4.03801 4.91392 4.49734
# Velocity P-wave (km/s) = 7.42866 8.73758 8.10957
#
# Compressibility (1/GPa) = 0.01557894
#
# Stress axis : x y z
#
# Youngs Moduli (GPa) = 115.89916 63.55804 36.27937
#
# Poissons Ratio (x) = 0.23266 0.18677
# Poissons Ratio (y) = 0.42426 0.33974
# Poissons Ratio (z) = 0.59666 0.59520
#
# Static dielectric constant tensor:
#      x y z
#    x 3.966290 0.000000 0.000000 
#    y 0.000000 3.665300 0.000000 
#    z 0.000000 0.000000 3.462200 
# 
# 
# High freq. dielectric constant tensor:
#      x y z
#    x 1.763730 0.000000 0.000000 
#    y 0.000000 1.761800 0.000000 
#    z 0.000000 0.000000 1.739540 
# 
# From -- ./inp_files/2800.got.cif
#   From: 2010.03.12/outbox.cif.g09.slc.cpg/sg47_2_cif.got.tgz:2800.got - 2010.04.14 03:12:58.
