data_PCOD8199732
_publ_section_title
;
Structure prediction by ZEFSAII (Michael W. Deem and Ramdas Pophale) SiO2 
 PCOD8199732
Probable space group: P M M M
;
_chemical_formula_sum "Si O2"
_cell_formula_units_Z 36
_cell_length_a 15.187430
_cell_length_b 8.914704
_cell_length_c 14.249807
_cell_angle_alpha 90.000000
_cell_angle_beta 90.000000
_cell_angle_gamma 90.000000
_cell_volume 1929.301932
_symmetry_space_group_name_H-M "P M M M"
_symmetry_group_IT_number 47
_symmetry_cell_setting 'orthorhombic'
loop_
_space_group_symop_operation_xyz
x,y,z
-x,-y,z
x,-y,-z
-x,y,-z
-x,-y,-z
x,y,-z
-x,y,z
x,-y,z
loop_
_atom_site_type_symbol
_atom_site_label
_atom_site_fract_x
_atom_site_fract_y
_atom_site_fract_z
Si Si1 0.000000 0.331566 0.888715
Si Si2 0.177906 0.177114 0.106900
Si Si3 0.251742 0.675592 0.276111
Si Si4 0.899887 0.827682 0.609889
Si Si5 0.398778 0.828171 0.608201
O O1 0.914052 0.243170 0.854261
O O2 0.000000 0.500000 0.847140
O O3 0.000000 0.335741 0.000000
O O4 0.253110 0.242934 0.174553
O O5 0.173446 0.000000 0.114931
O O6 0.197403 0.227491 0.000000
O O7 0.250264 0.500000 0.258914
O O8 0.166337 0.721511 0.335224
O O9 0.340735 0.719250 0.328962
O O10 0.884139 0.803709 0.500000
O O11 0.000000 0.784185 0.636671
O O12 0.880820 0.000000 0.637198
O O13 0.384166 0.785250 0.500000
O O14 0.500000 0.804776 0.636732
O O15 0.370080 0.000000 0.625137
#
# Coordination Sequence:
#
# PCOD8199732 Si02
#       5
#     4   8   8   8   8
#     4   9  17  31  51  75 104 135 172 225 283 327
#     4  10  21  37  56  76 102 143 192 235 273 320
#     4  12  24  34  52  82 115 147 178 223 281 334
#     4   9  19  36  55  74 102 144 190 230 266 313
#     4   9  19  38  63  87 111 142 182 227 272 323
#
# _framework density 18.659599
#
# number of rings (size 3 to 8) (size 9 to 14) (size 15 to 20)
#    0.000    2.111    0.000    5.000    1.556    7.111 
#    0.000    2.222    0.000    0.667    0.000    4.667 
#    0.000    0.000    0.000    0.000    0.000    0.000 
#
# Total GULP energy -446481.930230 kJ/mol
# GULP energy per Si atom -12402.275840 kJ/mol
# Density = 1.861713 g / cm^3
# Si number density = 18.659599 Si / 1000 Ang^3
#
#
#
# Elastic Constant Matrix: (Units=GPa)
#
#
# Indices 1 2 3 4 5 6 
#
# 1 82.4418 38.7104 47.2160 0.0000 0.0000 0.0000
# 2 38.7104 102.1897 38.6795 0.0000 0.0000 0.0000
# 3 47.2160 38.6795 79.1729 0.0000 0.0000 0.0000
# 4 0.0000 0.0000 0.0000 24.7250 0.0000 0.0000
# 5 0.0000 0.0000 0.0000 0.0000 25.2788 0.0000
# 6 0.0000 0.0000 0.0000 0.0000 0.0000 18.9097
#
#
#
# Elastic Compliance Matrix: (Units=1/GPa)
#
#
# Indices 1 2 3 4 5 6 
#
# 1 0.019476 -0.003658 -0.009828 0.000000 0.000000 0.000000
# 2 -0.003658 0.012693 -0.004020 0.000000 0.000000 0.000000
# 3 -0.009828 -0.004020 0.020455 0.000000 0.000000 0.000000
# 4 0.000000 0.000000 0.000000 0.040445 0.000000 0.000000
# 5 0.000000 0.000000 0.000000 0.000000 0.039559 0.000000
# 6 0.000000 0.000000 0.000000 0.000000 0.000000 0.052883
#
#
# Mechanical properties :
#
#
# Convention : Reuss Voigt Hill
#
# Bulk Modulus (GPa) = 56.77420 57.00179 56.88799
# Shear Modulus (GPa) = 22.08558 23.06258 22.57408
#
# Velocity S-wave (km/s) = 3.44409 3.51944 3.48197
# Velocity P-wave (km/s) = 6.80500 6.86512 6.83512
#
# Compressibility (1/GPa) = 0.01761363
#
# Stress axis : x y z
#
# Youngs Moduli (GPa) = 51.34582 78.78503 48.88714
#
# Poissons Ratio (x) = 0.28818 0.48045
# Poissons Ratio (y) = 0.18781 0.19651
# Poissons Ratio (z) = 0.50461 0.31669
#
# Static dielectric constant tensor:
#      x y z
#    x 3.315180 0.000000 0.000000 
#    y 0.000000 3.361780 0.000000 
#    z 0.000000 0.000000 3.506000 
# 
# 
# High freq. dielectric constant tensor:
#      x y z
#    x 1.705540 0.000000 0.000000 
#    y 0.000000 1.724060 0.000000 
#    z 0.000000 0.000000 1.727030 
# 
# From -- ./inp_files/5517.got.cif
#   From: 2010.03.12/outbox.cif.g09.slc.cpg/sg47_3_cif.got.tgz:5517.got - 2010.04.14 03:12:58.
