data_PCOD8199701
_publ_section_title
;
Structure prediction by ZEFSAII (Michael W. Deem and Ramdas Pophale) SiO2 
 PCOD8199701
Probable space group: P M M M
;
_chemical_formula_sum "Si O2"
_cell_formula_units_Z 52
_cell_length_a 21.321101
_cell_length_b 8.903788
_cell_length_c 13.909871
_cell_angle_alpha 90.000000
_cell_angle_beta 90.000000
_cell_angle_gamma 90.000000
_cell_volume 2640.629925
_symmetry_space_group_name_H-M "P M M M"
_symmetry_group_IT_number 47
_symmetry_cell_setting 'orthorhombic'
loop_
_space_group_symop_operation_xyz
x,y,z
-x,-y,z
x,-y,-z
-x,y,-z
-x,-y,-z
x,y,-z
-x,y,z
x,-y,z
loop_
_atom_site_type_symbol
_atom_site_label
_atom_site_fract_x
_atom_site_fract_y
_atom_site_fract_z
Si Si1 0.687600 0.677449 0.777174
Si Si2 0.748848 0.177251 0.608730
Si Si3 0.000000 0.830046 0.615163
Si Si4 0.798489 0.828719 0.885244
Si Si5 0.875769 0.669902 0.385346
Si Si6 0.430811 0.678319 0.107504
Si Si7 0.066570 0.821990 0.107841
O O1 0.685946 0.500000 0.763842
O O2 0.693402 0.755026 0.673172
O O3 0.745289 0.720374 0.845293
O O4 0.622999 0.740920 0.822419
O O5 0.737054 0.231201 0.500000
O O6 0.814667 0.239755 0.649683
O O7 0.750467 0.000000 0.616427
O O8 0.061964 0.748934 0.656639
O O9 0.000000 0.826342 0.500000
O O10 0.000000 0.000000 0.653786
O O11 0.867008 0.768956 0.845344
O O12 0.785386 0.000000 0.850847
O O13 0.798540 0.820634 0.000000
O O14 0.878931 0.673145 0.500000
O O15 0.872302 0.500000 0.346769
O O16 0.500000 0.729251 0.143980
O O17 0.427011 0.500000 0.104373
O O18 0.419207 0.741379 0.000000
O O19 0.000000 0.775395 0.161075
O O20 0.071125 0.000000 0.102080
O O21 0.062954 0.756939 0.000000
#
# Coordination Sequence:
#
# PCOD8199701 Si02
#       7
#     8   8   4   8   8   8   8
#     4  11  21  32  52  80 108 137 172 216 265 318
#     4  10  21  37  55  73  97 133 177 224 272 325
#     4   9  15  23  39  65  95 127 164 205 258 329
#     4   9  17  29  47  73 105 138 171 211 259 310
#     4   9  16  27  45  69  95 123 161 214 273 324
#     4   8  15  30  53  82 115 147 176 206 245 299
#     4   7  10  19  38  63  89 122 167 212 249 288
#
# _framework density 19.692271999999999
#
# number of rings (size 3 to 8) (size 9 to 14) (size 15 to 20)
#    0.000    3.000    0.000    3.923    0.000    4.615 
#    0.000    0.000    1.692    2.769    0.000   10.769 
#    0.000    0.000    0.000    0.000    0.000    0.000 
#
# Total GULP energy -644399.688712 kJ/mol
# GULP energy per Si atom -12392.301706 kJ/mol
# Density = 1.964745 g / cm^3
# Si number density = 19.692272 Si / 1000 Ang^3
#
#
#
# Elastic Constant Matrix: (Units=GPa)
#
#
# Indices 1 2 3 4 5 6 
#
# 1 182.1108 42.5513 66.2695 0.0000 0.0000 0.0000
# 2 42.5513 69.7904 18.1317 0.0000 0.0000 0.0000
# 3 66.2695 18.1317 56.1916 0.0000 0.0000 0.0000
# 4 0.0000 0.0000 0.0000 20.3573 0.0000 0.0000
# 5 0.0000 0.0000 0.0000 0.0000 31.8769 0.0000
# 6 0.0000 0.0000 0.0000 0.0000 0.0000 16.6579
#
#
#
# Elastic Compliance Matrix: (Units=1/GPa)
#
#
# Indices 1 2 3 4 5 6 
#
# 1 0.010315 -0.003415 -0.011063 0.000000 0.000000 0.000000
# 2 -0.003415 0.016770 -0.001384 0.000000 0.000000 0.000000
# 3 -0.011063 -0.001384 0.031290 0.000000 0.000000 0.000000
# 4 0.000000 0.000000 0.000000 0.049123 0.000000 0.000000
# 5 0.000000 0.000000 0.000000 0.000000 0.031371 0.000000
# 6 0.000000 0.000000 0.000000 0.000000 0.000000 0.060032
#
#
# Mechanical properties :
#
#
# Convention : Reuss Voigt Hill
#
# Bulk Modulus (GPa) = 37.52156 62.44419 49.98287
# Shear Modulus (GPa) = 20.87621 25.85443 23.36532
#
# Velocity S-wave (km/s) = 3.25948 3.62736 3.44833
# Velocity P-wave (km/s) = 5.76723 7.02300 6.42586
#
# Compressibility (1/GPa) = 0.02665134
#
# Stress axis : x y z
#
# Youngs Moduli (GPa) = 96.94810 59.62950 31.95920
#
# Poissons Ratio (x) = 0.20362 0.35356
# Poissons Ratio (y) = 0.33106 0.04423
# Poissons Ratio (z) = 1.07253 0.08253
#
# Static dielectric constant tensor:
#      x y z
#    x 3.932320 0.000000 0.000000 
#    y 0.000000 3.266960 0.000000 
#    z 0.000000 0.000000 3.450740 
# 
# 
# High freq. dielectric constant tensor:
#      x y z
#    x 1.763730 0.000000 0.000000 
#    y 0.000000 1.735750 0.000000 
#    z 0.000000 0.000000 1.757070 
# 
# From -- ./inp_files/25042.got.cif
#   From: 2010.03.12/outbox.cif.g09.slc.cpg/sg47_13_cif.got.tgz:25042.got - 2010.04.14 03:12:58.
