data_PCOD8199800
_publ_section_title
;
Structure prediction by ZEFSAII (Michael W. Deem and Ramdas Pophale) SiO2 
 PCOD8199800
Probable space group: P M M M
;
_chemical_formula_sum "Si O2"
_cell_formula_units_Z 48
_cell_length_a 9.371410
_cell_length_b 9.017946
_cell_length_c 30.673587
_cell_angle_alpha 90.000000
_cell_angle_beta 90.000000
_cell_angle_gamma 90.000000
_cell_volume 2592.251503
_symmetry_space_group_name_H-M "P M M M"
_symmetry_group_IT_number 47
_symmetry_cell_setting 'orthorhombic'
loop_
_space_group_symop_operation_xyz
x,y,z
-x,-y,z
x,-y,-z
-x,y,-z
-x,-y,-z
x,y,-z
-x,y,z
x,-y,z
loop_
_atom_site_type_symbol
_atom_site_label
_atom_site_fract_x
_atom_site_fract_y
_atom_site_fract_z
Si Si1 0.839473 0.176823 0.628520
Si Si2 0.664967 0.172247 0.288411
Si Si3 0.336058 0.670426 0.949458
Si Si4 0.833645 0.827151 0.876812
Si Si5 0.336283 0.325432 0.800321
Si Si6 0.339799 0.176387 0.451799
O O1 0.755849 0.233602 0.671054
O O2 0.764713 0.242139 0.585059
O O3 0.000000 0.238327 0.630237
O O4 0.836920 0.000000 0.627287
O O5 0.500000 0.200919 0.299467
O O6 0.714415 0.260727 0.245824
O O7 0.695476 0.000000 0.279674
O O8 0.500000 0.707621 0.938325
O O9 0.304021 0.500000 0.937289
O O10 0.233800 0.777110 0.922439
O O11 0.304546 0.699689 0.000000
O O12 0.762385 0.739412 0.837602
O O13 0.000000 0.789109 0.877734
O O14 0.805042 0.000000 0.870063
O O15 0.500000 0.280095 0.809742
O O16 0.316964 0.500000 0.799137
O O17 0.288391 0.228065 0.500000
O O18 0.500000 0.234532 0.442914
O O19 0.339327 0.000000 0.449518
#
# Coordination Sequence:
#
# PCOD8199800 Si02
#       6
#     8   8   8   8   8   8
#     4   9  16  24  36  57  85 117 153 194 238 283
#     4   9  17  30  48  68  92 124 159 195 240 294
#     4   9  19  37  60  84 109 139 177 218 257 299
#     4  11  24  38  53  78 111 143 174 210 253 302
#     4  10  21  37  57  79 101 128 167 213 257 303
#     4   8  13  21  33  50  76 113 154 192 232 282
#
# _framework density 18.516722999999999
#
# number of rings (size 3 to 8) (size 9 to 14) (size 15 to 20)
#    0.000    2.667    0.000    3.000    0.000    8.333 
#    0.000    5.833    0.000    0.000    0.000    0.000 
#    0.000    0.667    0.000    7.667    0.000    9.833 
#
# Total GULP energy -595206.001450 kJ/mol
# GULP energy per Si atom -12400.125030 kJ/mol
# Density = 1.847458 g / cm^3
# Si number density = 18.516723 Si / 1000 Ang^3
#
#
#
# Elastic Constant Matrix: (Units=GPa)
#
#
# Indices 1 2 3 4 5 6 
#
# 1 106.0649 32.7173 80.3777 0.0000 0.0000 0.0000
# 2 32.7173 39.9582 39.1148 0.0000 0.0000 0.0000
# 3 80.3777 39.1148 148.3473 0.0000 0.0000 0.0000
# 4 0.0000 0.0000 0.0000 -3.5522 0.0000 0.0000
# 5 0.0000 0.0000 0.0000 0.0000 11.6764 0.0000
# 6 0.0000 0.0000 0.0000 0.0000 0.0000 19.1867
#
#
#
# Elastic Compliance Matrix: (Units=1/GPa)
#
#
# Indices 1 2 3 4 5 6 
#
# 1 0.017231 -0.006698 -0.007570 0.000000 0.000000 0.000000
# 2 -0.006698 0.036337 -0.005952 0.000000 0.000000 0.000000
# 3 -0.007570 -0.005952 0.012412 0.000000 0.000000 0.000000
# 4 0.000000 0.000000 0.000000 -0.281519 0.000000 0.000000
# 5 0.000000 0.000000 0.000000 0.000000 0.085643 0.000000
# 6 0.000000 0.000000 0.000000 0.000000 0.000000 0.052120
#
#
# Mechanical properties :
#
#
# Convention : Reuss Voigt Hill
#
# Bulk Modulus (GPa) = 39.15486 66.53220 52.84353
# Shear Modulus (GPa) = -173.46394 14.93956 -79.26219
#
# Velocity S-wave (km/s) = -9.68932 2.84353 -6.54971
# Velocity P-wave (km/s) = 10.19734 6.84030 5.34771
#
# Compressibility (1/GPa) = 0.02553962
#
# Stress axis : x y z
#
# Youngs Moduli (GPa) = 58.03474 27.52041 80.56875
#
# Poissons Ratio (x) = 0.18434 0.60990
# Poissons Ratio (y) = 0.38874 0.47951
# Poissons Ratio (z) = 0.43932 0.16379
#
# Static dielectric constant tensor:
#      x y z
#    x 3.487770 0.000000 0.000000 
#    y 0.000000 3.026620 0.000000 
#    z 0.000000 0.000000 3.632620 
# 
# 
# High freq. dielectric constant tensor:
#      x y z
#    x 1.716340 0.000000 0.000000 
#    y 0.000000 1.677740 0.000000 
#    z 0.000000 0.000000 1.735440 
# 
# From -- ./inp_files/2432.got.cif
#   From: 2010.03.12/outbox.cif.g09.slc.cpg/sg47_2_cif.got.tgz:2432.got - 2010.04.14 03:12:58.
