data_PCOD8199452
_publ_section_title
;
Structure prediction by ZEFSAII (Michael W. Deem and Ramdas Pophale) SiO2 
 PCOD8199452
Probable space group: P M M M
;
_chemical_formula_sum "Si O2"
_cell_formula_units_Z 64
_cell_length_a 20.008865
_cell_length_b 8.985857
_cell_length_c 19.941554
_cell_angle_alpha 90.000000
_cell_angle_beta 90.000000
_cell_angle_gamma 90.000000
_cell_volume 3585.427589
_symmetry_space_group_name_H-M "P M M M"
_symmetry_group_IT_number 47
_symmetry_cell_setting 'orthorhombic'
loop_
_space_group_symop_operation_xyz
x,y,z
-x,-y,z
x,-y,-z
-x,y,-z
-x,-y,-z
x,y,-z
-x,y,z
x,-y,z
loop_
_atom_site_type_symbol
_atom_site_label
_atom_site_fract_x
_atom_site_fract_y
_atom_site_fract_z
Si Si1 0.578343 0.827604 0.319366
Si Si2 0.672785 0.674123 0.577719
Si Si3 0.422898 0.326417 0.183524
Si Si4 0.074052 0.176962 0.671791
Si Si5 0.190610 0.825591 0.577145
Si Si6 0.332100 0.171372 0.078325
Si Si7 0.074594 0.823002 0.178130
Si Si8 0.181543 0.823098 0.074308
O O1 0.500000 0.800472 0.328526
O O2 0.613258 0.747827 0.381346
O O3 0.603489 0.758370 0.249421
O O4 0.597526 0.000000 0.319518
O O5 0.659992 0.711080 0.500000
O O6 0.673925 0.500000 0.591900
O O7 0.743142 0.741887 0.601442
O O8 0.500000 0.287361 0.169893
O O9 0.411915 0.500000 0.195544
O O10 0.382066 0.274845 0.119036
O O11 0.128850 0.239234 0.620141
O O12 0.091708 0.232560 0.746820
O O13 0.000000 0.234787 0.651314
O O14 0.074114 0.000000 0.669804
O O15 0.174350 0.790702 0.500000
O O16 0.201605 0.000000 0.589573
O O17 0.256513 0.221949 0.095603
O O18 0.343580 0.000000 0.098647
O O19 0.346690 0.194473 0.000000
O O20 0.128494 0.753663 0.126673
O O21 0.000000 0.770138 0.157642
O O22 0.078080 0.000000 0.175890
O O23 0.176521 0.000000 0.072747
O O24 0.165184 0.760701 0.000000
#
# Coordination Sequence:
#
# PCOD8199452 Si02
#       8
#     8   8   8   8   8   8   8   8
#     4  10  21  37  57  79 102 129 163 203 244 290
#     4  10  21  36  53  74 103 136 166 201 247 296
#     4  10  21  36  53  74 101 130 161 201 248 298
#     4   8  14  24  38  60  90 120 154 202 256 301
#     4   9  17  29  46  68  93 123 162 205 245 289
#     4   9  18  32  49  70  98 132 169 209 251 295
#     4   8  13  21  34  55  85 118 150 187 234 287
#     4   8  14  24  37  56  85 120 157 196 237 281
#
# _framework density 17.850033
#
# number of rings (size 3 to 8) (size 9 to 14) (size 15 to 20)
#    0.000    3.000    0.000    2.625    0.000    4.500 
#    0.000    7.500    0.000    0.375    0.000    1.750 
#    0.000    1.500    0.000    2.750    0.000    2.750 
#
# Total GULP energy -793486.397127 kJ/mol
# GULP energy per Si atom -12398.224955 kJ/mol
# Density = 1.780941 g / cm^3
# Si number density = 17.850033 Si / 1000 Ang^3
#
#
#
# Elastic Constant Matrix: (Units=GPa)
#
#
# Indices 1 2 3 4 5 6 
#
# 1 103.3388 37.8026 73.8397 0.0000 0.0000 0.0000
# 2 37.8026 47.8496 36.2497 0.0000 0.0000 0.0000
# 3 73.8397 36.2497 99.3068 0.0000 0.0000 0.0000
# 4 0.0000 0.0000 0.0000 20.8434 0.0000 0.0000
# 5 0.0000 0.0000 0.0000 0.0000 40.5713 0.0000
# 6 0.0000 0.0000 0.0000 0.0000 0.0000 10.6601
#
#
#
# Elastic Compliance Matrix: (Units=1/GPa)
#
#
# Indices 1 2 3 4 5 6 
#
# 1 0.022205 -0.006959 -0.013970 0.000000 0.000000 0.000000
# 2 -0.006959 0.031068 -0.006166 0.000000 0.000000 0.000000
# 3 -0.013970 -0.006166 0.022708 0.000000 0.000000 0.000000
# 4 0.000000 0.000000 0.000000 0.047977 0.000000 0.000000
# 5 0.000000 0.000000 0.000000 0.000000 0.024648 0.000000
# 6 0.000000 0.000000 0.000000 0.000000 0.000000 0.093808
#
#
# Mechanical properties :
#
#
# Convention : Reuss Voigt Hill
#
# Bulk Modulus (GPa) = 45.89242 60.69769 53.29506
# Shear Modulus (GPa) = 16.45448 21.25517 18.85482
#
# Velocity S-wave (km/s) = 3.03944 3.45449 3.25359
# Velocity P-wave (km/s) = 6.17117 7.07032 6.63599
#
# Compressibility (1/GPa) = 0.02179009
#
# Stress axis : x y z
#
# Youngs Moduli (GPa) = 45.03514 32.18740 44.03680
#
# Poissons Ratio (x) = 0.22399 0.61520
# Poissons Ratio (y) = 0.31340 0.27155
# Poissons Ratio (z) = 0.62915 0.19848
#
# Static dielectric constant tensor:
#      x y z
#    x 3.478900 0.000000 0.000000 
#    y 0.000000 2.937820 0.000000 
#    z 0.000000 0.000000 3.466720 
# 
# 
# High freq. dielectric constant tensor:
#      x y z
#    x 1.695630 0.000000 0.000000 
#    y 0.000000 1.651900 0.000000 
#    z 0.000000 0.000000 1.694910 
# 
# From -- ./inp_files/27063.got.cif
#   From: 2010.03.12/outbox.cif.g09.slc.cpg/sg47_14_cif.got.tgz:27063.got - 2010.04.14 03:12:58.
