data_PCOD8199438
_publ_section_title
;
Structure prediction by ZEFSAII (Michael W. Deem and Ramdas Pophale) SiO2 
 PCOD8199438
Probable space group: P M M M
;
_chemical_formula_sum "Si O2"
_cell_formula_units_Z 64
_cell_length_a 19.982213
_cell_length_b 19.756511
_cell_length_c 9.223235
_cell_angle_alpha 90.000000
_cell_angle_beta 90.000000
_cell_angle_gamma 90.000000
_cell_volume 3641.137746
_symmetry_space_group_name_H-M "P M M M"
_symmetry_group_IT_number 47
_symmetry_cell_setting 'orthorhombic'
loop_
_space_group_symop_operation_xyz
x,y,z
-x,-y,z
x,-y,-z
-x,y,-z
-x,-y,-z
x,y,-z
-x,y,z
x,-y,z
loop_
_atom_site_type_symbol
_atom_site_label
_atom_site_fract_x
_atom_site_fract_y
_atom_site_fract_z
Si Si1 0.828239 0.422919 0.669858
Si Si2 0.421885 0.164355 0.332978
Si Si3 0.677965 0.424917 0.672626
Si Si4 0.182705 0.921159 0.331052
Si Si5 0.078049 0.166829 0.166481
Si Si6 0.684543 0.920780 0.167745
Si Si7 0.075795 0.678696 0.831274
Si Si8 0.425981 0.682874 0.672132
O O1 0.833196 0.409946 0.500000
O O2 0.848472 0.500000 0.707333
O O3 0.752956 0.408316 0.725707
O O4 0.877419 0.371996 0.746784
O O5 0.401868 0.151996 0.500000
O O6 0.500000 0.149168 0.309899
O O7 0.380667 0.114968 0.230862
O O8 0.404939 0.241119 0.285502
O O9 0.676384 0.422576 0.500000
O O10 0.656749 0.500000 0.725564
O O11 0.626892 0.370067 0.740015
O O12 0.191590 0.905876 0.500000
O O13 0.118845 0.881486 0.272183
O O14 0.249289 0.895193 0.250420
O O15 0.170441 0.000000 0.299999
O O16 0.097530 0.244295 0.200699
O O17 0.000000 0.154696 0.196803
O O18 0.095086 0.149245 0.000000
O O19 0.674132 0.000000 0.192187
O O20 0.692671 0.901981 0.000000
O O21 0.000000 0.667155 0.778296
O O22 0.081875 0.662763 0.000000
O O23 0.427780 0.676645 0.500000
O O24 0.500000 0.666227 0.733740
#
# Coordination Sequence:
#
# PCOD8199438 Si02
#       8
#     8   8   8   8   8   8   8   8
#     4   9  18  31  46  68  99 131 163 202 248 296
#     4   9  18  32  49  71 101 133 163 201 250 300
#     4   8  14  25  41  63  93 126 158 194 235 278
#     4  10  21  36  54  77 104 132 164 203 245 293
#     4   9  19  36  55  75 102 134 166 203 248 296
#     4  10  21  36  53  73  98 128 164 207 250 293
#     4   9  19  35  52  71  96 125 160 203 246 289
#     4   8  14  25  42  66  95 125 158 195 234 279
#
# _framework density 17.576924000000002
#
# number of rings (size 3 to 8) (size 9 to 14) (size 15 to 20)
#    0.000    3.000    0.000    3.000    0.000    5.000 
#    0.000    7.500    0.000    0.000    0.000    0.000 
#    0.000    0.000    0.000    5.500    0.000    5.500 
#
# Total GULP energy -793493.175025 kJ/mol
# GULP energy per Si atom -12398.330860 kJ/mol
# Density = 1.753692 g / cm^3
# Si number density = 17.576924 Si / 1000 Ang^3
#
#
#
# Elastic Constant Matrix: (Units=GPa)
#
#
# Indices 1 2 3 4 5 6 
#
# 1 105.7380 72.6989 54.7882 0.0000 0.0000 0.0000
# 2 72.6989 91.2630 54.2000 0.0000 0.0000 0.0000
# 3 54.7882 54.2000 69.1255 0.0000 0.0000 0.0000
# 4 0.0000 0.0000 0.0000 25.9735 0.0000 0.0000
# 5 0.0000 0.0000 0.0000 0.0000 20.8747 0.0000
# 6 0.0000 0.0000 0.0000 0.0000 0.0000 32.2677
#
#
#
# Elastic Compliance Matrix: (Units=1/GPa)
#
#
# Indices 1 2 3 4 5 6 
#
# 1 0.022637 -0.013805 -0.007117 0.000000 0.000000 0.000000
# 2 -0.013805 0.028926 -0.011738 0.000000 0.000000 0.000000
# 3 -0.007117 -0.011738 0.029311 0.000000 0.000000 0.000000
# 4 0.000000 0.000000 0.000000 0.038501 0.000000 0.000000
# 5 0.000000 0.000000 0.000000 0.000000 0.047905 0.000000
# 6 0.000000 0.000000 0.000000 0.000000 0.000000 0.030991
#
#
# Mechanical properties :
#
#
# Convention : Reuss Voigt Hill
#
# Bulk Modulus (GPa) = 64.29928 69.94455 67.12191
# Shear Modulus (GPa) = 18.60291 21.45247 20.02769
#
# Velocity S-wave (km/s) = 3.25679 3.49734 3.37921
# Velocity P-wave (km/s) = 7.12764 7.49589 7.31408
#
# Compressibility (1/GPa) = 0.01555227
#
# Stress axis : x y z
#
# Youngs Moduli (GPa) = 44.17575 34.57148 34.11689
#
# Poissons Ratio (x) = 0.47727 0.24282
# Poissons Ratio (y) = 0.60986 0.40046
# Poissons Ratio (z) = 0.31441 0.40580
#
# Static dielectric constant tensor:
#      x y z
#    x 3.450710 0.000000 0.000000 
#    y 0.000000 3.348540 0.000000 
#    z 0.000000 0.000000 2.976710 
# 
# 
# High freq. dielectric constant tensor:
#      x y z
#    x 1.685480 0.000000 0.000000 
#    y 0.000000 1.682180 0.000000 
#    z 0.000000 0.000000 1.652030 
# 
# From -- ./inp_files/11603.got.cif
#   From: 2010.03.12/outbox.cif.g09.slc.cpg/sg47_6_cif.got.tgz:11603.got - 2010.04.14 03:12:58.
