data_PCOD8199460
_publ_section_title
;
Structure prediction by ZEFSAII (Michael W. Deem and Ramdas Pophale) SiO2 
 PCOD8199460
Probable space group: P M M M
;
_chemical_formula_sum "Si O2"
_cell_formula_units_Z 48
_cell_length_a 9.002910
_cell_length_b 30.932509
_cell_length_c 9.117648
_cell_angle_alpha 90.000000
_cell_angle_beta 90.000000
_cell_angle_gamma 90.000000
_cell_volume 2539.106272
_symmetry_space_group_name_H-M "P M M M"
_symmetry_group_IT_number 47
_symmetry_cell_setting 'orthorhombic'
loop_
_space_group_symop_operation_xyz
x,y,z
-x,-y,z
x,-y,-z
-x,y,-z
-x,-y,-z
x,y,-z
-x,y,z
x,-y,z
loop_
_atom_site_type_symbol
_atom_site_label
_atom_site_fract_x
_atom_site_fract_y
_atom_site_fract_z
Si Si1 0.322763 0.593037 0.165529
Si Si2 0.670447 0.000000 0.173281
Si Si3 0.826458 0.921586 0.670060
Si Si4 0.326857 0.167216 0.331464
Si Si5 0.171639 0.330834 0.329851
Si Si6 0.829312 0.244076 0.172416
Si Si7 0.338176 0.500000 0.173376
O O1 0.500000 0.591726 0.171606
O O2 0.263652 0.628095 0.277950
O O3 0.257973 0.545514 0.215232
O O4 0.269723 0.604242 0.000000
O O5 0.749115 0.957685 0.233742
O O6 0.500000 0.000000 0.224484
O O7 0.685490 0.000000 0.000000
O O8 0.794568 0.931477 0.500000
O O9 0.760245 0.875587 0.716630
O O10 0.000000 0.921417 0.705028
O O11 0.291989 0.178936 0.500000
O O12 0.500000 0.158926 0.305580
O O13 0.273329 0.205890 0.229861
O O14 0.202393 0.322897 0.500000
O O15 0.227007 0.288492 0.244267
O O16 0.000000 0.339864 0.296144
O O17 0.000000 0.234761 0.216412
O O18 0.808976 0.248311 0.000000
O O19 0.500000 0.500000 0.249318
O O20 0.359723 0.500000 0.000000
#
# Coordination Sequence:
#
# PCOD8199460 Si02
#       7
#     8   4   8   8   8   8   4
#     4   9  17  31  53  78 102 131 170 215 261 310
#     4  11  24  39  56  82 116 151 186 227 274 318
#     4  10  21  38  61  86 111 144 186 226 266 317
#     4  10  21  37  58  84 112 142 176 216 264 316
#     4  10  21  36  53  74 103 139 176 215 261 312
#     4  10  21  37  57  79 103 136 177 218 262 313
#     4   7  12  26  48  73 100 130 166 209 256 307
#
# _framework density 18.904288000000001
#
# number of rings (size 3 to 8) (size 9 to 14) (size 15 to 20)
#    0.000    2.333    0.000    3.500    0.000    7.333 
#    0.000    0.833    0.000    4.000    0.000    0.000 
#    0.000    0.000    0.000    0.000    0.000    0.000 
#
# Total GULP energy -595179.047806 kJ/mol
# GULP energy per Si atom -12399.563496 kJ/mol
# Density = 1.886126 g / cm^3
# Si number density = 18.904288 Si / 1000 Ang^3
#
#
#
# Elastic Constant Matrix: (Units=GPa)
#
#
# Indices 1 2 3 4 5 6 
#
# 1 76.5787 60.6436 39.4344 0.0000 0.0000 0.0000
# 2 60.6436 160.7968 62.2977 0.0000 0.0000 0.0000
# 3 39.4344 62.2977 74.7484 0.0000 0.0000 0.0000
# 4 0.0000 0.0000 0.0000 33.2053 0.0000 0.0000
# 5 0.0000 0.0000 0.0000 0.0000 29.1390 0.0000
# 6 0.0000 0.0000 0.0000 0.0000 0.0000 29.9090
#
#
#
# Elastic Compliance Matrix: (Units=1/GPa)
#
#
# Indices 1 2 3 4 5 6 
#
# 1 0.020539 -0.005240 -0.006468 0.000000 0.000000 0.000000
# 2 -0.005240 0.010522 -0.006005 0.000000 0.000000 0.000000
# 3 -0.006468 -0.006005 0.021795 0.000000 0.000000 0.000000
# 4 0.000000 0.000000 0.000000 0.030116 0.000000 0.000000
# 5 0.000000 0.000000 0.000000 0.000000 0.034318 0.000000
# 6 0.000000 0.000000 0.000000 0.000000 0.000000 0.033435
#
#
# Mechanical properties :
#
#
# Convention : Reuss Voigt Hill
#
# Bulk Modulus (GPa) = 57.37334 70.76390 64.06862
# Shear Modulus (GPa) = 26.04700 28.43387 27.24044
#
# Velocity S-wave (km/s) = 3.71595 3.88248 3.80012
# Velocity P-wave (km/s) = 6.98758 7.59027 7.29515
#
# Compressibility (1/GPa) = 0.01742970
#
# Stress axis : x y z
#
# Youngs Moduli (GPa) = 48.68760 95.04166 45.88191
#
# Poissons Ratio (x) = 0.49804 0.29678
# Poissons Ratio (y) = 0.25513 0.27550
# Poissons Ratio (z) = 0.31493 0.57069
#
# Static dielectric constant tensor:
#      x y z
#    x 3.372710 0.000000 0.000000 
#    y 0.000000 3.461270 0.000000 
#    z 0.000000 0.000000 3.340560 
# 
# 
# High freq. dielectric constant tensor:
#      x y z
#    x 1.723390 0.000000 0.000000 
#    y 0.000000 1.753610 0.000000 
#    z 0.000000 0.000000 1.724440 
# 
# From -- ./inp_files/2595.got.cif
#   From: 2010.03.12/outbox.cif.g09.slc.cpg/sg47_2_cif.got.tgz:2595.got - 2010.04.14 03:12:58.
