data_PCOD8199715
_publ_section_title
;
Structure prediction by ZEFSAII (Michael W. Deem and Ramdas Pophale) SiO2 
 PCOD8199715
Probable space group: P M M M
;
_chemical_formula_sum "Si O2"
_cell_formula_units_Z 48
_cell_length_a 9.043034
_cell_length_b 29.118247
_cell_length_c 9.991333
_cell_angle_alpha 90.000000
_cell_angle_beta 90.000000
_cell_angle_gamma 90.000000
_cell_volume 2630.890805
_symmetry_space_group_name_H-M "P M M M"
_symmetry_group_IT_number 47
_symmetry_cell_setting 'orthorhombic'
loop_
_space_group_symop_operation_xyz
x,y,z
-x,-y,z
x,-y,-z
-x,y,-z
-x,-y,-z
x,y,-z
-x,y,z
x,-y,z
loop_
_atom_site_type_symbol
_atom_site_label
_atom_site_fract_x
_atom_site_fract_y
_atom_site_fract_z
Si Si1 0.175794 0.948947 0.649969
Si Si2 0.326970 0.695227 0.344101
Si Si3 0.824451 0.397760 0.734284
Si Si4 0.664507 0.553715 0.500000
Si Si5 0.327197 0.222223 0.847380
Si Si6 0.174940 0.448182 0.000000
Si Si7 0.825626 0.128327 0.847784
O O1 0.228398 0.936013 0.500000
O O2 0.240484 0.911966 0.754297
O O3 0.000000 0.948749 0.656735
O O4 0.233630 0.000000 0.687966
O O5 0.287377 0.703480 0.500000
O O6 0.500000 0.685180 0.326015
O O7 0.236053 0.653149 0.284716
O O8 0.276862 0.738751 0.256430
O O9 0.756429 0.431648 0.627260
O O10 0.770470 0.418747 0.874154
O O11 0.000000 0.396833 0.720005
O O12 0.647380 0.500000 0.500000
O O13 0.500000 0.576578 0.500000
O O14 0.500000 0.212644 0.835788
O O15 0.244450 0.176242 0.802693
O O16 0.284556 0.236373 0.000000
O O17 0.242812 0.500000 0.000000
O O18 0.000000 0.452630 0.000000
O O19 0.000000 0.132927 0.830330
O O20 0.781929 0.116350 0.000000
#
# Coordination Sequence:
#
# PCOD8199715 Si02
#       7
#     8   8   8   4   8   4   8
#     4   8  14  25  42  66  97 131 165 202 249 304
#     4  10  21  37  55  76 106 138 171 215 262 311
#     4  11  22  37  59  85 111 142 179 219 265 315
#     4  11  23  39  59  83 113 147 181 219 262 309
#     4   9  19  35  53  72  97 136 177 210 255 314
#     4   9  20  38  57  81 113 143 173 213 260 311
#     4   9  17  29  46  71  99 125 160 211 261 300
#
# _framework density 18.244771
#
# number of rings (size 3 to 8) (size 9 to 14) (size 15 to 20)
#    0.000    2.500    0.833    1.750    1.167    3.000 
#    0.000    2.917    0.000    3.500    0.000    3.500 
#    0.000    0.000    0.000    0.000    0.000    0.000 
#
# Total GULP energy -595130.349284 kJ/mol
# GULP energy per Si atom -12398.548943 kJ/mol
# Density = 1.820324 g / cm^3
# Si number density = 18.244771 Si / 1000 Ang^3
#
#
#
# Elastic Constant Matrix: (Units=GPa)
#
#
# Indices 1 2 3 4 5 6 
#
# 1 41.1651 44.7126 41.5673 0.0000 0.0000 0.0000
# 2 44.7126 160.5675 104.4962 0.0000 0.0000 0.0000
# 3 41.5673 104.4962 158.0949 0.0000 0.0000 0.0000
# 4 0.0000 0.0000 0.0000 73.8512 0.0000 0.0000
# 5 0.0000 0.0000 0.0000 0.0000 18.4948 0.0000
# 6 0.0000 0.0000 0.0000 0.0000 0.0000 11.5882
#
#
#
# Elastic Compliance Matrix: (Units=1/GPa)
#
#
# Indices 1 2 3 4 5 6 
#
# 1 0.037053 -0.006981 -0.005128 0.000000 0.000000 0.000000
# 2 -0.006981 0.012244 -0.006258 0.000000 0.000000 0.000000
# 3 -0.005128 -0.006258 0.011810 0.000000 0.000000 0.000000
# 4 0.000000 0.000000 0.000000 0.013541 0.000000 0.000000
# 5 0.000000 0.000000 0.000000 0.000000 0.054069 0.000000
# 6 0.000000 0.000000 0.000000 0.000000 0.000000 0.086295
#
#
# Mechanical properties :
#
#
# Convention : Reuss Voigt Hill
#
# Bulk Modulus (GPa) = 41.02745 82.37554 61.70149
# Shear Modulus (GPa) = 19.24043 32.05693 25.64868
#
# Velocity S-wave (km/s) = 3.25094 4.19626 3.75348
# Velocity P-wave (km/s) = 6.05207 8.29014 7.25789
#
# Compressibility (1/GPa) = 0.02437393
#
# Stress axis : x y z
#
# Youngs Moduli (GPa) = 26.98849 81.67109 84.67514
#
# Poissons Ratio (x) = 0.57011 0.43423
# Poissons Ratio (y) = 0.18839 0.52987
# Poissons Ratio (z) = 0.13840 0.51108
#
# Static dielectric constant tensor:
#      x y z
#    x 3.134890 0.000000 0.000000 
#    y 0.000000 3.533690 0.000000 
#    z 0.000000 0.000000 3.144710 
# 
# 
# High freq. dielectric constant tensor:
#      x y z
#    x 1.680530 0.000000 0.000000 
#    y 0.000000 1.715820 0.000000 
#    z 0.000000 0.000000 1.717020 
# 
# From -- ./inp_files/2714.got.cif
#   From: 2010.03.12/outbox.cif.g09.slc.cpg/sg47_2_cif.got.tgz:2714.got - 2010.04.14 03:12:58.
