data_PCOD8199263
_publ_section_title
;
Structure prediction by ZEFSAII (Michael W. Deem and Ramdas Pophale) SiO2 
 PCOD8199263
Probable space group: P M M M
;
_chemical_formula_sum "Si O2"
_cell_formula_units_Z 44
_cell_length_a 28.375264
_cell_length_b 9.272496
_cell_length_c 9.457900
_cell_angle_alpha 90.000000
_cell_angle_beta 90.000000
_cell_angle_gamma 90.000000
_cell_volume 2488.463548
_symmetry_space_group_name_H-M "P M M M"
_symmetry_group_IT_number 47
_symmetry_cell_setting 'orthorhombic'
loop_
_space_group_symop_operation_xyz
x,y,z
-x,-y,z
x,-y,-z
-x,y,-z
-x,-y,-z
x,y,-z
-x,y,z
x,-y,z
loop_
_atom_site_type_symbol
_atom_site_label
_atom_site_fract_x
_atom_site_fract_y
_atom_site_fract_z
Si Si1 0.312101 0.171744 0.159675
Si Si2 0.945603 0.164080 0.163623
Si Si3 0.601156 0.827135 0.340698
Si Si4 0.500000 0.842286 0.332374
Si Si5 0.870213 0.667033 0.664575
Si Si6 0.222816 0.831671 0.663521
O O1 0.358850 0.233331 0.235983
O O2 0.266358 0.226421 0.244090
O O3 0.313390 0.000000 0.161749
O O4 0.310350 0.231396 0.000000
O O5 0.915262 0.273737 0.254367
O O6 0.000000 0.200035 0.192469
O O7 0.934423 0.000000 0.209049
O O8 0.933267 0.186289 0.000000
O O9 0.613054 0.775360 0.500000
O O10 0.549599 0.764678 0.290353
O O11 0.599155 0.000000 0.337610
O O12 0.500000 0.860476 0.500000
O O13 0.500000 0.000000 0.260520
O O14 0.878829 0.695325 0.500000
O O15 0.863969 0.500000 0.700024
O O16 0.823325 0.748183 0.716203
O O17 0.234257 0.799107 0.500000
O O18 0.213745 0.000000 0.689072
#
# Coordination Sequence:
#
# PCOD8199263 Si02
#       6
#     8   8   8   4   8   8
#     4   9  16  24  35  54  78 103 137 183 228 266
#     4   9  19  36  56  77 101 130 164 198 230 269
#     4   8  12  19  31  46  67  98 136 175 215 262
#     4   7  10  16  27  43  63  93 134 173 208 255
#     4  10  21  35  51  74 102 128 156 194 239 284
#     4   9  17  30  47  64  84 115 153 188 225 272
#
# _framework density 17.681594
#
# number of rings (size 3 to 8) (size 9 to 14) (size 15 to 20)
#    0.000    3.182    0.000    2.727    0.000    5.091 
#    0.000    5.000    0.000    2.727    0.000    0.000 
#    0.000    0.000    0.000    0.818    0.000   19.636 
#
# Total GULP energy -545344.444728 kJ/mol
# GULP energy per Si atom -12394.191926 kJ/mol
# Density = 1.764135 g / cm^3
# Si number density = 17.681594 Si / 1000 Ang^3
#
#
#
# Elastic Constant Matrix: (Units=GPa)
#
#
# Indices 1 2 3 4 5 6 
#
# 1 156.2106 45.8427 74.4714 0.0000 0.0000 0.0000
# 2 45.8427 39.3703 29.0530 0.0000 0.0000 0.0000
# 3 74.4714 29.0530 85.8309 0.0000 0.0000 0.0000
# 4 0.0000 0.0000 0.0000 14.7075 0.0000 0.0000
# 5 0.0000 0.0000 0.0000 0.0000 12.8460 0.0000
# 6 0.0000 0.0000 0.0000 0.0000 0.0000 0.7913
#
#
#
# Elastic Compliance Matrix: (Units=1/GPa)
#
#
# Indices 1 2 3 4 5 6 
#
# 1 0.012957 -0.009052 -0.008178 0.000000 0.000000 0.000000
# 2 -0.009052 0.040181 -0.005747 0.000000 0.000000 0.000000
# 3 -0.008178 -0.005747 0.020692 0.000000 0.000000 0.000000
# 4 0.000000 0.000000 0.000000 0.067993 0.000000 0.000000
# 5 0.000000 0.000000 0.000000 0.000000 0.077846 0.000000
# 6 0.000000 0.000000 0.000000 0.000000 0.000000 1.263725
#
#
# Mechanical properties :
#
#
# Convention : Reuss Voigt Hill
#
# Bulk Modulus (GPa) = 35.87354 64.46066 50.16710
# Shear Modulus (GPa) = 3.24963 14.47193 8.86078
#
# Velocity S-wave (km/s) = 1.35715 2.86400 2.24102
# Velocity P-wave (km/s) = 4.77373 6.89001 5.92708
#
# Compressibility (1/GPa) = 0.02787570
#
# Stress axis : x y z
#
# Youngs Moduli (GPa) = 77.17919 24.88745 48.32849
#
# Poissons Ratio (x) = 0.22528 0.39523
# Poissons Ratio (y) = 0.69863 0.27773
# Poissons Ratio (z) = 0.63117 0.14302
#
# Static dielectric constant tensor:
#      x y z
#    x 3.598000 0.000000 0.000000 
#    y 0.000000 2.757040 0.000000 
#    z 0.000000 0.000000 3.214820 
# 
# 
# High freq. dielectric constant tensor:
#      x y z
#    x 1.704140 0.000000 0.000000 
#    y 0.000000 1.623620 0.000000 
#    z 0.000000 0.000000 1.670760 
# 
# From -- ./inp_files/2223.got.cif
#   From: 2010.03.12/outbox.cif.g09.slc.cpg/sg47_2_cif.got.tgz:2223.got - 2010.04.14 03:12:58.
