data_PCOD8199516
_publ_section_title
;
Structure prediction by ZEFSAII (Michael W. Deem and Ramdas Pophale) SiO2 
 PCOD8199516
Probable space group: P M M M
;
_chemical_formula_sum "Si O2"
_cell_formula_units_Z 40
_cell_length_a 9.955733
_cell_length_b 19.534939
_cell_length_c 11.301222
_cell_angle_alpha 90.000000
_cell_angle_beta 90.000000
_cell_angle_gamma 90.000000
_cell_volume 2197.914057
_symmetry_space_group_name_H-M "P M M M"
_symmetry_group_IT_number 47
_symmetry_cell_setting 'orthorhombic'
loop_
_space_group_symop_operation_xyz
x,y,z
-x,-y,z
x,-y,-z
-x,y,-z
-x,-y,-z
x,y,-z
-x,y,z
x,-y,z
loop_
_atom_site_type_symbol
_atom_site_label
_atom_site_fract_x
_atom_site_fract_y
_atom_site_fract_z
Si Si1 0.158266 0.075638 0.500000
Si Si2 0.158274 0.816784 0.306580
Si Si3 0.726075 0.421480 0.500000
Si Si4 0.150115 0.283571 0.500000
Si Si5 0.652425 0.245057 0.136269
Si Si6 0.153942 0.500000 0.860220
Si Si7 0.647415 0.607822 0.242642
O O1 0.200208 0.115920 0.619078
O O2 0.000000 0.068974 0.500000
O O3 0.225105 0.000000 0.500000
O O4 0.209338 0.750295 0.381353
O O5 0.246086 0.812828 0.186718
O O6 0.000000 0.815873 0.274636
O O7 0.779839 0.500000 0.500000
O O8 0.846692 0.366049 0.500000
O O9 0.639558 0.405536 0.616421
O O10 0.000000 0.255690 0.500000
O O11 0.500000 0.218381 0.149568
O O12 0.673884 0.314297 0.209681
O O13 0.688693 0.258878 0.000000
O O14 0.230200 0.566366 0.813317
O O15 0.000000 0.500000 0.813183
O O16 0.155993 0.500000 0.000000
O O17 0.500000 0.585212 0.193252
#
# Coordination Sequence:
#
# PCOD8199516 Si02
#       7
#     4   8   4   4   8   4   8
#     4   8  15  30  55  88 121 148 176 213 258 313
#     4   9  17  32  56  82 108 141 176 216 265 313
#     4  12  22  34  52  78 103 133 170 218 273 330
#     4   9  18  33  50  73 106 136 169 213 267 326
#     4  10  21  36  54  77 104 139 183 227 270 315
#     4  11  25  42  57  74  98 133 178 225 274 329
#     4  11  23  39  57  76 101 134 174 222 276 332
#
# _framework density 18.199072000000001
#
# number of rings (size 3 to 8) (size 9 to 14) (size 15 to 20)
#    0.000    2.000    3.000    2.400    0.000    4.200 
#    0.000    2.000    0.000    1.800    0.000    4.200 
#    0.000    0.000    0.000    0.000    0.000    0.000 
#
# Total GULP energy -495619.977757 kJ/mol
# GULP energy per Si atom -12390.499444 kJ/mol
# Density = 1.815765 g / cm^3
# Si number density = 18.199072 Si / 1000 Ang^3
#
#
#
# Elastic Constant Matrix: (Units=GPa)
#
#
# Indices 1 2 3 4 5 6 
#
# 1 102.8442 39.4486 48.2423 0.0000 0.0000 0.0000
# 2 39.4486 115.0138 47.4300 0.0000 0.0000 0.0000
# 3 48.2423 47.4300 104.6012 0.0000 0.0000 0.0000
# 4 0.0000 0.0000 0.0000 6.7469 0.0000 0.0000
# 5 0.0000 0.0000 0.0000 0.0000 27.6753 0.0000
# 6 0.0000 0.0000 0.0000 0.0000 0.0000 14.6493
#
#
#
# Elastic Compliance Matrix: (Units=1/GPa)
#
#
# Indices 1 2 3 4 5 6 
#
# 1 0.012938 -0.002432 -0.004864 0.000000 0.000000 0.000000
# 2 -0.002432 0.011151 -0.003935 0.000000 0.000000 0.000000
# 3 -0.004864 -0.003935 0.013588 0.000000 0.000000 0.000000
# 4 0.000000 0.000000 0.000000 0.148215 0.000000 0.000000
# 5 0.000000 0.000000 0.000000 0.000000 0.036133 0.000000
# 6 0.000000 0.000000 0.000000 0.000000 0.000000 0.068263
#
#
# Mechanical properties :
#
#
# Convention : Reuss Voigt Hill
#
# Bulk Modulus (GPa) = 65.72384 65.85568 65.78976
# Shear Modulus (GPa) = 15.73207 22.30353 19.01780
#
# Velocity S-wave (km/s) = 2.94333 3.50456 3.23613
# Velocity P-wave (km/s) = 6.90964 7.25539 7.08463
#
# Compressibility (1/GPa) = 0.01521518
#
# Stress axis : x y z
#
# Youngs Moduli (GPa) = 77.29186 89.67535 73.59493
#
# Poissons Ratio (x) = 0.21805 0.35800
# Poissons Ratio (y) = 0.18794 0.28959
# Poissons Ratio (z) = 0.37598 0.35287
#
# Static dielectric constant tensor:
#      x y z
#    x 3.231600 0.000000 0.000000 
#    y 0.000000 3.349110 0.000000 
#    z 0.000000 0.000000 3.434110 
# 
# 
# High freq. dielectric constant tensor:
#      x y z
#    x 1.692530 0.000000 0.000000 
#    y 0.000000 1.680620 0.000000 
#    z 0.000000 0.000000 1.708430 
# 
# From -- ./inp_files/4153.got.cif
#   From: 2010.03.12/outbox.cif.g09.slc.cpg/sg47_3_cif.got.tgz:4153.got - 2010.04.14 03:12:58.
