data_PCOD8199333
_publ_section_title
;
Structure prediction by ZEFSAII (Michael W. Deem and Ramdas Pophale) SiO2 
 PCOD8199333
Probable space group: P M M M
;
_chemical_formula_sum "Si O2"
_cell_formula_units_Z 64
_cell_length_a 20.532962
_cell_length_b 9.378035
_cell_length_c 17.936892
_cell_angle_alpha 90.000000
_cell_angle_beta 90.000000
_cell_angle_gamma 90.000000
_cell_volume 3453.907050
_symmetry_space_group_name_H-M "P M M M"
_symmetry_group_IT_number 47
_symmetry_cell_setting 'orthorhombic'
loop_
_space_group_symop_operation_xyz
x,y,z
-x,-y,z
x,-y,-z
-x,y,-z
-x,-y,-z
x,y,-z
-x,y,z
x,-y,z
loop_
_atom_site_type_symbol
_atom_site_label
_atom_site_fract_x
_atom_site_fract_y
_atom_site_fract_z
Si Si1 0.928886 0.331267 0.239698
Si Si2 0.102095 0.336466 0.919617
Si Si3 0.424876 0.343939 0.792852
Si Si4 0.753919 0.659406 0.870109
Si Si5 0.425937 0.835256 0.653119
Si Si6 0.793321 0.335108 0.702226
Si Si7 0.635597 0.837733 0.914852
Si Si8 0.707616 0.834629 0.416079
O O1 0.917554 0.500000 0.230913
O O2 0.928605 0.265435 0.155086
O O3 0.868616 0.275833 0.290463
O O4 0.000000 0.295850 0.275725
O O5 0.080131 0.500000 0.922439
O O6 0.179178 0.322939 0.912957
O O7 0.081120 0.266014 0.000000
O O8 0.500000 0.368202 0.782073
O O9 0.390148 0.500000 0.794510
O O10 0.399251 0.253537 0.723293
O O11 0.413805 0.258848 0.868601
O O12 0.726365 0.500000 0.883761
O O13 0.759289 0.686930 0.781754
O O14 0.707807 0.777825 0.905023
O O15 0.500000 0.791071 0.627008
O O16 0.370471 0.804790 0.591469
O O17 0.426978 0.000000 0.676556
O O18 0.793776 0.500000 0.678324
O O19 0.753764 0.250867 0.639815
O O20 0.633518 0.000000 0.886090
O O21 0.613262 0.828810 0.000000
O O22 0.726684 0.790691 0.500000
O O23 0.721465 0.000000 0.400973
#
# Coordination Sequence:
#
# PCOD8199333 Si02
#       8
#     8   8   8   8   8   8   8   8
#     4   8  14  25  42  66  96 129 166 208 250 291
#     4   8  13  21  36  62  95 128 160 195 239 289
#     4  10  21  36  53  71  91 119 157 198 239 288
#     4   9  17  30  48  68  92 124 161 199 239 288
#     4   9  18  34  56  79 103 131 160 192 233 283
#     4   9  18  32  51  75 100 129 166 205 246 293
#     4  11  23  34  45  65  92 122 160 207 253 292
#     4  10  21  35  52  77 106 133 161 194 235 286
#
# _framework density 18.529741000000001
#
# number of rings (size 3 to 8) (size 9 to 14) (size 15 to 20)
#    0.000    2.750    0.000    3.375    0.000    6.250 
#    0.000    3.750    0.000    0.750    0.000    5.250 
#    0.000    0.000    0.000   13.250    0.000   10.000 
#
# Total GULP energy -792861.357448 kJ/mol
# GULP energy per Si atom -12388.458710 kJ/mol
# Density = 1.848757 g / cm^3
# Si number density = 18.529741 Si / 1000 Ang^3
#
#
#
# Elastic Constant Matrix: (Units=GPa)
#
#
# Indices 1 2 3 4 5 6 
#
# 1 81.9554 20.7567 41.3691 0.0000 0.0000 0.0000
# 2 20.7567 68.4674 38.9032 0.0000 0.0000 0.0000
# 3 41.3691 38.9032 94.0006 0.0000 0.0000 0.0000
# 4 0.0000 0.0000 0.0000 22.1772 0.0000 0.0000
# 5 0.0000 0.0000 0.0000 0.0000 42.0520 0.0000
# 6 0.0000 0.0000 0.0000 0.0000 0.0000 10.5283
#
#
#
# Elastic Compliance Matrix: (Units=1/GPa)
#
#
# Indices 1 2 3 4 5 6 
#
# 1 0.015749 -0.001093 -0.006478 0.000000 0.000000 0.000000
# 2 -0.001093 0.019172 -0.007453 0.000000 0.000000 0.000000
# 3 -0.006478 -0.007453 0.016574 0.000000 0.000000 0.000000
# 4 0.000000 0.000000 0.000000 0.045091 0.000000 0.000000
# 5 0.000000 0.000000 0.000000 0.000000 0.023780 0.000000
# 6 0.000000 0.000000 0.000000 0.000000 0.000000 0.094982
#
#
# Mechanical properties :
#
#
# Convention : Reuss Voigt Hill
#
# Bulk Modulus (GPa) = 46.63212 49.60905 48.12058
# Shear Modulus (GPa) = 19.79832 24.51114 22.15473
#
# Velocity S-wave (km/s) = 3.27228 3.64098 3.46154
# Velocity P-wave (km/s) = 6.28473 6.67131 6.48090
#
# Compressibility (1/GPa) = 0.02144445
#
# Stress axis : x y z
#
# Youngs Moduli (GPa) = 63.49672 52.15948 60.33535
#
# Poissons Ratio (x) = 0.05703 0.39088
# Poissons Ratio (y) = 0.06943 0.44970
# Poissons Ratio (z) = 0.41136 0.38876
#
# Static dielectric constant tensor:
#      x y z
#    x 3.454120 0.000000 0.000000 
#    y 0.000000 3.383260 0.000000 
#    z 0.000000 0.000000 3.307960 
# 
# 
# High freq. dielectric constant tensor:
#      x y z
#    x 1.724030 0.000000 0.000000 
#    y 0.000000 1.684380 0.000000 
#    z 0.000000 0.000000 1.703240 
# 
# From -- ./inp_files/28821.got.cif
#   From: 2010.03.12/outbox.cif.g09.slc.cpg/sg47_15_cif.got.tgz:28821.got - 2010.04.14 03:12:58.
