data_PCOD8199769
_publ_section_title
;
Structure prediction by ZEFSAII (Michael W. Deem and Ramdas Pophale) SiO2 
 PCOD8199769
Probable space group: P M M M
;
_chemical_formula_sum "Si O2"
_cell_formula_units_Z 40
_cell_length_a 27.534960
_cell_length_b 9.366691
_cell_length_c 7.914624
_cell_angle_alpha 90.000000
_cell_angle_beta 90.000000
_cell_angle_gamma 90.000000
_cell_volume 2041.272247
_symmetry_space_group_name_H-M "P M M M"
_symmetry_group_IT_number 47
_symmetry_cell_setting 'orthorhombic'
loop_
_space_group_symop_operation_xyz
x,y,z
-x,-y,z
x,-y,-z
-x,y,-z
-x,-y,-z
x,y,-z
-x,y,z
x,-y,z
loop_
_atom_site_type_symbol
_atom_site_label
_atom_site_fract_x
_atom_site_fract_y
_atom_site_fract_z
Si Si1 0.121537 0.667554 0.305984
Si Si2 0.591663 0.659313 0.803145
Si Si3 0.500000 0.839721 0.698719
Si Si4 0.945958 0.668882 0.000000
Si Si5 0.783064 0.840869 0.300254
Si Si6 0.304752 0.341345 0.696039
O O1 0.105701 0.703682 0.500000
O O2 0.132525 0.500000 0.288423
O O3 0.169692 0.750811 0.251256
O O4 0.080495 0.718275 0.173179
O O5 0.580631 0.500000 0.731211
O O6 0.547681 0.762174 0.762924
O O7 0.641159 0.721592 0.722422
O O8 0.599932 0.651674 0.000000
O O9 0.500000 0.840252 0.500000
O O10 0.500000 0.000000 0.771676
O O11 0.949227 0.500000 0.000000
O O12 0.000000 0.736012 0.000000
O O13 0.778053 0.851752 0.500000
O O14 0.735620 0.762497 0.221680
O O15 0.786790 0.000000 0.222267
O O16 0.293056 0.353657 0.500000
O O17 0.301645 0.500000 0.778619
#
# Coordination Sequence:
#
# PCOD8199769 Si02
#       6
#     8   8   4   4   8   8
#     4   9  17  31  52  76 103 138 177 217 265 317
#     4  10  21  37  56  79 106 136 171 212 260 314
#     4  11  24  39  56  78 102 133 174 217 262 312
#     4   9  18  32  51  79 109 135 173 224 269 310
#     4   9  17  30  50  75 103 136 173 213 256 304
#     4   9  17  31  52  76 103 136 173 213 256 305
#
# _framework density 19.595621999999999
#
# number of rings (size 3 to 8) (size 9 to 14) (size 15 to 20)
#    0.000    2.600    0.000    1.800    0.000    6.800 
#    1.800    4.500    0.000    1.200    0.000    2.800 
#    0.000    0.000    0.000    0.000    0.000    0.000 
#
# Total GULP energy -495854.148596 kJ/mol
# GULP energy per Si atom -12396.353715 kJ/mol
# Density = 1.955102 g / cm^3
# Si number density = 19.595622 Si / 1000 Ang^3
#
#
#
# Elastic Constant Matrix: (Units=GPa)
#
#
# Indices 1 2 3 4 5 6 
#
# 1 179.2233 79.4849 42.4726 0.0000 0.0000 0.0000
# 2 79.4849 99.7284 27.5717 0.0000 0.0000 0.0000
# 3 42.4726 27.5717 61.0919 0.0000 0.0000 0.0000
# 4 0.0000 0.0000 0.0000 12.5282 0.0000 0.0000
# 5 0.0000 0.0000 0.0000 0.0000 1.1382 0.0000
# 6 0.0000 0.0000 0.0000 0.0000 0.0000 1.3649
#
#
#
# Elastic Compliance Matrix: (Units=1/GPa)
#
#
# Indices 1 2 3 4 5 6 
#
# 1 0.009258 -0.006398 -0.003549 0.000000 0.000000 0.000000
# 2 -0.006398 0.015878 -0.002718 0.000000 0.000000 0.000000
# 3 -0.003549 -0.002718 0.020063 0.000000 0.000000 0.000000
# 4 0.000000 0.000000 0.000000 0.079820 0.000000 0.000000
# 5 0.000000 0.000000 0.000000 0.000000 0.878606 0.000000
# 6 0.000000 0.000000 0.000000 0.000000 0.000000 0.732670
#
#
# Mechanical properties :
#
#
# Convention : Reuss Voigt Hill
#
# Bulk Modulus (GPa) = 50.32935 71.01133 60.67034
# Shear Modulus (GPa) = 2.82766 15.70722 9.26744
#
# Velocity S-wave (km/s) = 1.20256 2.83427 2.17706
# Velocity P-wave (km/s) = 5.26003 6.85768 6.11129
#
# Compressibility (1/GPa) = 0.01986912
#
# Stress axis : x y z
#
# Youngs Moduli (GPa) = 108.01489 62.98177 49.84324
#
# Poissons Ratio (x) = 0.40293 0.17690
# Poissons Ratio (y) = 0.69103 0.13548
# Poissons Ratio (z) = 0.38335 0.17119
#
# Static dielectric constant tensor:
#      x y z
#    x 3.659910 0.000000 0.000000 
#    y 0.000000 3.782360 0.000000 
#    z 0.000000 0.000000 3.443070 
# 
# 
# High freq. dielectric constant tensor:
#      x y z
#    x 1.766500 0.000000 0.000000 
#    y 0.000000 1.746330 0.000000 
#    z 0.000000 0.000000 1.750990 
# 
# From -- ./inp_files/1831.got.cif
#   From: 2010.03.12/outbox.cif.g09.slc.cpg/sg47_1_cif.got.tgz:1831.got - 2010.04.14 03:12:58.
