data_PCOD8199576
_publ_section_title
;
Structure prediction by ZEFSAII (Michael W. Deem and Ramdas Pophale) SiO2 
 PCOD8199576
Probable space group: P M M M
;
_chemical_formula_sum "Si O2"
_cell_formula_units_Z 48
_cell_length_a 16.802379
_cell_length_b 8.939369
_cell_length_c 16.943146
_cell_angle_alpha 90.000000
_cell_angle_beta 90.000000
_cell_angle_gamma 90.000000
_cell_volume 2544.905699
_symmetry_space_group_name_H-M "P M M M"
_symmetry_group_IT_number 47
_symmetry_cell_setting 'orthorhombic'
loop_
_space_group_symop_operation_xyz
x,y,z
-x,-y,z
x,-y,-z
-x,y,-z
-x,-y,-z
x,y,-z
-x,y,z
x,-y,z
loop_
_atom_site_type_symbol
_atom_site_label
_atom_site_fract_x
_atom_site_fract_y
_atom_site_fract_z
Si Si1 0.621601 0.672111 0.910590
Si Si2 0.800362 0.176851 0.500000
Si Si3 0.806750 0.668215 0.090583
Si Si4 0.909708 0.830580 0.787862
Si Si5 0.500000 0.325220 0.628616
Si Si6 0.629050 0.674977 0.500000
Si Si7 0.500000 0.176184 0.798857
Si Si8 0.091118 0.674533 0.627265
O O1 0.596866 0.500000 0.898708
O O2 0.714138 0.695031 0.895116
O O3 0.577484 0.771732 0.846320
O O4 0.599428 0.721786 0.000000
O O5 0.710175 0.233280 0.500000
O O6 0.846989 0.233214 0.576215
O O7 0.799064 0.000000 0.500000
O O8 0.830171 0.500000 0.116563
O O9 0.854086 0.790436 0.139457
O O10 0.829019 0.693092 0.000000
O O11 0.891731 0.717156 0.717146
O O12 0.000000 0.812993 0.816799
O O13 0.892325 0.000000 0.760187
O O14 0.500000 0.500000 0.648089
O O15 0.421642 0.283163 0.577965
O O16 0.500000 0.237141 0.710179
O O17 0.649453 0.500000 0.500000
O O18 0.500000 0.000000 0.793228
O O19 0.107099 0.500000 0.614495
O O20 0.000000 0.715358 0.603993
#
# Coordination Sequence:
#
# PCOD8199576 Si02
#       8
#     8   4   8   8   4   4   4   8
#     4   9  19  37  58  78 105 143 184 226 271 317
#     4  12  24  36  57  88 118 147 176 213 270 333
#     4   9  19  36  57  80 106 142 189 234 274 320
#     4  10  21  36  54  79 112 147 182 225 280 333
#     4   9  20  41  65  83 104 140 183 226 269 312
#     4   9  20  41  65  85 106 138 183 228 267 312
#     4  12  24  34  53  86 116 143 176 215 266 329
#     4  10  21  38  59  81 108 145 188 231 271 314
#
# _framework density 18.861211000000001
#
# number of rings (size 3 to 8) (size 9 to 14) (size 15 to 20)
#    0.000    2.167    0.000    4.500    0.000    7.667 
#    0.000    5.833    0.000    0.000    0.000    0.000 
#    0.000    0.000    0.000    0.000    0.000    0.000 
#
# Total GULP energy -595260.395122 kJ/mol
# GULP energy per Si atom -12401.258232 kJ/mol
# Density = 1.881828 g / cm^3
# Si number density = 18.861211 Si / 1000 Ang^3
#
#
#
# Elastic Constant Matrix: (Units=GPa)
#
#
# Indices 1 2 3 4 5 6 
#
# 1 114.3979 68.0594 69.7897 0.0000 0.0000 0.0000
# 2 68.0594 112.5899 68.7916 0.0000 0.0000 0.0000
# 3 69.7897 68.7916 126.6326 0.0000 0.0000 0.0000
# 4 0.0000 0.0000 0.0000 16.2289 0.0000 0.0000
# 5 0.0000 0.0000 0.0000 0.0000 35.0364 0.0000
# 6 0.0000 0.0000 0.0000 0.0000 0.0000 27.1219
#
#
#
# Elastic Compliance Matrix: (Units=1/GPa)
#
#
# Indices 1 2 3 4 5 6 
#
# 1 0.015661 -0.006277 -0.005221 0.000000 0.000000 0.000000
# 2 -0.006277 0.015810 -0.005129 0.000000 0.000000 0.000000
# 3 -0.005221 -0.005129 0.013561 0.000000 0.000000 0.000000
# 4 0.000000 0.000000 0.000000 0.061619 0.000000 0.000000
# 5 0.000000 0.000000 0.000000 0.000000 0.028542 0.000000
# 6 0.000000 0.000000 0.000000 0.000000 0.000000 0.036871
#
#
# Mechanical properties :
#
#
# Convention : Reuss Voigt Hill
#
# Bulk Modulus (GPa) = 84.91074 85.21132 85.06103
# Shear Modulus (GPa) = 23.89563 25.47609 24.68586
#
# Velocity S-wave (km/s) = 3.56324 3.67919 3.62168
# Velocity P-wave (km/s) = 7.87689 7.95769 7.91739
#
# Compressibility (1/GPa) = 0.01177707
#
# Stress axis : x y z
#
# Youngs Moduli (GPa) = 63.85297 63.25107 73.74146
#
# Poissons Ratio (x) = 0.39701 0.38503
# Poissons Ratio (y) = 0.40079 0.37825
# Poissons Ratio (z) = 0.33340 0.32444
#
# Static dielectric constant tensor:
#      x y z
#    x 3.482580 0.000000 0.000000 
#    y 0.000000 3.403880 0.000000 
#    z 0.000000 0.000000 3.425160 
# 
# 
# High freq. dielectric constant tensor:
#      x y z
#    x 1.736920 0.000000 0.000000 
#    y 0.000000 1.731130 0.000000 
#    z 0.000000 0.000000 1.736300 
# 
# From -- ./inp_files/28091.got.cif
#   From: 2010.03.12/outbox.cif.g09.slc.cpg/sg47_15_cif.got.tgz:28091.got - 2010.04.14 03:12:58.
