data_PCOD8199888
_publ_section_title
;
Structure prediction by ZEFSAII (Michael W. Deem and Ramdas Pophale) SiO2 
 PCOD8199888
Probable space group: P M M M
;
_chemical_formula_sum "Si O2"
_cell_formula_units_Z 64
_cell_length_a 26.161417
_cell_length_b 9.063879
_cell_length_c 14.564271
_cell_angle_alpha 90.000000
_cell_angle_beta 90.000000
_cell_angle_gamma 90.000000
_cell_volume 3453.537005
_symmetry_space_group_name_H-M "P M M M"
_symmetry_group_IT_number 47
_symmetry_cell_setting 'orthorhombic'
loop_
_space_group_symop_operation_xyz
x,y,z
-x,-y,z
x,-y,-z
-x,y,-z
-x,-y,-z
x,y,-z
-x,y,z
x,-y,z
loop_
_atom_site_type_symbol
_atom_site_label
_atom_site_fract_x
_atom_site_fract_y
_atom_site_fract_z
Si Si1 0.639042 0.169405 0.391445
Si Si2 0.056341 0.175431 0.396269
Si Si3 0.247346 0.824388 0.397346
Si Si4 0.848868 0.173037 0.285900
Si Si5 0.196769 0.171467 0.102573
Si Si6 0.297851 0.335391 0.108751
Si Si7 0.557360 0.330237 0.268471
Si Si8 0.601097 0.825750 0.894715
O O1 0.631982 0.186322 0.500000
O O2 0.696136 0.225715 0.363215
O O3 0.596782 0.267250 0.342079
O O4 0.631157 0.000000 0.361232
O O5 0.069050 0.225329 0.500000
O O6 0.099643 0.243628 0.329002
O O7 0.000000 0.234703 0.367319
O O8 0.056063 0.000000 0.390319
O O9 0.237032 0.764553 0.500000
O O10 0.202474 0.760284 0.332327
O O11 0.247046 0.000000 0.398519
O O12 0.848243 0.204010 0.176033
O O13 0.849506 0.000000 0.306575
O O14 0.245586 0.259129 0.139833
O O15 0.211841 0.000000 0.102625
O O16 0.179349 0.220946 0.000000
O O17 0.301282 0.500000 0.150582
O O18 0.345058 0.237122 0.142860
O O19 0.298890 0.341812 0.000000
O O20 0.500000 0.312362 0.307868
O O21 0.570821 0.500000 0.249818
O O22 0.558646 0.244175 0.171178
O O23 0.601922 0.000000 0.884461
O O24 0.590015 0.779212 0.000000
#
# Coordination Sequence:
#
# PCOD8199888 Si02
#       8
#     8   8   8   8   8   8   8   8
#     4   9  19  36  57  79 102 129 165 212 260 307
#     4   8  13  21  34  55  86 124 165 208 252 297
#     4   8  14  25  42  66  92 115 146 193 247 299
#     4   9  15  22  37  60  88 126 164 200 245 293
#     4   9  17  27  39  61  94 129 166 203 238 283
#     4   9  17  30  48  70  97 128 161 198 243 294
#     4  11  25  41  56  77 104 135 171 210 255 309
#     4  10  21  37  58  81 104 132 167 208 253 303
#
# _framework density 18.531725000000002
#
# number of rings (size 3 to 8) (size 9 to 14) (size 15 to 20)
#    0.000    2.875    0.000    2.625    1.750    5.500 
#    0.000    2.500    0.000    0.375    0.000    2.625 
#    0.000    2.000    0.000    4.500    0.000    5.625 
#
# Total GULP energy -793209.979326 kJ/mol
# GULP energy per Si atom -12393.905927 kJ/mol
# Density = 1.848955 g / cm^3
# Si number density = 18.531725 Si / 1000 Ang^3
#
#
#
# Elastic Constant Matrix: (Units=GPa)
#
#
# Indices 1 2 3 4 5 6 
#
# 1 137.7847 31.4349 68.5759 0.0000 0.0000 0.0000
# 2 31.4349 53.0520 21.6821 0.0000 0.0000 0.0000
# 3 68.5759 21.6821 85.2274 0.0000 0.0000 0.0000
# 4 0.0000 0.0000 0.0000 14.5343 0.0000 0.0000
# 5 0.0000 0.0000 0.0000 0.0000 30.9850 0.0000
# 6 0.0000 0.0000 0.0000 0.0000 0.0000 4.1757
#
#
#
# Elastic Compliance Matrix: (Units=1/GPa)
#
#
# Indices 1 2 3 4 5 6 
#
# 1 0.012740 -0.003749 -0.009297 0.000000 0.000000 0.000000
# 2 -0.003749 0.022140 -0.002616 0.000000 0.000000 0.000000
# 3 -0.009297 -0.002616 0.019880 0.000000 0.000000 0.000000
# 4 0.000000 0.000000 0.000000 0.068803 0.000000 0.000000
# 5 0.000000 0.000000 0.000000 0.000000 0.032274 0.000000
# 6 0.000000 0.000000 0.000000 0.000000 0.000000 0.239482
#
#
# Mechanical properties :
#
#
# Convention : Reuss Voigt Hill
#
# Bulk Modulus (GPa) = 42.67068 57.71664 50.19366
# Shear Modulus (GPa) = 11.50865 20.23040 15.86952
#
# Velocity S-wave (km/s) = 2.49474 3.30762 2.92951
# Velocity P-wave (km/s) = 5.60125 6.76753 6.21182
#
# Compressibility (1/GPa) = 0.02343529
#
# Stress axis : x y z
#
# Youngs Moduli (GPa) = 78.49024 45.16707 50.30262
#
# Poissons Ratio (x) = 0.16934 0.46768
# Poissons Ratio (y) = 0.29428 0.13158
# Poissons Ratio (z) = 0.72976 0.11814
#
# Static dielectric constant tensor:
#      x y z
#    x 3.587150 0.000000 0.000000 
#    y 0.000000 3.083000 0.000000 
#    z 0.000000 0.000000 3.443760 
# 
# 
# High freq. dielectric constant tensor:
#      x y z
#    x 1.708460 0.000000 0.000000 
#    y 0.000000 1.676140 0.000000 
#    z 0.000000 0.000000 1.718990 
# 
# From -- ./inp_files/25582.got.cif
#   From: 2010.03.12/outbox.cif.g09.slc.cpg/sg47_13_cif.got.tgz:25582.got - 2010.04.14 03:12:58.
