data_PCOD8199381
_publ_section_title
;
Structure prediction by ZEFSAII (Michael W. Deem and Ramdas Pophale) SiO2 
 PCOD8199381
Probable space group: P M M M
;
_chemical_formula_sum "Si O2"
_cell_formula_units_Z 48
_cell_length_a 12.913881
_cell_length_b 19.677465
_cell_length_c 9.704250
_cell_angle_alpha 90.000000
_cell_angle_beta 90.000000
_cell_angle_gamma 90.000000
_cell_volume 2465.970659
_symmetry_space_group_name_H-M "P M M M"
_symmetry_group_IT_number 47
_symmetry_cell_setting 'orthorhombic'
loop_
_space_group_symop_operation_xyz
x,y,z
-x,-y,z
x,-y,-z
-x,y,-z
-x,-y,-z
x,y,-z
-x,y,z
x,-y,z
loop_
_atom_site_type_symbol
_atom_site_label
_atom_site_fract_x
_atom_site_fract_y
_atom_site_fract_z
Si Si1 0.677169 0.880424 0.151287
Si Si2 0.500000 0.630394 0.164592
Si Si3 0.500000 0.219530 0.838759
Si Si4 0.619669 0.000000 0.337286
Si Si5 0.119768 0.922952 0.500000
Si Si6 0.883071 0.165766 0.235496
Si Si7 0.281801 0.575486 0.836110
Si Si8 0.884001 0.684643 0.839860
O O1 0.603674 0.819968 0.205870
O O2 0.795146 0.855941 0.127378
O O3 0.674467 0.936000 0.269755
O O4 0.638821 0.906559 0.000000
O O5 0.500000 0.706150 0.229234
O O6 0.603338 0.593221 0.219177
O O7 0.500000 0.630787 0.000000
O O8 0.500000 0.230796 0.000000
O O9 0.500000 0.000000 0.296332
O O10 0.636415 0.000000 0.500000
O O11 0.148764 0.875671 0.371522
O O12 0.000000 0.938158 0.500000
O O13 0.173042 0.000000 0.500000
O O14 0.875193 0.247303 0.252971
O O15 0.000000 0.146700 0.185481
O O16 0.252661 0.500000 0.783072
O O17 0.196911 0.629291 0.781228
O O18 0.280668 0.577497 0.000000
O O19 0.000000 0.654364 0.826176
O O20 0.860948 0.703161 0.000000
#
# Coordination Sequence:
#
# PCOD8199381 Si02
#       8
#     8   4   4   4   4   8   8   8
#     4  11  22  36  57  81 107 140 180 229 277 329
#     4   9  15  24  40  62  95 134 169 206 254 313
#     4   9  18  32  50  74 102 136 177 220 270 324
#     4  11  25  43  60  79 108 146 182 225 277 332
#     4   9  20  38  56  75 102 140 179 221 275 335
#     4  10  21  35  55  80 108 143 181 223 275 330
#     4   9  16  25  40  66 100 135 171 211 259 316
#     4   9  17  30  47  68  99 137 175 215 259 314
#
# _framework density 19.464950999999999
#
# number of rings (size 3 to 8) (size 9 to 14) (size 15 to 20)
#    0.000    2.333    0.833    2.000    2.333    5.333 
#    0.000    1.667    0.000    1.000    0.000    0.583 
#    0.000    3.333    0.000    3.583    0.000    1.583 
#
# Total GULP energy -594755.287499 kJ/mol
# GULP energy per Si atom -12390.735156 kJ/mol
# Density = 1.942065 g / cm^3
# Si number density = 19.464951 Si / 1000 Ang^3
#
#
#
# Elastic Constant Matrix: (Units=GPa)
#
#
# Indices 1 2 3 4 5 6 
#
# 1 147.0959 63.4700 19.7971 0.0000 0.0000 0.0000
# 2 63.4700 156.3864 37.1025 0.0000 0.0000 0.0000
# 3 19.7971 37.1025 42.9982 0.0000 0.0000 0.0000
# 4 0.0000 0.0000 0.0000 8.4508 0.0000 0.0000
# 5 0.0000 0.0000 0.0000 0.0000 2.5952 0.0000
# 6 0.0000 0.0000 0.0000 0.0000 0.0000 33.9934
#
#
#
# Elastic Compliance Matrix: (Units=1/GPa)
#
#
# Indices 1 2 3 4 5 6 
#
# 1 0.008286 -0.003091 -0.001148 0.000000 0.000000 0.000000
# 2 -0.003091 0.009193 -0.006510 0.000000 0.000000 0.000000
# 3 -0.001148 -0.006510 0.029403 0.000000 0.000000 0.000000
# 4 0.000000 0.000000 0.000000 0.118333 0.000000 0.000000
# 5 0.000000 0.000000 0.000000 0.000000 0.385327 0.000000
# 6 0.000000 0.000000 0.000000 0.000000 0.000000 0.029417
#
#
# Mechanical properties :
#
#
# Convention : Reuss Voigt Hill
#
# Bulk Modulus (GPa) = 39.39351 65.24664 52.32007
# Shear Modulus (GPa) = 8.19782 24.08193 16.13987
#
# Velocity S-wave (km/s) = 2.05444 3.52119 2.88267
# Velocity P-wave (km/s) = 5.09016 7.07987 6.16581
#
# Compressibility (1/GPa) = 0.02538489
#
# Stress axis : x y z
#
# Youngs Moduli (GPa) = 120.67959 108.77638 34.01059
#
# Poissons Ratio (x) = 0.33619 0.03906
# Poissons Ratio (y) = 0.37298 0.22140
# Poissons Ratio (z) = 0.13858 0.70810
#
# Static dielectric constant tensor:
#      x y z
#    x 3.841320 0.000000 0.000000 
#    y 0.000000 3.752930 0.000000 
#    z 0.000000 0.000000 3.009830 
# 
# 
# High freq. dielectric constant tensor:
#      x y z
#    x 1.780470 0.000000 0.000000 
#    y 0.000000 1.759970 0.000000 
#    z 0.000000 0.000000 1.692210 
# 
# From -- ./inp_files/6600.got.cif
#   From: 2010.03.12/outbox.cif.g09.slc.cpg/sg47_4_cif.got.tgz:6600.got - 2010.04.14 03:12:58.
