data_PCOD8199818
_publ_section_title
;
Structure prediction by ZEFSAII (Michael W. Deem and Ramdas Pophale) SiO2 
 PCOD8199818
Probable space group: P M M M
;
_chemical_formula_sum "Si O2"
_cell_formula_units_Z 48
_cell_length_a 9.155902
_cell_length_b 9.328660
_cell_length_c 31.121924
_cell_angle_alpha 90.000000
_cell_angle_beta 90.000000
_cell_angle_gamma 90.000000
_cell_volume 2658.195008
_symmetry_space_group_name_H-M "P M M M"
_symmetry_group_IT_number 47
_symmetry_cell_setting 'orthorhombic'
loop_
_space_group_symop_operation_xyz
x,y,z
-x,-y,z
x,-y,-z
-x,y,-z
-x,-y,-z
x,y,-z
-x,y,z
x,-y,z
loop_
_atom_site_type_symbol
_atom_site_label
_atom_site_fract_x
_atom_site_fract_y
_atom_site_fract_z
Si Si1 0.326838 0.666901 0.500000
Si Si2 0.329958 0.333997 0.745386
Si Si3 0.325415 0.660860 0.000000
Si Si4 0.829849 0.663570 0.660519
Si Si5 0.673803 0.161315 0.079885
Si Si6 0.829151 0.832502 0.424353
Si Si7 0.326455 0.838659 0.825708
O O1 0.279790 0.500000 0.500000
O O2 0.500000 0.682970 0.500000
O O3 0.263596 0.745011 0.541483
O O4 0.500000 0.299747 0.740329
O O5 0.297803 0.500000 0.751856
O O6 0.252359 0.277281 0.702456
O O7 0.261611 0.257477 0.787354
O O8 0.262149 0.737576 0.957390
O O9 0.265687 0.500000 0.000000
O O10 0.500000 0.665051 0.000000
O O11 0.782128 0.500000 0.649427
O O12 0.786927 0.768320 0.621800
O O13 0.000000 0.670445 0.670455
O O14 0.500000 0.162664 0.078158
O O15 0.726325 0.215644 0.127117
O O16 0.730365 0.000000 0.071854
O O17 0.000000 0.810363 0.434362
O O18 0.787233 0.000000 0.425807
O O19 0.500000 0.831557 0.824364
O O20 0.271422 0.000000 0.818365
#
# Coordination Sequence:
#
# PCOD8199818 Si02
#       7
#     4   8   4   8   8   8   8
#     4  11  24  39  56  80 108 137 168 201 238 282
#     4   9  17  28  43  64  88 114 147 188 229 267
#     4   9  15  19  25  41  63  89 126 171 214 253
#     4   9  18  33  51  70  95 128 161 191 229 279
#     4   8  13  21  31  42  61  93 131 168 207 256
#     4  10  21  37  57  80 104 131 165 203 242 285
#     4   8  14  24  37  53  74 103 139 176 217 268
#
# _framework density 18.057364
#
# number of rings (size 3 to 8) (size 9 to 14) (size 15 to 20)
#    0.000    3.000    0.000    2.250    0.000    5.667 
#    0.000    5.000    0.000    0.000    0.000    0.000 
#    0.000    0.000    0.000    0.750    0.000   16.000 
#
# Total GULP energy -594995.212402 kJ/mol
# GULP energy per Si atom -12395.733592 kJ/mol
# Density = 1.801626 g / cm^3
# Si number density = 18.057364 Si / 1000 Ang^3
#
#
#
# Elastic Constant Matrix: (Units=GPa)
#
#
# Indices 1 2 3 4 5 6 
#
# 1 24.8585 32.5106 44.2327 0.0000 0.0000 0.0000
# 2 32.5106 120.8434 102.2572 0.0000 0.0000 0.0000
# 3 44.2327 102.2572 195.5475 0.0000 0.0000 0.0000
# 4 0.0000 0.0000 0.0000 41.2073 0.0000 0.0000
# 5 0.0000 0.0000 0.0000 0.0000 -5.0358 0.0000
# 6 0.0000 0.0000 0.0000 0.0000 0.0000 14.3618
#
#
#
# Elastic Compliance Matrix: (Units=1/GPa)
#
#
# Indices 1 2 3 4 5 6 
#
# 1 0.073816 -0.010278 -0.011323 0.000000 0.000000 0.000000
# 2 -0.010278 0.016274 -0.006185 0.000000 0.000000 0.000000
# 3 -0.011323 -0.006185 0.010910 0.000000 0.000000 0.000000
# 4 0.000000 0.000000 0.000000 0.024268 0.000000 0.000000
# 5 0.000000 0.000000 0.000000 0.000000 -0.198576 0.000000
# 6 0.000000 0.000000 0.000000 0.000000 0.000000 0.069629
#
#
# Mechanical properties :
#
#
# Convention : Reuss Voigt Hill
#
# Bulk Modulus (GPa) = 22.01258 77.69448 49.85353
# Shear Modulus (GPa) = 74.58758 20.92325 47.75541
#
# Velocity S-wave (km/s) = 6.43394 3.40768 5.14820
# Velocity P-wave (km/s) = 8.21042 7.65525 7.93769
#
# Compressibility (1/GPa) = 0.04542856
#
# Stress axis : x y z
#
# Youngs Moduli (GPa) = 13.54713 61.44652 91.66229
#
# Poissons Ratio (x) = 0.63152 1.03787
# Poissons Ratio (y) = 0.13923 0.56698
# Poissons Ratio (z) = 0.15339 0.38008
#
# Static dielectric constant tensor:
#      x y z
#    x 2.838990 0.000000 0.000000 
#    y 0.000000 3.453460 0.000000 
#    z 0.000000 0.000000 3.771200 
# 
# 
# High freq. dielectric constant tensor:
#      x y z
#    x 1.642170 0.000000 0.000000 
#    y 0.000000 1.698770 0.000000 
#    z 0.000000 0.000000 1.719100 
# 
# From -- ./inp_files/34121.got.cif
#   From: 2010.03.12/outbox.cif.g09.slc.cpg/sg47_18_cif.got.tgz:34121.got - 2010.04.14 03:12:58.
