data_PCOD8199353
_publ_section_title
;
Structure prediction by ZEFSAII (Michael W. Deem and Ramdas Pophale) SiO2 
 PCOD8199353
Probable space group: P M M M
;
_chemical_formula_sum "Si O2"
_cell_formula_units_Z 56
_cell_length_a 7.755808
_cell_length_b 22.419605
_cell_length_c 15.365091
_cell_angle_alpha 90.000000
_cell_angle_beta 90.000000
_cell_angle_gamma 90.000000
_cell_volume 2671.715086
_symmetry_space_group_name_H-M "P M M M"
_symmetry_group_IT_number 47
_symmetry_cell_setting 'orthorhombic'
loop_
_space_group_symop_operation_xyz
x,y,z
-x,-y,z
x,-y,-z
-x,y,-z
-x,-y,-z
x,y,-z
-x,y,z
x,-y,z
loop_
_atom_site_type_symbol
_atom_site_label
_atom_site_fract_x
_atom_site_fract_y
_atom_site_fract_z
Si Si1 0.204420 0.065695 0.657626
Si Si2 0.000000 0.429213 0.897068
Si Si3 0.194356 0.750479 0.237334
Si Si4 0.696953 0.189014 0.595802
Si Si5 0.698045 0.378925 0.776734
Si Si6 0.702544 0.933876 0.000000
Si Si7 0.295774 0.567466 0.595513
Si Si8 0.800634 0.872037 0.173710
O O1 0.266927 0.117751 0.593784
O O2 0.275409 0.082954 0.754114
O O3 0.000000 0.062043 0.655553
O O4 0.279510 0.000000 0.632706
O O5 0.825965 0.404580 0.850697
O O6 0.000000 0.500000 0.887461
O O7 0.000000 0.410895 0.000000
O O8 0.189103 0.773252 0.337262
O O9 0.309176 0.692635 0.220217
O O10 0.276978 0.805097 0.181147
O O11 0.000000 0.734059 0.209190
O O12 0.739388 0.213527 0.500000
O O13 0.500000 0.200591 0.620793
O O14 0.500000 0.401969 0.792197
O O15 0.770083 0.396150 0.680027
O O16 0.770578 0.897883 0.080447
O O17 0.500000 0.937359 0.000000
O O18 0.783240 0.000000 0.000000
O O19 0.230416 0.591917 0.500000
O O20 0.500000 0.569531 0.595129
O O21 0.229318 0.500000 0.606701
O O22 0.000000 0.863887 0.194831
#
# Coordination Sequence:
#
# PCOD8199353 Si02
#       8
#     8   4   8   8   8   4   8   8
#     4   9  18  33  53  75 101 139 190 246 304 366
#     4  11  26  48  71  99 135 171 216 275 319 367
#     4  10  21  40  61  84 117 153 200 253 303 363
#     4  10  21  35  52  78 113 154 199 247 301 362
#     4  11  22  40  68  99 131 173 219 264 320 385
#     4  11  23  35  51  81 115 141 177 232 293 366
#     4   8  15  30  55  90 130 167 204 250 305 370
#     4   9  19  36  56  76 102 142 186 236 294 356
#
# _framework density 20.960318000000001
#
# number of rings (size 3 to 8) (size 9 to 14) (size 15 to 20)
#    0.000    2.286    0.714    3.214    0.000    7.429 
#    1.286    3.929    0.000    1.286    0.000    0.000 
#    0.000    0.000    0.000    0.000    0.000    0.000 
#
# Total GULP energy -693903.562284 kJ/mol
# GULP energy per Si atom -12391.135041 kJ/mol
# Density = 2.091261 g / cm^3
# Si number density = 20.960318 Si / 1000 Ang^3
#
#
#
# Elastic Constant Matrix: (Units=GPa)
#
#
# Indices 1 2 3 4 5 6 
#
# 1 54.1218 17.4481 29.8217 0.0000 0.0000 0.0000
# 2 17.4481 116.9029 48.7004 0.0000 0.0000 0.0000
# 3 29.8217 48.7004 132.8923 0.0000 0.0000 0.0000
# 4 0.0000 0.0000 0.0000 -17.5537 0.0000 0.0000
# 5 0.0000 0.0000 0.0000 0.0000 24.2513 0.0000
# 6 0.0000 0.0000 0.0000 0.0000 0.0000 17.8665
#
#
#
# Elastic Compliance Matrix: (Units=1/GPa)
#
#
# Indices 1 2 3 4 5 6 
#
# 1 0.021276 -0.001400 -0.004261 0.000000 0.000000 0.000000
# 2 -0.001400 0.010187 -0.003419 0.000000 0.000000 0.000000
# 3 -0.004261 -0.003419 0.009734 0.000000 0.000000 0.000000
# 4 0.000000 0.000000 0.000000 -0.056968 0.000000 0.000000
# 5 0.000000 0.000000 0.000000 0.000000 0.041235 0.000000
# 6 0.000000 0.000000 0.000000 0.000000 0.000000 0.055971
#
#
# Mechanical properties :
#
#
# Convention : Reuss Voigt Hill
#
# Bulk Modulus (GPa) = 43.40963 55.09528 49.25246
# Shear Modulus (GPa) = 46.60883 18.77595 32.69239
#
# Velocity S-wave (km/s) = 4.72070 2.99621 3.95362
# Velocity P-wave (km/s) = 7.10413 6.18969 6.66262
#
# Compressibility (1/GPa) = 0.02303636
#
# Stress axis : x y z
#
# Youngs Moduli (GPa) = 47.00059 98.15978 102.73116
#
# Poissons Ratio (x) = 0.13746 0.43777
# Poissons Ratio (y) = 0.06582 0.35125
# Poissons Ratio (z) = 0.20029 0.33562
#
# Static dielectric constant tensor:
#      x y z
#    x 3.610000 0.000000 0.000000 
#    y 0.000000 4.070790 0.000000 
#    z 0.000000 0.000000 3.621970 
# 
# 
# High freq. dielectric constant tensor:
#      x y z
#    x 1.806270 0.000000 0.000000 
#    y 0.000000 1.820830 0.000000 
#    z 0.000000 0.000000 1.811840 
# 
# From -- ./inp_files/21609.got.cif
#   From: 2010.03.12/outbox.cif.g09.slc.cpg/sg47_11_cif.got.tgz:21609.got - 2010.04.14 03:12:58.
