data_PCOD8199050
_publ_section_title
;
Structure prediction by ZEFSAII (Michael W. Deem and Ramdas Pophale) SiO2 
 PCOD8199050
Probable space group: P M M M
;
_chemical_formula_sum "Si O2"
_cell_formula_units_Z 64
_cell_length_a 13.844657
_cell_length_b 9.512543
_cell_length_c 28.651227
_cell_angle_alpha 90.000000
_cell_angle_beta 90.000000
_cell_angle_gamma 90.000000
_cell_volume 3773.306286
_symmetry_space_group_name_H-M "P M M M"
_symmetry_group_IT_number 47
_symmetry_cell_setting 'orthorhombic'
loop_
_space_group_symop_operation_xyz
x,y,z
-x,-y,z
x,-y,-z
-x,y,-z
-x,-y,-z
x,y,-z
-x,y,z
x,-y,z
loop_
_atom_site_type_symbol
_atom_site_label
_atom_site_fract_x
_atom_site_fract_y
_atom_site_fract_z
Si Si1 0.190348 0.836688 0.555138
Si Si2 0.295608 0.336057 0.946993
Si Si3 0.891871 0.661485 0.892867
Si Si4 0.111211 0.655073 0.632400
Si Si5 0.601123 0.833617 0.447979
Si Si6 0.391105 0.837295 0.131820
Si Si7 0.202506 0.163277 0.185145
Si Si8 0.112697 0.837572 0.282079
O O1 0.180072 0.807911 0.500000
O O2 0.118486 0.737823 0.583433
O O3 0.297063 0.789311 0.574774
O O4 0.168193 0.000000 0.565687
O O5 0.318631 0.500000 0.940819
O O6 0.184379 0.302564 0.933606
O O7 0.369126 0.251354 0.914503
O O8 0.311651 0.287110 0.000000
O O9 0.882016 0.500000 0.877529
O O10 0.870817 0.753186 0.847469
O O11 0.000000 0.694326 0.911315
O O12 0.160342 0.500000 0.629671
O O13 0.154454 0.746155 0.674974
O O14 0.000000 0.634846 0.643079
O O15 0.598346 0.770559 0.500000
O O16 0.500000 0.785997 0.422126
O O17 0.603788 0.000000 0.451762
O O18 0.500000 0.802621 0.149280
O O19 0.314355 0.799307 0.172770
O O20 0.381481 0.000000 0.118040
O O21 0.179002 0.205296 0.238167
O O22 0.181061 0.000000 0.176920
O O23 0.000000 0.807517 0.270955
O O24 0.127311 0.000000 0.295517
#
# Coordination Sequence:
#
# PCOD8199050 Si02
#       8
#     8   8   8   8   8   8   8   8
#     4   9  17  29  47  70  93 120 155 192 228 265
#     4   9  18  31  45  63  89 122 160 197 229 264
#     4   9  17  28  43  65  92 120 149 183 225 273
#     4  10  21  34  46  63  90 124 158 189 222 262
#     4   7  10  19  38  64  89 109 134 173 217 256
#     4   9  18  32  49  69  93 120 150 187 231 275
#     4   9  17  30  49  71  92 114 143 181 225 273
#     4   9  17  30  49  70  89 111 142 181 225 272
#
# _framework density 16.961252000000002
#
# number of rings (size 3 to 8) (size 9 to 14) (size 15 to 20)
#    0.000    3.125    0.000    1.875    0.000    3.500 
#    0.000    5.000    0.000    1.125    0.000    8.750 
#    0.000    0.000    0.000    0.000    0.000    0.000 
#
# Total GULP energy -792950.249842 kJ/mol
# GULP energy per Si atom -12389.847654 kJ/mol
# Density = 1.692265 g / cm^3
# Si number density = 16.961252 Si / 1000 Ang^3
#
#
#
# Elastic Constant Matrix: (Units=GPa)
#
#
# Indices 1 2 3 4 5 6 
#
# 1 70.9884 26.9839 32.9629 0.0000 0.0000 0.0000
# 2 26.9839 63.8986 51.0555 0.0000 0.0000 0.0000
# 3 32.9629 51.0555 99.5327 0.0000 0.0000 0.0000
# 4 0.0000 0.0000 0.0000 19.8601 0.0000 0.0000
# 5 0.0000 0.0000 0.0000 0.0000 16.9101 0.0000
# 6 0.0000 0.0000 0.0000 0.0000 0.0000 16.6943
#
#
#
# Elastic Compliance Matrix: (Units=1/GPa)
#
#
# Indices 1 2 3 4 5 6 
#
# 1 0.017428 -0.004656 -0.003383 0.000000 0.000000 0.000000
# 2 -0.004656 0.027763 -0.012699 0.000000 0.000000 0.000000
# 3 -0.003383 -0.012699 0.017681 0.000000 0.000000 0.000000
# 4 0.000000 0.000000 0.000000 0.050352 0.000000 0.000000
# 5 0.000000 0.000000 0.000000 0.000000 0.059136 0.000000
# 6 0.000000 0.000000 0.000000 0.000000 0.000000 0.059901
#
#
# Mechanical properties :
#
#
# Convention : Reuss Voigt Hill
#
# Bulk Modulus (GPa) = 46.74020 50.71382 48.72701
# Shear Modulus (GPa) = 17.80189 18.92073 18.36131
#
# Velocity S-wave (km/s) = 3.24321 3.34357 3.29377
# Velocity P-wave (km/s) = 6.45302 6.69856 6.57693
#
# Compressibility (1/GPa) = 0.02139486
#
# Stress axis : x y z
#
# Youngs Moduli (GPa) = 57.37982 36.01964 56.55710
#
# Poissons Ratio (x) = 0.16772 0.19134
# Poissons Ratio (y) = 0.26719 0.71821
# Poissons Ratio (z) = 0.19412 0.45741
#
# Static dielectric constant tensor:
#      x y z
#    x 3.455330 0.000000 0.000000 
#    y 0.000000 3.149670 0.000000 
#    z 0.000000 0.000000 2.977040 
# 
# 
# High freq. dielectric constant tensor:
#      x y z
#    x 1.652450 0.000000 0.000000 
#    y 0.000000 1.641510 0.000000 
#    z 0.000000 0.000000 1.628700 
# 
# From -- ./inp_files/34694.got.cif
#   From: 2010.03.12/outbox.cif.g09.slc.cpg/sg47_18_cif.got.tgz:34694.got - 2010.04.14 03:12:58.
