data_PCOD8199288
_publ_section_title
;
Structure prediction by ZEFSAII (Michael W. Deem and Ramdas Pophale) SiO2 
 PCOD8199288
Probable space group: P M M M
;
_chemical_formula_sum "Si O2"
_cell_formula_units_Z 56
_cell_length_a 9.393227
_cell_length_b 14.301407
_cell_length_c 20.869832
_cell_angle_alpha 90.000000
_cell_angle_beta 90.000000
_cell_angle_gamma 90.000000
_cell_volume 2803.577314
_symmetry_space_group_name_H-M "P M M M"
_symmetry_group_IT_number 47
_symmetry_cell_setting 'orthorhombic'
loop_
_space_group_symop_operation_xyz
x,y,z
-x,-y,z
x,-y,-z
-x,y,-z
-x,-y,-z
x,y,-z
-x,y,z
x,-y,z
loop_
_atom_site_type_symbol
_atom_site_label
_atom_site_fract_x
_atom_site_fract_y
_atom_site_fract_z
Si Si1 0.834433 0.892867 0.888713
Si Si2 0.336679 0.724824 0.071501
Si Si3 0.334809 0.108845 0.373315
Si Si4 0.837954 0.388805 0.174215
Si Si5 0.164671 0.263800 0.428923
Si Si6 0.831655 0.603463 0.316884
Si Si7 0.155195 0.110569 0.254334
O O1 0.739188 0.826039 0.932268
O O2 0.808497 0.853547 0.816653
O O3 0.000000 0.884667 0.907540
O O4 0.783370 0.000000 0.897156
O O5 0.500000 0.738520 0.092114
O O6 0.263681 0.655201 0.121352
O O7 0.326010 0.681419 0.000000
O O8 0.500000 0.132721 0.375489
O O9 0.252306 0.166933 0.427297
O O10 0.275031 0.141935 0.304247
O O11 0.305074 0.000000 0.385951
O O12 0.823590 0.500000 0.171416
O O13 0.794158 0.354871 0.246310
O O14 0.000000 0.358107 0.159283
O O15 0.184516 0.307733 0.500000
O O16 0.228278 0.332697 0.374593
O O17 0.000000 0.241108 0.415739
O O18 0.764386 0.500000 0.324678
O O19 0.000000 0.595161 0.323333
O O20 0.000000 0.150143 0.276306
O O21 0.144872 0.000000 0.249505
#
# Coordination Sequence:
#
# PCOD8199288 Si02
#       7
#     8   8   8   8   8   8   8
#     4   9  19  36  58  83 111 147 192 239 283 331
#     4  11  25  40  54  80 119 158 192 231 283 340
#     4  10  21  35  51  74 108 150 192 233 277 326
#     4   9  19  38  64  89 111 141 186 239 289 338
#     4  10  21  35  54  83 115 148 186 228 277 331
#     4   8  16  34  60  88 114 139 174 225 281 334
#     4   8  15  30  52  77 103 133 175 228 281 326
#
# _framework density 19.974478999999999
#
# number of rings (size 3 to 8) (size 9 to 14) (size 15 to 20)
#    0.000    2.714    0.000    2.571    2.000    4.571 
#    0.000    7.143    0.000    1.286    0.000    1.000 
#    0.000    0.000    0.000    0.000    0.000    0.000 
#
# Total GULP energy -694193.939369 kJ/mol
# GULP energy per Si atom -12396.320346 kJ/mol
# Density = 1.992902 g / cm^3
# Si number density = 19.974479 Si / 1000 Ang^3
#
#
#
# Elastic Constant Matrix: (Units=GPa)
#
#
# Indices 1 2 3 4 5 6 
#
# 1 88.1200 42.5247 54.4574 0.0000 0.0000 0.0000
# 2 42.5247 58.7206 50.4046 0.0000 0.0000 0.0000
# 3 54.4574 50.4046 130.3094 0.0000 0.0000 0.0000
# 4 0.0000 0.0000 0.0000 25.1020 0.0000 0.0000
# 5 0.0000 0.0000 0.0000 0.0000 7.0749 0.0000
# 6 0.0000 0.0000 0.0000 0.0000 0.0000 18.7364
#
#
#
# Elastic Compliance Matrix: (Units=1/GPa)
#
#
# Indices 1 2 3 4 5 6 
#
# 1 0.018650 -0.010204 -0.003847 0.000000 0.000000 0.000000
# 2 -0.010204 0.031077 -0.007757 0.000000 0.000000 0.000000
# 3 -0.003847 -0.007757 0.012282 0.000000 0.000000 0.000000
# 4 0.000000 0.000000 0.000000 0.039837 0.000000 0.000000
# 5 0.000000 0.000000 0.000000 0.000000 0.141344 0.000000
# 6 0.000000 0.000000 0.000000 0.000000 0.000000 0.053372
#
#
# Mechanical properties :
#
#
# Convention : Reuss Voigt Hill
#
# Bulk Modulus (GPa) = 54.36460 63.54707 58.95584
# Shear Modulus (GPa) = 14.43797 18.83355 16.63576
#
# Velocity S-wave (km/s) = 2.69145 3.07397 2.88905
# Velocity P-wave (km/s) = 6.07739 6.66950 6.38032
#
# Compressibility (1/GPa) = 0.01839432
#
# Stress axis : x y z
#
# Youngs Moduli (GPa) = 53.62042 32.17769 81.41914
#
# Poissons Ratio (x) = 0.32833 0.31322
# Poissons Ratio (y) = 0.54712 0.63155
# Poissons Ratio (z) = 0.20628 0.24960
#
# Static dielectric constant tensor:
#      x y z
#    x 3.369270 0.000000 0.000000 
#    y 0.000000 3.655090 0.000000 
#    z 0.000000 0.000000 3.751660 
# 
# 
# High freq. dielectric constant tensor:
#      x y z
#    x 1.748870 0.000000 0.000000 
#    y 0.000000 1.776160 0.000000 
#    z 0.000000 0.000000 1.783120 
# 
# From -- ./inp_files/7338.got.cif
#   From: 2010.03.12/outbox.cif.g09.slc.cpg/sg47_4_cif.got.tgz:7338.got - 2010.04.14 03:12:58.
