data_PCOD8199270
_publ_section_title
;
Structure prediction by ZEFSAII (Michael W. Deem and Ramdas Pophale) SiO2 
 PCOD8199270
Probable space group: P M M M
;
_chemical_formula_sum "Si O2"
_cell_formula_units_Z 48
_cell_length_a 9.387545
_cell_length_b 30.558363
_cell_length_c 9.535954
_cell_angle_alpha 90.000000
_cell_angle_beta 90.000000
_cell_angle_gamma 90.000000
_cell_volume 2735.560126
_symmetry_space_group_name_H-M "P M M M"
_symmetry_group_IT_number 47
_symmetry_cell_setting 'orthorhombic'
loop_
_space_group_symop_operation_xyz
x,y,z
-x,-y,z
x,-y,-z
-x,y,-z
-x,-y,-z
x,y,-z
-x,y,z
x,-y,z
loop_
_atom_site_type_symbol
_atom_site_label
_atom_site_fract_x
_atom_site_fract_y
_atom_site_fract_z
Si Si1 0.840094 0.951576 0.833201
Si Si2 0.665254 0.381426 0.663724
Si Si3 0.162134 0.550826 0.838434
Si Si4 0.339807 0.871164 0.832914
Si Si5 0.835291 0.703714 0.337696
Si Si6 0.834874 0.787544 0.837312
O O1 0.734997 0.914763 0.771006
O O2 0.000000 0.942502 0.778185
O O3 0.789203 0.000000 0.784469
O O4 0.839843 0.949220 0.000000
O O5 0.691186 0.389439 0.500000
O O6 0.500000 0.376776 0.700809
O O7 0.728563 0.422625 0.744232
O O8 0.743543 0.337413 0.713862
O O9 0.193924 0.500000 0.813364
O O10 0.000000 0.561886 0.794713
O O11 0.186804 0.563285 0.000000
O O12 0.500000 0.869140 0.774061
O O13 0.254835 0.828612 0.780715
O O14 0.338688 0.872756 0.000000
O O15 0.807107 0.714341 0.500000
O O16 0.784824 0.745324 0.248772
O O17 0.000000 0.692694 0.308868
O O18 0.000000 0.798300 0.810841
O O19 0.804278 0.778163 0.000000
#
# Coordination Sequence:
#
# PCOD8199270 Si02
#       6
#     8   8   8   8   8   8
#     4   8  13  21  33  49  72 106 145 180 216 261
#     4  10  21  35  51  74 103 132 161 195 238 287
#     4   9  19  36  56  77 101 130 165 203 240 279
#     4   9  16  24  35  54  81 111 142 179 222 266
#     4   9  18  33  51  69  91 121 157 196 235 274
#     4   9  17  29  45  64  86 114 148 185 226 272
#
# _framework density 17.546681
#
# number of rings (size 3 to 8) (size 9 to 14) (size 15 to 20)
#    0.000    3.000    0.000    2.000    0.000    5.667 
#    0.000    5.833    0.000    0.000    0.000    0.000 
#    0.000    0.667    0.000    7.667    0.000    9.833 
#
# Total GULP energy -595166.636354 kJ/mol
# GULP energy per Si atom -12399.304924 kJ/mol
# Density = 1.750674 g / cm^3
# Si number density = 17.546681 Si / 1000 Ang^3
#
#
#
# Elastic Constant Matrix: (Units=GPa)
#
#
# Indices 1 2 3 4 5 6 
#
# 1 113.7986 87.6753 35.1325 0.0000 0.0000 0.0000
# 2 87.6753 147.0637 46.4217 0.0000 0.0000 0.0000
# 3 35.1325 46.4217 33.5237 0.0000 0.0000 0.0000
# 4 0.0000 0.0000 0.0000 -0.7376 0.0000 0.0000
# 5 0.0000 0.0000 0.0000 0.0000 17.7990 0.0000
# 6 0.0000 0.0000 0.0000 0.0000 0.0000 16.9967
#
#
#
# Elastic Compliance Matrix: (Units=1/GPa)
#
#
# Indices 1 2 3 4 5 6 
#
# 1 0.017070 -0.008047 -0.006746 0.000000 0.000000 0.000000
# 2 -0.008047 0.015874 -0.013547 0.000000 0.000000 0.000000
# 3 -0.006746 -0.013547 0.055659 0.000000 0.000000 0.000000
# 4 0.000000 0.000000 0.000000 -1.355705 0.000000 0.000000
# 5 0.000000 0.000000 0.000000 0.000000 0.056183 0.000000
# 6 0.000000 0.000000 0.000000 0.000000 0.000000 0.058835
#
#
# Mechanical properties :
#
#
# Convention : Reuss Voigt Hill
#
# Bulk Modulus (GPa) = 31.32683 70.31611 50.82147
# Shear Modulus (GPa) = -4.60930 15.15538 5.27304
#
# Velocity S-wave (km/s) = -1.62252 2.94210 1.73542
# Velocity P-wave (km/s) = 3.79237 7.19041 5.74822
#
# Compressibility (1/GPa) = 0.03192151
#
# Stress axis : x y z
#
# Youngs Moduli (GPa) = 58.58215 62.99709 17.96661
#
# Poissons Ratio (x) = 0.50696 0.12120
# Poissons Ratio (y) = 0.47143 0.24340
# Poissons Ratio (z) = 0.39518 0.85345
#
# Static dielectric constant tensor:
#      x y z
#    x 3.342170 0.000000 0.000000 
#    y 0.000000 3.408900 0.000000 
#    z 0.000000 0.000000 2.852920 
# 
# 
# High freq. dielectric constant tensor:
#      x y z
#    x 1.679130 0.000000 0.000000 
#    y 0.000000 1.690290 0.000000 
#    z 0.000000 0.000000 1.631770 
# 
# From -- ./inp_files/2434.got.cif
#   From: 2010.03.12/outbox.cif.g09.slc.cpg/sg47_2_cif.got.tgz:2434.got - 2010.04.14 03:12:58.
