data_PCOD8199278
_publ_section_title
;
Structure prediction by ZEFSAII (Michael W. Deem and Ramdas Pophale) SiO2 
 PCOD8199278
Probable space group: P M M M
;
_chemical_formula_sum "Si O2"
_cell_formula_units_Z 36
_cell_length_a 9.569667
_cell_length_b 22.773986
_cell_length_c 9.300917
_cell_angle_alpha 90.000000
_cell_angle_beta 90.000000
_cell_angle_gamma 90.000000
_cell_volume 2027.036850
_symmetry_space_group_name_H-M "P M M M"
_symmetry_group_IT_number 47
_symmetry_cell_setting 'orthorhombic'
loop_
_space_group_symop_operation_xyz
x,y,z
-x,-y,z
x,-y,-z
-x,y,-z
-x,-y,-z
x,y,-z
-x,y,z
x,-y,z
loop_
_atom_site_type_symbol
_atom_site_label
_atom_site_fract_x
_atom_site_fract_y
_atom_site_fract_z
Si Si1 0.161056 0.931956 0.836082
Si Si2 0.166121 0.500000 0.337711
Si Si3 0.837682 0.386960 0.167019
Si Si4 0.337550 0.159785 0.332832
Si Si5 0.661351 0.275132 0.166778
O O1 0.254895 0.895462 0.727634
O O2 0.000000 0.915605 0.810488
O O3 0.187280 0.000000 0.802457
O O4 0.203673 0.917583 0.000000
O O5 0.224203 0.500000 0.500000
O O6 0.220801 0.557822 0.256310
O O7 0.000000 0.500000 0.334645
O O8 0.752008 0.330342 0.218273
O O9 0.000000 0.374923 0.198926
O O10 0.811978 0.400755 0.000000
O O11 0.304850 0.166439 0.500000
O O12 0.500000 0.148725 0.301982
O O13 0.286458 0.219013 0.255436
O O14 0.500000 0.289471 0.198691
O O15 0.687315 0.261301 0.000000
#
# Coordination Sequence:
#
# PCOD8199278 Si02
#       5
#     8   4   8   8   8
#     4   9  19  36  56  77 101 130 166 208 251 294
#     4   9  17  29  46  69  96 124 154 191 236 286
#     4   9  17  30  49  71  93 120 157 199 240 283
#     4  10  21  35  51  74 104 136 168 203 246 297
#     4   9  18  33  51  70  95 128 164 202 244 288
#
# _framework density 17.759913999999998
#
# number of rings (size 3 to 8) (size 9 to 14) (size 15 to 20)
#    0.000    2.778    0.000    1.667    0.000    5.778 
#    0.000    6.111    0.000    3.333    0.000    0.000 
#    0.000    0.000    0.000    0.000    0.000    0.000 
#
# Total GULP energy -446487.851203 kJ/mol
# GULP energy per Si atom -12402.440311 kJ/mol
# Density = 1.771949 g / cm^3
# Si number density = 17.759914 Si / 1000 Ang^3
#
#
#
# Elastic Constant Matrix: (Units=GPa)
#
#
# Indices 1 2 3 4 5 6 
#
# 1 53.9684 60.3415 43.1945 0.0000 0.0000 0.0000
# 2 60.3415 139.6990 77.1076 0.0000 0.0000 0.0000
# 3 43.1945 77.1076 94.2139 0.0000 0.0000 0.0000
# 4 0.0000 0.0000 0.0000 13.9211 0.0000 0.0000
# 5 0.0000 0.0000 0.0000 0.0000 23.2861 0.0000
# 6 0.0000 0.0000 0.0000 0.0000 0.0000 3.0196
#
#
#
# Elastic Compliance Matrix: (Units=1/GPa)
#
#
# Indices 1 2 3 4 5 6 
#
# 1 0.038445 -0.012543 -0.007360 0.000000 0.000000 0.000000
# 2 -0.012543 0.017149 -0.008284 0.000000 0.000000 0.000000
# 3 -0.007360 -0.008284 0.020769 0.000000 0.000000 0.000000
# 4 0.000000 0.000000 0.000000 0.071834 0.000000 0.000000
# 5 0.000000 0.000000 0.000000 0.000000 0.042944 0.000000
# 6 0.000000 0.000000 0.000000 0.000000 0.000000 0.331172
#
#
# Mechanical properties :
#
#
# Convention : Reuss Voigt Hill
#
# Bulk Modulus (GPa) = 50.03301 72.12982 61.08142
# Shear Modulus (GPa) = 8.54192 15.19453 11.86823
#
# Velocity S-wave (km/s) = 2.19547 2.92816 2.58788
# Velocity P-wave (km/s) = 5.88726 7.22040 6.58764
#
# Compressibility (1/GPa) = 0.01998680
#
# Stress axis : x y z
#
# Youngs Moduli (GPa) = 26.01146 58.31314 48.14969
#
# Poissons Ratio (x) = 0.73145 0.35438
# Poissons Ratio (y) = 0.32627 0.39889
# Poissons Ratio (z) = 0.19144 0.48308
#
# Static dielectric constant tensor:
#      x y z
#    x 3.124770 0.000000 0.000000 
#    y 0.000000 3.348370 0.000000 
#    z 0.000000 0.000000 3.294630 
# 
# 
# High freq. dielectric constant tensor:
#      x y z
#    x 1.669560 0.000000 0.000000 
#    y 0.000000 1.695210 0.000000 
#    z 0.000000 0.000000 1.686420 
# 
# From -- ./inp_files/1416.got.cif
#   From: 2010.03.12/outbox.cif.g09.slc.cpg/sg47_1_cif.got.tgz:1416.got - 2010.04.14 03:12:58.
