data_PCOD8199437
_publ_section_title
;
Structure prediction by ZEFSAII (Michael W. Deem and Ramdas Pophale) SiO2 
 PCOD8199437
Probable space group: P M M M
;
_chemical_formula_sum "Si O2"
_cell_formula_units_Z 48
_cell_length_a 30.297984
_cell_length_b 9.851282
_cell_length_c 9.071422
_cell_angle_alpha 90.000000
_cell_angle_beta 90.000000
_cell_angle_gamma 90.000000
_cell_volume 2707.583469
_symmetry_space_group_name_H-M "P M M M"
_symmetry_group_IT_number 47
_symmetry_cell_setting 'orthorhombic'
loop_
_space_group_symop_operation_xyz
x,y,z
-x,-y,z
x,-y,-z
-x,y,-z
-x,-y,-z
x,y,-z
-x,y,z
x,-y,z
loop_
_atom_site_type_symbol
_atom_site_label
_atom_site_fract_x
_atom_site_fract_y
_atom_site_fract_z
Si Si1 0.618488 0.344139 0.172103
Si Si2 0.777942 0.841423 0.829397
Si Si3 0.877367 0.850152 0.174965
Si Si4 0.291828 0.344381 0.326932
Si Si5 0.048933 0.651725 0.175351
Si Si6 0.551280 0.155459 0.330945
O O1 0.607521 0.500000 0.210955
O O2 0.662793 0.295982 0.253029
O O3 0.577990 0.253081 0.223973
O O4 0.625924 0.322732 0.000000
O O5 0.827988 0.803656 0.783392
O O6 0.747114 0.750896 0.728201
O O7 0.768731 0.000000 0.800239
O O8 0.769361 0.806095 0.000000
O O9 0.913612 0.748831 0.244579
O O10 0.886709 0.000000 0.239263
O O11 0.881608 0.854643 0.000000
O O12 0.297159 0.326425 0.500000
O O13 0.281166 0.500000 0.283630
O O14 0.057328 0.500000 0.235143
O O15 0.000000 0.701620 0.223524
O O16 0.052215 0.651995 0.000000
O O17 0.562049 0.191810 0.500000
O O18 0.500000 0.178782 0.297643
O O19 0.564340 0.000000 0.298180
#
# Coordination Sequence:
#
# PCOD8199437 Si02
#       6
#     8   8   8   8   8   8
#     4  10  21  36  54  77 104 133 166 204 246 292
#     4   9  18  32  49  70  96 125 159 199 242 290
#     4   8  14  24  37  55  81 113 149 188 229 275
#     4  10  21  36  53  73  97 126 162 202 243 290
#     4   8  13  20  30  48  77 112 149 187 226 271
#     4   9  19  36  56  78 105 137 172 207 243 286
#
# _framework density 17.727986000000001
#
# number of rings (size 3 to 8) (size 9 to 14) (size 15 to 20)
#    0.000    3.000    0.000    3.000    0.000    5.000 
#    0.000    5.833    0.000    0.000    0.000    0.000 
#    0.000    0.667    0.000    7.333    0.000   12.000 
#
# Total GULP energy -595099.049394 kJ/mol
# GULP energy per Si atom -12397.896862 kJ/mol
# Density = 1.768764 g / cm^3
# Si number density = 17.727986 Si / 1000 Ang^3
#
#
#
# Elastic Constant Matrix: (Units=GPa)
#
#
# Indices 1 2 3 4 5 6 
#
# 1 127.5204 77.6397 44.7965 0.0000 0.0000 0.0000
# 2 77.6397 88.3151 37.9253 0.0000 0.0000 0.0000
# 3 44.7965 37.9253 53.3906 0.0000 0.0000 0.0000
# 4 0.0000 0.0000 0.0000 24.7203 0.0000 0.0000
# 5 0.0000 0.0000 0.0000 0.0000 1.0930 0.0000
# 6 0.0000 0.0000 0.0000 0.0000 0.0000 36.3696
#
#
#
# Elastic Compliance Matrix: (Units=1/GPa)
#
#
# Indices 1 2 3 4 5 6 
#
# 1 0.017944 -0.013396 -0.005540 0.000000 0.000000 0.000000
# 2 -0.013396 0.026294 -0.007438 0.000000 0.000000 0.000000
# 3 -0.005540 -0.007438 0.028661 0.000000 0.000000 0.000000
# 4 0.000000 0.000000 0.000000 0.040453 0.000000 0.000000
# 5 0.000000 0.000000 0.000000 0.000000 0.914927 0.000000
# 6 0.000000 0.000000 0.000000 0.000000 0.000000 0.027496
#
#
# Mechanical properties :
#
#
# Convention : Reuss Voigt Hill
#
# Bulk Modulus (GPa) = 49.62338 65.54990 57.58664
# Shear Modulus (GPa) = 4.48334 19.69422 12.08878
#
# Velocity S-wave (km/s) = 1.59200 3.33665 2.61416
# Velocity P-wave (km/s) = 5.60639 7.20416 6.45490
#
# Compressibility (1/GPa) = 0.02015179
#
# Stress axis : x y z
#
# Youngs Moduli (GPa) = 55.72892 38.03186 34.89007
#
# Poissons Ratio (x) = 0.50947 0.19329
# Poissons Ratio (y) = 0.74654 0.25950
# Poissons Ratio (z) = 0.30874 0.28287
#
# Static dielectric constant tensor:
#      x y z
#    x 3.412050 0.000000 0.000000 
#    y 0.000000 3.452990 0.000000 
#    z 0.000000 0.000000 2.911510 
# 
# 
# High freq. dielectric constant tensor:
#      x y z
#    x 1.694040 0.000000 0.000000 
#    y 0.000000 1.686850 0.000000 
#    z 0.000000 0.000000 1.649820 
# 
# From -- ./inp_files/2502.got.cif
#   From: 2010.03.12/outbox.cif.g09.slc.cpg/sg47_2_cif.got.tgz:2502.got - 2010.04.14 03:12:58.
