data_PCOD8199413
_publ_section_title
;
Structure prediction by ZEFSAII (Michael W. Deem and Ramdas Pophale) SiO2 
 PCOD8199413
Probable space group: P M M M
;
_chemical_formula_sum "Si O2"
_cell_formula_units_Z 48
_cell_length_a 9.186046
_cell_length_b 9.405988
_cell_length_c 30.548687
_cell_angle_alpha 90.000000
_cell_angle_beta 90.000000
_cell_angle_gamma 90.000000
_cell_volume 2639.523816
_symmetry_space_group_name_H-M "P M M M"
_symmetry_group_IT_number 47
_symmetry_cell_setting 'orthorhombic'
loop_
_space_group_symop_operation_xyz
x,y,z
-x,-y,z
x,-y,-z
-x,y,-z
-x,-y,-z
x,y,-z
-x,y,z
x,-y,z
loop_
_atom_site_type_symbol
_atom_site_label
_atom_site_fract_x
_atom_site_fract_y
_atom_site_fract_z
Si Si1 0.168463 0.834859 0.244467
Si Si2 0.329419 0.163980 0.668467
Si Si3 0.171659 0.654537 0.500000
Si Si4 0.668378 0.662948 0.927633
Si Si5 0.833360 0.330300 0.594690
Si Si6 0.171232 0.164098 0.000000
Si Si7 0.665121 0.665304 0.173146
O O1 0.253891 0.781383 0.287238
O O2 0.222861 0.752576 0.202072
O O3 0.000000 0.801093 0.251972
O O4 0.198038 0.000000 0.236138
O O5 0.500000 0.187051 0.673903
O O6 0.273863 0.258006 0.628621
O O7 0.289368 0.000000 0.659407
O O8 0.247473 0.500000 0.500000
O O9 0.212812 0.730167 0.546126
O O10 0.000000 0.631912 0.500000
O O11 0.500000 0.690949 0.938544
O O12 0.707978 0.500000 0.938328
O O13 0.766354 0.765175 0.956455
O O14 0.701655 0.697510 0.877218
O O15 0.814961 0.500000 0.596213
O O16 0.000000 0.288163 0.605519
O O17 0.000000 0.185420 0.000000
O O18 0.216465 0.000000 0.000000
O O19 0.500000 0.712431 0.183764
O O20 0.685252 0.500000 0.183450
#
# Coordination Sequence:
#
# PCOD8199413 Si02
#       7
#     8   8   4   8   8   4   8
#     4  10  21  36  54  76 102 134 171 210 253 301
#     4  10  21  36  52  71  99 136 174 210 251 300
#     4   7  12  26  48  73 100 128 160 201 248 299
#     4   9  19  37  59  80 103 135 175 214 253 302
#     4   9  17  31  53  78 101 128 165 208 253 301
#     4  11  24  37  50  76 112 143 174 215 258 300
#     4   9  19  36  57  81 107 134 167 209 255 303
#
# _framework density 18.185098
#
# number of rings (size 3 to 8) (size 9 to 14) (size 15 to 20)
#    0.000    2.667    0.000    3.500    0.000    6.667 
#    0.000    5.833    0.000    4.000    0.000    0.000 
#    0.000    0.000    0.000    0.000    0.000    0.000 
#
# Total GULP energy -595094.673133 kJ/mol
# GULP energy per Si atom -12397.805690 kJ/mol
# Density = 1.814371 g / cm^3
# Si number density = 18.185098 Si / 1000 Ang^3
#
#
#
# Elastic Constant Matrix: (Units=GPa)
#
#
# Indices 1 2 3 4 5 6 
#
# 1 88.6409 50.2994 67.9705 0.0000 0.0000 0.0000
# 2 50.2994 67.8038 63.8615 0.0000 0.0000 0.0000
# 3 67.9705 63.8615 139.6650 0.0000 0.0000 0.0000
# 4 0.0000 0.0000 0.0000 65.8604 0.0000 0.0000
# 5 0.0000 0.0000 0.0000 0.0000 32.8529 0.0000
# 6 0.0000 0.0000 0.0000 0.0000 0.0000 31.7467
#
#
#
# Elastic Compliance Matrix: (Units=1/GPa)
#
#
# Indices 1 2 3 4 5 6 
#
# 1 0.021743 -0.010825 -0.005632 0.000000 0.000000 0.000000
# 2 -0.010825 0.031294 -0.009041 0.000000 0.000000 0.000000
# 3 -0.005632 -0.009041 0.014035 0.000000 0.000000 0.000000
# 4 0.000000 0.000000 0.000000 0.015184 0.000000 0.000000
# 5 0.000000 0.000000 0.000000 0.000000 0.030439 0.000000
# 6 0.000000 0.000000 0.000000 0.000000 0.000000 0.031499
#
#
# Mechanical properties :
#
#
# Convention : Reuss Voigt Hill
#
# Bulk Modulus (GPa) = 62.20485 73.37476 67.78981
# Shear Modulus (GPa) = 24.93171 33.69055 29.31113
#
# Velocity S-wave (km/s) = 3.70671 4.30891 4.01910
# Velocity P-wave (km/s) = 7.25261 8.07416 7.67439
#
# Compressibility (1/GPa) = 0.01607592
#
# Stress axis : x y z
#
# Youngs Moduli (GPa) = 45.99244 31.95464 71.25227
#
# Poissons Ratio (x) = 0.34592 0.40126
# Poissons Ratio (y) = 0.49789 0.64418
# Poissons Ratio (z) = 0.25901 0.28890
#
# Static dielectric constant tensor:
#      x y z
#    x 3.232140 0.000000 0.000000 
#    y 0.000000 3.175600 0.000000 
#    z 0.000000 0.000000 3.538010 
# 
# 
# High freq. dielectric constant tensor:
#      x y z
#    x 1.697410 0.000000 0.000000 
#    y 0.000000 1.687410 0.000000 
#    z 0.000000 0.000000 1.721150 
# 
# From -- ./inp_files/2794.got.cif
#   From: 2010.03.12/outbox.cif.g09.slc.cpg/sg47_2_cif.got.tgz:2794.got - 2010.04.14 03:12:58.
