data_PCOD8199923
_publ_section_title
;
Structure prediction by ZEFSAII (Michael W. Deem and Ramdas Pophale) SiO2 
 PCOD8199923
Probable space group: P M M M
;
_chemical_formula_sum "Si O2"
_cell_formula_units_Z 44
_cell_length_a 9.292289
_cell_length_b 31.161049
_cell_length_c 7.781192
_cell_angle_alpha 90.000000
_cell_angle_beta 90.000000
_cell_angle_gamma 90.000000
_cell_volume 2253.102291
_symmetry_space_group_name_H-M "P M M M"
_symmetry_group_IT_number 47
_symmetry_cell_setting 'orthorhombic'
loop_
_space_group_symop_operation_xyz
x,y,z
-x,-y,z
x,-y,-z
-x,y,-z
-x,-y,-z
x,y,-z
-x,y,z
x,-y,z
loop_
_atom_site_type_symbol
_atom_site_label
_atom_site_fract_x
_atom_site_fract_y
_atom_site_fract_z
Si Si1 0.342072 0.500000 0.799061
Si Si2 0.664651 0.050528 0.196335
Si Si3 0.669999 0.814216 0.500000
Si Si4 0.830180 0.674338 0.695125
Si Si5 0.663614 0.753658 0.190566
Si Si6 0.827482 0.903646 0.500000
Si Si7 0.157036 0.580530 0.298803
O O1 0.500000 0.500000 0.714994
O O2 0.265731 0.457014 0.740746
O O3 0.352431 0.500000 0.000000
O O4 0.500000 0.064163 0.237040
O O5 0.772223 0.073277 0.327598
O O6 0.682158 0.000000 0.220521
O O7 0.703505 0.063615 0.000000
O O8 0.500000 0.825504 0.500000
O O9 0.716658 0.787871 0.330749
O O10 0.766923 0.855976 0.500000
O O11 0.775562 0.679798 0.500000
O O12 0.754937 0.710199 0.809069
O O13 0.788681 0.626949 0.769628
O O14 0.000000 0.680601 0.706904
O O15 0.500000 0.740934 0.231859
O O16 0.678581 0.774177 0.000000
O O17 0.000000 0.903677 0.500000
O O18 0.138286 0.586005 0.500000
O O19 0.000000 0.569167 0.219107
#
# Coordination Sequence:
#
# PCOD8199923 Si02
#       7
#     4   8   4   8   8   4   8
#     4  11  24  37  48  70 106 141 174 217 264 312
#     4   9  19  38  64  91 120 160 210 256 296 349
#     4  10  22  41  59  78 112 156 201 244 286 341
#     4   9  18  34  57  83 110 138 172 217 272 334
#     4  10  21  37  59  85 110 141 185 235 285 336
#     4  12  25  37  56  89 126 162 199 249 310 363
#     4   9  19  36  57  79 102 134 175 215 257 317
#
# _framework density 19.528628000000001
#
# number of rings (size 3 to 8) (size 9 to 14) (size 15 to 20)
#    0.000    2.273    0.909    3.273    0.000    7.273 
#    0.000    8.182    0.000    0.000    0.000    0.000 
#    0.000    0.000    0.000    0.000    0.000    0.000 
#
# Total GULP energy -545465.690065 kJ/mol
# GULP energy per Si atom -12396.947501 kJ/mol
# Density = 1.948418 g / cm^3
# Si number density = 19.528628 Si / 1000 Ang^3
#
#
#
# Elastic Constant Matrix: (Units=GPa)
#
#
# Indices 1 2 3 4 5 6 
#
# 1 107.0028 72.7493 49.7506 0.0000 0.0000 0.0000
# 2 72.7493 127.6804 60.6349 0.0000 0.0000 0.0000
# 3 49.7506 60.6349 108.9509 0.0000 0.0000 0.0000
# 4 0.0000 0.0000 0.0000 8.6327 0.0000 0.0000
# 5 0.0000 0.0000 0.0000 0.0000 27.7852 0.0000
# 6 0.0000 0.0000 0.0000 0.0000 0.0000 34.3771
#
#
#
# Elastic Compliance Matrix: (Units=1/GPa)
#
#
# Indices 1 2 3 4 5 6 
#
# 1 0.015957 -0.007655 -0.003026 0.000000 0.000000 0.000000
# 2 -0.007655 0.014318 -0.004473 0.000000 0.000000 0.000000
# 3 -0.003026 -0.004473 0.013050 0.000000 0.000000 0.000000
# 4 0.000000 0.000000 0.000000 0.115838 0.000000 0.000000
# 5 0.000000 0.000000 0.000000 0.000000 0.035990 0.000000
# 6 0.000000 0.000000 0.000000 0.000000 0.000000 0.029089
#
#
# Mechanical properties :
#
#
# Convention : Reuss Voigt Hill
#
# Bulk Modulus (GPa) = 76.82602 78.87817 77.85209
# Shear Modulus (GPa) = 19.31333 24.85896 22.08615
#
# Velocity S-wave (km/s) = 3.14821 3.57171 3.36663
# Velocity P-wave (km/s) = 7.25538 7.58210 7.42054
#
# Compressibility (1/GPa) = 0.01301642
#
# Stress axis : x y z
#
# Youngs Moduli (GPa) = 62.66866 69.84372 76.63006
#
# Poissons Ratio (x) = 0.53463 0.23191
# Poissons Ratio (y) = 0.47971 0.34276
# Poissons Ratio (z) = 0.18966 0.31240
#
# Static dielectric constant tensor:
#      x y z
#    x 5.004460 0.000000 0.000000 
#    y 0.000000 3.486980 0.000000 
#    z 0.000000 0.000000 3.675230 
# 
# 
# High freq. dielectric constant tensor:
#      x y z
#    x 1.748440 0.000000 0.000000 
#    y 0.000000 1.760510 0.000000 
#    z 0.000000 0.000000 1.766030 
# 
# From -- ./inp_files/2332.got.cif
#   From: 2010.03.12/outbox.cif.g09.slc.cpg/sg47_2_cif.got.tgz:2332.got - 2010.04.14 03:12:58.
