data_PCOD8199569
_publ_section_title
;
Structure prediction by ZEFSAII (Michael W. Deem and Ramdas Pophale) SiO2 
 PCOD8199569
Probable space group: P M M M
;
_chemical_formula_sum "Si O2"
_cell_formula_units_Z 56
_cell_length_a 15.016982
_cell_length_b 8.825982
_cell_length_c 22.341669
_cell_angle_alpha 90.000000
_cell_angle_beta 90.000000
_cell_angle_gamma 90.000000
_cell_volume 2961.156159
_symmetry_space_group_name_H-M "P M M M"
_symmetry_group_IT_number 47
_symmetry_cell_setting 'orthorhombic'
loop_
_space_group_symop_operation_xyz
x,y,z
-x,-y,z
x,-y,-z
-x,y,-z
-x,-y,-z
x,y,-z
-x,y,z
x,-y,z
loop_
_atom_site_type_symbol
_atom_site_label
_atom_site_fract_x
_atom_site_fract_y
_atom_site_fract_z
Si Si1 0.598929 0.327585 0.241533
Si Si2 0.676484 0.327101 0.881471
Si Si3 0.603582 0.823289 0.000000
Si Si4 0.000000 0.820717 0.066283
Si Si5 0.100302 0.676282 0.716485
Si Si6 0.271538 0.821169 0.330059
Si Si7 0.599571 0.819945 0.433088
Si Si8 0.145092 0.179331 0.158702
O O1 0.500000 0.277165 0.262059
O O2 0.618875 0.500000 0.261640
O O3 0.600761 0.316806 0.169360
O O4 0.672871 0.219467 0.270645
O O5 0.702533 0.500000 0.895603
O O6 0.645780 0.248789 0.941681
O O7 0.757433 0.237555 0.853080
O O8 0.500000 0.787328 0.000000
O O9 0.625121 0.000000 0.000000
O O10 0.086685 0.766790 0.102247
O O11 0.000000 0.000000 0.060403
O O12 0.000000 0.746607 0.000000
O O13 0.122035 0.500000 0.723052
O O14 0.173132 0.748298 0.671511
O O15 0.105493 0.750673 0.781345
O O16 0.000000 0.702525 0.691028
O O17 0.326699 0.756283 0.387027
O O18 0.259430 0.000000 0.333407
O O19 0.624496 0.764475 0.500000
O O20 0.500000 0.761251 0.416107
O O21 0.599390 0.000000 0.430433
O O22 0.144215 0.000000 0.166758
#
# Coordination Sequence:
#
# PCOD8199569 Si02
#       8
#     8   8   4   4   8   8   8   8
#     4  10  21  36  54  78 112 151 185 223 276 337
#     4  11  23  39  58  80 109 146 184 223 280 344
#     4  11  25  43  61  80 103 138 187 239 284 330
#     4   9  20  36  55  81 109 137 169 218 283 342
#     4  11  23  39  58  79 110 151 192 235 288 348
#     4  11  21  33  56  88 117 148 191 240 289 338
#     4   8  15  30  53  84 123 161 193 229 279 339
#     4  11  21  36  59  84 109 139 180 229 282 338
#
# _framework density 18.911532999999999
#
# number of rings (size 3 to 8) (size 9 to 14) (size 15 to 20)
#    0.000    1.714    2.143    3.214    1.000    3.429 
#    0.000    0.000    0.000    3.857    0.000    8.000 
#    0.000    0.000    0.000    0.000    0.000    0.000 
#
# Total GULP energy -694338.558115 kJ/mol
# GULP energy per Si atom -12398.902823 kJ/mol
# Density = 1.886849 g / cm^3
# Si number density = 18.911533 Si / 1000 Ang^3
#
#
#
# Elastic Constant Matrix: (Units=GPa)
#
#
# Indices 1 2 3 4 5 6 
#
# 1 129.4986 50.4958 55.7193 0.0000 0.0000 0.0000
# 2 50.4958 78.6506 37.3050 0.0000 0.0000 0.0000
# 3 55.7193 37.3050 120.9844 0.0000 0.0000 0.0000
# 4 0.0000 0.0000 0.0000 8.9691 0.0000 0.0000
# 5 0.0000 0.0000 0.0000 0.0000 13.7369 0.0000
# 6 0.0000 0.0000 0.0000 0.0000 0.0000 24.1494
#
#
#
# Elastic Compliance Matrix: (Units=1/GPa)
#
#
# Indices 1 2 3 4 5 6 
#
# 1 0.011454 -0.005683 -0.003523 0.000000 0.000000 0.000000
# 2 -0.005683 0.017712 -0.002844 0.000000 0.000000 0.000000
# 3 -0.003523 -0.002844 0.010765 0.000000 0.000000 0.000000
# 4 0.000000 0.000000 0.000000 0.111494 0.000000 0.000000
# 5 0.000000 0.000000 0.000000 0.000000 0.072797 0.000000
# 6 0.000000 0.000000 0.000000 0.000000 0.000000 0.041409
#
#
# Mechanical properties :
#
#
# Convention : Reuss Voigt Hill
#
# Bulk Modulus (GPa) = 63.16637 68.46377 65.81507
# Shear Modulus (GPa) = 16.94877 21.74531 19.34704
#
# Velocity S-wave (km/s) = 2.99693 3.39461 3.20195
# Velocity P-wave (km/s) = 6.74158 7.18646 6.96757
#
# Compressibility (1/GPa) = 0.01583121
#
# Stress axis : x y z
#
# Youngs Moduli (GPa) = 87.30808 56.45902 92.89411
#
# Poissons Ratio (x) = 0.32084 0.32724
# Poissons Ratio (y) = 0.49614 0.26421
# Poissons Ratio (z) = 0.30757 0.16058
#
# Static dielectric constant tensor:
#      x y z
#    x 3.600920 0.000000 0.000000 
#    y 0.000000 3.359010 0.000000 
#    z 0.000000 0.000000 3.512580 
# 
# 
# High freq. dielectric constant tensor:
#      x y z
#    x 1.743020 0.000000 0.000000 
#    y 0.000000 1.725060 0.000000 
#    z 0.000000 0.000000 1.723750 
# 
# From -- ./inp_files/31098.got.cif
#   From: 2010.03.12/outbox.cif.g09.slc.cpg/sg47_16_cif.got.tgz:31098.got - 2010.04.14 03:12:58.
