data_PCOD8199093
_publ_section_title
;
Structure prediction by ZEFSAII (Michael W. Deem and Ramdas Pophale) SiO2 
 PCOD8199093
Probable space group: P M M M
;
_chemical_formula_sum "Si O2"
_cell_formula_units_Z 64
_cell_length_a 14.102388
_cell_length_b 18.545431
_cell_length_c 13.677869
_cell_angle_alpha 90.000000
_cell_angle_beta 90.000000
_cell_angle_gamma 90.000000
_cell_volume 3577.239603
_symmetry_space_group_name_H-M "P M M M"
_symmetry_group_IT_number 47
_symmetry_cell_setting 'orthorhombic'
loop_
_space_group_symop_operation_xyz
x,y,z
-x,-y,z
x,-y,-z
-x,y,-z
-x,-y,-z
x,y,-z
-x,y,z
x,-y,z
loop_
_atom_site_type_symbol
_atom_site_label
_atom_site_fract_x
_atom_site_fract_y
_atom_site_fract_z
Si Si1 0.390495 0.351503 0.387753
Si Si2 0.890108 0.642293 0.885549
Si Si3 0.112583 0.805954 0.893038
Si Si4 0.608518 0.796177 0.710839
Si Si5 0.107279 0.081072 0.263442
Si Si6 0.713746 0.417219 0.208952
Si Si7 0.279081 0.081886 0.610391
Si Si8 0.389058 0.293054 0.890875
O O1 0.365187 0.369107 0.500000
O O2 0.500000 0.373124 0.364325
O O3 0.377325 0.266213 0.369869
O O4 0.317895 0.395322 0.318862
O O5 0.857746 0.724658 0.865082
O O6 0.826093 0.593946 0.812791
O O7 0.000000 0.629635 0.857768
O O8 0.874094 0.622989 0.000000
O O9 0.151327 0.863825 0.815623
O O10 0.000000 0.810132 0.897124
O O11 0.153927 0.825428 0.000000
O O12 0.500000 0.818729 0.720511
O O13 0.662428 0.868178 0.682663
O O14 0.648221 0.767436 0.815291
O O15 0.168264 0.086970 0.362073
O O16 0.000000 0.101903 0.291540
O O17 0.112561 0.000000 0.219795
O O18 0.687405 0.500000 0.192617
O O19 0.658013 0.370167 0.129211
O O20 0.291561 0.108893 0.500000
O O21 0.315920 0.000000 0.622317
O O22 0.500000 0.304564 0.874333
O O23 0.364042 0.267256 0.000000
#
# Coordination Sequence:
#
# PCOD8199093 Si02
#       8
#     8   8   8   8   8   8   8   8
#     4   9  19  36  57  80 105 136 174 214 261 316
#     4   9  19  35  52  72 101 138 179 218 256 303
#     4   8  15  29  49  71  95 128 169 209 249 293
#     4   9  18  34  55  76 100 131 168 209 249 296
#     4   9  18  31  47  71 103 135 165 201 249 303
#     4  11  22  33  50  79 108 135 172 215 259 307
#     4  10  21  34  49  73 102 132 169 212 255 295
#     4   9  19  35  54  77 104 135 167 201 252 315
#
# _framework density 17.890889999999999
#
# number of rings (size 3 to 8) (size 9 to 14) (size 15 to 20)
#    0.000    2.750    0.000    2.625    3.500    4.000 
#    0.000    5.000    0.000    1.500    0.000    2.625 
#    0.000    0.000    0.000    0.000    0.000    0.000 
#
# Total GULP energy -793363.081510 kJ/mol
# GULP energy per Si atom -12396.298149 kJ/mol
# Density = 1.785017 g / cm^3
# Si number density = 17.890890 Si / 1000 Ang^3
#
#
#
# Elastic Constant Matrix: (Units=GPa)
#
#
# Indices 1 2 3 4 5 6 
#
# 1 66.1265 39.9297 50.4120 0.0000 0.0000 0.0000
# 2 39.9297 97.7619 53.2008 0.0000 0.0000 0.0000
# 3 50.4120 53.2008 117.9592 0.0000 0.0000 0.0000
# 4 0.0000 0.0000 0.0000 15.6489 0.0000 0.0000
# 5 0.0000 0.0000 0.0000 0.0000 26.7739 0.0000
# 6 0.0000 0.0000 0.0000 0.0000 0.0000 22.7432
#
#
#
# Elastic Compliance Matrix: (Units=1/GPa)
#
#
# Indices 1 2 3 4 5 6 
#
# 1 0.024646 -0.005744 -0.007942 0.000000 0.000000 0.000000
# 2 -0.005744 0.014895 -0.004263 0.000000 0.000000 0.000000
# 3 -0.007942 -0.004263 0.013794 0.000000 0.000000 0.000000
# 4 0.000000 0.000000 0.000000 0.063902 0.000000 0.000000
# 5 0.000000 0.000000 0.000000 0.000000 0.037350 0.000000
# 6 0.000000 0.000000 0.000000 0.000000 0.000000 0.043969
#
#
# Mechanical properties :
#
#
# Convention : Reuss Voigt Hill
#
# Bulk Modulus (GPa) = 57.35071 63.21473 60.28272
# Shear Modulus (GPa) = 20.81015 22.25352 21.53183
#
# Velocity S-wave (km/s) = 3.41423 3.53065 3.47293
# Velocity P-wave (km/s) = 6.90420 7.21324 7.06041
#
# Compressibility (1/GPa) = 0.01743658
#
# Stress axis : x y z
#
# Youngs Moduli (GPa) = 40.57465 67.13701 72.49377
#
# Poissons Ratio (x) = 0.38566 0.57575
# Poissons Ratio (y) = 0.23307 0.30903
# Poissons Ratio (z) = 0.32225 0.28619
#
# Static dielectric constant tensor:
#      x y z
#    x 3.255970 0.000000 0.000000 
#    y 0.000000 3.248940 0.000000 
#    z 0.000000 0.000000 3.420500 
# 
# 
# High freq. dielectric constant tensor:
#      x y z
#    x 1.688150 0.000000 0.000000 
#    y 0.000000 1.682320 0.000000 
#    z 0.000000 0.000000 1.683680 
# 
# From -- ./inp_files/24065.got.cif
#   From: 2010.03.12/outbox.cif.g09.slc.cpg/sg47_13_cif.got.tgz:24065.got - 2010.04.14 03:12:58.
