data_PCOD8199670
_publ_section_title
;
Structure prediction by ZEFSAII (Michael W. Deem and Ramdas Pophale) SiO2 
 PCOD8199670
Probable space group: P M M M
;
_chemical_formula_sum "Si O2"
_cell_formula_units_Z 48
_cell_length_a 18.736586
_cell_length_b 13.969054
_cell_length_c 9.924888
_cell_angle_alpha 90.000000
_cell_angle_beta 90.000000
_cell_angle_gamma 90.000000
_cell_volume 2597.664573
_symmetry_space_group_name_H-M "P M M M"
_symmetry_group_IT_number 47
_symmetry_cell_setting 'orthorhombic'
loop_
_space_group_symop_operation_xyz
x,y,z
-x,-y,z
x,-y,-z
-x,y,-z
-x,-y,-z
x,y,-z
-x,y,z
x,-y,z
loop_
_atom_site_type_symbol
_atom_site_label
_atom_site_fract_x
_atom_site_fract_y
_atom_site_fract_z
Si Si1 0.080747 0.112822 0.500000
Si Si2 0.360795 0.602947 0.659229
Si Si3 0.198719 0.393124 0.341572
Si Si4 0.302811 0.888897 0.155617
Si Si5 0.083341 0.893070 0.000000
Si Si6 0.156562 0.198622 0.246042
Si Si7 0.581892 0.802352 0.656648
O O1 0.126376 0.145016 0.373956
O O2 0.000000 0.156246 0.500000
O O3 0.074712 0.000000 0.500000
O O4 0.360841 0.597009 0.500000
O O5 0.389898 0.500000 0.715504
O O6 0.279945 0.617689 0.709090
O O7 0.408943 0.692088 0.705985
O O8 0.193535 0.372797 0.500000
O O9 0.170031 0.500000 0.307782
O O10 0.151925 0.313560 0.264735
O O11 0.238088 0.830035 0.219421
O O12 0.372582 0.870073 0.246068
O O13 0.283571 0.000000 0.163227
O O14 0.316011 0.858001 0.000000
O O15 0.106036 0.831342 0.126044
O O16 0.000000 0.906302 0.000000
O O17 0.118773 0.000000 0.000000
O O18 0.606033 0.814265 0.500000
O O19 0.500000 0.832391 0.673611
#
# Coordination Sequence:
#
# PCOD8199670 Si02
#       7
#     4   8   8   8   4   8   8
#     4  11  24  38  57  91 126 154 192 241 297 357
#     4   8  14  27  49  79 113 145 180 225 281 340
#     4   9  17  32  57  89 119 150 191 241 296 348
#     4  11  24  40  58  81 111 153 201 239 282 348
#     4  11  24  42  63  87 122 162 194 235 297 359
#     4  12  21  38  63  89 119 155 197 245 295 347
#     4  10  21  36  56  84 116 147 187 245 301 343
#
# _framework density 18.478135000000002
#
# number of rings (size 3 to 8) (size 9 to 14) (size 15 to 20)
#    0.000    1.833    3.333    3.000    1.167    2.667 
#    0.000    3.750    0.000    4.500    0.000    1.167 
#    0.000    0.000    0.000    0.000    0.000    0.000 
#
# Total GULP energy -595002.571783 kJ/mol
# GULP energy per Si atom -12395.886912 kJ/mol
# Density = 1.843608 g / cm^3
# Si number density = 18.478135 Si / 1000 Ang^3
#
#
#
# Elastic Constant Matrix: (Units=GPa)
#
#
# Indices 1 2 3 4 5 6 
#
# 1 73.5701 38.3370 44.8584 0.0000 0.0000 0.0000
# 2 38.3370 114.5716 46.8577 0.0000 0.0000 0.0000
# 3 44.8584 46.8577 109.5562 0.0000 0.0000 0.0000
# 4 0.0000 0.0000 0.0000 15.4671 0.0000 0.0000
# 5 0.0000 0.0000 0.0000 0.0000 31.2701 0.0000
# 6 0.0000 0.0000 0.0000 0.0000 0.0000 -2.5211
#
#
#
# Elastic Compliance Matrix: (Units=1/GPa)
#
#
# Indices 1 2 3 4 5 6 
#
# 1 0.019485 -0.003947 -0.006290 0.000000 0.000000 0.000000
# 2 -0.003947 0.011378 -0.003250 0.000000 0.000000 0.000000
# 3 -0.006290 -0.003250 0.013093 0.000000 0.000000 0.000000
# 4 0.000000 0.000000 0.000000 0.064653 0.000000 0.000000
# 5 0.000000 0.000000 0.000000 0.000000 0.031979 0.000000
# 6 0.000000 0.000000 0.000000 0.000000 0.000000 -0.396648
#
#
# Mechanical properties :
#
#
# Convention : Reuss Voigt Hill
#
# Bulk Modulus (GPa) = 58.88827 61.97825 60.43326
# Shear Modulus (GPa) = -22.37897 20.01953 -1.17972
#
# Velocity S-wave (km/s) = -3.48387 3.29510 -0.79989
# Velocity P-wave (km/s) = 3.96928 6.93478 5.65006
#
# Compressibility (1/GPa) = 0.01698131
#
# Stress axis : x y z
#
# Youngs Moduli (GPa) = 51.32283 87.88657 76.37507
#
# Poissons Ratio (x) = 0.34692 0.48038
# Poissons Ratio (y) = 0.20259 0.24824
# Poissons Ratio (z) = 0.32281 0.28566
#
# Static dielectric constant tensor:
#      x y z
#    x 3.320480 0.000000 0.000000 
#    y 0.000000 4.106170 0.000000 
#    z 0.000000 0.000000 3.164330 
# 
# 
# High freq. dielectric constant tensor:
#      x y z
#    x 1.704310 0.000000 0.000000 
#    y 0.000000 1.728300 0.000000 
#    z 0.000000 0.000000 1.695130 
# 
# From -- ./inp_files/9207.got.cif
#   From: 2010.03.12/outbox.cif.g09.slc.cpg/sg47_5_cif.got.tgz:9207.got - 2010.04.14 03:12:58.
