data_PCOD8199491
_publ_section_title
;
Structure prediction by ZEFSAII (Michael W. Deem and Ramdas Pophale) SiO2 
 PCOD8199491
Probable space group: P M M M
;
_chemical_formula_sum "Si O2"
_cell_formula_units_Z 44
_cell_length_a 8.563676
_cell_length_b 19.133350
_cell_length_c 14.048960
_cell_angle_alpha 90.000000
_cell_angle_beta 90.000000
_cell_angle_gamma 90.000000
_cell_volume 2301.947527
_symmetry_space_group_name_H-M "P M M M"
_symmetry_group_IT_number 47
_symmetry_cell_setting 'orthorhombic'
loop_
_space_group_symop_operation_xyz
x,y,z
-x,-y,z
x,-y,-z
-x,y,-z
-x,-y,-z
x,y,-z
-x,y,z
x,-y,z
loop_
_atom_site_type_symbol
_atom_site_label
_atom_site_fract_x
_atom_site_fract_y
_atom_site_fract_z
Si Si1 0.815757 0.423930 0.000000
Si Si2 0.183765 0.580783 0.206479
Si Si3 0.182690 0.167314 0.391049
Si Si4 0.681287 0.286260 0.724510
Si Si5 0.683131 0.080017 0.773986
Si Si6 0.182982 0.800720 0.109476
O O1 0.768582 0.389062 0.100577
O O2 0.737436 0.500000 0.000000
O O3 0.000000 0.432912 0.000000
O O4 0.236620 0.500000 0.220316
O O5 0.271975 0.631690 0.279797
O O6 0.000000 0.587021 0.223272
O O7 0.232867 0.157789 0.500000
O O8 0.224692 0.245603 0.357385
O O9 0.276501 0.110637 0.329691
O O10 0.000000 0.154746 0.376217
O O11 0.500000 0.277637 0.703559
O O12 0.722268 0.254500 0.827549
O O13 0.500000 0.088391 0.792189
O O14 0.775544 0.121010 0.856508
O O15 0.736896 0.000000 0.778253
O O16 0.000000 0.786958 0.123667
O O17 0.232118 0.790892 0.000000
#
# Coordination Sequence:
#
# PCOD8199491 Si02
#       6
#     4   8   8   8   8   8
#     4   7  12  24  43  67  93 127 170 209 246 289
#     4   9  17  31  51  74 103 140 181 221 260 306
#     4  10  21  38  60  82 103 132 174 220 263 311
#     4  11  22  34  52  78 109 141 173 216 268 321
#     4  10  21  36  55  81 112 142 171 209 260 317
#     4  10  21  36  54  75 102 142 188 226 258 299
#
# _framework density 19.114249999999998
#
# number of rings (size 3 to 8) (size 9 to 14) (size 15 to 20)
#    0.000    2.273    0.000    6.545    1.273    5.455 
#    0.000    3.636    0.000    2.182    0.000    3.818 
#    0.000    0.000    0.000    0.000    0.000    0.000 
#
# Total GULP energy -545369.037080 kJ/mol
# GULP energy per Si atom -12394.750843 kJ/mol
# Density = 1.907075 g / cm^3
# Si number density = 19.114250 Si / 1000 Ang^3
#
#
#
# Elastic Constant Matrix: (Units=GPa)
#
#
# Indices 1 2 3 4 5 6 
#
# 1 38.6512 8.4105 9.3953 0.0000 0.0000 0.0000
# 2 8.4105 83.4930 -4.9482 0.0000 0.0000 0.0000
# 3 9.3953 -4.9482 53.0320 0.0000 0.0000 0.0000
# 4 0.0000 0.0000 0.0000 16.2692 0.0000 0.0000
# 5 0.0000 0.0000 0.0000 0.0000 14.5078 0.0000
# 6 0.0000 0.0000 0.0000 0.0000 0.0000 30.6369
#
#
#
# Elastic Compliance Matrix: (Units=1/GPa)
#
#
# Indices 1 2 3 4 5 6 
#
# 1 0.027818 -0.003111 -0.005219 0.000000 0.000000 0.000000
# 2 -0.003111 0.012392 0.001707 0.000000 0.000000 0.000000
# 3 -0.005219 0.001707 0.019940 0.000000 0.000000 0.000000
# 4 0.000000 0.000000 0.000000 0.061466 0.000000 0.000000
# 5 0.000000 0.000000 0.000000 0.000000 0.068928 0.000000
# 6 0.000000 0.000000 0.000000 0.000000 0.000000 0.032640
#
#
# Mechanical properties :
#
#
# Convention : Reuss Voigt Hill
#
# Bulk Modulus (GPa) = 21.31978 22.32126 21.82052
# Shear Modulus (GPa) = 19.83619 23.10404 21.47012
#
# Velocity S-wave (km/s) = 3.22494 3.48046 3.35513
# Velocity P-wave (km/s) = 5.00450 5.27775 5.14294
#
# Compressibility (1/GPa) = 0.04690479
#
# Stress axis : x y z
#
# Youngs Moduli (GPa) = 35.94794 80.69939 50.14948
#
# Poissons Ratio (x) = 0.25109 0.26171
# Poissons Ratio (y) = 0.11185 -0.08563
# Poissons Ratio (z) = 0.18760 -0.13779
#
# Static dielectric constant tensor:
#      x y z
#    x 3.366990 0.000000 0.000000 
#    y 0.000000 3.584300 0.000000 
#    z 0.000000 0.000000 3.437420 
# 
# 
# High freq. dielectric constant tensor:
#      x y z
#    x 1.736840 0.000000 0.000000 
#    y 0.000000 1.746500 0.000000 
#    z 0.000000 0.000000 1.722180 
# 
# From -- ./inp_files/20932.got.cif
#   From: 2010.03.12/outbox.cif.g09.slc.cpg/sg47_11_cif.got.tgz:20932.got - 2010.04.14 03:12:58.
