data_PCOD8199174
_publ_section_title
;
Structure prediction by ZEFSAII (Michael W. Deem and Ramdas Pophale) SiO2 
 PCOD8199174
Probable space group: P M M M
;
_chemical_formula_sum "Si O2"
_cell_formula_units_Z 52
_cell_length_a 9.043136
_cell_length_b 22.954729
_cell_length_c 14.161167
_cell_angle_alpha 90.000000
_cell_angle_beta 90.000000
_cell_angle_gamma 90.000000
_cell_volume 2939.613794
_symmetry_space_group_name_H-M "P M M M"
_symmetry_group_IT_number 47
_symmetry_cell_setting 'orthorhombic'
loop_
_space_group_symop_operation_xyz
x,y,z
-x,-y,z
x,-y,-z
-x,y,-z
-x,-y,-z
x,y,-z
-x,y,z
x,-y,z
loop_
_atom_site_type_symbol
_atom_site_label
_atom_site_fract_x
_atom_site_fract_y
_atom_site_fract_z
Si Si1 0.670586 0.212166 0.607291
Si Si2 0.675158 0.657001 0.602614
Si Si3 0.174452 0.500000 0.109879
Si Si4 0.829558 0.719918 0.889423
Si Si5 0.826509 0.835111 0.221072
Si Si6 0.675330 0.388867 0.200400
Si Si7 0.329741 0.933225 0.108091
O O1 0.691400 0.190862 0.500000
O O2 0.500000 0.210204 0.637516
O O3 0.735328 0.277651 0.619366
O O4 0.760965 0.168969 0.673976
O O5 0.732703 0.633267 0.500000
O O6 0.500000 0.661343 0.598817
O O7 0.724138 0.615814 0.689156
O O8 0.242408 0.556370 0.157742
O O9 0.000000 0.500000 0.125281
O O10 0.216134 0.500000 0.000000
O O11 0.776894 0.779129 0.839682
O O12 0.724032 0.668441 0.855091
O O13 0.000000 0.704685 0.865356
O O14 0.807208 0.728819 0.000000
O O15 0.770391 0.893828 0.173916
O O16 0.000000 0.839130 0.228598
O O17 0.500000 0.396795 0.189895
O O18 0.500000 0.915864 0.122022
O O19 0.303650 0.000000 0.137434
O O20 0.282006 0.923481 0.000000
#
# Coordination Sequence:
#
# PCOD8199174 Si02
#       7
#     8   8   4   8   8   8   8
#     4   9  17  32  54  78 107 143 180 217 262 319
#     4   8  15  30  53  80 108 135 165 208 263 315
#     4  11  25  43  58  71 100 146 181 209 260 327
#     4  10  21  35  49  71 108 146 173 205 260 321
#     4  11  21  32  51  80 113 144 177 218 267 324
#     4  11  21  35  58  83 103 129 175 227 262 300
#     4   9  19  36  56  77 104 142 187 230 269 314
#
# _framework density 17.689399000000002
#
# number of rings (size 3 to 8) (size 9 to 14) (size 15 to 20)
#    0.000    2.231    1.538    3.462    0.000    4.923 
#    0.000    1.154    0.000    4.615    0.000    3.231 
#    0.000    0.000    0.000    0.000    0.000    0.000 
#
# Total GULP energy -644775.078364 kJ/mol
# GULP energy per Si atom -12399.520738 kJ/mol
# Density = 1.764914 g / cm^3
# Si number density = 17.689399 Si / 1000 Ang^3
#
#
#
# Elastic Constant Matrix: (Units=GPa)
#
#
# Indices 1 2 3 4 5 6 
#
# 1 64.6646 49.0122 53.8049 0.0000 0.0000 0.0000
# 2 49.0122 99.8683 64.3284 0.0000 0.0000 0.0000
# 3 53.8049 64.3284 129.9079 0.0000 0.0000 0.0000
# 4 0.0000 0.0000 0.0000 44.0953 0.0000 0.0000
# 5 0.0000 0.0000 0.0000 0.0000 20.5117 0.0000
# 6 0.0000 0.0000 0.0000 0.0000 0.0000 44.8737
#
#
#
# Elastic Compliance Matrix: (Units=1/GPa)
#
#
# Indices 1 2 3 4 5 6 
#
# 1 0.028553 -0.009391 -0.007176 0.000000 0.000000 0.000000
# 2 -0.009391 0.017791 -0.004921 0.000000 0.000000 0.000000
# 3 -0.007176 -0.004921 0.013106 0.000000 0.000000 0.000000
# 4 0.000000 0.000000 0.000000 0.022678 0.000000 0.000000
# 5 0.000000 0.000000 0.000000 0.000000 0.048753 0.000000
# 6 0.000000 0.000000 0.000000 0.000000 0.000000 0.022285
#
#
# Mechanical properties :
#
#
# Convention : Reuss Voigt Hill
#
# Bulk Modulus (GPa) = 60.69283 69.85911 65.27597
# Shear Modulus (GPa) = 24.79763 30.38249 27.59006
#
# Velocity S-wave (km/s) = 3.74817 4.14883 3.95358
# Velocity P-wave (km/s) = 7.28811 7.90748 7.60410
#
# Compressibility (1/GPa) = 0.01647641
#
# Stress axis : x y z
#
# Youngs Moduli (GPa) = 35.02299 56.20712 76.29844
#
# Poissons Ratio (x) = 0.52782 0.54750
# Poissons Ratio (y) = 0.32889 0.37544
# Poissons Ratio (z) = 0.25132 0.27657
#
# Static dielectric constant tensor:
#      x y z
#    x 3.156080 0.000000 0.000000 
#    y 0.000000 1.950550 0.000000 
#    z 0.000000 0.000000 3.603150 
# 
# 
# High freq. dielectric constant tensor:
#      x y z
#    x 1.673730 0.000000 0.000000 
#    y 0.000000 1.667430 0.000000 
#    z 0.000000 0.000000 1.695980 
# 
# From -- ./inp_files/10991.got.cif
#   From: 2010.03.12/outbox.cif.g09.slc.cpg/sg47_6_cif.got.tgz:10991.got - 2010.04.14 03:12:58.
