data_PCOD8199398
_publ_section_title
;
Structure prediction by ZEFSAII (Michael W. Deem and Ramdas Pophale) SiO2 
 PCOD8199398
Probable space group: P M M M
;
_chemical_formula_sum "Si O2"
_cell_formula_units_Z 52
_cell_length_a 13.893294
_cell_length_b 9.155325
_cell_length_c 23.786952
_cell_angle_alpha 90.000000
_cell_angle_beta 90.000000
_cell_angle_gamma 90.000000
_cell_volume 3025.643726
_symmetry_space_group_name_H-M "P M M M"
_symmetry_group_IT_number 47
_symmetry_cell_setting 'orthorhombic'
loop_
_space_group_symop_operation_xyz
x,y,z
-x,-y,z
x,-y,-z
-x,y,-z
-x,-y,-z
x,y,-z
-x,y,z
x,-y,z
loop_
_atom_site_type_symbol
_atom_site_label
_atom_site_fract_x
_atom_site_fract_y
_atom_site_fract_z
Si Si1 0.385115 0.332748 0.000000
Si Si2 0.111692 0.670611 0.170608
Si Si3 0.114142 0.163401 0.938471
Si Si4 0.722887 0.171829 0.778596
Si Si5 0.607494 0.326860 0.440580
Si Si6 0.385330 0.331712 0.318978
Si Si7 0.610103 0.829429 0.109650
O O1 0.344197 0.254179 0.056044
O O2 0.351523 0.500000 0.000000
O O3 0.500000 0.316870 0.000000
O O4 0.131410 0.500000 0.173572
O O5 0.149180 0.727529 0.109932
O O6 0.172458 0.751600 0.219010
O O7 0.000000 0.708578 0.180389
O O8 0.000000 0.160035 0.940166
O O9 0.153063 0.000000 0.924754
O O10 0.152339 0.215143 0.000000
O O11 0.664905 0.227103 0.725152
O O12 0.665294 0.217525 0.834335
O O13 0.736915 0.000000 0.773293
O O14 0.659927 0.277845 0.500000
O O15 0.500000 0.262405 0.442526
O O16 0.601443 0.500000 0.438728
O O17 0.654515 0.279552 0.380949
O O18 0.500000 0.311561 0.315924
O O19 0.357692 0.500000 0.306752
O O20 0.500000 0.782451 0.118907
O O21 0.619324 0.000000 0.097261
#
# Coordination Sequence:
#
# PCOD8199398 Si02
#       7
#     4   8   8   8   8   8   8
#     4   9  17  29  47  69  88 109 142 187 235 274
#     4  10  21  36  52  69  90 116 149 194 245 291
#     4   8  14  27  48  70  89 110 137 171 218 281
#     4  11  22  34  49  69  93 125 161 195 234 285
#     4   7  10  19  38  65  96 130 166 197 225 262
#     4   9  17  29  47  72 102 134 165 200 237 269
#     4   9  18  33  50  66  87 117 151 185 223 271
#
# _framework density 17.186425
#
# number of rings (size 3 to 8) (size 9 to 14) (size 15 to 20)
#    0.000    3.000    0.000    3.462    0.000    4.308 
#    1.385    3.077    0.000    0.462    0.000    2.154 
#    0.000    0.615    0.000    7.077    0.000    2.308 
#
# Total GULP energy -644319.940531 kJ/mol
# GULP energy per Si atom -12390.768087 kJ/mol
# Density = 1.714731 g / cm^3
# Si number density = 17.186425 Si / 1000 Ang^3
#
#
#
# Elastic Constant Matrix: (Units=GPa)
#
#
# Indices 1 2 3 4 5 6 
#
# 1 43.6677 27.2493 41.5436 0.0000 0.0000 0.0000
# 2 27.2493 70.8704 58.5411 0.0000 0.0000 0.0000
# 3 41.5436 58.5411 147.3824 0.0000 0.0000 0.0000
# 4 0.0000 0.0000 0.0000 15.5004 0.0000 0.0000
# 5 0.0000 0.0000 0.0000 0.0000 10.1642 0.0000
# 6 0.0000 0.0000 0.0000 0.0000 0.0000 17.2852
#
#
#
# Elastic Compliance Matrix: (Units=1/GPa)
#
#
# Indices 1 2 3 4 5 6 
#
# 1 0.033862 -0.007643 -0.006509 0.000000 0.000000 0.000000
# 2 -0.007643 0.022726 -0.006872 0.000000 0.000000 0.000000
# 3 -0.006509 -0.006872 0.011350 0.000000 0.000000 0.000000
# 4 0.000000 0.000000 0.000000 0.064515 0.000000 0.000000
# 5 0.000000 0.000000 0.000000 0.000000 0.098384 0.000000
# 6 0.000000 0.000000 0.000000 0.000000 0.000000 0.057853
#
#
# Mechanical properties :
#
#
# Convention : Reuss Voigt Hill
#
# Bulk Modulus (GPa) = 38.62745 57.39871 48.01308
# Shear Modulus (GPa) = 14.73328 17.56240 16.14784
#
# Velocity S-wave (km/s) = 2.93108 3.20015 3.06857
# Velocity P-wave (km/s) = 5.82918 6.86475 6.36805
#
# Compressibility (1/GPa) = 0.02588833
#
# Stress axis : x y z
#
# Youngs Moduli (GPa) = 29.53161 44.00279 88.10913
#
# Poissons Ratio (x) = 0.33632 0.57350
# Poissons Ratio (y) = 0.22571 0.60552
# Poissons Ratio (z) = 0.19222 0.30240
#
# Static dielectric constant tensor:
#      x y z
#    x 2.993670 0.000000 0.000000 
#    y 0.000000 3.040350 0.000000 
#    z 0.000000 0.000000 3.590170 
# 
# 
# High freq. dielectric constant tensor:
#      x y z
#    x 1.633390 0.000000 0.000000 
#    y 0.000000 1.648480 0.000000 
#    z 0.000000 0.000000 1.660110 
# 
# From -- ./inp_files/32631.got.cif
#   From: 2010.03.12/outbox.cif.g09.slc.cpg/sg47_17_cif.got.tgz:32631.got - 2010.04.14 03:12:58.
