data_PCOD8199705
_publ_section_title
;
Structure prediction by ZEFSAII (Michael W. Deem and Ramdas Pophale) SiO2 
 PCOD8199705
Probable space group: P M M M
;
_chemical_formula_sum "Si O2"
_cell_formula_units_Z 56
_cell_length_a 9.155717
_cell_length_b 21.207010
_cell_length_c 15.432073
_cell_angle_alpha 90.000000
_cell_angle_beta 90.000000
_cell_angle_gamma 90.000000
_cell_volume 2996.374349
_symmetry_space_group_name_H-M "P M M M"
_symmetry_group_IT_number 47
_symmetry_cell_setting 'orthorhombic'
loop_
_space_group_symop_operation_xyz
x,y,z
-x,-y,z
x,-y,-z
-x,y,-z
-x,-y,-z
x,y,-z
-x,y,z
x,-y,z
loop_
_atom_site_type_symbol
_atom_site_label
_atom_site_fract_x
_atom_site_fract_y
_atom_site_fract_z
Si Si1 0.326250 0.927825 0.500000
Si Si2 0.173333 0.740992 0.246439
Si Si3 0.672678 0.500000 0.101542
Si Si4 0.326628 0.608347 0.763171
Si Si5 0.836297 0.171093 0.094730
Si Si6 0.160944 0.573150 0.404854
Si Si7 0.330082 0.845974 0.661121
Si Si8 0.668450 0.069716 0.173100
O O1 0.500000 0.933010 0.500000
O O2 0.270622 0.886976 0.581134
O O3 0.263151 0.000000 0.500000
O O4 0.244109 0.673889 0.228918
O O5 0.224204 0.777595 0.160764
O O6 0.240984 0.780025 0.327963
O O7 0.000000 0.734637 0.258640
O O8 0.500000 0.500000 0.096262
O O9 0.723248 0.561514 0.157816
O O10 0.732917 0.500000 0.000000
O O11 0.500000 0.617548 0.765703
O O12 0.282477 0.583611 0.668305
O O13 0.745440 0.106362 0.094936
O O14 0.000000 0.152940 0.120886
O O15 0.826308 0.201759 0.000000
O O16 0.208770 0.600975 0.500000
O O17 0.140850 0.500000 0.416219
O O18 0.000000 0.601738 0.379166
O O19 0.500000 0.828338 0.650447
O O20 0.299975 0.891792 0.740571
O O21 0.500000 0.065456 0.150745
O O22 0.735219 0.000000 0.183252
#
# Coordination Sequence:
#
# PCOD8199705 Si02
#       8
#     4   8   4   8   8   8   8   8
#     4   9  16  28  53  85 111 138 177 228 279 321
#     4  10  21  37  55  74 102 142 181 222 273 324
#     4   9  20  38  58  85 120 150 179 225 284 341
#     4  11  21  36  59  85 112 146 186 229 277 330
#     4   9  19  35  52  70  95 129 171 217 261 311
#     4   9  18  34  57  84 114 146 177 214 265 320
#     4   9  17  32  52  75 103 136 177 220 264 319
#     4   9  17  29  47  72 101 130 161 204 259 318
#
# _framework density 18.689253999999998
#
# number of rings (size 3 to 8) (size 9 to 14) (size 15 to 20)
#    0.000    2.571    0.714    1.714    0.000    4.000 
#    1.286    2.500    0.000    4.714    0.000    0.000 
#    0.000    0.000    0.000    0.000    0.000    0.000 
#
# Total GULP energy -693777.263081 kJ/mol
# GULP energy per Si atom -12388.879698 kJ/mol
# Density = 1.864672 g / cm^3
# Si number density = 18.689254 Si / 1000 Ang^3
#
#
#
# Elastic Constant Matrix: (Units=GPa)
#
#
# Indices 1 2 3 4 5 6 
#
# 1 55.9285 48.7041 38.6569 0.0000 0.0000 0.0000
# 2 48.7041 142.7184 55.3474 0.0000 0.0000 0.0000
# 3 38.6569 55.3474 113.2441 0.0000 0.0000 0.0000
# 4 0.0000 0.0000 0.0000 23.7846 0.0000 0.0000
# 5 0.0000 0.0000 0.0000 0.0000 23.0607 0.0000
# 6 0.0000 0.0000 0.0000 0.0000 0.0000 23.0677
#
#
#
# Elastic Compliance Matrix: (Units=1/GPa)
#
#
# Indices 1 2 3 4 5 6 
#
# 1 0.028531 -0.007353 -0.006145 0.000000 0.000000 0.000000
# 2 -0.007353 0.010541 -0.002642 0.000000 0.000000 0.000000
# 3 -0.006145 -0.002642 0.012219 0.000000 0.000000 0.000000
# 4 0.000000 0.000000 0.000000 0.042044 0.000000 0.000000
# 5 0.000000 0.000000 0.000000 0.000000 0.043364 0.000000
# 6 0.000000 0.000000 0.000000 0.000000 0.000000 0.043351
#
#
# Mechanical properties :
#
#
# Convention : Reuss Voigt Hill
#
# Bulk Modulus (GPa) = 52.60271 66.36753 59.48512
# Shear Modulus (GPa) = 22.86583 25.26143 24.06363
#
# Velocity S-wave (km/s) = 3.50162 3.68047 3.59216
# Velocity P-wave (km/s) = 6.67499 7.32457 7.00731
#
# Compressibility (1/GPa) = 0.01901043
#
# Stress axis : x y z
#
# Youngs Moduli (GPa) = 35.04957 94.87125 81.83745
#
# Poissons Ratio (x) = 0.69761 0.50293
# Poissons Ratio (y) = 0.25773 0.21618
# Poissons Ratio (z) = 0.21540 0.25061
#
# Static dielectric constant tensor:
#      x y z
#    x 3.352770 0.000000 0.000000 
#    y 0.000000 3.614480 0.000000 
#    z 0.000000 0.000000 3.793500 
# 
# 
# High freq. dielectric constant tensor:
#      x y z
#    x 1.707060 0.000000 0.000000 
#    y 0.000000 1.725050 0.000000 
#    z 0.000000 0.000000 1.727930 
# 
# From -- ./inp_files/21622.got.cif
#   From: 2010.03.12/outbox.cif.g09.slc.cpg/sg47_11_cif.got.tgz:21622.got - 2010.04.14 03:12:58.
