data_PCOD8199239
_publ_section_title
;
Structure prediction by ZEFSAII (Michael W. Deem and Ramdas Pophale) SiO2 
 PCOD8199239
Probable space group: P M M M
;
_chemical_formula_sum "Si O2"
_cell_formula_units_Z 52
_cell_length_a 20.164292
_cell_length_b 9.490100
_cell_length_c 14.070767
_cell_angle_alpha 90.000000
_cell_angle_beta 90.000000
_cell_angle_gamma 90.000000
_cell_volume 2692.598119
_symmetry_space_group_name_H-M "P M M M"
_symmetry_group_IT_number 47
_symmetry_cell_setting 'orthorhombic'
loop_
_space_group_symop_operation_xyz
x,y,z
-x,-y,z
x,-y,-z
-x,y,-z
-x,-y,-z
x,y,-z
-x,y,z
x,-y,z
loop_
_atom_site_type_symbol
_atom_site_label
_atom_site_fract_x
_atom_site_fract_y
_atom_site_fract_z
Si Si1 0.577451 0.500000 0.894627
Si Si2 0.231093 0.336432 0.608802
Si Si3 0.575563 0.782712 0.795930
Si Si4 0.701619 0.846401 0.896845
Si Si5 0.821324 0.831228 0.227259
Si Si6 0.362946 0.838614 0.606025
Si Si7 0.077319 0.340345 0.109920
O O1 0.500000 0.500000 0.910179
O O2 0.599262 0.630005 0.830657
O O3 0.610963 0.500000 0.000000
O O4 0.207851 0.323014 0.500000
O O5 0.234353 0.500000 0.639986
O O6 0.178695 0.248083 0.671265
O O7 0.302790 0.266697 0.623188
O O8 0.500000 0.819551 0.826804
O O9 0.629773 0.876719 0.849079
O O10 0.580046 0.800216 0.682102
O O11 0.754696 0.774037 0.826665
O O12 0.731818 0.000000 0.916004
O O13 0.695538 0.768052 0.000000
O O14 0.884877 0.777605 0.170141
O O15 0.824261 0.000000 0.241456
O O16 0.392745 0.818934 0.500000
O O17 0.338608 0.000000 0.620676
O O18 0.097778 0.500000 0.139182
O O19 0.000000 0.317626 0.128928
O O20 0.094538 0.315403 0.000000
#
# Coordination Sequence:
#
# PCOD8199239 Si02
#       7
#     4   8   8   8   8   8   8
#     4   9  20  38  55  73 101 139 183 231 287 350
#     4  10  21  37  59  85 112 147 193 241 290 350
#     4  11  22  36  55  76 103 145 194 242 293 352
#     4  10  21  35  50  74 108 142 182 235 287 336
#     4  11  21  35  58  86 119 156 192 238 292 344
#     4  10  21  37  56  80 112 146 184 239 304 361
#     4   9  19  37  60  88 125 165 201 236 276 330
#
# _framework density 19.312203
#
# number of rings (size 3 to 8) (size 9 to 14) (size 15 to 20)
#    0.000    1.923    1.538    2.769    1.077    4.615 
#    1.385    2.308    0.000    1.846    0.000    3.231 
#    0.000    0.000    0.000    0.000    0.000    0.000 
#
# Total GULP energy -644375.797357 kJ/mol
# GULP energy per Si atom -12391.842257 kJ/mol
# Density = 1.926825 g / cm^3
# Si number density = 19.312203 Si / 1000 Ang^3
#
#
#
# Elastic Constant Matrix: (Units=GPa)
#
#
# Indices 1 2 3 4 5 6 
#
# 1 74.2559 34.5633 40.1695 0.0000 0.0000 0.0000
# 2 34.5633 123.6679 55.9976 0.0000 0.0000 0.0000
# 3 40.1695 55.9976 126.1256 0.0000 0.0000 0.0000
# 4 0.0000 0.0000 0.0000 35.1003 0.0000 0.0000
# 5 0.0000 0.0000 0.0000 0.0000 30.4408 0.0000
# 6 0.0000 0.0000 0.0000 0.0000 0.0000 -25.4945
#
#
#
# Elastic Compliance Matrix: (Units=1/GPa)
#
#
# Indices 1 2 3 4 5 6 
#
# 1 0.017056 -0.002888 -0.004150 0.000000 0.000000 0.000000
# 2 -0.002888 0.010610 -0.003791 0.000000 0.000000 0.000000
# 3 -0.004150 -0.003791 0.010933 0.000000 0.000000 0.000000
# 4 0.000000 0.000000 0.000000 0.028490 0.000000 0.000000
# 5 0.000000 0.000000 0.000000 0.000000 0.032851 0.000000
# 6 0.000000 0.000000 0.000000 0.000000 0.000000 -0.039224
#
#
# Mechanical properties :
#
#
# Convention : Reuss Voigt Hill
#
# Bulk Modulus (GPa) = 59.02492 65.05668 62.04080
# Shear Modulus (GPa) = 56.80515 20.89726 38.85120
#
# Velocity S-wave (km/s) = 5.42936 3.29306 4.49011
# Velocity P-wave (km/s) = 8.36265 6.94399 7.68612
#
# Compressibility (1/GPa) = 0.01694200
#
# Stress axis : x y z
#
# Youngs Moduli (GPa) = 58.63000 94.25276 91.46277
#
# Poissons Ratio (x) = 0.27218 0.37958
# Poissons Ratio (y) = 0.16931 0.34672
# Poissons Ratio (z) = 0.24332 0.35730
#
# Static dielectric constant tensor:
#      x y z
#    x 3.159690 0.000000 0.000000 
#    y 0.000000 -5.739860 0.000000 
#    z 0.000000 0.000000 3.795570 
# 
# 
# High freq. dielectric constant tensor:
#      x y z
#    x 1.717890 0.000000 0.000000 
#    y 0.000000 1.754630 0.000000 
#    z 0.000000 0.000000 1.762110 
# 
# From -- ./inp_files/24999.got.cif
#   From: 2010.03.12/outbox.cif.g09.slc.cpg/sg47_13_cif.got.tgz:24999.got - 2010.04.14 03:12:58.
