data_PCOD8199105
_publ_section_title
;
Structure prediction by ZEFSAII (Michael W. Deem and Ramdas Pophale) SiO2 
 PCOD8199105
Probable space group: P M M M
;
_chemical_formula_sum "Si O2"
_cell_formula_units_Z 48
_cell_length_a 7.762806
_cell_length_b 9.392537
_cell_length_c 33.879730
_cell_angle_alpha 90.000000
_cell_angle_beta 90.000000
_cell_angle_gamma 90.000000
_cell_volume 2470.253868
_symmetry_space_group_name_H-M "P M M M"
_symmetry_group_IT_number 47
_symmetry_cell_setting 'orthorhombic'
loop_
_space_group_symop_operation_xyz
x,y,z
-x,-y,z
x,-y,-z
-x,y,-z
-x,-y,-z
x,y,-z
-x,y,z
x,-y,z
loop_
_atom_site_type_symbol
_atom_site_label
_atom_site_fract_x
_atom_site_fract_y
_atom_site_fract_z
Si Si1 0.000000 0.171212 0.087951
Si Si2 0.301886 0.335603 0.771778
Si Si3 0.696991 0.662810 0.046497
Si Si4 0.195910 0.844143 0.383857
Si Si5 0.000000 0.334755 0.168369
Si Si6 0.697737 0.157725 0.301133
Si Si7 0.702175 0.339037 0.543743
O O1 0.827411 0.228974 0.067178
O O2 0.000000 0.226525 0.132371
O O3 0.000000 0.000000 0.086626
O O4 0.500000 0.293084 0.782858
O O5 0.292938 0.500000 0.760456
O O6 0.224382 0.254579 0.733501
O O7 0.174815 0.300568 0.807762
O O8 0.500000 0.700165 0.058643
O O9 0.739124 0.500000 0.059113
O O10 0.720515 0.679545 0.000000
O O11 0.281675 0.773171 0.344935
O O12 0.208016 0.752349 0.423041
O O13 0.000000 0.861780 0.372530
O O14 0.279832 0.000000 0.391893
O O15 0.000000 0.500000 0.154693
O O16 0.500000 0.144295 0.290851
O O17 0.784006 0.000000 0.300887
O O18 0.751214 0.281409 0.500000
O O19 0.500000 0.331291 0.550138
O O20 0.768079 0.500000 0.547931
#
# Coordination Sequence:
#
# PCOD8199105 Si02
#       7
#     4   8   8   8   4   8   8
#     4  12  25  37  54  87 126 162 198 245 305 360
#     4   9  19  36  57  80 104 134 178 231 282 331
#     4   9  19  38  64  90 117 157 208 255 299 352
#     4  10  21  34  49  75 107 136 166 202 247 305
#     4  10  22  39  57  78 108 149 195 239 282 338
#     4   9  18  33  53  76 102 132 165 205 256 314
#     4   9  19  36  55  73  95 127 168 211 253 299
#
# _framework density 19.431201000000001
#
# number of rings (size 3 to 8) (size 9 to 14) (size 15 to 20)
#    0.000    2.500    0.000    2.500    1.167    5.667 
#    0.000    6.667    0.000    0.000    0.000    0.000 
#    0.000    0.000    0.000    0.000    0.000    0.000 
#
# Total GULP energy -594902.588507 kJ/mol
# GULP energy per Si atom -12393.803927 kJ/mol
# Density = 1.938697 g / cm^3
# Si number density = 19.431201 Si / 1000 Ang^3
#
#
#
# Elastic Constant Matrix: (Units=GPa)
#
#
# Indices 1 2 3 4 5 6 
#
# 1 91.5745 50.3314 54.7902 0.0000 0.0000 0.0000
# 2 50.3314 98.7006 70.4623 0.0000 0.0000 0.0000
# 3 54.7902 70.4623 124.7100 0.0000 0.0000 0.0000
# 4 0.0000 0.0000 0.0000 10.6769 0.0000 0.0000
# 5 0.0000 0.0000 0.0000 0.0000 6.0177 0.0000
# 6 0.0000 0.0000 0.0000 0.0000 0.0000 21.2425
#
#
#
# Elastic Compliance Matrix: (Units=1/GPa)
#
#
# Indices 1 2 3 4 5 6 
#
# 1 0.016359 -0.005382 -0.004146 0.000000 0.000000 0.000000
# 2 -0.005382 0.018752 -0.008230 0.000000 0.000000 0.000000
# 3 -0.004146 -0.008230 0.014490 0.000000 0.000000 0.000000
# 4 0.000000 0.000000 0.000000 0.093660 0.000000 0.000000
# 5 0.000000 0.000000 0.000000 0.000000 0.166176 0.000000
# 6 0.000000 0.000000 0.000000 0.000000 0.000000 0.047075
#
#
# Mechanical properties :
#
#
# Convention : Reuss Voigt Hill
#
# Bulk Modulus (GPa) = 71.00341 74.01700 72.51020
# Shear Modulus (GPa) = 12.60321 16.88085 14.74203
#
# Velocity S-wave (km/s) = 2.54954 2.95065 2.75740
# Velocity P-wave (km/s) = 6.72957 7.05571 6.89457
#
# Compressibility (1/GPa) = 0.01408383
#
# Stress axis : x y z
#
# Youngs Moduli (GPa) = 61.12876 53.32800 69.01086
#
# Poissons Ratio (x) = 0.28702 0.28613
# Poissons Ratio (y) = 0.32900 0.56799
# Poissons Ratio (z) = 0.25345 0.43891
#
# Static dielectric constant tensor:
#      x y z
#    x 3.616040 0.000000 0.000000 
#    y 0.000000 3.701100 0.000000 
#    z 0.000000 0.000000 3.559500 
# 
# 
# High freq. dielectric constant tensor:
#      x y z
#    x 1.761320 0.000000 0.000000 
#    y 0.000000 1.739980 0.000000 
#    z 0.000000 0.000000 1.757910 
# 
# From -- ./inp_files/34050.got.cif
#   From: 2010.03.12/outbox.cif.g09.slc.cpg/sg47_18_cif.got.tgz:34050.got - 2010.04.14 03:12:58.
