data_PCOD8199608
_publ_section_title
;
Structure prediction by ZEFSAII (Michael W. Deem and Ramdas Pophale) SiO2 
 PCOD8199608
Probable space group: P M M M
;
_chemical_formula_sum "Si O2"
_cell_formula_units_Z 64
_cell_length_a 9.081531
_cell_length_b 18.406996
_cell_length_c 20.028901
_cell_angle_alpha 90.000000
_cell_angle_beta 90.000000
_cell_angle_gamma 90.000000
_cell_volume 3348.105294
_symmetry_space_group_name_H-M "P M M M"
_symmetry_group_IT_number 47
_symmetry_cell_setting 'orthorhombic'
loop_
_space_group_symop_operation_xyz
x,y,z
-x,-y,z
x,-y,-z
-x,y,-z
-x,-y,-z
x,y,-z
-x,y,z
x,-y,z
loop_
_atom_site_type_symbol
_atom_site_label
_atom_site_fract_x
_atom_site_fract_y
_atom_site_fract_z
Si Si1 0.830509 0.083782 0.577124
Si Si2 0.327449 0.833704 0.690883
Si Si3 0.829842 0.915690 0.810073
Si Si4 0.671895 0.163668 0.922778
Si Si5 0.328168 0.665020 0.689253
Si Si6 0.169994 0.689304 0.924089
Si Si7 0.169178 0.583052 0.577096
Si Si8 0.172525 0.582412 0.808345
O O1 0.801740 0.102606 0.500000
O O2 0.725528 0.134509 0.620460
O O3 0.000000 0.098962 0.596074
O O4 0.792163 0.000000 0.591595
O O5 0.500000 0.848133 0.698620
O O6 0.243673 0.871351 0.751050
O O7 0.288023 0.749281 0.693877
O O8 0.752347 0.898014 0.880213
O O9 0.000000 0.893828 0.815005
O O10 0.809343 0.000000 0.794250
O O11 0.500000 0.162047 0.906655
O O12 0.732176 0.242456 0.901841
O O13 0.705567 0.147231 0.000000
O O14 0.500000 0.651078 0.695014
O O15 0.273442 0.635834 0.618348
O O16 0.250753 0.622412 0.748265
O O17 0.212057 0.621378 0.877954
O O18 0.000000 0.711805 0.915561
O O19 0.204993 0.666242 0.000000
O O20 0.209750 0.593635 0.500000
O O21 0.196738 0.500000 0.599091
O O22 0.000000 0.604052 0.590302
O O23 0.229652 0.500000 0.813618
O O24 0.000000 0.584838 0.793815
#
# Coordination Sequence:
#
# PCOD8199608 Si02
#       8
#     8   8   8   8   8   8   8   8
#     4   9  19  37  60  85 113 145 182 224 270 323
#     4  11  24  39  56  81 113 147 184 228 275 325
#     4  11  24  40  59  83 110 142 183 230 276 325
#     4  10  21  37  58  84 114 147 182 222 269 323
#     4  11  24  38  53  78 111 145 182 224 269 320
#     4   9  18  34  57  83 111 145 183 223 270 323
#     4   9  19  37  60  84 109 139 178 223 270 322
#     4  10  21  36  55  80 109 142 182 228 275 323
#
# _framework density 19.115289000000001
#
# number of rings (size 3 to 8) (size 9 to 14) (size 15 to 20)
#    0.000    2.000    0.000    3.750    0.000   11.500 
#    0.000    6.250    0.000    0.000    0.000    2.625 
#    0.000    0.000    0.000    0.000    0.000    0.000 
#
# Total GULP energy -793899.108448 kJ/mol
# GULP energy per Si atom -12404.673570 kJ/mol
# Density = 1.907178 g / cm^3
# Si number density = 19.115289 Si / 1000 Ang^3
#
#
#
# Elastic Constant Matrix: (Units=GPa)
#
#
# Indices 1 2 3 4 5 6 
#
# 1 76.0379 57.4789 48.7277 0.0000 0.0000 0.0000
# 2 57.4789 102.9237 58.6048 0.0000 0.0000 0.0000
# 3 48.7277 58.6048 102.9035 0.0000 0.0000 0.0000
# 4 0.0000 0.0000 0.0000 30.0091 0.0000 0.0000
# 5 0.0000 0.0000 0.0000 0.0000 26.8015 0.0000
# 6 0.0000 0.0000 0.0000 0.0000 0.0000 24.3616
#
#
#
# Elastic Compliance Matrix: (Units=1/GPa)
#
#
# Indices 1 2 3 4 5 6 
#
# 1 0.024840 -0.010618 -0.005716 0.000000 0.000000 0.000000
# 2 -0.010618 0.018917 -0.005746 0.000000 0.000000 0.000000
# 3 -0.005716 -0.005746 0.015697 0.000000 0.000000 0.000000
# 4 0.000000 0.000000 0.000000 0.033323 0.000000 0.000000
# 5 0.000000 0.000000 0.000000 0.000000 0.037311 0.000000
# 6 0.000000 0.000000 0.000000 0.000000 0.000000 0.041048
#
#
# Mechanical properties :
#
#
# Convention : Reuss Voigt Hill
#
# Bulk Modulus (GPa) = 65.37754 67.94308 66.66031
# Shear Modulus (GPa) = 22.68663 24.03803 23.36233
#
# Velocity S-wave (km/s) = 3.44878 3.55001 3.49976
# Velocity P-wave (km/s) = 7.08059 7.24047 7.16098
#
# Compressibility (1/GPa) = 0.01529577
#
# Stress axis : x y z
#
# Youngs Moduli (GPa) = 40.25694 52.86180 63.70816
#
# Poissons Ratio (x) = 0.56128 0.36413
# Poissons Ratio (y) = 0.42745 0.36605
# Poissons Ratio (z) = 0.23009 0.30373
#
# Static dielectric constant tensor:
#      x y z
#    x 3.521410 0.000000 0.000000 
#    y 0.000000 3.553740 0.000000 
#    z 0.000000 0.000000 3.630820 
# 
# 
# High freq. dielectric constant tensor:
#      x y z
#    x 1.744520 0.000000 0.000000 
#    y 0.000000 1.744850 0.000000 
#    z 0.000000 0.000000 1.757080 
# 
# From -- ./inp_files/29981.got.cif
#   From: 2010.03.12/outbox.cif.g09.slc.cpg/sg47_15_cif.got.tgz:29981.got - 2010.04.14 03:12:58.
