data_PCOD8199178
_publ_section_title
;
Structure prediction by ZEFSAII (Michael W. Deem and Ramdas Pophale) SiO2 
 PCOD8199178
Probable space group: P M M M
;
_chemical_formula_sum "Si O2"
_cell_formula_units_Z 48
_cell_length_a 8.881131
_cell_length_b 16.800714
_cell_length_c 17.960688
_cell_angle_alpha 90.000000
_cell_angle_beta 90.000000
_cell_angle_gamma 90.000000
_cell_volume 2679.902437
_symmetry_space_group_name_H-M "P M M M"
_symmetry_group_IT_number 47
_symmetry_cell_setting 'orthorhombic'
loop_
_space_group_symop_operation_xyz
x,y,z
-x,-y,z
x,-y,-z
-x,y,-z
-x,-y,-z
x,y,-z
-x,y,z
x,-y,z
loop_
_atom_site_type_symbol
_atom_site_label
_atom_site_fract_x
_atom_site_fract_y
_atom_site_fract_z
Si Si1 0.832490 0.905358 0.000000
Si Si2 0.176956 0.500000 0.882597
Si Si3 0.822017 0.348826 0.342860
Si Si4 0.324933 0.755863 0.774010
Si Si5 0.821894 0.591094 0.500000
Si Si6 0.326117 0.656388 0.081190
Si Si7 0.324620 0.088813 0.851530
Si Si8 0.675504 0.500000 0.270675
O O1 0.750960 0.875762 0.074423
O O2 0.000000 0.870161 0.000000
O O3 0.831373 0.000000 0.000000
O O4 0.217946 0.420228 0.926949
O O5 0.295337 0.500000 0.815764
O O6 0.000000 0.500000 0.860831
O O7 0.761911 0.270341 0.300880
O O8 0.768660 0.357149 0.428753
O O9 0.754790 0.423118 0.301435
O O10 0.000000 0.349899 0.336916
O O11 0.500000 0.739585 0.760291
O O12 0.271624 0.710629 0.849363
O O13 0.290348 0.849950 0.784437
O O14 0.754771 0.500000 0.500000
O O15 0.000000 0.582074 0.500000
O O16 0.500000 0.631411 0.094041
O O17 0.310907 0.700420 0.000000
O O18 0.500000 0.086409 0.869297
O O19 0.265776 0.000000 0.830058
O O20 0.500000 0.500000 0.290009
#
# Coordination Sequence:
#
# PCOD8199178 Si02
#       8
#     4   4   8   8   4   8   8   4
#     4   9  17  29  47  73 103 132 167 220 275 315
#     4  12  23  35  51  70  93 132 182 227 260 294
#     4  11  21  36  57  80 106 138 173 208 253 311
#     4  10  21  35  53  76 105 137 173 219 264 309
#     4   9  18  34  56  82 111 140 169 203 252 314
#     4  10  21  35  50  68  96 136 175 214 264 311
#     4   9  18  33  53  75 101 139 181 217 264 328
#     4  12  22  34  52  74 104 137 171 210 255 305
#
# _framework density 17.911099
#
# number of rings (size 3 to 8) (size 9 to 14) (size 15 to 20)
#    0.000    1.833    2.500    2.500    1.167    3.000 
#    0.000    2.083    0.000    0.000    0.000    0.583 
#    0.000    4.667    0.000    0.000    0.000    0.000 
#
# Total GULP energy -594862.006078 kJ/mol
# GULP energy per Si atom -12392.958460 kJ/mol
# Density = 1.787033 g / cm^3
# Si number density = 17.911099 Si / 1000 Ang^3
#
#
#
# Elastic Constant Matrix: (Units=GPa)
#
#
# Indices 1 2 3 4 5 6 
#
# 1 49.9614 33.4553 32.4098 0.0000 0.0000 0.0000
# 2 33.4553 88.4203 52.3486 0.0000 0.0000 0.0000
# 3 32.4098 52.3486 132.5116 0.0000 0.0000 0.0000
# 4 0.0000 0.0000 0.0000 26.8996 0.0000 0.0000
# 5 0.0000 0.0000 0.0000 0.0000 20.9200 0.0000
# 6 0.0000 0.0000 0.0000 0.0000 0.0000 16.6579
#
#
#
# Elastic Compliance Matrix: (Units=1/GPa)
#
#
# Indices 1 2 3 4 5 6 
#
# 1 0.027981 -0.008531 -0.003474 0.000000 0.000000 0.000000
# 2 -0.008531 0.017363 -0.004773 0.000000 0.000000 0.000000
# 3 -0.003474 -0.004773 0.010282 0.000000 0.000000 0.000000
# 4 0.000000 0.000000 0.000000 0.037175 0.000000 0.000000
# 5 0.000000 0.000000 0.000000 0.000000 0.047801 0.000000
# 6 0.000000 0.000000 0.000000 0.000000 0.000000 0.060032
#
#
# Mechanical properties :
#
#
# Convention : Reuss Voigt Hill
#
# Bulk Modulus (GPa) = 45.30708 56.36897 50.83803
# Shear Modulus (GPa) = 20.70007 23.07413 21.88710
#
# Velocity S-wave (km/s) = 3.40326 3.59313 3.49948
# Velocity P-wave (km/s) = 6.38697 6.98240 6.69131
#
# Compressibility (1/GPa) = 0.02207160
#
# Stress axis : x y z
#
# Youngs Moduli (GPa) = 35.73851 57.59372 97.26109
#
# Poissons Ratio (x) = 0.49130 0.33785
# Poissons Ratio (y) = 0.30487 0.46421
# Poissons Ratio (z) = 0.12414 0.27489
#
# Static dielectric constant tensor:
#      x y z
#    x 3.238330 0.000000 0.000000 
#    y 0.000000 3.324030 0.000000 
#    z 0.000000 0.000000 3.492810 
# 
# 
# High freq. dielectric constant tensor:
#      x y z
#    x 1.686080 0.000000 0.000000 
#    y 0.000000 1.677090 0.000000 
#    z 0.000000 0.000000 1.678460 
# 
# From -- ./inp_files/26595.got.cif
#   From: 2010.03.12/outbox.cif.g09.slc.cpg/sg47_14_cif.got.tgz:26595.got - 2010.04.14 03:12:58.
