data_PCOD8199346
_publ_section_title
;
Structure prediction by ZEFSAII (Michael W. Deem and Ramdas Pophale) SiO2 
 PCOD8199346
Probable space group: P M M M
;
_chemical_formula_sum "Si O2"
_cell_formula_units_Z 36
_cell_length_a 14.507104
_cell_length_b 7.896814
_cell_length_c 14.592446
_cell_angle_alpha 90.000000
_cell_angle_beta 90.000000
_cell_angle_gamma 90.000000
_cell_volume 1671.709183
_symmetry_space_group_name_H-M "P M M M"
_symmetry_group_IT_number 47
_symmetry_cell_setting 'orthorhombic'
loop_
_space_group_symop_operation_xyz
x,y,z
-x,-y,z
x,-y,-z
-x,y,-z
-x,-y,-z
x,y,-z
-x,y,z
x,-y,z
loop_
_atom_site_type_symbol
_atom_site_label
_atom_site_fract_x
_atom_site_fract_y
_atom_site_fract_z
Si Si1 0.900857 0.307911 0.391391
Si Si2 0.232996 0.696656 0.107627
Si Si3 0.399434 0.306424 0.228901
Si Si4 0.897211 0.000000 0.891454
Si Si5 0.292915 0.807179 0.603275
O O1 0.903689 0.297578 0.500000
O O2 0.888496 0.500000 0.357973
O O3 0.811743 0.205083 0.356331
O O4 0.000000 0.236520 0.354199
O O5 0.208973 0.500000 0.134423
O O6 0.325005 0.767074 0.157599
O O7 0.152553 0.825154 0.140098
O O8 0.250980 0.710895 0.000000
O O9 0.500000 0.216070 0.219254
O O10 0.412857 0.500000 0.204114
O O11 0.363415 0.292764 0.332968
O O12 0.000000 0.000000 0.849332
O O13 0.901864 0.000000 0.000000
O O14 0.298037 0.731456 0.500000
O O15 0.323934 0.000000 0.603490
#
# Coordination Sequence:
#
# PCOD8199346 Si02
#       5
#     8   8   8   4   8
#     4   8  14  27  49  74  99 132 175 222 273 329
#     4   9  19  37  61  90 123 155 191 238 289 345
#     4  10  22  39  59  82 108 145 192 240 291 344
#     4   9  18  34  59  91 124 159 197 233 279 343
#     4  10  21  35  52  77 110 147 187 235 289 343
#
# _framework density 21.534846999999999
#
# number of rings (size 3 to 8) (size 9 to 14) (size 15 to 20)
#    0.000    2.778    0.000    1.333    1.556    3.556 
#    0.000   10.000    0.000    3.333    0.000    0.000 
#    0.000    0.000    0.000    0.000    0.000    0.000 
#
# Total GULP energy -446045.247449 kJ/mol
# GULP energy per Si atom -12390.145762 kJ/mol
# Density = 2.148583 g / cm^3
# Si number density = 21.534847 Si / 1000 Ang^3
#
#
#
# Elastic Constant Matrix: (Units=GPa)
#
#
# Indices 1 2 3 4 5 6 
#
# 1 195.5084 51.2730 50.9401 0.0000 0.0000 0.0000
# 2 51.2730 72.8956 19.2850 0.0000 0.0000 0.0000
# 3 50.9401 19.2850 53.8935 0.0000 0.0000 0.0000
# 4 0.0000 0.0000 0.0000 17.2559 0.0000 0.0000
# 5 0.0000 0.0000 0.0000 0.0000 28.1242 0.0000
# 6 0.0000 0.0000 0.0000 0.0000 0.0000 12.6329
#
#
#
# Elastic Compliance Matrix: (Units=1/GPa)
#
#
# Indices 1 2 3 4 5 6 
#
# 1 0.007644 -0.003828 -0.005856 0.000000 0.000000 0.000000
# 2 -0.003828 0.017069 -0.002490 0.000000 0.000000 0.000000
# 3 -0.005856 -0.002490 0.024981 0.000000 0.000000 0.000000
# 4 0.000000 0.000000 0.000000 0.057951 0.000000 0.000000
# 5 0.000000 0.000000 0.000000 0.000000 0.035557 0.000000
# 6 0.000000 0.000000 0.000000 0.000000 0.000000 0.079158
#
#
# Mechanical properties :
#
#
# Convention : Reuss Voigt Hill
#
# Bulk Modulus (GPa) = 39.45141 62.81041 51.13091
# Shear Modulus (GPa) = 19.59573 24.98921 22.29247
#
# Velocity S-wave (km/s) = 3.01982 3.41017 3.22091
# Velocity P-wave (km/s) = 5.52437 6.68849 6.13411
#
# Compressibility (1/GPa) = 0.02534764
#
# Stress axis : x y z
#
# Youngs Moduli (GPa) = 130.81365 58.58452 40.03029
#
# Poissons Ratio (x) = 0.22425 0.23441
# Poissons Ratio (y) = 0.50072 0.09968
# Poissons Ratio (z) = 0.76602 0.14588
#
# Static dielectric constant tensor:
#      x y z
#    x 12.272510 0.000000 0.000000 
#    y 0.000000 3.746700 0.000000 
#    z 0.000000 0.000000 3.600330 
# 
# 
# High freq. dielectric constant tensor:
#      x y z
#    x 1.850520 0.000000 0.000000 
#    y 0.000000 1.828520 0.000000 
#    z 0.000000 0.000000 1.823380 
# 
# From -- ./inp_files/23263.got.cif
#   From: 2010.03.12/outbox.cif.g09.slc.cpg/sg47_12_cif.got.tgz:23263.got - 2010.04.14 03:12:58.
