data_PCOD8199340
_publ_section_title
;
Structure prediction by ZEFSAII (Michael W. Deem and Ramdas Pophale) SiO2 
 PCOD8199340
Probable space group: P M M M
;
_chemical_formula_sum "Si O2"
_cell_formula_units_Z 64
_cell_length_a 9.164504
_cell_length_b 20.048575
_cell_length_c 17.881755
_cell_angle_alpha 90.000000
_cell_angle_beta 90.000000
_cell_angle_gamma 90.000000
_cell_volume 3285.508650
_symmetry_space_group_name_H-M "P M M M"
_symmetry_group_IT_number 47
_symmetry_cell_setting 'orthorhombic'
loop_
_space_group_symop_operation_xyz
x,y,z
-x,-y,z
x,-y,-z
-x,y,-z
-x,-y,-z
x,y,-z
-x,y,z
x,-y,z
loop_
_atom_site_type_symbol
_atom_site_label
_atom_site_fract_x
_atom_site_fract_y
_atom_site_fract_z
Si Si1 0.662984 0.746864 0.374659
Si Si2 0.667538 0.800528 0.083689
Si Si3 0.172336 0.922611 0.859403
Si Si4 0.658804 0.923824 0.715750
Si Si5 0.330670 0.699183 0.789426
Si Si6 0.168176 0.425811 0.731285
Si Si7 0.666394 0.598886 0.583097
Si Si8 0.833940 0.870848 0.584377
O O1 0.500000 0.775713 0.386712
O O2 0.695763 0.740283 0.286421
O O3 0.679443 0.678166 0.417603
O O4 0.782566 0.794750 0.410328
O O5 0.500000 0.817352 0.103919
O O6 0.757066 0.870266 0.083187
O O7 0.727673 0.744372 0.141482
O O8 0.681213 0.770853 0.000000
O O9 0.233316 0.897186 0.779524
O O10 0.000000 0.914471 0.859735
O O11 0.214198 0.000000 0.878278
O O12 0.500000 0.887012 0.718870
O O13 0.731726 0.916133 0.635343
O O14 0.630543 0.000000 0.731497
O O15 0.500000 0.681426 0.800187
O O16 0.247545 0.628226 0.784226
O O17 0.185315 0.500000 0.766734
O O18 0.231251 0.430497 0.647114
O O19 0.000000 0.404788 0.725310
O O20 0.711488 0.573109 0.500000
O O21 0.500000 0.577599 0.601018
O O22 0.818918 0.897016 0.500000
O O23 0.000000 0.876329 0.611960
#
# Coordination Sequence:
#
# PCOD8199340 Si02
#       8
#     8   8   8   8   8   8   8   8
#     4   9  17  31  51  72  96 130 174 219 259 306
#     4  10  21  37  59  88 119 148 179 217 262 314
#     4  10  21  37  58  84 114 148 184 220 260 312
#     4  10  21  37  56  74  93 125 172 221 267 317
#     4   9  19  36  57  80 106 139 179 221 265 316
#     4  10  21  35  52  77 107 140 181 227 274 324
#     4   9  18  32  50  73 102 138 178 218 263 315
#     4  11  23  34  46  69 100 133 170 216 271 325
#
# _framework density 19.479479000000001
#
# number of rings (size 3 to 8) (size 9 to 14) (size 15 to 20)
#    0.000    2.250    0.000    3.375    0.000    8.750 
#    0.000    3.750    0.000    0.375    0.000    2.625 
#    0.000    0.000    0.000    0.000    0.000    0.000 
#
# Total GULP energy -793312.767850 kJ/mol
# GULP energy per Si atom -12395.511998 kJ/mol
# Density = 1.943514 g / cm^3
# Si number density = 19.479479 Si / 1000 Ang^3
#
#
#
# Elastic Constant Matrix: (Units=GPa)
#
#
# Indices 1 2 3 4 5 6 
#
# 1 98.2682 37.3923 36.5934 0.0000 0.0000 0.0000
# 2 37.3923 78.2360 35.5584 0.0000 0.0000 0.0000
# 3 36.5934 35.5584 93.3789 0.0000 0.0000 0.0000
# 4 0.0000 0.0000 0.0000 -3.1632 0.0000 0.0000
# 5 0.0000 0.0000 0.0000 0.0000 20.7759 0.0000
# 6 0.0000 0.0000 0.0000 0.0000 0.0000 27.2342
#
#
#
# Elastic Compliance Matrix: (Units=1/GPa)
#
#
# Indices 1 2 3 4 5 6 
#
# 1 0.013259 -0.004807 -0.003365 0.000000 0.000000 0.000000
# 2 -0.004807 0.017200 -0.004666 0.000000 0.000000 0.000000
# 3 -0.003365 -0.004666 0.013805 0.000000 0.000000 0.000000
# 4 0.000000 0.000000 0.000000 -0.316139 0.000000 0.000000
# 5 0.000000 0.000000 0.000000 0.000000 0.048133 0.000000
# 6 0.000000 0.000000 0.000000 0.000000 0.000000 0.036719
#
#
# Mechanical properties :
#
#
# Convention : Reuss Voigt Hill
#
# Bulk Modulus (GPa) = 53.80243 54.33014 54.06629
# Shear Modulus (GPa) = -32.22648 19.65866 -6.28391
#
# Velocity S-wave (km/s) = -4.07182 3.18023 -1.79803
# Velocity P-wave (km/s) = 2.36087 6.43713 4.84822
#
# Compressibility (1/GPa) = 0.01858652
#
# Stress axis : x y z
#
# Youngs Moduli (GPa) = 75.42261 58.13914 72.43994
#
# Poissons Ratio (x) = 0.27950 0.24377
# Poissons Ratio (y) = 0.36258 0.33799
# Poissons Ratio (z) = 0.25381 0.27127
#
# Static dielectric constant tensor:
#      x y z
#    x 3.614570 0.000000 0.000000 
#    y 0.000000 3.480240 0.000000 
#    z 0.000000 0.000000 3.468420 
# 
# 
# High freq. dielectric constant tensor:
#      x y z
#    x 1.757550 0.000000 0.000000 
#    y 0.000000 1.754520 0.000000 
#    z 0.000000 0.000000 1.741610 
# 
# From -- ./inp_files/27030.got.cif
#   From: 2010.03.12/outbox.cif.g09.slc.cpg/sg47_14_cif.got.tgz:27030.got - 2010.04.14 03:12:58.
