data_PCOD8199101
_publ_section_title
;
Structure prediction by ZEFSAII (Michael W. Deem and Ramdas Pophale) SiO2 
 PCOD8199101
Probable space group: P M M M
;
_chemical_formula_sum "Si O2"
_cell_formula_units_Z 36
_cell_length_a 7.918351
_cell_length_b 24.842990
_cell_length_c 9.506649
_cell_angle_alpha 90.000000
_cell_angle_beta 90.000000
_cell_angle_gamma 90.000000
_cell_volume 1870.105351
_symmetry_space_group_name_H-M "P M M M"
_symmetry_group_IT_number 47
_symmetry_cell_setting 'orthorhombic'
loop_
_space_group_symop_operation_xyz
x,y,z
-x,-y,z
x,-y,-z
-x,y,-z
-x,-y,-z
x,y,-z
-x,y,z
x,-y,z
loop_
_atom_site_type_symbol
_atom_site_label
_atom_site_fract_x
_atom_site_fract_y
_atom_site_fract_z
Si Si1 0.804790 0.843090 0.155299
Si Si2 0.312018 0.630285 0.667122
Si Si3 0.301011 0.939136 0.658240
Si Si4 0.799082 0.253987 0.659650
Si Si5 0.000000 0.560823 0.667994
O O1 0.785858 0.900113 0.231157
O O2 0.724218 0.794894 0.247248
O O3 0.000000 0.830298 0.138472
O O4 0.720091 0.845129 0.000000
O O5 0.299182 0.630322 0.500000
O O6 0.500000 0.611893 0.716180
O O7 0.277096 0.690718 0.721170
O O8 0.168921 0.590012 0.727192
O O9 0.240684 0.924844 0.500000
O O10 0.500000 0.932665 0.669547
O O11 0.246612 0.000000 0.695479
O O12 0.738259 0.243933 0.500000
O O13 0.000000 0.257921 0.665636
O O14 0.000000 0.500000 0.725108
O O15 0.000000 0.561978 0.500000
#
# Coordination Sequence:
#
# PCOD8199101 Si02
#       5
#     8   8   8   8   4
#     4  10  21  34  49  74 105 133 163 203 254 310
#     4   9  16  26  42  65  92 126 169 210 250 301
#     4   9  19  36  55  73  95 127 169 213 254 301
#     4   9  16  29  48  66  91 129 168 207 252 300
#     4   9  16  26  40  62  97 135 166 203 252 301
#
# _framework density 19.250253000000001
#
# number of rings (size 3 to 8) (size 9 to 14) (size 15 to 20)
#    0.000    2.778    1.111    1.333    0.000    4.000 
#    0.000    7.778    0.000    0.000    0.000    0.000 
#    0.000    1.778    0.000    2.000    0.000    2.222 
#
# Total GULP energy -446254.881499 kJ/mol
# GULP energy per Si atom -12395.968931 kJ/mol
# Density = 1.920644 g / cm^3
# Si number density = 19.250253 Si / 1000 Ang^3
#
#
#
# Elastic Constant Matrix: (Units=GPa)
#
#
# Indices 1 2 3 4 5 6 
#
# 1 71.8376 49.9456 22.4745 0.0000 0.0000 0.0000
# 2 49.9456 160.5597 62.8465 0.0000 0.0000 0.0000
# 3 22.4745 62.8465 83.7316 0.0000 0.0000 0.0000
# 4 0.0000 0.0000 0.0000 3.8321 0.0000 0.0000
# 5 0.0000 0.0000 0.0000 0.0000 9.6176 0.0000
# 6 0.0000 0.0000 0.0000 0.0000 0.0000 14.7180
#
#
#
# Elastic Compliance Matrix: (Units=1/GPa)
#
#
# Indices 1 2 3 4 5 6 
#
# 1 0.017807 -0.005195 -0.000881 0.000000 0.000000 0.000000
# 2 -0.005195 0.010335 -0.006363 0.000000 0.000000 0.000000
# 3 -0.000881 -0.006363 0.016955 0.000000 0.000000 0.000000
# 4 0.000000 0.000000 0.000000 0.260956 0.000000 0.000000
# 5 0.000000 0.000000 0.000000 0.000000 0.103976 0.000000
# 6 0.000000 0.000000 0.000000 0.000000 0.000000 0.067944
#
#
# Mechanical properties :
#
#
# Convention : Reuss Voigt Hill
#
# Bulk Modulus (GPa) = 49.45351 65.18467 57.31909
# Shear Modulus (GPa) = 9.81182 17.69100 13.75141
#
# Velocity S-wave (km/s) = 2.26010 3.03479 2.67563
# Velocity P-wave (km/s) = 5.70581 6.79817 6.27581
#
# Compressibility (1/GPa) = 0.02022101
#
# Stress axis : x y z
#
# Youngs Moduli (GPa) = 56.15622 96.76279 58.98016
#
# Poissons Ratio (x) = 0.50265 0.05195
# Poissons Ratio (y) = 0.29171 0.37526
# Poissons Ratio (z) = 0.04946 0.61565
#
# Static dielectric constant tensor:
#      x y z
#    x 3.450800 0.000000 0.000000 
#    y 0.000000 3.681450 0.000000 
#    z 0.000000 0.000000 3.348300 
# 
# 
# High freq. dielectric constant tensor:
#      x y z
#    x 1.742850 0.000000 0.000000 
#    y 0.000000 1.753360 0.000000 
#    z 0.000000 0.000000 1.698820 
# 
# From -- ./inp_files/1442.got.cif
#   From: 2010.03.12/outbox.cif.g09.slc.cpg/sg47_1_cif.got.tgz:1442.got - 2010.04.14 03:12:58.
