data_PCOD8199665
_publ_section_title
;
Structure prediction by ZEFSAII (Michael W. Deem and Ramdas Pophale) SiO2 
 PCOD8199665
Probable space group: P M M M
;
_chemical_formula_sum "Si O2"
_cell_formula_units_Z 64
_cell_length_a 14.678821
_cell_length_b 9.397296
_cell_length_c 24.623019
_cell_angle_alpha 90.000000
_cell_angle_beta 90.000000
_cell_angle_gamma 90.000000
_cell_volume 3396.529425
_symmetry_space_group_name_H-M "P M M M"
_symmetry_group_IT_number 47
_symmetry_cell_setting 'orthorhombic'
loop_
_space_group_symop_operation_xyz
x,y,z
-x,-y,z
x,-y,-z
-x,y,-z
-x,-y,-z
x,y,-z
-x,y,z
x,-y,z
loop_
_atom_site_type_symbol
_atom_site_label
_atom_site_fract_x
_atom_site_fract_y
_atom_site_fract_z
Si Si1 0.101651 0.169008 0.560759
Si Si2 0.397916 0.343160 0.436211
Si Si3 0.293751 0.165630 0.060596
Si Si4 0.606033 0.667102 0.844690
Si Si5 0.899630 0.340345 0.203136
Si Si6 0.718869 0.336336 0.739039
Si Si7 0.900256 0.166605 0.096744
Si Si8 0.732000 0.167858 0.368576
O O1 0.128167 0.225098 0.500000
O O2 0.171094 0.223356 0.607290
O O3 0.000000 0.222773 0.575846
O O4 0.104327 0.000000 0.559352
O O5 0.397433 0.324558 0.500000
O O6 0.500000 0.332025 0.413428
O O7 0.358137 0.500000 0.420362
O O8 0.342161 0.212192 0.412463
O O9 0.351332 0.255342 0.103362
O O10 0.185903 0.207919 0.059516
O O11 0.305096 0.000000 0.075600
O O12 0.331149 0.196880 0.000000
O O13 0.500000 0.707877 0.839405
O O14 0.619953 0.500000 0.853982
O O15 0.657511 0.716025 0.789832
O O16 0.889558 0.500000 0.179544
O O17 0.825599 0.313801 0.249251
O O18 0.881148 0.233041 0.154912
O O19 0.000000 0.316398 0.228666
O O20 0.695465 0.500000 0.725782
O O21 0.700489 0.240879 0.687042
O O22 0.000000 0.217820 0.073398
O O23 0.904006 0.000000 0.105521
O O24 0.731857 0.000000 0.359636
#
# Coordination Sequence:
#
# PCOD8199665 Si02
#       8
#     8   8   8   8   8   8   8   8
#     4   8  15  30  51  75 108 150 189 223 264 314
#     4   9  19  37  59  80 105 141 180 217 267 331
#     4  10  21  36  56  84 116 145 174 215 270 329
#     4  10  22  41  62  80 100 135 185 233 276 326
#     4   9  17  31  53  77 101 134 177 222 265 310
#     4  10  21  37  54  75 106 144 182 221 272 329
#     4   9  17  30  51  79 110 143 176 210 253 309
#     4  11  22  33  52  84 115 142 180 229 275 320
#
# _framework density 18.842763000000001
#
# number of rings (size 3 to 8) (size 9 to 14) (size 15 to 20)
#    0.000    2.500    1.250    1.500    0.000    4.000 
#    0.000    4.375    0.000    1.125    0.000    7.000 
#    0.000    0.000    0.000    0.000    0.000    0.000 
#
# Total GULP energy -793174.998079 kJ/mol
# GULP energy per Si atom -12393.359345 kJ/mol
# Density = 1.879988 g / cm^3
# Si number density = 18.842763 Si / 1000 Ang^3
#
#
#
# Elastic Constant Matrix: (Units=GPa)
#
#
# Indices 1 2 3 4 5 6 
#
# 1 113.6646 42.0529 57.4868 0.0000 0.0000 0.0000
# 2 42.0529 36.6324 38.1348 0.0000 0.0000 0.0000
# 3 57.4868 38.1348 94.4113 0.0000 0.0000 0.0000
# 4 0.0000 0.0000 0.0000 31.9866 0.0000 0.0000
# 5 0.0000 0.0000 0.0000 0.0000 7.1240 0.0000
# 6 0.0000 0.0000 0.0000 0.0000 0.0000 26.8017
#
#
#
# Elastic Compliance Matrix: (Units=1/GPa)
#
#
# Indices 1 2 3 4 5 6 
#
# 1 0.016141 -0.014319 -0.004044 0.000000 0.000000 0.000000
# 2 -0.014319 0.059808 -0.015439 0.000000 0.000000 0.000000
# 3 -0.004044 -0.015439 0.019291 0.000000 0.000000 0.000000
# 4 0.000000 0.000000 0.000000 0.031263 0.000000 0.000000
# 5 0.000000 0.000000 0.000000 0.000000 0.140370 0.000000
# 6 0.000000 0.000000 0.000000 0.000000 0.000000 0.037311
#
#
# Mechanical properties :
#
#
# Convention : Reuss Voigt Hill
#
# Bulk Modulus (GPa) = 36.18598 57.78414 46.98506
# Shear Modulus (GPa) = 13.12332 20.31806 16.72069
#
# Velocity S-wave (km/s) = 2.64192 3.28730 2.98212
# Velocity P-wave (km/s) = 5.34343 6.71875 6.07016
#
# Compressibility (1/GPa) = 0.02763501
#
# Stress axis : x y z
#
# Youngs Moduli (GPa) = 61.95391 16.72005 51.83833
#
# Poissons Ratio (x) = 0.23942 0.20966
# Poissons Ratio (y) = 0.88713 0.80033
# Poissons Ratio (z) = 0.25057 0.25814
#
# Static dielectric constant tensor:
#      x y z
#    x 3.829890 0.000000 0.000000 
#    y 0.000000 3.329240 0.000000 
#    z 0.000000 0.000000 3.309710 
# 
# 
# High freq. dielectric constant tensor:
#      x y z
#    x 1.742980 0.000000 0.000000 
#    y 0.000000 1.713440 0.000000 
#    z 0.000000 0.000000 1.720330 
# 
# From -- ./inp_files/12720.got.cif
#   From: 2010.03.12/outbox.cif.g09.slc.cpg/sg47_7_cif.got.tgz:12720.got - 2010.04.14 03:12:58.
