data_PCOD8199279
_publ_section_title
;
Structure prediction by ZEFSAII (Michael W. Deem and Ramdas Pophale) SiO2 
 PCOD8199279
Probable space group: P M M M
;
_chemical_formula_sum "Si O2"
_cell_formula_units_Z 48
_cell_length_a 9.245713
_cell_length_b 30.526377
_cell_length_c 9.333806
_cell_angle_alpha 90.000000
_cell_angle_beta 90.000000
_cell_angle_gamma 90.000000
_cell_volume 2634.355864
_symmetry_space_group_name_H-M "P M M M"
_symmetry_group_IT_number 47
_symmetry_cell_setting 'orthorhombic'
loop_
_space_group_symop_operation_xyz
x,y,z
-x,-y,z
x,-y,-z
-x,y,-z
-x,-y,-z
x,y,-z
-x,y,z
x,-y,z
loop_
_atom_site_type_symbol
_atom_site_label
_atom_site_fract_x
_atom_site_fract_y
_atom_site_fract_z
Si Si1 0.164039 0.500000 0.670969
Si Si2 0.666436 0.927399 0.334926
Si Si3 0.668258 0.826580 0.662237
Si Si4 0.830317 0.754756 0.164606
Si Si5 0.830341 0.000000 0.165856
Si Si6 0.663569 0.415927 0.670509
Si Si7 0.167877 0.330604 0.666840
O O1 0.163097 0.500000 0.500000
O O2 0.247291 0.542648 0.730400
O O3 0.000000 0.500000 0.729692
O O4 0.700710 0.938004 0.500000
O O5 0.500000 0.938369 0.301451
O O6 0.700199 0.876950 0.300555
O O7 0.766974 0.956363 0.235439
O O8 0.718253 0.816237 0.500000
O O9 0.500000 0.816085 0.679360
O O10 0.756007 0.797612 0.773009
O O11 0.776504 0.711725 0.248001
O O12 0.000000 0.760874 0.184824
O O13 0.785779 0.749501 0.000000
O O14 0.000000 0.000000 0.191594
O O15 0.788829 0.000000 0.000000
O O16 0.663352 0.417285 0.500000
O O17 0.500000 0.417580 0.730153
O O18 0.740789 0.371758 0.724184
O O19 0.196236 0.321780 0.500000
O O20 0.000000 0.340585 0.697048
#
# Coordination Sequence:
#
# PCOD8199279 Si02
#       7
#     4   8   8   8   4   8   8
#     4   9  15  23  37  59  90 125 156 189 236 294
#     4   9  19  37  59  80 102 132 172 214 254 300
#     4   9  19  36  57  80 104 131 167 211 256 302
#     4  10  21  35  51  74 104 136 169 207 252 301
#     4  11  24  37  50  76 112 143 172 209 252 298
#     4   9  16  25  39  62  91 121 155 198 245 289
#     4   9  17  30  47  66  91 126 166 203 241 290
#
# _framework density 18.220772
#
# number of rings (size 3 to 8) (size 9 to 14) (size 15 to 20)
#    0.000    2.667    0.000    2.750    0.000    8.333 
#    0.000    6.667    0.000    0.000    0.000    0.583 
#    0.000    4.667    0.000    0.000    0.000    0.000 
#
# Total GULP energy -595270.130369 kJ/mol
# GULP energy per Si atom -12401.461049 kJ/mol
# Density = 1.817930 g / cm^3
# Si number density = 18.220772 Si / 1000 Ang^3
#
#
#
# Elastic Constant Matrix: (Units=GPa)
#
#
# Indices 1 2 3 4 5 6 
#
# 1 94.5981 73.6573 51.6991 0.0000 0.0000 0.0000
# 2 73.6573 147.8377 69.6257 0.0000 0.0000 0.0000
# 3 51.6991 69.6257 79.1808 0.0000 0.0000 0.0000
# 4 0.0000 0.0000 0.0000 1.7375 0.0000 0.0000
# 5 0.0000 0.0000 0.0000 0.0000 21.9855 0.0000
# 6 0.0000 0.0000 0.0000 0.0000 0.0000 37.7688
#
#
#
# Elastic Compliance Matrix: (Units=1/GPa)
#
#
# Indices 1 2 3 4 5 6 
#
# 1 0.019356 -0.006301 -0.007097 0.000000 0.000000 0.000000
# 2 -0.006301 0.013597 -0.007842 0.000000 0.000000 0.000000
# 3 -0.007097 -0.007842 0.024159 0.000000 0.000000 0.000000
# 4 0.000000 0.000000 0.000000 0.575527 0.000000 0.000000
# 5 0.000000 0.000000 0.000000 0.000000 0.045485 0.000000
# 6 0.000000 0.000000 0.000000 0.000000 0.000000 0.026477
#
#
# Mechanical properties :
#
#
# Convention : Reuss Voigt Hill
#
# Bulk Modulus (GPa) = 68.34729 79.06452 73.70590
# Shear Modulus (GPa) = 6.64931 20.74068 13.69499
#
# Velocity S-wave (km/s) = 1.91239 3.37753 2.74453
# Velocity P-wave (km/s) = 6.51678 7.66140 7.11215
#
# Compressibility (1/GPa) = 0.01463116
#
# Stress axis : x y z
#
# Youngs Moduli (GPa) = 51.66310 73.54640 41.39297
#
# Poissons Ratio (x) = 0.46344 0.29377
# Poissons Ratio (y) = 0.32555 0.32459
# Poissons Ratio (z) = 0.36666 0.57673
#
# Static dielectric constant tensor:
#      x y z
#    x 3.353770 0.000000 0.000000 
#    y 0.000000 3.456360 0.000000 
#    z 0.000000 0.000000 3.069500 
# 
# 
# High freq. dielectric constant tensor:
#      x y z
#    x 1.706210 0.000000 0.000000 
#    y 0.000000 1.720870 0.000000 
#    z 0.000000 0.000000 1.672120 
# 
# From -- ./inp_files/2797.got.cif
#   From: 2010.03.12/outbox.cif.g09.slc.cpg/sg47_2_cif.got.tgz:2797.got - 2010.04.14 03:12:58.
