data_PCOD8199389
_publ_section_title
;
Structure prediction by ZEFSAII (Michael W. Deem and Ramdas Pophale) SiO2 
 PCOD8199389
Probable space group: P M M M
;
_chemical_formula_sum "Si O2"
_cell_formula_units_Z 48
_cell_length_a 14.122992
_cell_length_b 17.694723
_cell_length_c 9.720460
_cell_angle_alpha 90.000000
_cell_angle_beta 90.000000
_cell_angle_gamma 90.000000
_cell_volume 2429.166588
_symmetry_space_group_name_H-M "P M M M"
_symmetry_group_IT_number 47
_symmetry_cell_setting 'orthorhombic'
loop_
_space_group_symop_operation_xyz
x,y,z
-x,-y,z
x,-y,-z
-x,y,-z
-x,-y,-z
x,y,-z
-x,y,z
x,-y,z
loop_
_atom_site_type_symbol
_atom_site_label
_atom_site_fract_x
_atom_site_fract_y
_atom_site_fract_z
Si Si1 0.891079 0.277764 0.659092
Si Si2 0.389755 0.915919 0.500000
Si Si3 0.803839 0.848245 0.151271
Si Si4 0.393893 0.657712 0.840894
Si Si5 0.893635 0.000000 0.163617
Si Si6 0.606310 0.172519 0.228484
Si Si7 0.240930 0.414467 0.343974
O O1 0.882179 0.253967 0.500000
O O2 0.830903 0.220130 0.749941
O O3 0.848703 0.360857 0.685212
O O4 0.000000 0.277934 0.706932
O O5 0.500000 0.929816 0.500000
O O6 0.361493 0.865338 0.370588
O O7 0.341248 0.000000 0.500000
O O8 0.841708 0.925408 0.219861
O O9 0.690047 0.853462 0.127205
O O10 0.849558 0.835915 0.000000
O O11 0.500000 0.624143 0.835929
O O12 0.391681 0.737087 0.760274
O O13 0.325338 0.600400 0.763003
O O14 0.361915 0.668918 0.000000
O O15 0.000000 0.000000 0.220580
O O16 0.889554 0.000000 0.000000
O O17 0.500000 0.146484 0.180646
O O18 0.278450 0.402220 0.500000
O O19 0.205514 0.500000 0.322345
#
# Coordination Sequence:
#
# PCOD8199389 Si02
#       7
#     8   4   8   8   4   8   8
#     4  10  22  40  62  87 115 148 192 247 303 356
#     4   9  20  36  54  82 119 161 202 241 296 350
#     4  11  22  37  61  88 116 157 200 240 293 353
#     4  10  21  37  58  85 119 158 197 241 293 348
#     4   9  20  38  56  80 115 152 193 241 292 345
#     4  10  21  35  57  86 119 156 197 244 289 346
#     4  10  22  39  60  87 118 152 193 242 296 358
#
# _framework density 19.759864
#
# number of rings (size 3 to 8) (size 9 to 14) (size 15 to 20)
#    0.000    2.000    1.667    1.000    3.500    3.333 
#    0.000    3.750    0.000    3.000    0.000    2.333 
#    0.000    0.000    0.000    0.000    0.000    0.000 
#
# Total GULP energy -594970.871657 kJ/mol
# GULP energy per Si atom -12395.226493 kJ/mol
# Density = 1.971489 g / cm^3
# Si number density = 19.759864 Si / 1000 Ang^3
#
#
#
# Elastic Constant Matrix: (Units=GPa)
#
#
# Indices 1 2 3 4 5 6 
#
# 1 129.3870 49.8635 31.8895 0.0000 0.0000 0.0000
# 2 49.8635 133.4506 52.3250 0.0000 0.0000 0.0000
# 3 31.8895 52.3250 88.9442 0.0000 0.0000 0.0000
# 4 0.0000 0.0000 0.0000 22.5212 0.0000 0.0000
# 5 0.0000 0.0000 0.0000 0.0000 23.2966 0.0000
# 6 0.0000 0.0000 0.0000 0.0000 0.0000 27.1942
#
#
#
# Elastic Compliance Matrix: (Units=1/GPa)
#
#
# Indices 1 2 3 4 5 6 
#
# 1 0.009214 -0.002791 -0.001661 0.000000 0.000000 0.000000
# 2 -0.002791 0.010586 -0.005227 0.000000 0.000000 0.000000
# 3 -0.001661 -0.005227 0.014913 0.000000 0.000000 0.000000
# 4 0.000000 0.000000 0.000000 0.044403 0.000000 0.000000
# 5 0.000000 0.000000 0.000000 0.000000 0.042925 0.000000
# 6 0.000000 0.000000 0.000000 0.000000 0.000000 0.036772
#
#
# Mechanical properties :
#
#
# Convention : Reuss Voigt Hill
#
# Bulk Modulus (GPa) = 65.12830 68.88198 67.00514
# Shear Modulus (GPa) = 27.27917 29.11599 28.19758
#
# Velocity S-wave (km/s) = 3.71959 3.84277 3.78168
# Velocity P-wave (km/s) = 7.17485 7.39083 7.28364
#
# Compressibility (1/GPa) = 0.01535431
#
# Stress axis : x y z
#
# Youngs Moduli (GPa) = 108.53085 94.46669 67.05346
#
# Poissons Ratio (x) = 0.26369 0.11140
# Poissons Ratio (y) = 0.30295 0.35047
# Poissons Ratio (z) = 0.18031 0.49375
#
# Static dielectric constant tensor:
#      x y z
#    x 3.689780 0.000000 0.000000 
#    y 0.000000 3.584380 0.000000 
#    z 0.000000 0.000000 3.574890 
# 
# 
# High freq. dielectric constant tensor:
#      x y z
#    x 1.770700 0.000000 0.000000 
#    y 0.000000 1.767400 0.000000 
#    z 0.000000 0.000000 1.759030 
# 
# From -- ./inp_files/6467.got.cif
#   From: 2010.03.12/outbox.cif.g09.slc.cpg/sg47_4_cif.got.tgz:6467.got - 2010.04.14 03:12:58.
