data_PCOD8199906
_publ_section_title
;
Structure prediction by ZEFSAII (Michael W. Deem and Ramdas Pophale) SiO2 
 PCOD8199906
Probable space group: P M M M
;
_chemical_formula_sum "Si O2"
_cell_formula_units_Z 52
_cell_length_a 9.220936
_cell_length_b 15.255230
_cell_length_c 18.631216
_cell_angle_alpha 90.000000
_cell_angle_beta 90.000000
_cell_angle_gamma 90.000000
_cell_volume 2620.806567
_symmetry_space_group_name_H-M "P M M M"
_symmetry_group_IT_number 47
_symmetry_cell_setting 'orthorhombic'
loop_
_space_group_symop_operation_xyz
x,y,z
-x,-y,z
x,-y,-z
-x,y,-z
-x,-y,-z
x,y,-z
-x,y,z
x,-y,z
loop_
_atom_site_type_symbol
_atom_site_label
_atom_site_fract_x
_atom_site_fract_y
_atom_site_fract_z
Si Si1 0.170409 0.102498 0.166606
Si Si2 0.836297 0.818791 0.418686
Si Si3 0.661842 0.500000 0.584272
Si Si4 0.341475 0.899216 0.304722
Si Si5 0.668369 0.398815 0.190836
Si Si6 0.834338 0.358756 0.334434
Si Si7 0.333005 0.246613 0.082687
O O1 0.239585 0.137200 0.241208
O O2 0.236429 0.162812 0.104272
O O3 0.000000 0.118802 0.172031
O O4 0.204123 0.000000 0.150600
O O5 0.786125 0.796699 0.500000
O O6 0.731032 0.890185 0.383264
O O7 0.823206 0.737888 0.365160
O O8 0.000000 0.855094 0.419898
O O9 0.500000 0.500000 0.617802
O O10 0.653158 0.500000 0.500000
O O11 0.747257 0.584575 0.608934
O O12 0.500000 0.852264 0.302859
O O13 0.365020 0.000000 0.289633
O O14 0.500000 0.390400 0.211665
O O15 0.706262 0.500000 0.171603
O O16 0.763802 0.365480 0.256749
O O17 0.708452 0.335978 0.124373
O O18 0.000000 0.391001 0.329813
O O19 0.500000 0.221204 0.096748
O O20 0.302595 0.267208 0.000000
#
# Coordination Sequence:
#
# PCOD8199906 Si02
#       7
#     8   8   4   8   8   8   8
#     4  10  21  38  61  88 118 154 195 238 289 351
#     4  10  22  38  55  79 113 153 194 237 290 348
#     4  11  23  37  55  81 112 145 182 227 281 338
#     4  10  21  37  58  84 113 147 191 242 291 340
#     4  10  21  38  60  85 116 154 196 240 288 346
#     4  11  22  37  58  83 111 145 188 236 282 335
#     4  10  22  39  60  89 122 156 195 239 289 345
#
# _framework density 19.841221000000001
#
# number of rings (size 3 to 8) (size 9 to 14) (size 15 to 20)
#    0.000    1.769    0.769    3.000    0.000    8.923 
#    0.000    4.615    0.000    0.000    0.000    2.154 
#    0.000    0.000    0.000    0.000    0.000    0.000 
#
# Total GULP energy -644766.385485 kJ/mol
# GULP energy per Si atom -12399.353567 kJ/mol
# Density = 1.979606 g / cm^3
# Si number density = 19.841221 Si / 1000 Ang^3
#
#
#
# Elastic Constant Matrix: (Units=GPa)
#
#
# Indices 1 2 3 4 5 6 
#
# 1 122.5704 45.3474 67.6688 0.0000 0.0000 0.0000
# 2 45.3474 68.1675 53.6088 0.0000 0.0000 0.0000
# 3 67.6688 53.6088 138.1615 0.0000 0.0000 0.0000
# 4 0.0000 0.0000 0.0000 37.4286 0.0000 0.0000
# 5 0.0000 0.0000 0.0000 0.0000 27.3963 0.0000
# 6 0.0000 0.0000 0.0000 0.0000 0.0000 26.5129
#
#
#
# Elastic Compliance Matrix: (Units=1/GPa)
#
#
# Indices 1 2 3 4 5 6 
#
# 1 0.012235 -0.004931 -0.004079 0.000000 0.000000 0.000000
# 2 -0.004931 0.023099 -0.006548 0.000000 0.000000 0.000000
# 3 -0.004079 -0.006548 0.011776 0.000000 0.000000 0.000000
# 4 0.000000 0.000000 0.000000 0.026718 0.000000 0.000000
# 5 0.000000 0.000000 0.000000 0.000000 0.036501 0.000000
# 6 0.000000 0.000000 0.000000 0.000000 0.000000 0.037718
#
#
# Mechanical properties :
#
#
# Convention : Reuss Voigt Hill
#
# Bulk Modulus (GPa) = 62.52043 73.57216 68.04630
# Shear Modulus (GPa) = 27.10103 29.08584 28.09343
#
# Velocity S-wave (km/s) = 3.69981 3.83290 3.76694
# Velocity P-wave (km/s) = 7.05905 7.53320 7.29998
#
# Compressibility (1/GPa) = 0.01599477
#
# Stress axis : x y z
#
# Youngs Moduli (GPa) = 81.73298 43.29099 84.91582
#
# Poissons Ratio (x) = 0.21348 0.34638
# Poissons Ratio (y) = 0.40305 0.55601
# Poissons Ratio (z) = 0.33339 0.28346
#
# Static dielectric constant tensor:
#      x y z
#    x 3.858690 0.000000 0.000000 
#    y 0.000000 3.581430 0.000000 
#    z 0.000000 0.000000 3.586400 
# 
# 
# High freq. dielectric constant tensor:
#      x y z
#    x 1.780810 0.000000 0.000000 
#    y 0.000000 1.772870 0.000000 
#    z 0.000000 0.000000 1.773010 
# 
# From -- ./inp_files/26726.got.cif
#   From: 2010.03.12/outbox.cif.g09.slc.cpg/sg47_14_cif.got.tgz:26726.got - 2010.04.14 03:12:58.
