data_PCOD8199758
_publ_section_title
;
Structure prediction by ZEFSAII (Michael W. Deem and Ramdas Pophale) SiO2 
 PCOD8199758
Probable space group: P M M M
;
_chemical_formula_sum "Si O2"
_cell_formula_units_Z 36
_cell_length_a 23.183257
_cell_length_b 9.294994
_cell_length_c 8.693579
_cell_angle_alpha 90.000000
_cell_angle_beta 90.000000
_cell_angle_gamma 90.000000
_cell_volume 1873.363992
_symmetry_space_group_name_H-M "P M M M"
_symmetry_group_IT_number 47
_symmetry_cell_setting 'orthorhombic'
loop_
_space_group_symop_operation_xyz
x,y,z
-x,-y,z
x,-y,-z
-x,y,-z
-x,-y,-z
x,y,-z
-x,y,z
x,-y,z
loop_
_atom_site_type_symbol
_atom_site_label
_atom_site_fract_x
_atom_site_fract_y
_atom_site_fract_z
Si Si1 0.105571 0.334456 0.319514
Si Si2 0.000000 0.836934 0.181640
Si Si3 0.436949 0.337692 0.682843
Si Si4 0.791408 0.166580 0.820777
Si Si5 0.671666 0.167398 0.675958
O O1 0.095220 0.323227 0.500000
O O2 0.103495 0.500000 0.264760
O O3 0.056425 0.245428 0.235579
O O4 0.166897 0.267061 0.277361
O O5 0.000000 0.000000 0.247463
O O6 0.000000 0.841397 0.000000
O O7 0.435793 0.329798 0.500000
O O8 0.500000 0.282133 0.740654
O O9 0.427502 0.500000 0.739953
O O10 0.384706 0.242800 0.749170
O O11 0.726541 0.211457 0.777639
O O12 0.802792 0.000000 0.777382
O O13 0.802089 0.193904 0.000000
O O14 0.683102 0.215750 0.500000
O O15 0.659231 0.000000 0.685606
#
# Coordination Sequence:
#
# PCOD8199758 Si02
#       5
#     8   4   8   8   8
#     4  11  24  40  59  85 114 143 179 222 265 310
#     4  11  24  41  62  88 116 147 182 217 258 310
#     4   8  14  25  42  66  96 128 163 207 259 312
#     4  10  21  37  56  78 106 141 180 220 265 319
#     4   9  17  29  47  72 100 130 167 213 262 311
#
# _framework density 19.216767000000001
#
# number of rings (size 3 to 8) (size 9 to 14) (size 15 to 20)
#    0.000    2.333    0.000    3.333    0.000    9.333 
#    0.000    4.444    0.000    0.667    0.000    4.667 
#    0.000    0.000    0.000    0.000    0.000    0.000 
#
# Total GULP energy -446387.712949 kJ/mol
# GULP energy per Si atom -12399.658693 kJ/mol
# Density = 1.917303 g / cm^3
# Si number density = 19.216767 Si / 1000 Ang^3
#
#
#
# Elastic Constant Matrix: (Units=GPa)
#
#
# Indices 1 2 3 4 5 6 
#
# 1 145.3495 77.4540 22.3474 0.0000 0.0000 0.0000
# 2 77.4540 108.6605 31.0134 0.0000 0.0000 0.0000
# 3 22.3474 31.0134 40.2664 0.0000 0.0000 0.0000
# 4 0.0000 0.0000 0.0000 20.4391 0.0000 0.0000
# 5 0.0000 0.0000 0.0000 0.0000 -49.2749 0.0000
# 6 0.0000 0.0000 0.0000 0.0000 0.0000 -46.9486
#
#
#
# Elastic Compliance Matrix: (Units=1/GPa)
#
#
# Indices 1 2 3 4 5 6 
#
# 1 0.011094 -0.007884 -0.000085 0.000000 0.000000 0.000000
# 2 -0.007884 0.017398 -0.009025 0.000000 0.000000 0.000000
# 3 -0.000085 -0.009025 0.031833 0.000000 0.000000 0.000000
# 4 0.000000 0.000000 0.000000 0.048926 0.000000 0.000000
# 5 0.000000 0.000000 0.000000 0.000000 -0.020294 0.000000
# 6 0.000000 0.000000 0.000000 0.000000 0.000000 -0.021300
#
#
# Mechanical properties :
#
#
# Convention : Reuss Voigt Hill
#
# Bulk Modulus (GPa) = 37.96797 61.76731 49.86764
# Shear Modulus (GPa) = 45.28005 -4.25945 20.51030
#
# Velocity S-wave (km/s) = 4.85942 -1.49042 3.27052
# Velocity P-wave (km/s) = 7.16142 5.40836 6.34572
#
# Compressibility (1/GPa) = 0.02633799
#
# Stress axis : x y z
#
# Youngs Moduli (GPa) = 90.13791 57.47652 31.41402
#
# Poissons Ratio (x) = 0.45313 0.00267
# Poissons Ratio (y) = 0.71062 0.28351
# Poissons Ratio (z) = 0.00767 0.51873
#
# Static dielectric constant tensor:
#      x y z
#    x 3.889920 0.000000 0.000000 
#    y 0.000000 3.657340 0.000000 
#    z 0.000000 0.000000 3.275050 
# 
# 
# High freq. dielectric constant tensor:
#      x y z
#    x 1.766050 0.000000 0.000000 
#    y 0.000000 1.746000 0.000000 
#    z 0.000000 0.000000 1.722750 
# 
# From -- ./inp_files/1092.got.cif
#   From: 2010.03.12/outbox.cif.g09.slc.cpg/sg47_1_cif.got.tgz:1092.got - 2010.04.14 03:12:58.
