data_PCOD8199205
_publ_section_title
;
Structure prediction by ZEFSAII (Michael W. Deem and Ramdas Pophale) SiO2 
 PCOD8199205
Probable space group: P M M M
;
_chemical_formula_sum "Si O2"
_cell_formula_units_Z 44
_cell_length_a 28.053120
_cell_length_b 9.334932
_cell_length_c 9.714146
_cell_angle_alpha 90.000000
_cell_angle_beta 90.000000
_cell_angle_gamma 90.000000
_cell_volume 2543.881955
_symmetry_space_group_name_H-M "P M M M"
_symmetry_group_IT_number 47
_symmetry_cell_setting 'orthorhombic'
loop_
_space_group_symop_operation_xyz
x,y,z
-x,-y,z
x,-y,-z
-x,y,-z
-x,-y,-z
x,y,-z
-x,y,z
x,-y,z
loop_
_atom_site_type_symbol
_atom_site_label
_atom_site_fract_x
_atom_site_fract_y
_atom_site_fract_z
Si Si1 0.693033 0.829421 0.653355
Si Si2 0.872672 0.666992 0.840024
Si Si3 0.778598 0.166795 0.840798
Si Si4 0.411486 0.159570 0.663802
Si Si5 0.500000 0.339305 0.335558
Si Si6 0.055588 0.836626 0.342065
O O1 0.703596 0.769650 0.500000
O O2 0.733626 0.772592 0.755939
O O3 0.640709 0.778783 0.705969
O O4 0.692538 0.000000 0.649775
O O5 0.866787 0.500000 0.808713
O O6 0.824750 0.746369 0.791944
O O7 0.916735 0.727592 0.754837
O O8 0.882882 0.696803 0.000000
O O9 0.787999 0.000000 0.810124
O O10 0.767265 0.194341 0.000000
O O11 0.413980 0.152300 0.500000
O O12 0.452827 0.261455 0.722857
O O13 0.419420 0.000000 0.724234
O O14 0.500000 0.500000 0.278267
O O15 0.500000 0.336860 0.500000
O O16 0.069881 0.807935 0.500000
O O17 0.000000 0.807495 0.319897
O O18 0.068176 0.000000 0.301778
#
# Coordination Sequence:
#
# PCOD8199205 Si02
#       6
#     8   8   8   8   4   8
#     4   8  14  25  42  64  87 111 143 183 224 267
#     4  10  21  35  50  71 100 131 162 196 233 276
#     4   9  17  30  48  68  90 118 153 192 232 272
#     4   8  13  22  36  53  75 105 139 172 209 258
#     4   9  15  21  31  51  80 109 134 166 212 259
#     4   9  19  36  56  77 100 126 158 196 237 281
#
# _framework density 17.296399999999998
#
# number of rings (size 3 to 8) (size 9 to 14) (size 15 to 20)
#    0.000    3.182    0.000    2.455    0.000    4.000 
#    0.000    5.455    0.000    1.091    0.000    0.636 
#    0.000    5.091    0.000    0.000    0.000    0.000 
#
# Total GULP energy -545461.830283 kJ/mol
# GULP energy per Si atom -12396.859779 kJ/mol
# Density = 1.725703 g / cm^3
# Si number density = 17.296400 Si / 1000 Ang^3
#
#
#
# Elastic Constant Matrix: (Units=GPa)
#
#
# Indices 1 2 3 4 5 6 
#
# 1 136.7620 64.1708 55.5982 0.0000 0.0000 0.0000
# 2 64.1708 82.7017 34.3316 0.0000 0.0000 0.0000
# 3 55.5982 34.3316 49.2223 0.0000 0.0000 0.0000
# 4 0.0000 0.0000 0.0000 17.3284 0.0000 0.0000
# 5 0.0000 0.0000 0.0000 0.0000 6.6222 0.0000
# 6 0.0000 0.0000 0.0000 0.0000 0.0000 6.9059
#
#
#
# Elastic Compliance Matrix: (Units=1/GPa)
#
#
# Indices 1 2 3 4 5 6 
#
# 1 0.015876 -0.006861 -0.013147 0.000000 0.000000 0.000000
# 2 -0.006861 0.019985 -0.006189 0.000000 0.000000 0.000000
# 3 -0.013147 -0.006189 0.039483 0.000000 0.000000 0.000000
# 4 0.000000 0.000000 0.000000 0.057709 0.000000 0.000000
# 5 0.000000 0.000000 0.000000 0.000000 0.151006 0.000000
# 6 0.000000 0.000000 0.000000 0.000000 0.000000 0.144803
#
#
# Mechanical properties :
#
#
# Convention : Reuss Voigt Hill
#
# Bulk Modulus (GPa) = 43.57483 64.09858 53.83670
# Shear Modulus (GPa) = 10.22693 13.81034 12.01864
#
# Velocity S-wave (km/s) = 2.43425 2.82875 2.63889
# Velocity P-wave (km/s) = 5.75747 6.91437 6.36227
#
# Compressibility (1/GPa) = 0.02294903
#
# Stress axis : x y z
#
# Youngs Moduli (GPa) = 62.98849 50.03864 25.32754
#
# Poissons Ratio (x) = 0.34331 0.33298
# Poissons Ratio (y) = 0.43216 0.15676
# Poissons Ratio (z) = 0.82811 0.30970
#
# Static dielectric constant tensor:
#      x y z
#    x 3.480750 0.000000 0.000000 
#    y 0.000000 3.103100 0.000000 
#    z 0.000000 0.000000 2.969510 
# 
# 
# High freq. dielectric constant tensor:
#      x y z
#    x 1.681500 0.000000 0.000000 
#    y 0.000000 1.647150 0.000000 
#    z 0.000000 0.000000 1.631310 
# 
# From -- ./inp_files/13576.got.cif
#   From: 2010.03.12/outbox.cif.g09.slc.cpg/sg47_7_cif.got.tgz:13576.got - 2010.04.14 03:12:58.
