data_PCOD8199154
_publ_section_title
;
Structure prediction by ZEFSAII (Michael W. Deem and Ramdas Pophale) SiO2 
 PCOD8199154
Probable space group: P M M M
;
_chemical_formula_sum "Si O2"
_cell_formula_units_Z 48
_cell_length_a 9.039573
_cell_length_b 30.576036
_cell_length_c 9.946842
_cell_angle_alpha 90.000000
_cell_angle_beta 90.000000
_cell_angle_gamma 90.000000
_cell_volume 2749.250526
_symmetry_space_group_name_H-M "P M M M"
_symmetry_group_IT_number 47
_symmetry_cell_setting 'orthorhombic'
loop_
_space_group_symop_operation_xyz
x,y,z
-x,-y,z
x,-y,-z
-x,y,-z
-x,-y,-z
x,y,-z
-x,y,z
x,-y,z
loop_
_atom_site_type_symbol
_atom_site_label
_atom_site_fract_x
_atom_site_fract_y
_atom_site_fract_z
Si Si1 0.326315 0.623281 0.845976
Si Si2 0.324217 0.548554 0.349313
Si Si3 0.328334 0.780908 0.343506
Si Si4 0.676011 0.951390 0.150239
Si Si5 0.173794 0.287239 0.153833
Si Si6 0.675632 0.120343 0.648425
O O1 0.500000 0.629746 0.822960
O O2 0.261061 0.583925 0.755538
O O3 0.247718 0.667600 0.799851
O O4 0.289413 0.611810 0.000000
O O5 0.272012 0.560972 0.500000
O O6 0.500000 0.548385 0.342342
O O7 0.265386 0.500000 0.311253
O O8 0.297443 0.770806 0.500000
O O9 0.500000 0.772900 0.309909
O O10 0.229044 0.750771 0.250445
O O11 0.281354 0.830573 0.308457
O O12 0.500000 0.948440 0.151303
O O13 0.745312 0.914899 0.248827
O O14 0.725508 0.000000 0.197064
O O15 0.735040 0.942121 0.000000
O O16 0.000000 0.292325 0.169898
O O17 0.218196 0.276189 0.000000
O O18 0.738903 0.110115 0.500000
O O19 0.500000 0.116389 0.645120
#
# Coordination Sequence:
#
# PCOD8199154 Si02
#       6
#     8   8   8   8   8   8
#     4   9  17  29  46  68  92 118 150 187 225 266
#     4   8  14  25  42  66  94 119 144 179 222 264
#     4   9  18  32  49  69  92 118 152 194 235 276
#     4   8  13  20  30  48  77 111 144 176 211 255
#     4  10  21  35  49  67  93 123 155 192 233 278
#     4   8  14  24  37  55  80 109 142 180 220 262
#
# _framework density 17.459302000000001
#
# number of rings (size 3 to 8) (size 9 to 14) (size 15 to 20)
#    0.000    3.333    0.000    2.500    0.000    3.333 
#    0.000    6.667    0.000    0.500    0.000    3.500 
#    0.000    0.667    0.000    7.333    0.000   12.000 
#
# Total GULP energy -594958.357687 kJ/mol
# GULP energy per Si atom -12394.965785 kJ/mol
# Density = 1.741956 g / cm^3
# Si number density = 17.459302 Si / 1000 Ang^3
#
#
#
# Elastic Constant Matrix: (Units=GPa)
#
#
# Indices 1 2 3 4 5 6 
#
# 1 22.6283 28.3475 22.7296 0.0000 0.0000 0.0000
# 2 28.3475 161.0641 100.3277 0.0000 0.0000 0.0000
# 3 22.7296 100.3277 105.5577 0.0000 0.0000 0.0000
# 4 0.0000 0.0000 0.0000 41.2959 0.0000 0.0000
# 5 0.0000 0.0000 0.0000 0.0000 14.4813 0.0000
# 6 0.0000 0.0000 0.0000 0.0000 0.0000 -1.2308
#
#
#
# Elastic Compliance Matrix: (Units=1/GPa)
#
#
# Indices 1 2 3 4 5 6 
#
# 1 0.058679 -0.006023 -0.006911 0.000000 0.000000 0.000000
# 2 -0.006023 0.015837 -0.013756 0.000000 0.000000 0.000000
# 3 -0.006911 -0.013756 0.024036 0.000000 0.000000 0.000000
# 4 0.000000 0.000000 0.000000 0.024215 0.000000 0.000000
# 5 0.000000 0.000000 0.000000 0.000000 0.069055 0.000000
# 6 0.000000 0.000000 0.000000 0.000000 0.000000 -0.812492
#
#
# Mechanical properties :
#
#
# Convention : Reuss Voigt Hill
#
# Bulk Modulus (GPa) = 22.13689 65.78442 43.96066
# Shear Modulus (GPa) = -9.05416 20.09897 5.52241
#
# Velocity S-wave (km/s) = -2.27972 3.39660 1.78042
# Velocity P-wave (km/s) = 2.40357 7.28993 5.42772
#
# Compressibility (1/GPa) = 0.04517346
#
# Stress axis : x y z
#
# Youngs Moduli (GPa) = 17.04178 63.14260 41.60478
#
# Poissons Ratio (x) = 0.38029 0.28753
# Poissons Ratio (y) = 0.10264 0.57230
# Poissons Ratio (z) = 0.11778 0.86857
#
# Static dielectric constant tensor:
#      x y z
#    x 2.685270 0.000000 0.000000 
#    y 0.000000 3.520700 0.000000 
#    z 0.000000 0.000000 3.505310 
# 
# 
# High freq. dielectric constant tensor:
#      x y z
#    x 1.616170 0.000000 0.000000 
#    y 0.000000 1.684680 0.000000 
#    z 0.000000 0.000000 1.677950 
# 
# From -- ./inp_files/2469.got.cif
#   From: 2010.03.12/outbox.cif.g09.slc.cpg/sg47_2_cif.got.tgz:2469.got - 2010.04.14 03:12:58.
