data_PCOD8199496
_publ_section_title
;
Structure prediction by ZEFSAII (Michael W. Deem and Ramdas Pophale) SiO2 
 PCOD8199496
Probable space group: P M M M
;
_chemical_formula_sum "Si O2"
_cell_formula_units_Z 64
_cell_length_a 20.664089
_cell_length_b 8.683976
_cell_length_c 19.887705
_cell_angle_alpha 90.000000
_cell_angle_beta 90.000000
_cell_angle_gamma 90.000000
_cell_volume 3568.778119
_symmetry_space_group_name_H-M "P M M M"
_symmetry_group_IT_number 47
_symmetry_cell_setting 'orthorhombic'
loop_
_space_group_symop_operation_xyz
x,y,z
-x,-y,z
x,-y,-z
-x,y,-z
-x,-y,-z
x,y,-z
-x,y,z
x,-y,z
loop_
_atom_site_type_symbol
_atom_site_label
_atom_site_fract_x
_atom_site_fract_y
_atom_site_fract_z
Si Si1 0.236451 0.680619 0.293038
Si Si2 0.071506 0.182845 0.075136
Si Si3 0.809046 0.182017 0.839417
Si Si4 0.306829 0.680246 0.922452
Si Si5 0.233414 0.179838 0.426862
Si Si6 0.427736 0.323759 0.834922
Si Si7 0.378668 0.180358 0.295978
Si Si8 0.373021 0.321702 0.572555
O O1 0.245823 0.500000 0.288625
O O2 0.191164 0.737803 0.232990
O O3 0.202361 0.727300 0.364147
O O4 0.306120 0.759208 0.284883
O O5 0.126679 0.247540 0.124276
O O6 0.000000 0.235572 0.099943
O O7 0.075253 0.000000 0.073329
O O8 0.084244 0.247049 0.000000
O O9 0.746687 0.223571 0.883231
O O10 0.811245 0.000000 0.829586
O O11 0.292051 0.500000 0.913762
O O12 0.376973 0.724156 0.892449
O O13 0.306377 0.730192 0.000000
O O14 0.202182 0.223318 0.500000
O O15 0.308611 0.220840 0.429412
O O16 0.225137 0.000000 0.412693
O O17 0.500000 0.299667 0.864195
O O18 0.416027 0.500000 0.813265
O O19 0.420817 0.219845 0.768859
O O20 0.412027 0.259266 0.362424
O O21 0.377537 0.000000 0.307269
O O22 0.409539 0.301126 0.500000
O O23 0.354946 0.500000 0.583641
#
# Coordination Sequence:
#
# PCOD8199496 Si02
#       8
#     8   8   8   8   8   8   8   8
#     4  11  20  30  46  68  99 135 169 206 248 297
#     4   8  15  29  49  74 104 137 172 208 247 294
#     4  11  20  31  51  78 105 135 170 209 251 292
#     4  10  21  36  54  76 101 129 161 201 250 304
#     4   9  16  26  41  64  95 128 163 204 248 293
#     4  10  21  37  55  72  94 128 166 204 250 306
#     4  11  20  31  49  71  96 126 161 205 252 297
#     4   9  16  26  43  67  94 125 159 195 239 294
#
# _framework density 17.933308
#
# number of rings (size 3 to 8) (size 9 to 14) (size 15 to 20)
#    0.000    2.125    1.250    5.625    0.000    2.750 
#    0.000    1.250    0.000    1.875    0.000    8.750 
#    0.000    0.500    0.000    5.750    0.000    1.625 
#
# Total GULP energy -793205.232016 kJ/mol
# GULP energy per Si atom -12393.831750 kJ/mol
# Density = 1.789249 g / cm^3
# Si number density = 17.933308 Si / 1000 Ang^3
#
#
#
# Elastic Constant Matrix: (Units=GPa)
#
#
# Indices 1 2 3 4 5 6 
#
# 1 78.9455 16.2080 43.5855 0.0000 0.0000 0.0000
# 2 16.2080 59.0189 31.8200 0.0000 0.0000 0.0000
# 3 43.5855 31.8200 142.3001 0.0000 0.0000 0.0000
# 4 0.0000 0.0000 0.0000 28.4371 0.0000 0.0000
# 5 0.0000 0.0000 0.0000 0.0000 14.8509 0.0000
# 6 0.0000 0.0000 0.0000 0.0000 0.0000 7.7592
#
#
#
# Elastic Compliance Matrix: (Units=1/GPa)
#
#
# Indices 1 2 3 4 5 6 
#
# 1 0.015434 -0.001922 -0.004298 0.000000 0.000000 0.000000
# 2 -0.001922 0.019506 -0.003773 0.000000 0.000000 0.000000
# 3 -0.004298 -0.003773 0.009187 0.000000 0.000000 0.000000
# 4 0.000000 0.000000 0.000000 0.035165 0.000000 0.000000
# 5 0.000000 0.000000 0.000000 0.000000 0.067336 0.000000
# 6 0.000000 0.000000 0.000000 0.000000 0.000000 0.128880
#
#
# Mechanical properties :
#
#
# Convention : Reuss Voigt Hill
#
# Bulk Modulus (GPa) = 41.42047 51.49904 46.45976
# Shear Modulus (GPa) = 16.47225 22.78618 19.62921
#
# Velocity S-wave (km/s) = 3.03401 3.56842 3.31201
# Velocity P-wave (km/s) = 5.95153 6.76443 6.37096
#
# Compressibility (1/GPa) = 0.02414265
#
# Stress axis : x y z
#
# Youngs Moduli (GPa) = 64.79111 51.26701 108.84375
#
# Poissons Ratio (x) = 0.09851 0.46778
# Poissons Ratio (y) = 0.12450 0.41069
# Poissons Ratio (z) = 0.27845 0.19344
#
# Static dielectric constant tensor:
#      x y z
#    x 3.040450 0.000000 0.000000 
#    y 0.000000 3.236040 0.000000 
#    z 0.000000 0.000000 4.028890 
# 
# 
# High freq. dielectric constant tensor:
#      x y z
#    x 1.637570 0.000000 0.000000 
#    y 0.000000 1.692060 0.000000 
#    z 0.000000 0.000000 1.714400 
# 
# From -- ./inp_files/31523.got.cif
#   From: 2010.03.12/outbox.cif.g09.slc.cpg/sg47_16_cif.got.tgz:31523.got - 2010.04.14 03:12:58.
