data_PCOD8199215
_publ_section_title
;
Structure prediction by ZEFSAII (Michael W. Deem and Ramdas Pophale) SiO2 
 PCOD8199215
Probable space group: P M M M
;
_chemical_formula_sum "Si O2"
_cell_formula_units_Z 40
_cell_length_a 12.912495
_cell_length_b 23.879082
_cell_length_c 7.667041
_cell_angle_alpha 90.000000
_cell_angle_beta 90.000000
_cell_angle_gamma 90.000000
_cell_volume 2364.044128
_symmetry_space_group_name_H-M "P M M M"
_symmetry_group_IT_number 47
_symmetry_cell_setting 'orthorhombic'
loop_
_space_group_symop_operation_xyz
x,y,z
-x,-y,z
x,-y,-z
-x,y,-z
-x,-y,-z
x,y,-z
-x,y,z
x,-y,z
loop_
_atom_site_type_symbol
_atom_site_label
_atom_site_fract_x
_atom_site_fract_y
_atom_site_fract_z
Si Si1 0.745962 0.562262 0.000000
Si Si2 0.621929 0.327465 0.000000
Si Si3 0.115108 0.178252 0.301006
Si Si4 0.241344 0.282141 0.701219
Si Si5 0.119695 0.606736 0.302426
Si Si6 0.880893 0.059773 0.795163
O O1 0.653862 0.607275 0.000000
O O2 0.815833 0.568070 0.827640
O O3 0.697378 0.500000 0.000000
O O4 0.662590 0.297467 0.175266
O O5 0.500000 0.322862 0.000000
O O6 0.101120 0.194978 0.500000
O O7 0.191748 0.224751 0.221776
O O8 0.168211 0.116398 0.284902
O O9 0.000000 0.178962 0.211459
O O10 0.280057 0.276602 0.500000
O O11 0.152652 0.328801 0.718153
O O12 0.139861 0.585862 0.500000
O O13 0.000000 0.602216 0.252094
O O14 0.000000 0.058809 0.737906
O O15 0.831066 0.000000 0.730031
O O16 0.868245 0.063618 0.000000
#
# Coordination Sequence:
#
# PCOD8199215 Si02
#       6
#     4   4   8   8   8   8
#     4  10  21  35  50  71  97 121 153 193 223 260
#     4  10  22  38  55  72  87 114 152 188 239 290
#     4   9  16  25  40  64  93 125 157 187 222 266
#     4   9  18  32  49  71  97 120 150 193 233 275
#     4   9  17  30  48  70 100 134 158 180 217 264
#     4   8  14  23  33  50  83 127 167 194 215 246
#
# _framework density 16.920157
#
# number of rings (size 3 to 8) (size 9 to 14) (size 15 to 20)
#    0.000    3.000    0.000    1.500    1.400    4.600 
#    0.000    4.000    0.000    0.000    0.000    5.600 
#    0.000    1.600    0.000    4.400    0.000    0.200 
#
# Total GULP energy -495610.371505 kJ/mol
# GULP energy per Si atom -12390.259288 kJ/mol
# Density = 1.688165 g / cm^3
# Si number density = 16.920157 Si / 1000 Ang^3
#
#
#
# Elastic Constant Matrix: (Units=GPa)
#
#
# Indices 1 2 3 4 5 6 
#
# 1 79.8116 45.7232 32.2133 0.0000 0.0000 0.0000
# 2 45.7232 144.1103 35.7144 0.0000 0.0000 0.0000
# 3 32.2133 35.7144 68.3021 0.0000 0.0000 0.0000
# 4 0.0000 0.0000 0.0000 20.8886 0.0000 0.0000
# 5 0.0000 0.0000 0.0000 0.0000 15.2415 0.0000
# 6 0.0000 0.0000 0.0000 0.0000 0.0000 11.6251
#
#
#
# Elastic Compliance Matrix: (Units=1/GPa)
#
#
# Indices 1 2 3 4 5 6 
#
# 1 0.017250 -0.003972 -0.006059 0.000000 0.000000 0.000000
# 2 -0.003972 0.008887 -0.002774 0.000000 0.000000 0.000000
# 3 -0.006059 -0.002774 0.018949 0.000000 0.000000 0.000000
# 4 0.000000 0.000000 0.000000 0.047873 0.000000 0.000000
# 5 0.000000 0.000000 0.000000 0.000000 0.065610 0.000000
# 6 0.000000 0.000000 0.000000 0.000000 0.000000 0.086020
#
#
# Mechanical properties :
#
#
# Convention : Reuss Voigt Hill
#
# Bulk Modulus (GPa) = 51.34206 57.72508 54.53357
# Shear Modulus (GPa) = 18.07075 21.45592 19.76333
#
# Velocity S-wave (km/s) = 3.27157 3.56486 3.42136
# Velocity P-wave (km/s) = 6.68435 7.15084 6.92153
#
# Compressibility (1/GPa) = 0.01947721
#
# Stress axis : x y z
#
# Youngs Moduli (GPa) = 57.96986 112.52898 52.77389
#
# Poissons Ratio (x) = 0.44692 0.31976
# Poissons Ratio (y) = 0.23023 0.14637
# Poissons Ratio (z) = 0.35124 0.31211
#
# Static dielectric constant tensor:
#      x y z
#    x 2.617540 0.000000 0.000000 
#    y 0.000000 3.441390 0.000000 
#    z 0.000000 0.000000 3.301380 
# 
# 
# High freq. dielectric constant tensor:
#      x y z
#    x 1.578310 0.000000 0.000000 
#    y 0.000000 1.667940 0.000000 
#    z 0.000000 0.000000 1.659310 
# 
# From -- ./inp_files/4104.got.cif
#   From: 2010.03.12/outbox.cif.g09.slc.cpg/sg47_3_cif.got.tgz:4104.got - 2010.04.14 03:12:58.
