data_PCOD8199533
_publ_section_title
;
Structure prediction by ZEFSAII (Michael W. Deem and Ramdas Pophale) SiO2 
 PCOD8199533
Probable space group: P M M M
;
_chemical_formula_sum "Si O2"
_cell_formula_units_Z 48
_cell_length_a 30.790438
_cell_length_b 9.226291
_cell_length_c 9.012400
_cell_angle_alpha 90.000000
_cell_angle_beta 90.000000
_cell_angle_gamma 90.000000
_cell_volume 2560.256480
_symmetry_space_group_name_H-M "P M M M"
_symmetry_group_IT_number 47
_symmetry_cell_setting 'orthorhombic'
loop_
_space_group_symop_operation_xyz
x,y,z
-x,-y,z
x,-y,-z
-x,y,-z
-x,-y,-z
x,y,-z
-x,y,z
x,-y,z
loop_
_atom_site_type_symbol
_atom_site_label
_atom_site_fract_x
_atom_site_fract_y
_atom_site_fract_z
Si Si1 0.916608 0.833759 0.174671
Si Si2 0.000000 0.336478 0.176822
Si Si3 0.422173 0.832253 0.326436
Si Si4 0.500000 0.329041 0.828292
Si Si5 0.829494 0.833880 0.326580
Si Si6 0.667366 0.833545 0.827157
Si Si7 0.256312 0.329509 0.671066
O O1 0.957093 0.742921 0.238263
O O2 0.872335 0.773670 0.245857
O O3 0.924312 0.000000 0.220528
O O4 0.912429 0.815325 0.000000
O O5 0.000000 0.500000 0.236435
O O6 0.000000 0.330106 0.000000
O O7 0.422271 0.798003 0.500000
O O8 0.457519 0.734269 0.247765
O O9 0.375625 0.789188 0.261388
O O10 0.432973 0.000000 0.294654
O O11 0.500000 0.500000 0.805970
O O12 0.500000 0.284613 0.000000
O O13 0.837455 0.816972 0.500000
O O14 0.788760 0.739255 0.273422
O O15 0.820368 0.000000 0.281328
O O16 0.705742 0.731677 0.772683
O O17 0.679918 0.000000 0.794634
O O18 0.658776 0.806652 0.000000
O O19 0.265295 0.287290 0.500000
O O20 0.253409 0.500000 0.693427
#
# Coordination Sequence:
#
# PCOD8199533 Si02
#       7
#     8   4   8   4   8   8   8
#     4   9  17  30  49  71  94 123 162 206 249 296
#     4   9  17  29  46  69  96 126 160 199 246 300
#     4  10  21  38  61  86 110 141 183 226 268 317
#     4  11  24  39  56  82 116 151 184 221 268 318
#     4   9  18  33  52  73  99 132 169 210 256 305
#     4  10  21  37  58  83 109 139 177 221 267 313
#     4  10  21  36  54  77 106 141 177 213 259 315
#
# _framework density 18.748121000000001
#
# number of rings (size 3 to 8) (size 9 to 14) (size 15 to 20)
#    0.000    2.333    0.000    2.250    0.000    7.667 
#    0.000    2.083    0.000    2.500    0.000    0.000 
#    0.000    0.000    0.000    0.000    0.000    0.000 
#
# Total GULP energy -595377.718848 kJ/mol
# GULP energy per Si atom -12403.702476 kJ/mol
# Density = 1.870545 g / cm^3
# Si number density = 18.748121 Si / 1000 Ang^3
#
#
#
# Elastic Constant Matrix: (Units=GPa)
#
#
# Indices 1 2 3 4 5 6 
#
# 1 169.5617 80.0728 65.1774 0.0000 0.0000 0.0000
# 2 80.0728 89.3204 46.2069 0.0000 0.0000 0.0000
# 3 65.1774 46.2069 74.5429 0.0000 0.0000 0.0000
# 4 0.0000 0.0000 0.0000 24.6762 0.0000 0.0000
# 5 0.0000 0.0000 0.0000 0.0000 38.1398 0.0000
# 6 0.0000 0.0000 0.0000 0.0000 0.0000 -13.2015
#
#
#
# Elastic Compliance Matrix: (Units=1/GPa)
#
#
# Indices 1 2 3 4 5 6 
#
# 1 0.011543 -0.007546 -0.005414 0.000000 0.000000 0.000000
# 2 -0.007546 0.021414 -0.006676 0.000000 0.000000 0.000000
# 3 -0.005414 -0.006676 0.022287 0.000000 0.000000 0.000000
# 4 0.000000 0.000000 0.000000 0.040525 0.000000 0.000000
# 5 0.000000 0.000000 0.000000 0.000000 0.026219 0.000000
# 6 0.000000 0.000000 0.000000 0.000000 0.000000 -0.075749
#
#
# Mechanical properties :
#
#
# Convention : Reuss Voigt Hill
#
# Bulk Modulus (GPa) = 62.61426 79.59324 71.10375
# Shear Modulus (GPa) = 55.04376 19.38741 37.21559
#
# Velocity S-wave (km/s) = 5.42433 3.21923 4.46020
# Velocity P-wave (km/s) = 8.52650 7.50760 8.03322
#
# Compressibility (1/GPa) = 0.01597080
#
# Stress axis : x y z
#
# Youngs Moduli (GPa) = 86.63616 46.69774 44.86838
#
# Poissons Ratio (x) = 0.35240 0.24294
# Poissons Ratio (y) = 0.65380 0.29953
# Poissons Ratio (z) = 0.46909 0.31174
#
# Static dielectric constant tensor:
#      x y z
#    x 5.037910 0.000000 0.000000 
#    y 0.000000 3.423540 0.000000 
#    z 0.000000 0.000000 3.363140 
# 
# 
# High freq. dielectric constant tensor:
#      x y z
#    x 1.742460 0.000000 0.000000 
#    y 0.000000 1.723050 0.000000 
#    z 0.000000 0.000000 1.719560 
# 
# From -- ./inp_files/2701.got.cif
#   From: 2010.03.12/outbox.cif.g09.slc.cpg/sg47_2_cif.got.tgz:2701.got - 2010.04.14 03:12:58.
