data_PCOD8199738
_publ_section_title
;
Structure prediction by ZEFSAII (Michael W. Deem and Ramdas Pophale) SiO2 
 PCOD8199738
Probable space group: P M M M
;
_chemical_formula_sum "Si O2"
_cell_formula_units_Z 44
_cell_length_a 28.842876
_cell_length_b 9.278977
_cell_length_c 8.695969
_cell_angle_alpha 90.000000
_cell_angle_beta 90.000000
_cell_angle_gamma 90.000000
_cell_volume 2327.322906
_symmetry_space_group_name_H-M "P M M M"
_symmetry_group_IT_number 47
_symmetry_cell_setting 'orthorhombic'
loop_
_space_group_symop_operation_xyz
x,y,z
-x,-y,z
x,-y,-z
-x,y,-z
-x,-y,-z
x,y,-z
-x,y,z
x,-y,z
loop_
_atom_site_type_symbol
_atom_site_label
_atom_site_fract_x
_atom_site_fract_y
_atom_site_fract_z
Si Si1 0.549097 0.328557 0.172733
Si Si2 0.832108 0.166955 0.320924
Si Si3 0.084939 0.665780 0.180388
Si Si4 0.351956 0.662109 0.183994
Si Si5 0.263961 0.167829 0.824353
Si Si6 0.000000 0.163221 0.681572
O O1 0.500000 0.281516 0.256075
O O2 0.551981 0.500000 0.167759
O O3 0.598059 0.276871 0.248880
O O4 0.546733 0.267828 0.000000
O O5 0.840776 0.194622 0.500000
O O6 0.865756 0.266786 0.222426
O O7 0.779987 0.212410 0.277911
O O8 0.841058 0.000000 0.277770
O O9 0.083332 0.500000 0.235005
O O10 0.045389 0.754469 0.264576
O O11 0.076564 0.677324 0.000000
O O12 0.343378 0.500000 0.242056
O O13 0.309415 0.756545 0.246500
O O14 0.354055 0.667918 0.000000
O O15 0.273694 0.000000 0.814589
O O16 0.254647 0.216572 0.000000
O O17 0.000000 0.158722 0.500000
O O18 0.000000 0.000000 0.747541
#
# Coordination Sequence:
#
# PCOD8199738 Si02
#       6
#     8   8   8   8   8   4
#     4   7   9  14  26  46  73 105 141 181 225 274
#     4  10  21  37  56  77 101 132 172 213 253 301
#     4  11  24  40  59  85 114 142 174 212 254 299
#     4   8  13  21  35  56  81 111 149 190 230 279
#     4   9  17  29  45  65  91 123 156 193 241 294
#     4  11  24  41  62  88 116 147 182 215 248 290
#
# _framework density 18.905842
#
# number of rings (size 3 to 8) (size 9 to 14) (size 15 to 20)
#    0.000    2.818    0.000    3.818    0.000    7.273 
#    0.000    1.818    0.000    0.545    0.000    3.818 
#    0.000    0.727    0.000    9.091    0.000    8.364 
#
# Total GULP energy -545172.241587 kJ/mol
# GULP energy per Si atom -12390.278218 kJ/mol
# Density = 1.886281 g / cm^3
# Si number density = 18.905842 Si / 1000 Ang^3
#
#
#
# Elastic Constant Matrix: (Units=GPa)
#
#
# Indices 1 2 3 4 5 6 
#
# 1 164.8126 68.9241 20.3712 0.0000 0.0000 0.0000
# 2 68.9241 83.2927 24.0499 0.0000 0.0000 0.0000
# 3 20.3712 24.0499 31.8714 0.0000 0.0000 0.0000
# 4 0.0000 0.0000 0.0000 16.3285 0.0000 0.0000
# 5 0.0000 0.0000 0.0000 0.0000 -12.6031 0.0000
# 6 0.0000 0.0000 0.0000 0.0000 0.0000 73.6233
#
#
#
# Elastic Compliance Matrix: (Units=1/GPa)
#
#
# Indices 1 2 3 4 5 6 
#
# 1 0.009279 -0.007628 -0.000175 0.000000 0.000000 0.000000
# 2 -0.007628 0.021621 -0.011439 0.000000 0.000000 0.000000
# 3 -0.000175 -0.011439 0.040120 0.000000 0.000000 0.000000
# 4 0.000000 0.000000 0.000000 0.061243 0.000000 0.000000
# 5 0.000000 0.000000 0.000000 0.000000 -0.079346 0.000000
# 6 0.000000 0.000000 0.000000 0.000000 0.000000 0.013583
#
#
# Mechanical properties :
#
#
# Convention : Reuss Voigt Hill
#
# Bulk Modulus (GPa) = 30.73570 56.29636 43.51603
# Shear Modulus (GPa) = 43.16699 26.57850 34.87275
#
# Velocity S-wave (km/s) = 4.78353 3.75352 4.29948
# Velocity P-wave (km/s) = 6.84121 6.97331 6.90757
#
# Compressibility (1/GPa) = 0.03253546
#
# Stress axis : x y z
#
# Youngs Moduli (GPa) = 107.76958 46.25173 24.92518
#
# Poissons Ratio (x) = 0.35280 0.00436
# Poissons Ratio (y) = 0.82205 0.28513
# Poissons Ratio (z) = 0.01886 0.52909
#
# Static dielectric constant tensor:
#      x y z
#    x 4.047720 0.000000 0.000000 
#    y 0.000000 3.374510 0.000000 
#    z 0.000000 0.000000 3.067420 
# 
# 
# High freq. dielectric constant tensor:
#      x y z
#    x 1.765390 0.000000 0.000000 
#    y 0.000000 1.708980 0.000000 
#    z 0.000000 0.000000 1.689020 
# 
# From -- ./inp_files/13657.got.cif
#   From: 2010.03.12/outbox.cif.g09.slc.cpg/sg47_7_cif.got.tgz:13657.got - 2010.04.14 03:12:58.
