data_PCOD8199427
_publ_section_title
;
Structure prediction by ZEFSAII (Michael W. Deem and Ramdas Pophale) SiO2 
 PCOD8199427
Probable space group: P M M M
;
_chemical_formula_sum "Si O2"
_cell_formula_units_Z 60
_cell_length_a 9.467979
_cell_length_b 18.067065
_cell_length_c 19.565651
_cell_angle_alpha 90.000000
_cell_angle_beta 90.000000
_cell_angle_gamma 90.000000
_cell_volume 3346.872712
_symmetry_space_group_name_H-M "P M M M"
_symmetry_group_IT_number 47
_symmetry_cell_setting 'orthorhombic'
loop_
_space_group_symop_operation_xyz
x,y,z
-x,-y,z
x,-y,-z
-x,y,-z
-x,-y,-z
x,y,-z
-x,y,z
x,-y,z
loop_
_atom_site_type_symbol
_atom_site_label
_atom_site_fract_x
_atom_site_fract_y
_atom_site_fract_z
Si Si1 0.655552 0.083346 0.700222
Si Si2 0.846763 0.706568 0.419909
Si Si3 0.662268 0.804484 0.080658
Si Si4 0.839539 0.500000 0.081563
Si Si5 0.165321 0.872922 0.578190
Si Si6 0.658420 0.361929 0.918783
Si Si7 0.656157 0.580414 0.419006
Si Si8 0.834399 0.087632 0.173084
O O1 0.500000 0.122727 0.696259
O O2 0.734838 0.080663 0.627391
O O3 0.757541 0.117761 0.758004
O O4 0.628507 0.000000 0.722271
O O5 0.860155 0.691061 0.500000
O O6 0.788170 0.788473 0.408095
O O7 0.746974 0.645624 0.384750
O O8 0.000000 0.698585 0.385542
O O9 0.500000 0.820872 0.102245
O O10 0.705014 0.720945 0.104690
O O11 0.766667 0.865553 0.111871
O O12 0.678929 0.811270 0.000000
O O13 0.762655 0.574303 0.109954
O O14 0.000000 0.500000 0.108729
O O15 0.835718 0.500000 0.000000
O O16 0.195347 0.896032 0.500000
O O17 0.000000 0.885650 0.594661
O O18 0.500000 0.378673 0.892068
O O19 0.658470 0.364149 0.000000
O O20 0.648448 0.590653 0.500000
O O21 0.500000 0.586127 0.387858
O O22 0.722184 0.500000 0.401125
O O23 0.000000 0.105674 0.179389
O O24 0.811277 0.000000 0.160098
#
# Coordination Sequence:
#
# PCOD8199427 Si02
#       8
#     8   8   8   4   8   8   8   8
#     4  10  21  36  53  72  94 121 156 198 239 283
#     4   8  14  24  37  55  81 112 144 177 214 259
#     4   9  18  32  50  73 101 133 169 209 251 293
#     4   9  15  21  33  57  89 125 163 201 242 285
#     4   9  18  32  49  70  97 126 154 188 234 287
#     4   8  14  25  40  59  88 127 165 199 239 287
#     4   8  13  20  30  47  74 108 143 177 214 256
#     4  10  21  36  53  72  96 128 164 203 249 299
#
# _framework density 17.927184
#
# number of rings (size 3 to 8) (size 9 to 14) (size 15 to 20)
#    0.000    3.133    0.000    3.000    0.000    4.800 
#    0.000    6.667    0.000    0.000    0.000    0.000 
#    2.000    0.000    2.000    0.000    2.133    0.000 
#
# Total GULP energy -743395.328378 kJ/mol
# GULP energy per Si atom -12389.922140 kJ/mol
# Density = 1.788638 g / cm^3
# Si number density = 17.927184 Si / 1000 Ang^3
#
#
#
# Elastic Constant Matrix: (Units=GPa)
#
#
# Indices 1 2 3 4 5 6 
#
# 1 121.0452 56.1601 39.2285 0.0000 0.0000 0.0000
# 2 56.1601 79.8944 22.7670 0.0000 0.0000 0.0000
# 3 39.2285 22.7670 43.5455 0.0000 0.0000 0.0000
# 4 0.0000 0.0000 0.0000 2.3327 0.0000 0.0000
# 5 0.0000 0.0000 0.0000 0.0000 20.9987 0.0000
# 6 0.0000 0.0000 0.0000 0.0000 0.0000 28.6089
#
#
#
# Elastic Compliance Matrix: (Units=1/GPa)
#
#
# Indices 1 2 3 4 5 6 
#
# 1 0.014922 -0.007824 -0.009352 0.000000 0.000000 0.000000
# 2 -0.007824 0.018810 -0.002786 0.000000 0.000000 0.000000
# 3 -0.009352 -0.002786 0.032846 0.000000 0.000000 0.000000
# 4 0.000000 0.000000 0.000000 0.428679 0.000000 0.000000
# 5 0.000000 0.000000 0.000000 0.000000 0.047622 0.000000
# 6 0.000000 0.000000 0.000000 0.000000 0.000000 0.034954
#
#
# Mechanical properties :
#
#
# Convention : Reuss Voigt Hill
#
# Bulk Modulus (GPa) = 37.51813 53.42182 45.46997
# Shear Modulus (GPa) = 7.97901 18.81003 13.39452
#
# Velocity S-wave (km/s) = 2.11198 3.24272 2.73639
# Velocity P-wave (km/s) = 5.18852 6.62453 5.95000
#
# Compressibility (1/GPa) = 0.02665378
#
# Stress axis : x y z
#
# Youngs Moduli (GPa) = 67.01310 53.16205 30.44495
#
# Poissons Ratio (x) = 0.41596 0.28473
# Poissons Ratio (y) = 0.52434 0.08482
# Poissons Ratio (z) = 0.62672 0.14811
#
# Static dielectric constant tensor:
#      x y z
#    x 3.639120 0.000000 0.000000 
#    y 0.000000 3.470100 0.000000 
#    z 0.000000 0.000000 2.745760 
# 
# 
# High freq. dielectric constant tensor:
#      x y z
#    x 1.699080 0.000000 0.000000 
#    y 0.000000 1.695790 0.000000 
#    z 0.000000 0.000000 1.631830 
# 
# From -- ./inp_files/27058.got.cif
#   From: 2010.03.12/outbox.cif.g09.slc.cpg/sg47_14_cif.got.tgz:27058.got - 2010.04.14 03:12:58.
