data_PCOD8199552
_publ_section_title
;
Structure prediction by ZEFSAII (Michael W. Deem and Ramdas Pophale) SiO2 
 PCOD8199552
Probable space group: P M M M
;
_chemical_formula_sum "Si O2"
_cell_formula_units_Z 48
_cell_length_a 30.691823
_cell_length_b 9.201253
_cell_length_c 8.781086
_cell_angle_alpha 90.000000
_cell_angle_beta 90.000000
_cell_angle_gamma 90.000000
_cell_volume 2479.807036
_symmetry_space_group_name_H-M "P M M M"
_symmetry_group_IT_number 47
_symmetry_cell_setting 'orthorhombic'
loop_
_space_group_symop_operation_xyz
x,y,z
-x,-y,z
x,-y,-z
-x,y,-z
-x,-y,-z
x,y,-z
-x,y,z
x,-y,z
loop_
_atom_site_type_symbol
_atom_site_label
_atom_site_fract_x
_atom_site_fract_y
_atom_site_fract_z
Si Si1 0.580141 0.667823 0.821385
Si Si2 0.500000 0.834980 0.680075
Si Si3 0.748503 0.833073 0.824771
Si Si4 0.000000 0.835942 0.818777
Si Si5 0.826385 0.328248 0.327201
Si Si6 0.658446 0.831426 0.322759
Si Si7 0.084498 0.668964 0.822891
O O1 0.578073 0.500000 0.772114
O O2 0.542747 0.754398 0.736154
O O3 0.626516 0.732468 0.775269
O O4 0.573044 0.685776 0.000000
O O5 0.500000 0.834161 0.500000
O O6 0.500000 0.000000 0.742230
O O7 0.789534 0.738000 0.778842
O O8 0.707330 0.787485 0.722657
O O9 0.760780 0.000000 0.796027
O O10 0.736646 0.803690 0.000000
O O11 0.956919 0.755769 0.757422
O O12 0.000000 0.000000 0.757398
O O13 0.000000 0.829338 0.000000
O O14 0.820172 0.274609 0.500000
O O15 0.822773 0.500000 0.313487
O O16 0.873353 0.275769 0.268202
O O17 0.651270 0.799271 0.500000
O O18 0.649472 0.000000 0.284000
O O19 0.075293 0.500000 0.794454
O O20 0.092562 0.701905 0.000000
#
# Coordination Sequence:
#
# PCOD8199552 Si02
#       7
#     8   4   8   4   8   8   8
#     4  11  24  40  59  86 118 151 189 232 277 326
#     4  11  24  41  62  88 116 149 190 233 280 334
#     4  10  21  37  58  83 110 143 183 226 273 324
#     4   9  17  29  48  75 102 128 166 217 266 313
#     4  10  21  36  54  78 108 142 180 222 270 323
#     4  10  21  38  60  85 113 147 187 228 273 328
#     4   9  17  31  51  73  99 134 174 215 262 317
#
# _framework density 19.356342999999999
#
# number of rings (size 3 to 8) (size 9 to 14) (size 15 to 20)
#    0.000    2.000    0.000    3.250    0.000   10.333 
#    0.000    2.083    0.000    2.500    0.000    0.000 
#    0.000    0.000    0.000    0.000    0.000    0.000 
#
# Total GULP energy -595426.350412 kJ/mol
# GULP energy per Si atom -12404.715634 kJ/mol
# Density = 1.931229 g / cm^3
# Si number density = 19.356343 Si / 1000 Ang^3
#
#
#
# Elastic Constant Matrix: (Units=GPa)
#
#
# Indices 1 2 3 4 5 6 
#
# 1 127.7761 62.5550 27.1063 0.0000 0.0000 0.0000
# 2 62.5550 91.0419 34.1996 0.0000 0.0000 0.0000
# 3 27.1063 34.1996 54.5179 0.0000 0.0000 0.0000
# 4 0.0000 0.0000 0.0000 25.7823 0.0000 0.0000
# 5 0.0000 0.0000 0.0000 0.0000 105.7764 0.0000
# 6 0.0000 0.0000 0.0000 0.0000 0.0000 37.2764
#
#
#
# Elastic Compliance Matrix: (Units=1/GPa)
#
#
# Indices 1 2 3 4 5 6 
#
# 1 0.011837 -0.007748 -0.001025 0.000000 0.000000 0.000000
# 2 -0.007748 0.019442 -0.008344 0.000000 0.000000 0.000000
# 3 -0.001025 -0.008344 0.024086 0.000000 0.000000 0.000000
# 4 0.000000 0.000000 0.000000 0.038786 0.000000 0.000000
# 5 0.000000 0.000000 0.000000 0.000000 0.009454 0.000000
# 6 0.000000 0.000000 0.000000 0.000000 0.000000 0.026827
#
#
# Mechanical properties :
#
#
# Convention : Reuss Voigt Hill
#
# Bulk Modulus (GPa) = 47.32234 57.89532 52.60883
# Shear Modulus (GPa) = 29.11899 43.73202 36.42551
#
# Velocity S-wave (km/s) = 3.88282 4.75838 4.34272
# Velocity P-wave (km/s) = 6.67853 7.75659 7.23766
#
# Compressibility (1/GPa) = 0.02113167
#
# Stress axis : x y z
#
# Youngs Moduli (GPa) = 84.48215 51.43498 41.51744
#
# Poissons Ratio (x) = 0.39853 0.04255
# Poissons Ratio (y) = 0.65458 0.34641
# Poissons Ratio (z) = 0.08658 0.42916
#
# Static dielectric constant tensor:
#      x y z
#    x 3.667720 0.000000 0.000000 
#    y 0.000000 3.565200 0.000000 
#    z 0.000000 0.000000 3.532370 
# 
# 
# High freq. dielectric constant tensor:
#      x y z
#    x 1.767910 0.000000 0.000000 
#    y 0.000000 1.750450 0.000000 
#    z 0.000000 0.000000 1.751920 
# 
# From -- ./inp_files/2745.got.cif
#   From: 2010.03.12/outbox.cif.g09.slc.cpg/sg47_2_cif.got.tgz:2745.got - 2010.04.14 03:12:58.
