data_PCOD8199940
_publ_section_title
;
Structure prediction by ZEFSAII (Michael W. Deem and Ramdas Pophale) SiO2 
 PCOD8199940
Probable space group: P M M M
;
_chemical_formula_sum "Si O2"
_cell_formula_units_Z 56
_cell_length_a 21.467498
_cell_length_b 9.073253
_cell_length_c 14.751906
_cell_angle_alpha 90.000000
_cell_angle_beta 90.000000
_cell_angle_gamma 90.000000
_cell_volume 2873.376850
_symmetry_space_group_name_H-M "P M M M"
_symmetry_group_IT_number 47
_symmetry_cell_setting 'orthorhombic'
loop_
_space_group_symop_operation_xyz
x,y,z
-x,-y,z
x,-y,-z
-x,y,-z
-x,-y,-z
x,y,-z
-x,y,z
x,-y,z
loop_
_atom_site_type_symbol
_atom_site_label
_atom_site_fract_x
_atom_site_fract_y
_atom_site_fract_z
Si Si1 0.810742 0.665611 0.398806
Si Si2 0.811318 0.665503 0.898961
Si Si3 0.069855 0.833386 0.643723
Si Si4 0.500000 0.675184 0.106808
Si Si5 0.734088 0.826373 0.750518
Si Si6 0.591279 0.174240 0.758395
Si Si7 0.069912 0.833555 0.142913
Si Si8 0.500000 0.173147 0.602293
O O1 0.783436 0.667956 0.500000
O O2 0.812131 0.500000 0.359680
O O3 0.881079 0.725951 0.402738
O O4 0.765686 0.764714 0.339217
O O5 0.811450 0.500000 0.859199
O O6 0.767997 0.768965 0.839542
O O7 0.881946 0.723757 0.903669
O O8 0.783627 0.667016 0.000000
O O9 0.080301 0.826736 0.750398
O O10 0.000000 0.781736 0.618009
O O11 0.080638 0.000000 0.609192
O O12 0.500000 0.500000 0.118801
O O13 0.560747 0.742223 0.156215
O O14 0.500000 0.718120 0.000000
O O15 0.662620 0.776441 0.753262
O O16 0.741049 0.000000 0.747971
O O17 0.560087 0.220834 0.662148
O O18 0.582937 0.000000 0.774705
O O19 0.000000 0.783626 0.116981
O O20 0.081579 0.000000 0.108455
O O21 0.500000 0.245161 0.500000
O O22 0.500000 0.000000 0.588547
#
# Coordination Sequence:
#
# PCOD8199940 Si02
#       8
#     8   8   8   4   8   8   8   4
#     4  11  24  39  56  82 116 153 192 236 291 352
#     4  11  24  39  56  81 113 149 189 236 292 351
#     4   9  18  34  57  83 109 141 185 238 295 350
#     4  10  21  37  60  91 124 157 191 228 274 330
#     4  11  23  40  61  84 114 153 198 243 284 332
#     4   9  20  37  59  88 118 152 192 234 279 323
#     4   9  18  34  57  83 109 140 182 234 292 350
#     4   8  14  30  58  89 118 143 173 218 268 318
#
# _framework density 19.489263000000001
#
# number of rings (size 3 to 8) (size 9 to 14) (size 15 to 20)
#    0.000    2.143    1.429    2.786    0.000    6.286 
#    0.000    8.571    0.000    3.429    0.000    0.000 
#    0.000    0.000    0.000    0.000    0.000    0.000 
#
# Total GULP energy -694337.215655 kJ/mol
# GULP energy per Si atom -12398.878851 kJ/mol
# Density = 1.944490 g / cm^3
# Si number density = 19.489263 Si / 1000 Ang^3
#
#
#
# Elastic Constant Matrix: (Units=GPa)
#
#
# Indices 1 2 3 4 5 6 
#
# 1 150.1023 57.9321 55.4285 0.0000 0.0000 0.0000
# 2 57.9321 88.8565 41.1470 0.0000 0.0000 0.0000
# 3 55.4285 41.1470 121.9552 0.0000 0.0000 0.0000
# 4 0.0000 0.0000 0.0000 31.8666 0.0000 0.0000
# 5 0.0000 0.0000 0.0000 0.0000 -12.8159 0.0000
# 6 0.0000 0.0000 0.0000 0.0000 0.0000 11.8779
#
#
#
# Elastic Compliance Matrix: (Units=1/GPa)
#
#
# Indices 1 2 3 4 5 6 
#
# 1 0.009580 -0.005013 -0.002663 0.000000 0.000000 0.000000
# 2 -0.005013 0.015961 -0.003107 0.000000 0.000000 0.000000
# 3 -0.002663 -0.003107 0.010458 0.000000 0.000000 0.000000
# 4 0.000000 0.000000 0.000000 0.031381 0.000000 0.000000
# 5 0.000000 0.000000 0.000000 0.000000 -0.078028 0.000000
# 6 0.000000 0.000000 0.000000 0.000000 0.000000 0.084190
#
#
# Mechanical properties :
#
#
# Convention : Reuss Voigt Hill
#
# Bulk Modulus (GPa) = 69.27943 74.43658 71.85800
# Shear Modulus (GPa) = 50.04058 19.94614 34.99336
#
# Velocity S-wave (km/s) = 5.07264 3.20260 4.24195
# Velocity P-wave (km/s) = 8.36263 7.20778 7.80659
#
# Compressibility (1/GPa) = 0.01443430
#
# Stress axis : x y z
#
# Youngs Moduli (GPa) = 104.38211 62.65240 95.61865
#
# Poissons Ratio (x) = 0.31407 0.25462
# Poissons Ratio (y) = 0.52326 0.29707
# Poissons Ratio (z) = 0.27795 0.19465
#
# Static dielectric constant tensor:
#      x y z
#    x 3.642590 0.000000 0.000000 
#    y 0.000000 3.514630 0.000000 
#    z 0.000000 0.000000 3.579020 
# 
# 
# High freq. dielectric constant tensor:
#      x y z
#    x 1.755400 0.000000 0.000000 
#    y 0.000000 1.750670 0.000000 
#    z 0.000000 0.000000 1.765550 
# 
# From -- ./inp_files/25253.got.cif
#   From: 2010.03.12/outbox.cif.g09.slc.cpg/sg47_13_cif.got.tgz:25253.got - 2010.04.14 03:12:58.
