data_PCOD8199152
_publ_section_title
;
Structure prediction by ZEFSAII (Michael W. Deem and Ramdas Pophale) SiO2 
 PCOD8199152
Probable space group: P M M M
;
_chemical_formula_sum "Si O2"
_cell_formula_units_Z 64
_cell_length_a 28.314048
_cell_length_b 14.139707
_cell_length_c 9.063252
_cell_angle_alpha 90.000000
_cell_angle_beta 90.000000
_cell_angle_gamma 90.000000
_cell_volume 3628.494171
_symmetry_space_group_name_H-M "P M M M"
_symmetry_group_IT_number 47
_symmetry_cell_setting 'orthorhombic'
loop_
_space_group_symop_operation_xyz
x,y,z
-x,-y,z
x,-y,-z
-x,y,-z
-x,-y,-z
x,y,-z
-x,y,z
x,-y,z
loop_
_atom_site_type_symbol
_atom_site_label
_atom_site_fract_x
_atom_site_fract_y
_atom_site_fract_z
Si Si1 0.633696 0.740214 0.667632
Si Si2 0.553295 0.605816 0.675477
Si Si3 0.721890 0.391944 0.333748
Si Si4 0.877901 0.259183 0.675064
Si Si5 0.306065 0.109068 0.174050
Si Si6 0.947300 0.611523 0.833011
Si Si7 0.778918 0.244163 0.172748
Si Si8 0.051869 0.896245 0.324643
O O1 0.625118 0.773640 0.500000
O O2 0.586981 0.690029 0.737028
O O3 0.671718 0.657485 0.675632
O O4 0.649864 0.833542 0.756691
O O5 0.557808 0.604819 0.500000
O O6 0.500000 0.629835 0.725256
O O7 0.567097 0.500000 0.733515
O O8 0.742563 0.382950 0.500000
O O9 0.715362 0.500000 0.286944
O O10 0.757136 0.344793 0.217473
O O11 0.873656 0.263998 0.500000
O O12 0.904142 0.353130 0.731308
O O13 0.827241 0.235556 0.740290
O O14 0.910125 0.175251 0.738375
O O15 0.256599 0.159034 0.220066
O O16 0.305801 0.000000 0.229878
O O17 0.312588 0.113407 0.000000
O O18 0.944307 0.500000 0.827460
O O19 0.000000 0.643272 0.777313
O O20 0.939640 0.647661 0.000000
O O21 0.788988 0.242582 0.000000
O O22 0.052169 0.894751 0.500000
O O23 0.000000 0.867202 0.266797
O O24 0.065230 0.000000 0.265957
#
# Coordination Sequence:
#
# PCOD8199152 Si02
#       8
#     8   8   8   8   8   8   8   8
#     4   9  16  27  47  75 100 123 159 203 241 280
#     4   8  13  22  40  70 107 141 167 193 233 287
#     4   9  17  30  48  69  94 122 152 191 235 275
#     4  11  21  32  50  75  99 123 152 188 231 277
#     4   9  19  36  54  69  89 122 163 205 249 295
#     4   9  19  36  55  73  95 126 162 196 231 273
#     4  10  21  35  49  67  92 122 155 191 234 284
#     4   8  15  29  48  70  95 119 142 171 212 264
#
# _framework density 17.638169999999999
#
# number of rings (size 3 to 8) (size 9 to 14) (size 15 to 20)
#    0.000    2.875    0.000    2.625    0.000    4.500 
#    0.000    0.625    0.000    3.000    0.000    7.875 
#    0.000    0.000    0.000    0.000    0.000    0.000 
#
# Total GULP energy -793152.474617 kJ/mol
# GULP energy per Si atom -12393.007416 kJ/mol
# Density = 1.759803 g / cm^3
# Si number density = 17.638170 Si / 1000 Ang^3
#
#
#
# Elastic Constant Matrix: (Units=GPa)
#
#
# Indices 1 2 3 4 5 6 
#
# 1 112.8833 58.9046 37.3154 0.0000 0.0000 0.0000
# 2 58.9046 120.2387 34.5700 0.0000 0.0000 0.0000
# 3 37.3154 34.5700 49.4818 0.0000 0.0000 0.0000
# 4 0.0000 0.0000 0.0000 21.4319 0.0000 0.0000
# 5 0.0000 0.0000 0.0000 0.0000 15.8849 0.0000
# 6 0.0000 0.0000 0.0000 0.0000 0.0000 39.4194
#
#
#
# Elastic Compliance Matrix: (Units=1/GPa)
#
#
# Indices 1 2 3 4 5 6 
#
# 1 0.013601 -0.004648 -0.007010 0.000000 0.000000 0.000000
# 2 -0.004648 0.011995 -0.004876 0.000000 0.000000 0.000000
# 3 -0.007010 -0.004876 0.028902 0.000000 0.000000 0.000000
# 4 0.000000 0.000000 0.000000 0.046659 0.000000 0.000000
# 5 0.000000 0.000000 0.000000 0.000000 0.062953 0.000000
# 6 0.000000 0.000000 0.000000 0.000000 0.000000 0.025368
#
#
# Mechanical properties :
#
#
# Convention : Reuss Voigt Hill
#
# Bulk Modulus (GPa) = 46.65843 60.46485 53.56164
# Shear Modulus (GPa) = 21.76849 25.46818 23.61834
#
# Velocity S-wave (km/s) = 3.51689 3.80402 3.66327
# Velocity P-wave (km/s) = 6.55758 7.32456 6.95166
#
# Compressibility (1/GPa) = 0.02143236
#
# Stress axis : x y z
#
# Youngs Moduli (GPa) = 73.52274 83.36465 34.59964
#
# Poissons Ratio (x) = 0.38746 0.24254
# Poissons Ratio (y) = 0.34172 0.16869
# Poissons Ratio (z) = 0.51539 0.40645
#
# Static dielectric constant tensor:
#      x y z
#    x 3.423450 0.000000 0.000000 
#    y 0.000000 3.420330 0.000000 
#    z 0.000000 0.000000 3.078580 
# 
# 
# High freq. dielectric constant tensor:
#      x y z
#    x 1.679180 0.000000 0.000000 
#    y 0.000000 1.680780 0.000000 
#    z 0.000000 0.000000 1.655590 
# 
# From -- ./inp_files/14382.got.cif
#   From: 2010.03.12/outbox.cif.g09.slc.cpg/sg47_8_cif.got.tgz:14382.got - 2010.04.14 03:12:58.
