data_PCOD8199517
_publ_section_title
;
Structure prediction by ZEFSAII (Michael W. Deem and Ramdas Pophale) SiO2 
 PCOD8199517
Probable space group: P M M M
;
_chemical_formula_sum "Si O2"
_cell_formula_units_Z 64
_cell_length_a 9.305209
_cell_length_b 14.852435
_cell_length_c 24.463594
_cell_angle_alpha 90.000000
_cell_angle_beta 90.000000
_cell_angle_gamma 90.000000
_cell_volume 3380.991298
_symmetry_space_group_name_H-M "P M M M"
_symmetry_group_IT_number 47
_symmetry_cell_setting 'orthorhombic'
loop_
_space_group_symop_operation_xyz
x,y,z
-x,-y,z
x,-y,-z
-x,y,-z
-x,-y,-z
x,y,-z
-x,y,z
x,-y,z
loop_
_atom_site_type_symbol
_atom_site_label
_atom_site_fract_x
_atom_site_fract_y
_atom_site_fract_z
Si Si1 0.659360 0.893110 0.262263
Si Si2 0.671498 0.899923 0.857659
Si Si3 0.666548 0.397106 0.354580
Si Si4 0.667077 0.603331 0.855227
Si Si5 0.837902 0.607037 0.249564
Si Si6 0.666168 0.757757 0.437146
Si Si7 0.670116 0.249139 0.939200
Si Si8 0.832437 0.894554 0.633480
O O1 0.500000 0.853150 0.273871
O O2 0.717963 0.863208 0.202472
O O3 0.766412 0.859092 0.309295
O O4 0.650091 0.000000 0.261881
O O5 0.500000 0.902285 0.858707
O O6 0.733571 0.834191 0.904272
O O7 0.733160 0.000000 0.868806
O O8 0.500000 0.391681 0.338291
O O9 0.709559 0.500000 0.369173
O O10 0.756638 0.358485 0.303538
O O11 0.703650 0.335134 0.406351
O O12 0.500000 0.616614 0.840915
O O13 0.704520 0.500000 0.867568
O O14 0.755943 0.642430 0.804111
O O15 0.711489 0.657984 0.909337
O O16 0.834490 0.500000 0.249143
O O17 0.000000 0.644446 0.249666
O O18 0.704821 0.741209 0.500000
O O19 0.500000 0.783759 0.429050
O O20 0.760311 0.840903 0.415972
O O21 0.500000 0.239368 0.943277
O O22 0.738085 0.248708 0.000000
O O23 0.000000 0.873497 0.634639
O O24 0.801052 0.000000 0.624439
#
# Coordination Sequence:
#
# PCOD8199517 Si02
#       8
#     8   8   8   8   8   8   8   8
#     4   8  14  27  48  72  97 125 158 196 242 300
#     4   8  14  25  42  65  92 120 150 190 242 293
#     4   9  18  34  56  80 106 134 163 201 250 299
#     4   9  17  29  45  66  95 129 161 196 239 285
#     4   9  17  30  50  76 103 129 160 199 244 296
#     4  10  22  38  55  77 103 134 174 211 243 289
#     4   9  17  27  40  62  90 121 161 202 237 281
#     4  10  21  36  54  77 105 135 167 208 257 302
#
# _framework density 18.929361
#
# number of rings (size 3 to 8) (size 9 to 14) (size 15 to 20)
#    0.000    3.000    0.000    1.500    0.000    5.000 
#    0.000    7.500    0.000    0.375    0.000    4.375 
#    0.000    0.000    0.000    6.000    0.000    6.250 
#
# Total GULP energy -793461.296985 kJ/mol
# GULP energy per Si atom -12397.832765 kJ/mol
# Density = 1.888628 g / cm^3
# Si number density = 18.929361 Si / 1000 Ang^3
#
#
#
# Elastic Constant Matrix: (Units=GPa)
#
#
# Indices 1 2 3 4 5 6 
#
# 1 67.9675 36.4344 57.7159 0.0000 0.0000 0.0000
# 2 36.4344 81.8295 65.3955 0.0000 0.0000 0.0000
# 3 57.7159 65.3955 174.8928 0.0000 0.0000 0.0000
# 4 0.0000 0.0000 0.0000 32.7179 0.0000 0.0000
# 5 0.0000 0.0000 0.0000 0.0000 3.9410 0.0000
# 6 0.0000 0.0000 0.0000 0.0000 0.0000 14.9843
#
#
#
# Elastic Compliance Matrix: (Units=1/GPa)
#
#
# Indices 1 2 3 4 5 6 
#
# 1 0.022185 -0.005743 -0.005174 0.000000 0.000000 0.000000
# 2 -0.005743 0.018915 -0.005178 0.000000 0.000000 0.000000
# 3 -0.005174 -0.005178 0.009361 0.000000 0.000000 0.000000
# 4 0.000000 0.000000 0.000000 0.030564 0.000000 0.000000
# 5 0.000000 0.000000 0.000000 0.000000 0.253740 0.000000
# 6 0.000000 0.000000 0.000000 0.000000 0.000000 0.066736
#
#
# Mechanical properties :
#
#
# Convention : Reuss Voigt Hill
#
# Bulk Modulus (GPa) = 54.72650 71.53126 63.12888
# Shear Modulus (GPa) = 11.36929 21.33825 16.35377
#
# Velocity S-wave (km/s) = 2.45341 3.36111 2.94247
# Velocity P-wave (km/s) = 6.08270 7.27553 6.70569
#
# Compressibility (1/GPa) = 0.01827268
#
# Stress axis : x y z
#
# Youngs Moduli (GPa) = 45.07561 52.86723 106.82475
#
# Poissons Ratio (x) = 0.30362 0.55269
# Poissons Ratio (y) = 0.25887 0.55309
# Poissons Ratio (z) = 0.23321 0.27372
#
# Static dielectric constant tensor:
#      x y z
#    x 3.221190 0.000000 0.000000 
#    y 0.000000 3.434490 0.000000 
#    z 0.000000 0.000000 3.673310 
# 
# 
# High freq. dielectric constant tensor:
#      x y z
#    x 1.697380 0.000000 0.000000 
#    y 0.000000 1.731960 0.000000 
#    z 0.000000 0.000000 1.736530 
# 
# From -- ./inp_files/12745.got.cif
#   From: 2010.03.12/outbox.cif.g09.slc.cpg/sg47_7_cif.got.tgz:12745.got - 2010.04.14 03:12:58.
