data_PCOD8199284
_publ_section_title
;
Structure prediction by ZEFSAII (Michael W. Deem and Ramdas Pophale) SiO2 
 PCOD8199284
Probable space group: P M M M
;
_chemical_formula_sum "Si O2"
_cell_formula_units_Z 52
_cell_length_a 9.116799
_cell_length_b 19.889066
_cell_length_c 14.826047
_cell_angle_alpha 90.000000
_cell_angle_beta 90.000000
_cell_angle_gamma 90.000000
_cell_volume 2688.327294
_symmetry_space_group_name_H-M "P M M M"
_symmetry_group_IT_number 47
_symmetry_cell_setting 'orthorhombic'
loop_
_space_group_symop_operation_xyz
x,y,z
-x,-y,z
x,-y,-z
-x,y,-z
-x,-y,-z
x,y,-z
-x,y,z
x,-y,z
loop_
_atom_site_type_symbol
_atom_site_label
_atom_site_fract_x
_atom_site_fract_y
_atom_site_fract_z
Si Si1 0.336217 0.579083 0.500000
Si Si2 0.335474 0.074092 0.606980
Si Si3 0.328848 0.201576 0.101312
Si Si4 0.172918 0.422536 0.319804
Si Si5 0.326569 0.698867 0.256755
Si Si6 0.829433 0.794893 0.393659
Si Si7 0.834943 0.926973 0.892789
O O1 0.353293 0.500000 0.500000
O O2 0.500000 0.611698 0.500000
O O3 0.243602 0.601457 0.586272
O O4 0.335444 0.072820 0.500000
O O5 0.500000 0.090386 0.641847
O O6 0.225094 0.131856 0.641023
O O7 0.285268 0.000000 0.642416
O O8 0.500000 0.189600 0.099078
O O9 0.285905 0.263848 0.164023
O O10 0.262063 0.133874 0.145354
O O11 0.268875 0.215808 0.000000
O O12 0.209006 0.500000 0.296454
O O13 0.249407 0.374245 0.246397
O O14 0.000000 0.410326 0.324529
O O15 0.500000 0.690498 0.269705
O O16 0.261201 0.737748 0.342513
O O17 0.800106 0.785705 0.500000
O O18 0.000000 0.788022 0.369890
O O19 0.000000 0.916139 0.858662
O O20 0.776314 0.000000 0.858775
O O21 0.828440 0.925733 0.000000
#
# Coordination Sequence:
#
# PCOD8199284 Si02
#       7
#     4   8   8   8   8   8   8
#     4   9  17  31  53  81 111 143 178 211 250 307
#     4   8  14  27  48  71  96 131 176 223 267 310
#     4   9  19  36  56  79 107 139 179 227 276 323
#     4  10  21  37  57  81 111 144 177 218 265 314
#     4  11  23  37  56  80 107 141 179 220 267 324
#     4  10  21  35  51  74 106 141 176 218 266 315
#     4   8  14  26  47  76 107 138 173 215 267 326
#
# _framework density 19.342883
#
# number of rings (size 3 to 8) (size 9 to 14) (size 15 to 20)
#    0.000    2.692    0.000    2.538    1.077    4.615 
#    0.000    3.846    0.000    1.385    0.000    3.231 
#    0.000    0.000    0.000    0.000    0.000    0.000 
#
# Total GULP energy -644572.560074 kJ/mol
# GULP energy per Si atom -12395.626155 kJ/mol
# Density = 1.929886 g / cm^3
# Si number density = 19.342883 Si / 1000 Ang^3
#
#
#
# Elastic Constant Matrix: (Units=GPa)
#
#
# Indices 1 2 3 4 5 6 
#
# 1 97.8067 72.8552 41.0463 0.0000 0.0000 0.0000
# 2 72.8552 152.1315 51.0171 0.0000 0.0000 0.0000
# 3 41.0463 51.0171 56.2885 0.0000 0.0000 0.0000
# 4 0.0000 0.0000 0.0000 6.3587 0.0000 0.0000
# 5 0.0000 0.0000 0.0000 0.0000 17.5292 0.0000
# 6 0.0000 0.0000 0.0000 0.0000 0.0000 38.2114
#
#
#
# Elastic Compliance Matrix: (Units=1/GPa)
#
#
# Indices 1 2 3 4 5 6 
#
# 1 0.017898 -0.006026 -0.007590 0.000000 0.000000 0.000000
# 2 -0.006026 0.011473 -0.006004 0.000000 0.000000 0.000000
# 3 -0.007590 -0.006004 0.028742 0.000000 0.000000 0.000000
# 4 0.000000 0.000000 0.000000 0.157264 0.000000 0.000000
# 5 0.000000 0.000000 0.000000 0.000000 0.057048 0.000000
# 6 0.000000 0.000000 0.000000 0.000000 0.000000 0.026170
#
#
# Mechanical properties :
#
#
# Convention : Reuss Voigt Hill
#
# Bulk Modulus (GPa) = 52.98574 70.67375 61.82975
# Shear Modulus (GPa) = 14.52959 21.84039 18.18499
#
# Velocity S-wave (km/s) = 2.74370 3.36388 3.06949
# Velocity P-wave (km/s) = 6.12287 7.19057 6.67809
#
# Compressibility (1/GPa) = 0.01887300
#
# Stress axis : x y z
#
# Youngs Moduli (GPa) = 55.87128 87.16478 34.79265
#
# Poissons Ratio (x) = 0.52527 0.26407
# Poissons Ratio (y) = 0.33669 0.20889
# Poissons Ratio (z) = 0.42405 0.52332
#
# Static dielectric constant tensor:
#      x y z
#    x 3.601490 0.000000 0.000000 
#    y 0.000000 3.840040 0.000000 
#    z 0.000000 0.000000 3.360710 
# 
# 
# High freq. dielectric constant tensor:
#      x y z
#    x 1.755590 0.000000 0.000000 
#    y 0.000000 1.757730 0.000000 
#    z 0.000000 0.000000 1.717870 
# 
# From -- ./inp_files/21477.got.cif
#   From: 2010.03.12/outbox.cif.g09.slc.cpg/sg47_11_cif.got.tgz:21477.got - 2010.04.14 03:12:58.
