data_PCOD8199892
_publ_section_title
;
Structure prediction by ZEFSAII (Michael W. Deem and Ramdas Pophale) SiO2 
 PCOD8199892
Probable space group: P M M M
;
_chemical_formula_sum "Si O2"
_cell_formula_units_Z 64
_cell_length_a 23.566726
_cell_length_b 15.387446
_cell_length_c 9.188771
_cell_angle_alpha 90.000000
_cell_angle_beta 90.000000
_cell_angle_gamma 90.000000
_cell_volume 3332.139867
_symmetry_space_group_name_H-M "P M M M"
_symmetry_group_IT_number 47
_symmetry_cell_setting 'orthorhombic'
loop_
_space_group_symop_operation_xyz
x,y,z
-x,-y,z
x,-y,-z
-x,y,-z
-x,-y,-z
x,y,-z
-x,y,z
x,-y,z
loop_
_atom_site_type_symbol
_atom_site_label
_atom_site_fract_x
_atom_site_fract_y
_atom_site_fract_z
Si Si1 0.566486 0.099461 0.333247
Si Si2 0.249623 0.750000 0.327218
Si Si3 0.063036 0.150006 0.170189
Si Si4 0.169583 0.596065 0.665122
Si Si5 0.830417 0.096065 0.334878
Si Si6 0.936964 0.349994 0.829811
Si Si7 0.566486 0.599461 0.666753
Si Si8 0.369284 0.750000 0.826669
O O1 0.583198 0.120604 0.500000
O O2 0.500000 0.114186 0.310454
O O3 0.599224 0.163226 0.225924
O O4 0.582929 0.000000 0.295947
O O5 0.262096 0.750000 0.500000
O O6 0.214753 0.665314 0.275113
O O7 0.214753 0.834686 0.275114
O O8 0.306884 0.749999 0.237994
O O9 0.110489 0.094380 0.249768
O O10 0.071220 0.250000 0.213452
O O11 0.000000 0.118641 0.217088
O O12 0.070974 0.136314 0.000000
O O13 0.154973 0.620474 0.500000
O O14 0.196835 0.500000 0.678385
O O15 0.110489 0.594380 0.750232
O O16 0.845027 0.120474 0.500000
O O17 0.803165 0.000000 0.321615
O O18 0.000000 0.381359 0.782914
O O19 0.929025 0.363686 0.000000
O O20 0.583198 0.620605 0.500000
O O21 0.500000 0.614184 0.689546
O O22 0.582930 0.500000 0.704051
O O23 0.599223 0.663226 0.774076
O O24 0.367145 0.750000 0.000000
#
# Coordination Sequence:
#
# PCOD8199892 Si02
#       8
#     8   8   8   8   8   8   8   8
#     4   9  19  38  64  91 119 155 198 238 277 330
#     4  10  22  41  58  75 106 148 193 238 279 326
#     4   9  18  33  54  80 110 143 177 215 267 335
#     4  10  21  37  58  82 105 135 181 233 281 328
#     4  10  21  37  58  82 105 135 181 233 281 328
#     4   9  18  33  54  80 110 143 177 215 267 335
#     4   9  19  38  64  91 119 155 198 238 277 330
#     4  12  25  37  56  88 123 156 191 237 291 344
#
# _framework density 19.206876999999999
#
# number of rings (size 3 to 8) (size 9 to 14) (size 15 to 20)
#    0.000    2.250    1.250    3.000    0.000    6.000 
#    0.000    7.500    0.000    0.000    0.000    0.000 
#    0.000    0.000    0.000    0.000    0.000    0.000 
#
# Total GULP energy -793583.581168 kJ/mol
# GULP energy per Si atom -12399.743456 kJ/mol
# Density = 1.916316 g / cm^3
# Si number density = 19.206877 Si / 1000 Ang^3
#
#
#
# Elastic Constant Matrix: (Units=GPa)
#
#
# Indices 1 2 3 4 5 6 
#
# 1 119.4510 71.3364 60.8893 0.0000 0.0000 0.0000
# 2 71.3364 130.7617 55.1351 0.0000 0.0000 0.0000
# 3 60.8893 55.1351 83.7575 0.0000 0.0000 0.0000
# 4 0.0000 0.0000 0.0000 23.6987 0.0000 0.0000
# 5 0.0000 0.0000 0.0000 0.0000 67.4489 0.0000
# 6 0.0000 0.0000 0.0000 0.0000 0.0000 12.9872
#
#
#
# Elastic Compliance Matrix: (Units=1/GPa)
#
#
# Indices 1 2 3 4 5 6 
#
# 1 0.015421 -0.005102 -0.007852 0.000000 0.000000 0.000000
# 2 -0.005102 0.012274 -0.004370 0.000000 0.000000 0.000000
# 3 -0.007852 -0.004370 0.020524 0.000000 0.000000 0.000000
# 4 0.000000 0.000000 0.000000 0.042196 0.000000 0.000000
# 5 0.000000 0.000000 0.000000 0.000000 0.014826 0.000000
# 6 0.000000 0.000000 0.000000 0.000000 0.000000 0.076999
#
#
# Mechanical properties :
#
#
# Convention : Reuss Voigt Hill
#
# Bulk Modulus (GPa) = 73.69184 78.74355 76.21770
# Shear Modulus (GPa) = 22.58221 30.60092 26.59157
#
# Velocity S-wave (km/s) = 3.43262 3.99586 3.72490
# Velocity P-wave (km/s) = 7.35943 7.89783 7.63338
#
# Compressibility (1/GPa) = 0.01357002
#
# Stress axis : x y z
#
# Youngs Moduli (GPa) = 64.84561 81.47529 48.72249
#
# Poissons Ratio (x) = 0.41570 0.38258
# Poissons Ratio (y) = 0.33085 0.21293
# Poissons Ratio (z) = 0.50918 0.35607
#
# Static dielectric constant tensor:
#      x y z
#    x 3.438700 0.000000 0.000000 
#    y 0.000000 3.652240 0.000000 
#    z 0.000000 0.000000 3.343300 
# 
# 
# High freq. dielectric constant tensor:
#      x y z
#    x 1.743350 0.000000 0.000000 
#    y 0.000000 1.759620 0.000000 
#    z 0.000000 0.000000 1.730850 
# 
# From -- ./inp_files/12736.got.cif
#   From: 2010.03.12/outbox.cif.g09.slc.cpg/sg47_7_cif.got.tgz:12736.got - 2010.04.14 03:12:58.
