data_PCOD8199258
_publ_section_title
;
Structure prediction by ZEFSAII (Michael W. Deem and Ramdas Pophale) SiO2 
 PCOD8199258
Probable space group: P M M M
;
_chemical_formula_sum "Si O2"
_cell_formula_units_Z 56
_cell_length_a 18.619328
_cell_length_b 18.369025
_cell_length_c 9.544402
_cell_angle_alpha 90.000000
_cell_angle_beta 90.000000
_cell_angle_gamma 90.000000
_cell_volume 3264.365888
_symmetry_space_group_name_H-M "P M M M"
_symmetry_group_IT_number 47
_symmetry_cell_setting 'orthorhombic'
loop_
_space_group_symop_operation_xyz
x,y,z
-x,-y,z
x,-y,-z
-x,y,-z
-x,-y,-z
x,y,-z
-x,y,z
x,-y,z
loop_
_atom_site_type_symbol
_atom_site_label
_atom_site_fract_x
_atom_site_fract_y
_atom_site_fract_z
Si Si1 0.081966 0.354012 0.338599
Si Si2 0.581110 0.211823 0.661752
Si Si3 0.585316 0.920331 0.156598
Si Si4 0.918018 0.916736 0.163793
Si Si5 0.285517 0.303165 0.338565
Si Si6 0.846577 0.795335 0.340521
Si Si7 0.794329 0.416094 0.161424
O O1 0.100739 0.372584 0.500000
O O2 0.096567 0.268956 0.310195
O O3 0.129738 0.403754 0.237709
O O4 0.000000 0.371885 0.303393
O O5 0.582380 0.190434 0.500000
O O6 0.500000 0.231837 0.710637
O O7 0.613912 0.142180 0.741408
O O8 0.632448 0.280321 0.692135
O O9 0.500000 0.921000 0.160153
O O10 0.613886 0.000000 0.204816
O O11 0.612821 0.903463 0.000000
O O12 0.863384 0.864072 0.243731
O O13 0.000000 0.901276 0.210650
O O14 0.897590 0.000000 0.199278
O O15 0.909388 0.901781 0.000000
O O16 0.275079 0.327704 0.500000
O O17 0.232920 0.235179 0.306805
O O18 0.268011 0.370419 0.237749
O O19 0.852135 0.822146 0.500000
O O20 0.772454 0.500000 0.172253
O O21 0.800848 0.391236 0.000000
#
# Coordination Sequence:
#
# PCOD8199258 Si02
#       7
#     8   8   8   8   8   8   8
#     4   9  18  32  50  73 100 129 160 193 232 280
#     4   9  17  30  50  74  96 120 156 202 245 284
#     4   8  14  25  41  63  93 126 156 186 224 274
#     4   9  18  31  45  63  89 121 158 200 242 279
#     4   9  19  35  52  71  96 124 154 190 235 289
#     4   9  17  30  47  66  90 120 155 193 230 272
#     4  10  21  35  51  73  99 126 158 194 229 271
#
# _framework density 17.154938999999999
#
# number of rings (size 3 to 8) (size 9 to 14) (size 15 to 20)
#    0.000    3.000    0.000    2.571    0.000    6.000 
#    0.000    4.286    0.000    4.714    0.000    3.000 
#    0.000    0.000    0.000    0.000    0.000    0.000 
#
# Total GULP energy -694242.975807 kJ/mol
# GULP energy per Si atom -12397.195997 kJ/mol
# Density = 1.711589 g / cm^3
# Si number density = 17.154939 Si / 1000 Ang^3
#
#
#
# Elastic Constant Matrix: (Units=GPa)
#
#
# Indices 1 2 3 4 5 6 
#
# 1 81.0040 45.7622 45.4160 0.0000 0.0000 0.0000
# 2 45.7622 93.4121 62.9838 0.0000 0.0000 0.0000
# 3 45.4160 62.9838 89.9313 0.0000 0.0000 0.0000
# 4 0.0000 0.0000 0.0000 30.6040 0.0000 0.0000
# 5 0.0000 0.0000 0.0000 0.0000 16.6676 0.0000
# 6 0.0000 0.0000 0.0000 0.0000 0.0000 15.6970
#
#
#
# Elastic Compliance Matrix: (Units=1/GPa)
#
#
# Indices 1 2 3 4 5 6 
#
# 1 0.018478 -0.005230 -0.005668 0.000000 0.000000 0.000000
# 2 -0.005230 0.021764 -0.012601 0.000000 0.000000 0.000000
# 3 -0.005668 -0.012601 0.022808 0.000000 0.000000 0.000000
# 4 0.000000 0.000000 0.000000 0.032676 0.000000 0.000000
# 5 0.000000 0.000000 0.000000 0.000000 0.059997 0.000000
# 6 0.000000 0.000000 0.000000 0.000000 0.000000 0.063706
#
#
# Mechanical properties :
#
#
# Convention : Reuss Voigt Hill
#
# Bulk Modulus (GPa) = 62.30678 63.63015 62.96846
# Shear Modulus (GPa) = 18.39739 19.93941 19.16840
#
# Velocity S-wave (km/s) = 3.27834 3.41297 3.34633
# Velocity P-wave (km/s) = 7.12242 7.25969 7.19139
#
# Compressibility (1/GPa) = 0.01604962
#
# Stress axis : x y z
#
# Youngs Moduli (GPa) = 54.11857 45.94754 43.84519
#
# Poissons Ratio (x) = 0.24032 0.24854
# Poissons Ratio (y) = 0.28305 0.55250
# Poissons Ratio (z) = 0.30677 0.57899
#
# Static dielectric constant tensor:
#      x y z
#    x 3.113470 0.000000 0.000000 
#    y 0.000000 3.099880 0.000000 
#    z 0.000000 0.000000 3.235150 
# 
# 
# High freq. dielectric constant tensor:
#      x y z
#    x 1.642830 0.000000 0.000000 
#    y 0.000000 1.649600 0.000000 
#    z 0.000000 0.000000 1.662740 
# 
# From -- ./inp_files/11516.got.cif
#   From: 2010.03.12/outbox.cif.g09.slc.cpg/sg47_6_cif.got.tgz:11516.got - 2010.04.14 03:12:58.
