data_PCOD8199330
_publ_section_title
;
Structure prediction by ZEFSAII (Michael W. Deem and Ramdas Pophale) SiO2 
 PCOD8199330
Probable space group: P M M M
;
_chemical_formula_sum "Si O2"
_cell_formula_units_Z 44
_cell_length_a 13.919330
_cell_length_b 8.324473
_cell_length_c 19.199341
_cell_angle_alpha 90.000000
_cell_angle_beta 90.000000
_cell_angle_gamma 90.000000
_cell_volume 2224.648507
_symmetry_space_group_name_H-M "P M M M"
_symmetry_group_IT_number 47
_symmetry_cell_setting 'orthorhombic'
loop_
_space_group_symop_operation_xyz
x,y,z
-x,-y,z
x,-y,-z
-x,y,-z
-x,-y,-z
x,y,-z
-x,y,z
x,-y,z
loop_
_atom_site_type_symbol
_atom_site_label
_atom_site_fract_x
_atom_site_fract_y
_atom_site_fract_z
Si Si1 0.392087 0.688372 0.579162
Si Si2 0.273539 0.182362 0.703098
Si Si3 0.386188 0.817991 0.840328
Si Si4 0.106206 0.314419 0.217051
Si Si5 0.889238 0.188392 0.074542
Si Si6 0.614120 0.500000 0.921091
O O1 0.363653 0.730269 0.500000
O O2 0.500000 0.751566 0.594698
O O3 0.388306 0.500000 0.592351
O O4 0.315395 0.772057 0.628503
O O5 0.353053 0.216668 0.761731
O O6 0.175284 0.277874 0.718232
O O7 0.241665 0.000000 0.701679
O O8 0.500000 0.815737 0.840817
O O9 0.347129 0.668007 0.886930
O O10 0.351853 0.000000 0.865160
O O11 0.090894 0.500000 0.210345
O O12 0.159250 0.255629 0.145190
O O13 0.000000 0.233861 0.227449
O O14 0.000000 0.241041 0.077642
O O15 0.877307 0.000000 0.075741
O O16 0.846396 0.253238 0.000000
O O17 0.500000 0.500000 0.916203
O O18 0.650746 0.500000 0.000000
#
# Coordination Sequence:
#
# PCOD8199330 Si02
#       6
#     8   8   8   8   8   4
#     4   9  19  36  59  89 122 152 179 211 260 323
#     4  11  22  35  55  81 110 146 184 223 273 330
#     4   9  19  34  52  79 110 139 180 231 280 334
#     4  10  21  35  52  76 105 140 186 236 282 331
#     4   8  14  27  48  71  96 129 169 218 279 338
#     4   9  18  32  52  76 102 144 192 229 278 332
#
# _framework density 19.778406
#
# number of rings (size 3 to 8) (size 9 to 14) (size 15 to 20)
#    0.000    2.636    0.000    2.727    2.545    3.273 
#    0.000    5.455    0.000    1.636    0.000    3.818 
#    0.000    0.000    0.000    0.000    0.000    0.000 
#
# Total GULP energy -545179.115665 kJ/mol
# GULP energy per Si atom -12390.434447 kJ/mol
# Density = 1.973339 g / cm^3
# Si number density = 19.778406 Si / 1000 Ang^3
#
#
#
# Elastic Constant Matrix: (Units=GPa)
#
#
# Indices 1 2 3 4 5 6 
#
# 1 47.0608 18.2773 37.6510 0.0000 0.0000 0.0000
# 2 18.2773 90.9793 41.1631 0.0000 0.0000 0.0000
# 3 37.6510 41.1631 108.3309 0.0000 0.0000 0.0000
# 4 0.0000 0.0000 0.0000 30.4663 0.0000 0.0000
# 5 0.0000 0.0000 0.0000 0.0000 23.2540 0.0000
# 6 0.0000 0.0000 0.0000 0.0000 0.0000 18.8780
#
#
#
# Elastic Compliance Matrix: (Units=1/GPa)
#
#
# Indices 1 2 3 4 5 6 
#
# 1 0.029616 -0.001561 -0.009700 0.000000 0.000000 0.000000
# 2 -0.001561 0.013356 -0.004532 0.000000 0.000000 0.000000
# 3 -0.009700 -0.004532 0.014324 0.000000 0.000000 0.000000
# 4 0.000000 0.000000 0.000000 0.032823 0.000000 0.000000
# 5 0.000000 0.000000 0.000000 0.000000 0.043003 0.000000
# 6 0.000000 0.000000 0.000000 0.000000 0.000000 0.052972
#
#
# Mechanical properties :
#
#
# Convention : Reuss Voigt Hill
#
# Bulk Modulus (GPa) = 38.89629 48.95043 43.92336
# Shear Modulus (GPa) = 22.09939 24.47165 23.28552
#
# Velocity S-wave (km/s) = 3.34630 3.52133 3.43493
# Velocity P-wave (km/s) = 5.88550 6.42932 6.16341
#
# Compressibility (1/GPa) = 0.02570939
#
# Stress axis : x y z
#
# Youngs Moduli (GPa) = 33.76569 74.87424 69.81074
#
# Poissons Ratio (x) = 0.11688 0.67717
# Poissons Ratio (y) = 0.05271 0.31640
# Poissons Ratio (z) = 0.32753 0.33935
#
# Static dielectric constant tensor:
#      x y z
#    x 3.491220 0.000000 0.000000 
#    y 0.000000 3.715210 0.000000 
#    z 0.000000 0.000000 3.672930 
# 
# 
# High freq. dielectric constant tensor:
#      x y z
#    x 1.758120 0.000000 0.000000 
#    y 0.000000 1.774190 0.000000 
#    z 0.000000 0.000000 1.754550 
# 
# From -- ./inp_files/6183.got.cif
#   From: 2010.03.12/outbox.cif.g09.slc.cpg/sg47_4_cif.got.tgz:6183.got - 2010.04.14 03:12:58.
