data_PCOD8199286
_publ_section_title
;
Structure prediction by ZEFSAII (Michael W. Deem and Ramdas Pophale) SiO2 
 PCOD8199286
Probable space group: P M M M
;
_chemical_formula_sum "Si O2"
_cell_formula_units_Z 36
_cell_length_a 8.965695
_cell_length_b 14.361298
_cell_length_c 13.307089
_cell_angle_alpha 90.000000
_cell_angle_beta 90.000000
_cell_angle_gamma 90.000000
_cell_volume 1713.407708
_symmetry_space_group_name_H-M "P M M M"
_symmetry_group_IT_number 47
_symmetry_cell_setting 'orthorhombic'
loop_
_space_group_symop_operation_xyz
x,y,z
-x,-y,z
x,-y,-z
-x,y,-z
-x,-y,-z
x,y,-z
-x,y,z
x,-y,z
loop_
_atom_site_type_symbol
_atom_site_label
_atom_site_fract_x
_atom_site_fract_y
_atom_site_fract_z
Si Si1 0.177775 0.894863 0.000000
Si Si2 0.326817 0.606620 0.884054
Si Si3 0.673309 0.217903 0.387026
Si Si4 0.175680 0.215449 0.192568
Si Si5 0.162903 0.399553 0.383514
O O1 0.240492 0.842651 0.098656
O O2 0.000000 0.893336 0.000000
O O3 0.238950 0.000000 0.000000
O O4 0.500000 0.628163 0.864168
O O5 0.288863 0.500000 0.855598
O O6 0.226775 0.676151 0.816625
O O7 0.286747 0.624441 0.000000
O O8 0.728956 0.188870 0.500000
O O9 0.500000 0.196383 0.377137
O O10 0.761643 0.167502 0.295905
O O11 0.704464 0.326762 0.365784
O O12 0.000000 0.208760 0.194664
O O13 0.142314 0.414770 0.500000
O O14 0.205595 0.500000 0.334769
O O15 0.000000 0.364181 0.341338
#
# Coordination Sequence:
#
# PCOD8199286 Si02
#       5
#     4   8   8   8   8
#     4   9  20  40  64  91 118 140 171 223 286 345
#     4   9  18  33  53  78 113 156 194 230 276 330
#     4  10  21  35  51  74 107 148 189 228 274 329
#     4  11  21  35  59  87 114 147 187 233 283 331
#     4   8  14  26  44  66  95 134 183 236 279 314
#
# _framework density 21.010760999999999
#
# number of rings (size 3 to 8) (size 9 to 14) (size 15 to 20)
#    0.000    2.556    1.111    2.667    0.000    3.111 
#    0.000    3.333    0.000    6.000    0.000    4.667 
#    0.000    0.000    0.000    0.000    0.000    0.000 
#
# Total GULP energy -445979.736378 kJ/mol
# GULP energy per Si atom -12388.326011 kJ/mol
# Density = 2.096294 g / cm^3
# Si number density = 21.010761 Si / 1000 Ang^3
#
#
#
# Elastic Constant Matrix: (Units=GPa)
#
#
# Indices 1 2 3 4 5 6 
#
# 1 66.3674 10.2573 48.5417 0.0000 0.0000 0.0000
# 2 10.2573 66.4896 36.9569 0.0000 0.0000 0.0000
# 3 48.5417 36.9569 177.5202 0.0000 0.0000 0.0000
# 4 0.0000 0.0000 0.0000 6.7509 0.0000 0.0000
# 5 0.0000 0.0000 0.0000 0.0000 33.9125 0.0000
# 6 0.0000 0.0000 0.0000 0.0000 0.0000 4.7551
#
#
#
# Elastic Compliance Matrix: (Units=1/GPa)
#
#
# Indices 1 2 3 4 5 6 
#
# 1 0.018835 -0.000049 -0.005140 0.000000 0.000000 0.000000
# 2 -0.000049 0.017008 -0.003528 0.000000 0.000000 0.000000
# 3 -0.005140 -0.003528 0.007773 0.000000 0.000000 0.000000
# 4 0.000000 0.000000 0.000000 0.148128 0.000000 0.000000
# 5 0.000000 0.000000 0.000000 0.000000 0.029488 0.000000
# 6 0.000000 0.000000 0.000000 0.000000 0.000000 0.210303
#
#
# Mechanical properties :
#
#
# Convention : Reuss Voigt Hill
#
# Bulk Modulus (GPa) = 38.19210 55.76544 46.97877
# Shear Modulus (GPa) = 10.92432 23.39179 17.15805
#
# Velocity S-wave (km/s) = 2.28269 3.34027 2.86078
# Velocity P-wave (km/s) = 5.01642 6.44015 5.77235
#
# Compressibility (1/GPa) = 0.02618343
#
# Stress axis : x y z
#
# Youngs Moduli (GPa) = 53.09362 58.79535 128.64937
#
# Poissons Ratio (x) = 0.00286 0.66127
# Poissons Ratio (y) = 0.00258 0.45382
# Poissons Ratio (z) = 0.27291 0.20740
#
# Static dielectric constant tensor:
#      x y z
#    x 3.475700 0.000000 0.000000 
#    y 0.000000 3.518880 0.000000 
#    z 0.000000 0.000000 4.351130 
# 
# 
# High freq. dielectric constant tensor:
#      x y z
#    x 1.802430 0.000000 0.000000 
#    y 0.000000 1.768810 0.000000 
#    z 0.000000 0.000000 1.854710 
# 
# From -- ./inp_files/20572.got.cif
#   From: 2010.03.12/outbox.cif.g09.slc.cpg/sg47_11_cif.got.tgz:20572.got - 2010.04.14 03:12:58.
