data_PCOD8199011
_publ_section_title
;
Structure prediction by ZEFSAII (Michael W. Deem and Ramdas Pophale) SiO2 
 PCOD8199011
Probable space group: P M M M
;
_chemical_formula_sum "Si O2"
_cell_formula_units_Z 48
_cell_length_a 9.826016
_cell_length_b 9.486759
_cell_length_c 27.233798
_cell_angle_alpha 90.000000
_cell_angle_beta 90.000000
_cell_angle_gamma 90.000000
_cell_volume 2538.654193
_symmetry_space_group_name_H-M "P M M M"
_symmetry_group_IT_number 47
_symmetry_cell_setting 'orthorhombic'
loop_
_space_group_symop_operation_xyz
x,y,z
-x,-y,z
x,-y,-z
-x,y,-z
-x,-y,-z
x,y,-z
-x,y,z
x,-y,z
loop_
_atom_site_type_symbol
_atom_site_label
_atom_site_fract_x
_atom_site_fract_y
_atom_site_fract_z
Si Si1 0.842554 0.780209 0.393027
Si Si2 0.842445 0.500000 0.445867
Si Si3 0.343085 0.660933 0.208679
Si Si4 0.845634 0.165250 0.719939
Si Si5 0.254202 0.334626 0.098317
Si Si6 0.346206 0.000000 0.557932
Si Si7 0.000000 0.833464 0.941606
Si Si8 0.500000 0.840787 0.942682
O O1 0.802528 0.627281 0.411135
O O2 0.812829 0.794813 0.335752
O O3 0.737006 0.867917 0.423908
O O4 0.000000 0.822036 0.404302
O O5 0.769402 0.500000 0.500000
O O6 0.000000 0.500000 0.457290
O O7 0.500000 0.711045 0.205205
O O8 0.335695 0.500000 0.226718
O O9 0.262408 0.756188 0.246641
O O10 0.271515 0.676937 0.156414
O O11 0.000000 0.211357 0.733371
O O12 0.826803 0.000000 0.727940
O O13 0.247865 0.500000 0.082360
O O14 0.124185 0.247781 0.082287
O O15 0.373675 0.253525 0.071767
O O16 0.500000 0.000000 0.579323
O O17 0.351116 0.000000 0.500000
O O18 0.000000 0.000000 0.927623
O O19 0.000000 0.815439 0.000000
O O20 0.500000 0.000000 0.918771
O O21 0.500000 0.863713 0.000000
#
# Coordination Sequence:
#
# PCOD8199011 Si02
#       8
#     8   4   8   8   8   4   4   4
#     4  10  20  38  61  86 118 156 201 250 302 362
#     4   9  18  32  57  91 119 147 195 249 298 357
#     4  10  23  43  63  88 121 159 203 251 305 367
#     4  10  22  39  60  90 120 153 202 254 304 364
#     4  11  23  42  65  91 124 163 212 261 308 371
#     4  11  23  37  57  87 123 161 201 245 298 357
#     4  11  25  43  63  93 133 169 205 255 316 375
#     4  11  23  39  63  95 129 165 205 251 308 369
#
# _framework density 18.907654999999998
#
# number of rings (size 3 to 8) (size 9 to 14) (size 15 to 20)
#    0.000    1.667    1.667    2.250    2.333    7.333 
#    0.000    0.417    0.000    1.500    0.000    0.000 
#    0.000    0.000    0.000    0.000    0.000    0.000 
#
# Total GULP energy -594973.454609 kJ/mol
# GULP energy per Si atom -12395.280304 kJ/mol
# Density = 1.886462 g / cm^3
# Si number density = 18.907655 Si / 1000 Ang^3
#
#
#
# Elastic Constant Matrix: (Units=GPa)
#
#
# Indices 1 2 3 4 5 6 
#
# 1 144.8976 78.5513 56.1210 0.0000 0.0000 0.0000
# 2 78.5513 144.1644 48.0864 0.0000 0.0000 0.0000
# 3 56.1210 48.0864 80.1232 0.0000 0.0000 0.0000
# 4 0.0000 0.0000 0.0000 35.9022 0.0000 0.0000
# 5 0.0000 0.0000 0.0000 0.0000 37.7890 0.0000
# 6 0.0000 0.0000 0.0000 0.0000 0.0000 -28.8284
#
#
#
# Elastic Compliance Matrix: (Units=1/GPa)
#
#
# Indices 1 2 3 4 5 6 
#
# 1 0.011347 -0.004416 -0.005298 0.000000 0.000000 0.000000
# 2 -0.004416 0.010391 -0.003143 0.000000 0.000000 0.000000
# 3 -0.005298 -0.003143 0.018078 0.000000 0.000000 0.000000
# 4 0.000000 0.000000 0.000000 0.027853 0.000000 0.000000
# 5 0.000000 0.000000 0.000000 0.000000 0.026463 0.000000
# 6 0.000000 0.000000 0.000000 0.000000 0.000000 -0.034688
#
#
# Mechanical properties :
#
#
# Convention : Reuss Voigt Hill
#
# Bulk Modulus (GPa) = 70.90930 81.63363 76.27146
# Shear Modulus (GPa) = 55.64276 21.40097 38.52187
#
# Velocity S-wave (km/s) = 5.43071 3.36797 4.51862
# Velocity P-wave (km/s) = 8.76971 7.64153 8.22499
#
# Compressibility (1/GPa) = 0.01410252
#
# Stress axis : x y z
#
# Youngs Moduli (GPa) = 88.12775 96.23754 55.31560
#
# Poissons Ratio (x) = 0.42495 0.29305
# Poissons Ratio (y) = 0.38914 0.17387
# Poissons Ratio (z) = 0.46689 0.30251
#
# Static dielectric constant tensor:
#      x y z
#    x 3.352530 0.000000 0.000000 
#    y 0.000000 3.544520 0.000000 
#    z 0.000000 0.000000 3.476920 
# 
# 
# High freq. dielectric constant tensor:
#      x y z
#    x 1.735470 0.000000 0.000000 
#    y 0.000000 1.750500 0.000000 
#    z 0.000000 0.000000 1.741890 
# 
# From -- ./inp_files/34226.got.cif
#   From: 2010.03.12/outbox.cif.g09.slc.cpg/sg47_18_cif.got.tgz:34226.got - 2010.04.14 03:12:58.
