data_PCOD8199848
_publ_section_title
;
Structure prediction by ZEFSAII (Michael W. Deem and Ramdas Pophale) SiO2 
 PCOD8199848
Probable space group: P M M M
;
_chemical_formula_sum "Si O2"
_cell_formula_units_Z 40
_cell_length_a 28.572737
_cell_length_b 9.822035
_cell_length_c 7.639168
_cell_angle_alpha 90.000000
_cell_angle_beta 90.000000
_cell_angle_gamma 90.000000
_cell_volume 2143.874616
_symmetry_space_group_name_H-M "P M M M"
_symmetry_group_IT_number 47
_symmetry_cell_setting 'orthorhombic'
loop_
_space_group_symop_operation_xyz
x,y,z
-x,-y,z
x,-y,-z
-x,y,-z
-x,-y,-z
x,y,-z
-x,y,z
x,-y,z
loop_
_atom_site_type_symbol
_atom_site_label
_atom_site_fract_x
_atom_site_fract_y
_atom_site_fract_z
Si Si1 0.551670 0.347776 0.707593
Si Si2 0.947124 0.154911 0.205280
Si Si3 0.133805 0.346112 0.305581
Si Si4 0.797930 0.339669 0.000000
Si Si5 0.365903 0.843272 0.298448
Si Si6 0.707149 0.156731 0.000000
O O1 0.550742 0.343505 0.500000
O O2 0.500000 0.306827 0.778808
O O3 0.564418 0.500000 0.772420
O O4 0.590572 0.243331 0.776540
O O5 0.912377 0.254663 0.304463
O O6 0.000000 0.187814 0.265364
O O7 0.934416 0.000000 0.254809
O O8 0.941840 0.178390 0.000000
O O9 0.155666 0.339005 0.500000
O O10 0.118919 0.500000 0.256510
O O11 0.172855 0.294506 0.170566
O O12 0.786394 0.500000 0.000000
O O13 0.750600 0.256448 0.000000
O O14 0.353231 0.805514 0.500000
O O15 0.321792 0.811450 0.176026
O O16 0.380859 0.000000 0.282910
O O17 0.723922 0.000000 0.000000
#
# Coordination Sequence:
#
# PCOD8199848 Si02
#       6
#     8   8   8   4   8   4
#     4   8  14  26  46  73 104 136 169 205 245 292
#     4   9  18  33  54  81 113 147 181 216 255 303
#     4  10  21  37  57  81 108 139 177 218 261 313
#     4  10  22  40  57  76 103 133 168 217 269 314
#     4   9  18  33  52  74 101 132 167 207 251 301
#     4  10  22  38  55  76 101 129 166 215 263 310
#
# _framework density 18.657806999999998
#
# number of rings (size 3 to 8) (size 9 to 14) (size 15 to 20)
#    0.000    2.800    1.000    1.200    0.000    4.000 
#    0.000    5.500    0.000    3.000    0.000    0.000 
#    0.000    0.000    0.000    0.000    0.000    0.000 
#
# Total GULP energy -495911.809724 kJ/mol
# GULP energy per Si atom -12397.795243 kJ/mol
# Density = 1.861534 g / cm^3
# Si number density = 18.657807 Si / 1000 Ang^3
#
#
#
# Elastic Constant Matrix: (Units=GPa)
#
#
# Indices 1 2 3 4 5 6 
#
# 1 137.4807 83.1791 54.7131 0.0000 0.0000 0.0000
# 2 83.1791 91.3018 39.4174 0.0000 0.0000 0.0000
# 3 54.7131 39.4174 91.0072 0.0000 0.0000 0.0000
# 4 0.0000 0.0000 0.0000 16.0823 0.0000 0.0000
# 5 0.0000 0.0000 0.0000 0.0000 3.8009 0.0000
# 6 0.0000 0.0000 0.0000 0.0000 0.0000 42.8271
#
#
#
# Elastic Compliance Matrix: (Units=1/GPa)
#
#
# Indices 1 2 3 4 5 6 
#
# 1 0.017567 -0.014077 -0.004464 0.000000 0.000000 0.000000
# 2 -0.014077 0.024752 -0.002258 0.000000 0.000000 0.000000
# 3 -0.004464 -0.002258 0.014650 0.000000 0.000000 0.000000
# 4 0.000000 0.000000 0.000000 0.062180 0.000000 0.000000
# 5 0.000000 0.000000 0.000000 0.000000 0.263096 0.000000
# 6 0.000000 0.000000 0.000000 0.000000 0.000000 0.023350
#
#
# Mechanical properties :
#
#
# Convention : Reuss Voigt Hill
#
# Bulk Modulus (GPa) = 65.05636 74.93431 69.99533
# Shear Modulus (GPa) = 11.05418 22.04074 16.54746
#
# Velocity S-wave (km/s) = 2.43671 3.44075 2.98130
# Velocity P-wave (km/s) = 6.54680 7.48563 7.03190
#
# Compressibility (1/GPa) = 0.01537129
#
# Stress axis : x y z
#
# Youngs Moduli (GPa) = 56.92362 40.40058 68.25991
#
# Poissons Ratio (x) = 0.56872 0.30473
# Poissons Ratio (y) = 0.80132 0.15411
# Poissons Ratio (z) = 0.25412 0.09121
#
# Static dielectric constant tensor:
#      x y z
#    x 3.360630 0.000000 0.000000 
#    y 0.000000 3.494810 0.000000 
#    z 0.000000 0.000000 3.460020 
# 
# 
# High freq. dielectric constant tensor:
#      x y z
#    x 1.709820 0.000000 0.000000 
#    y 0.000000 1.722110 0.000000 
#    z 0.000000 0.000000 1.725450 
# 
# From -- ./inp_files/13036.got.cif
#   From: 2010.03.12/outbox.cif.g09.slc.cpg/sg47_7_cif.got.tgz:13036.got - 2010.04.14 03:12:58.
