data_PCOD8199213
_publ_section_title
;
Structure prediction by ZEFSAII (Michael W. Deem and Ramdas Pophale) SiO2 
 PCOD8199213
Probable space group: P M M M
;
_chemical_formula_sum "Si O2"
_cell_formula_units_Z 44
_cell_length_a 27.823616
_cell_length_b 9.183254
_cell_length_c 9.591734
_cell_angle_alpha 90.000000
_cell_angle_beta 90.000000
_cell_angle_gamma 90.000000
_cell_volume 2450.796739
_symmetry_space_group_name_H-M "P M M M"
_symmetry_group_IT_number 47
_symmetry_cell_setting 'orthorhombic'
loop_
_space_group_symop_operation_xyz
x,y,z
-x,-y,z
x,-y,-z
-x,y,-z
-x,-y,-z
x,y,-z
-x,y,z
x,-y,z
loop_
_atom_site_type_symbol
_atom_site_label
_atom_site_fract_x
_atom_site_fract_y
_atom_site_fract_z
Si Si1 0.688553 0.666030 0.839218
Si Si2 0.500000 0.827980 0.661571
Si Si3 0.859798 0.329728 0.338818
Si Si4 0.947026 0.673084 0.843289
Si Si5 0.422776 0.668568 0.159242
Si Si6 0.235526 0.169814 0.338648
O O1 0.700399 0.500000 0.797393
O O2 0.632910 0.699946 0.811833
O O3 0.718737 0.775190 0.745607
O O4 0.701551 0.692768 0.000000
O O5 0.500000 0.781189 0.500000
O O6 0.547419 0.766017 0.734556
O O7 0.500000 0.000000 0.678536
O O8 0.868930 0.296065 0.500000
O O9 0.852656 0.500000 0.309699
O O10 0.905830 0.264717 0.257640
O O11 0.812339 0.249280 0.283657
O O12 0.946557 0.500000 0.837273
O O13 0.000000 0.728828 0.795745
O O14 0.936292 0.726839 0.000000
O O15 0.435056 0.500000 0.185627
O O16 0.435932 0.709769 0.000000
O O17 0.244353 0.207030 0.500000
O O18 0.228916 0.000000 0.312557
#
# Coordination Sequence:
#
# PCOD8199213 Si02
#       6
#     8   4   8   8   8   8
#     4   9  19  36  57  80 103 128 164 210 255 299
#     4  11  24  37  50  76 112 143 172 207 246 292
#     4   9  17  29  46  68  93 123 161 202 242 288
#     4   8  14  25  42  66  94 120 149 192 246 296
#     4   9  19  37  59  80 102 131 169 211 253 298
#     4  10  21  35  50  71 102 137 169 204 248 297
#
# _framework density 17.953344000000001
#
# number of rings (size 3 to 8) (size 9 to 14) (size 15 to 20)
#    0.000    2.818    0.000    2.727    0.000    6.182 
#    0.000    9.091    0.000    0.545    0.000    3.818 
#    0.000    0.000    0.000    0.000    0.000    0.000 
#
# Total GULP energy -545583.410423 kJ/mol
# GULP energy per Si atom -12399.622964 kJ/mol
# Density = 1.791248 g / cm^3
# Si number density = 17.953344 Si / 1000 Ang^3
#
#
#
# Elastic Constant Matrix: (Units=GPa)
#
#
# Indices 1 2 3 4 5 6 
#
# 1 132.2880 52.2368 76.5075 0.0000 0.0000 0.0000
# 2 52.2368 58.5832 48.4853 0.0000 0.0000 0.0000
# 3 76.5075 48.4853 95.3030 0.0000 0.0000 0.0000
# 4 0.0000 0.0000 0.0000 24.7495 0.0000 0.0000
# 5 0.0000 0.0000 0.0000 0.0000 36.4303 0.0000
# 6 0.0000 0.0000 0.0000 0.0000 0.0000 2.9707
#
#
#
# Elastic Compliance Matrix: (Units=1/GPa)
#
#
# Indices 1 2 3 4 5 6 
#
# 1 0.015234 -0.005980 -0.009187 0.000000 0.000000 0.000000
# 2 -0.005980 0.031832 -0.011394 0.000000 0.000000 0.000000
# 3 -0.009187 -0.011394 0.023665 0.000000 0.000000 0.000000
# 4 0.000000 0.000000 0.000000 0.040405 0.000000 0.000000
# 5 0.000000 0.000000 0.000000 0.000000 0.027450 0.000000
# 6 0.000000 0.000000 0.000000 0.000000 0.000000 0.336619
#
#
# Mechanical properties :
#
#
# Convention : Reuss Voigt Hill
#
# Bulk Modulus (GPa) = 56.79071 71.18150 63.98610
# Shear Modulus (GPa) = 9.35988 20.09309 14.72649
#
# Velocity S-wave (km/s) = 2.28577 3.34905 2.86713
# Velocity P-wave (km/s) = 6.21831 7.39520 6.83214
#
# Compressibility (1/GPa) = 0.01760852
#
# Stress axis : x y z
#
# Youngs Moduli (GPa) = 65.64297 31.41518 42.25699
#
# Poissons Ratio (x) = 0.18786 0.38822
# Poissons Ratio (y) = 0.39254 0.48147
# Poissons Ratio (z) = 0.60307 0.35794
#
# Static dielectric constant tensor:
#      x y z
#    x 3.510560 0.000000 0.000000 
#    y 0.000000 3.060740 0.000000 
#    z 0.000000 0.000000 3.327900 
# 
# 
# High freq. dielectric constant tensor:
#      x y z
#    x 1.707990 0.000000 0.000000 
#    y 0.000000 1.669980 0.000000 
#    z 0.000000 0.000000 1.691620 
# 
# From -- ./inp_files/2071.got.cif
#   From: 2010.03.12/outbox.cif.g09.slc.cpg/sg47_2_cif.got.tgz:2071.got - 2010.04.14 03:12:58.
