data_PCOD8199749
_publ_section_title
;
Structure prediction by ZEFSAII (Michael W. Deem and Ramdas Pophale) SiO2 
 PCOD8199749
Probable space group: P M M M
;
_chemical_formula_sum "Si O2"
_cell_formula_units_Z 44
_cell_length_a 12.549940
_cell_length_b 20.953483
_cell_length_c 8.883804
_cell_angle_alpha 90.000000
_cell_angle_beta 90.000000
_cell_angle_gamma 90.000000
_cell_volume 2336.129114
_symmetry_space_group_name_H-M "P M M M"
_symmetry_group_IT_number 47
_symmetry_cell_setting 'orthorhombic'
loop_
_space_group_symop_operation_xyz
x,y,z
-x,-y,z
x,-y,-z
-x,y,-z
-x,-y,-z
x,y,-z
-x,y,z
x,-y,z
loop_
_atom_site_type_symbol
_atom_site_label
_atom_site_fract_x
_atom_site_fract_y
_atom_site_fract_z
Si Si1 0.379389 0.163330 0.672493
Si Si2 0.121701 0.500000 0.178352
Si Si3 0.197653 0.627753 0.677112
Si Si4 0.809991 0.073023 0.674887
Si Si5 0.000000 0.284652 0.676170
Si Si6 0.623899 0.293611 0.174567
Si Si7 0.000000 0.147438 0.177047
O O1 0.366417 0.185846 0.500000
O O2 0.500000 0.141801 0.707182
O O3 0.305584 0.102898 0.707882
O O4 0.344482 0.222194 0.776478
O O5 0.182239 0.438732 0.239940
O O6 0.000000 0.500000 0.236635
O O7 0.126983 0.500000 0.000000
O O8 0.197616 0.615599 0.500000
O O9 0.310410 0.655829 0.728485
O O10 0.103927 0.675919 0.724786
O O11 0.840684 0.078465 0.500000
O O12 0.896130 0.110519 0.769856
O O13 0.806815 0.000000 0.728114
O O14 0.000000 0.218718 0.762518
O O15 0.000000 0.269646 0.500000
O O16 0.500000 0.306427 0.207953
O O17 0.651927 0.301845 0.000000
O O18 0.000000 0.150401 0.000000
#
# Coordination Sequence:
#
# PCOD8199749 Si02
#       7
#     8   4   8   8   4   8   4
#     4   9  18  34  57  84 111 140 180 230 281 334
#     4  11  23  39  60  87 122 157 187 223 273 332
#     4  11  22  38  61  87 116 150 190 232 275 327
#     4  10  21  37  56  77 106 145 184 225 278 338
#     4  10  22  38  58  84 113 144 180 229 282 330
#     4  10  21  37  57  83 116 151 188 232 282 333
#     4  12  25  37  53  78 108 143 185 233 278 327
#
# _framework density 18.834575999999998
#
# number of rings (size 3 to 8) (size 9 to 14) (size 15 to 20)
#    0.000    1.727    0.909    3.545    0.000    9.818 
#    0.000    2.273    0.000    2.727    0.000    3.818 
#    0.000    0.000    0.000    0.000    0.000    0.000 
#
# Total GULP energy -545839.095244 kJ/mol
# GULP energy per Si atom -12405.433983 kJ/mol
# Density = 1.879171 g / cm^3
# Si number density = 18.834576 Si / 1000 Ang^3
#
#
#
# Elastic Constant Matrix: (Units=GPa)
#
#
# Indices 1 2 3 4 5 6 
#
# 1 99.7336 72.7925 43.1944 0.0000 0.0000 0.0000
# 2 72.7925 155.3356 60.3567 0.0000 0.0000 0.0000
# 3 43.1944 60.3567 70.0573 0.0000 0.0000 0.0000
# 4 0.0000 0.0000 0.0000 -82.2316 0.0000 0.0000
# 5 0.0000 0.0000 0.0000 0.0000 21.9818 0.0000
# 6 0.0000 0.0000 0.0000 0.0000 0.0000 34.8577
#
#
#
# Elastic Compliance Matrix: (Units=1/GPa)
#
#
# Indices 1 2 3 4 5 6 
#
# 1 0.016433 -0.005658 -0.005257 0.000000 0.000000 0.000000
# 2 -0.005658 0.011625 -0.006527 0.000000 0.000000 0.000000
# 3 -0.005257 -0.006527 0.023139 0.000000 0.000000 0.000000
# 4 0.000000 0.000000 0.000000 -0.012161 0.000000 0.000000
# 5 0.000000 0.000000 0.000000 0.000000 0.045492 0.000000
# 6 0.000000 0.000000 0.000000 0.000000 0.000000 0.028688
#
#
# Mechanical properties :
#
#
# Convention : Reuss Voigt Hill
#
# Bulk Modulus (GPa) = 61.30356 75.31263 68.30809
# Shear Modulus (GPa) = 32.56491 4.84044 18.70268
#
# Velocity S-wave (km/s) = 4.16263 1.60485 3.15460
# Velocity P-wave (km/s) = 7.46474 6.59600 7.04378
#
# Compressibility (1/GPa) = 0.01631227
#
# Stress axis : x y z
#
# Youngs Moduli (GPa) = 60.85182 86.01973 43.21744
#
# Poissons Ratio (x) = 0.48671 0.22722
# Poissons Ratio (y) = 0.34430 0.28208
# Poissons Ratio (z) = 0.31993 0.56145
#
# Static dielectric constant tensor:
#      x y z
#    x 3.416090 0.000000 0.000000 
#    y 0.000000 3.466520 0.000000 
#    z 0.000000 0.000000 3.462240 
# 
# 
# High freq. dielectric constant tensor:
#      x y z
#    x 1.740100 0.000000 0.000000 
#    y 0.000000 1.734010 0.000000 
#    z 0.000000 0.000000 1.732540 
# 
# From -- ./inp_files/6298.got.cif
#   From: 2010.03.12/outbox.cif.g09.slc.cpg/sg47_4_cif.got.tgz:6298.got - 2010.04.14 03:12:58.
