data_PCOD8199186
_publ_section_title
;
Structure prediction by ZEFSAII (Michael W. Deem and Ramdas Pophale) SiO2 
 PCOD8199186
Probable space group: P M M M
;
_chemical_formula_sum "Si O2"
_cell_formula_units_Z 52
_cell_length_a 12.846394
_cell_length_b 33.351281
_cell_length_c 7.728206
_cell_angle_alpha 90.000000
_cell_angle_beta 90.000000
_cell_angle_gamma 90.000000
_cell_volume 3311.101143
_symmetry_space_group_name_H-M "P M M M"
_symmetry_group_IT_number 47
_symmetry_cell_setting 'orthorhombic'
loop_
_space_group_symop_operation_xyz
x,y,z
-x,-y,z
x,-y,-z
-x,y,-z
-x,-y,-z
x,y,-z
-x,y,z
x,-y,z
loop_
_atom_site_type_symbol
_atom_site_label
_atom_site_fract_x
_atom_site_fract_y
_atom_site_fract_z
Si Si1 0.882485 0.816855 0.701733
Si Si2 0.254278 0.455454 0.500000
Si Si3 0.377522 0.376226 0.500000
Si Si4 0.875661 0.045048 0.500000
Si Si5 0.241133 0.655533 0.199511
Si Si6 0.123085 0.099073 0.809174
Si Si7 0.879417 0.424338 0.195702
Si Si8 0.116199 0.731696 0.797643
O O1 0.878738 0.824651 0.500000
O O2 0.828832 0.856025 0.787995
O O3 0.829099 0.774505 0.751666
O O4 0.000000 0.813290 0.772488
O O5 0.303393 0.500000 0.500000
O O6 0.346432 0.423060 0.500000
O O7 0.184415 0.451443 0.671596
O O8 0.500000 0.372457 0.500000
O O9 0.336473 0.355026 0.674489
O O10 0.831682 0.067908 0.330605
O O11 0.000000 0.043949 0.500000
O O12 0.830731 0.000000 0.500000
O O13 0.152153 0.622011 0.215206
O O14 0.190653 0.696605 0.271659
O O15 0.280835 0.659113 0.000000
O O16 0.000000 0.102649 0.778957
O O17 0.150231 0.082635 0.000000
O O18 0.000000 0.428095 0.242278
O O19 0.857006 0.439366 0.000000
O O20 0.000000 0.728780 0.713109
O O21 0.105469 0.726182 0.000000
#
# Coordination Sequence:
#
# PCOD8199186 Si02
#       8
#     8   4   4   4   8   8   8   8
#     4   9  15  22  32  49  74 103 131 155 184 230
#     4  10  21  35  50  70  93 114 143 181 213 247
#     4  10  22  38  54  69  83 107 144 182 222 257
#     4   9  16  24  31  40  53  70 105 161 218 264
#     4   9  18  32  49  69  92 115 141 173 205 241
#     4   9  15  23  33  42  57  84 117 154 197 244
#     4   9  17  30  48  70  98 128 148 163 193 242
#     4   9  16  25  39  62  90 116 138 159 190 240
#
# _framework density 15.704745000000001
#
# number of rings (size 3 to 8) (size 9 to 14) (size 15 to 20)
#    0.000    2.846    0.769    1.154    1.077    5.385 
#    0.000    3.077    0.000    0.000    0.000    4.308 
#    0.000    0.000    0.000    0.000    0.000    0.000 
#
# Total GULP energy -644481.567984 kJ/mol
# GULP energy per Si atom -12393.876307 kJ/mol
# Density = 1.566900 g / cm^3
# Si number density = 15.704745 Si / 1000 Ang^3
#
#
#
# Elastic Constant Matrix: (Units=GPa)
#
#
# Indices 1 2 3 4 5 6 
#
# 1 51.0100 26.9539 26.6455 0.0000 0.0000 0.0000
# 2 26.9539 133.4129 49.6491 0.0000 0.0000 0.0000
# 3 26.6455 49.6491 90.3668 0.0000 0.0000 0.0000
# 4 0.0000 0.0000 0.0000 21.6252 0.0000 0.0000
# 5 0.0000 0.0000 0.0000 0.0000 11.0962 0.0000
# 6 0.0000 0.0000 0.0000 0.0000 0.0000 6.3320
#
#
#
# Elastic Compliance Matrix: (Units=1/GPa)
#
#
# Indices 1 2 3 4 5 6 
#
# 1 0.023967 -0.002781 -0.005539 0.000000 0.000000 0.000000
# 2 -0.002781 0.009745 -0.004534 0.000000 0.000000 0.000000
# 3 -0.005539 -0.004534 0.015190 0.000000 0.000000 0.000000
# 4 0.000000 0.000000 0.000000 0.046242 0.000000 0.000000
# 5 0.000000 0.000000 0.000000 0.000000 0.090121 0.000000
# 6 0.000000 0.000000 0.000000 0.000000 0.000000 0.157928
#
#
# Mechanical properties :
#
#
# Convention : Reuss Voigt Hill
#
# Bulk Modulus (GPa) = 43.11427 53.47632 48.29529
# Shear Modulus (GPa) = 13.27557 19.24675 16.26116
#
# Velocity S-wave (km/s) = 2.91060 3.50457 3.22130
# Velocity P-wave (km/s) = 6.22961 7.10640 6.68240
#
# Compressibility (1/GPa) = 0.02319418
#
# Stress axis : x y z
#
# Youngs Moduli (GPa) = 41.72454 102.62065 65.83163
#
# Poissons Ratio (x) = 0.28536 0.36464
# Poissons Ratio (y) = 0.11603 0.29848
# Poissons Ratio (z) = 0.23111 0.46528
#
# Static dielectric constant tensor:
#      x y z
#    x 2.352270 0.000000 0.000000 
#    y 0.000000 3.185590 0.000000 
#    z 0.000000 0.000000 3.171710 
# 
# 
# High freq. dielectric constant tensor:
#      x y z
#    x 1.509970 0.000000 0.000000 
#    y 0.000000 1.613540 0.000000 
#    z 0.000000 0.000000 1.620500 
# 
# From -- ./inp_files/4850.got.cif
#   From: 2010.03.12/outbox.cif.g09.slc.cpg/sg47_3_cif.got.tgz:4850.got - 2010.04.14 03:12:58.
