data_PCOD8199091
_publ_section_title
;
Structure prediction by ZEFSAII (Michael W. Deem and Ramdas Pophale) SiO2 
 PCOD8199091
Probable space group: P M M M
;
_chemical_formula_sum "Si O2"
_cell_formula_units_Z 64
_cell_length_a 9.229512
_cell_length_b 14.605889
_cell_length_c 25.901658
_cell_angle_alpha 90.000000
_cell_angle_beta 90.000000
_cell_angle_gamma 90.000000
_cell_volume 3491.678907
_symmetry_space_group_name_H-M "P M M M"
_symmetry_group_IT_number 47
_symmetry_cell_setting 'orthorhombic'
loop_
_space_group_symop_operation_xyz
x,y,z
-x,-y,z
x,-y,-z
-x,y,-z
-x,-y,-z
x,y,-z
-x,y,z
x,-y,z
loop_
_atom_site_type_symbol
_atom_site_label
_atom_site_fract_x
_atom_site_fract_y
_atom_site_fract_z
Si Si1 0.829092 0.708580 0.853567
Si Si2 0.666974 0.608069 0.762400
Si Si3 0.667116 0.268306 0.557049
Si Si4 0.328070 0.398280 0.353084
Si Si5 0.172206 0.100600 0.816103
Si Si6 0.666604 0.394674 0.059350
Si Si7 0.843616 0.107269 0.705545
Si Si8 0.172958 0.896264 0.405243
O O1 0.765640 0.660326 0.803190
O O2 0.786844 0.817016 0.854582
O O3 0.767645 0.668283 0.906193
O O4 0.000000 0.693941 0.852714
O O5 0.500000 0.633412 0.773028
O O6 0.690364 0.500000 0.769181
O O7 0.713856 0.638504 0.704300
O O8 0.683992 0.313307 0.500000
O O9 0.500000 0.247834 0.569364
O O10 0.734153 0.334638 0.601101
O O11 0.752979 0.172567 0.554997
O O12 0.500000 0.404234 0.356867
O O13 0.262850 0.500000 0.360828
O O14 0.240957 0.126572 0.759497
O O15 0.000000 0.094393 0.808958
O O16 0.229161 0.000000 0.835302
O O17 0.500000 0.376892 0.074010
O O18 0.706293 0.500000 0.069832
O O19 0.695549 0.369307 0.000000
O O20 0.765263 0.134512 0.651851
O O21 0.000000 0.157509 0.707542
O O22 0.871288 0.000000 0.701273
O O23 0.000000 0.886925 0.407056
O O24 0.218837 0.000000 0.419331
#
# Coordination Sequence:
#
# PCOD8199091 Si02
#       8
#     8   8   8   8   8   8   8   8
#     4  11  21  29  48  83 111 133 165 209 257 295
#     4   9  18  33  51  70  98 136 168 194 238 306
#     4  10  21  34  49  72  97 121 156 206 260 304
#     4   8  16  33  54  72  92 124 165 204 244 297
#     4   8  15  28  44  66 101 139 169 198 239 293
#     4   9  19  37  58  76  99 139 184 214 243 294
#     4   7  11  23  43  64  86 117 158 197 230 272
#     4   9  18  32  51  72  93 124 165 202 238 291
#
# _framework density 18.329291000000001
#
# number of rings (size 3 to 8) (size 9 to 14) (size 15 to 20)
#    0.000    3.125    0.000    3.375    1.750    3.250 
#    0.000    3.125    0.000    3.000    0.000    3.500 
#    0.000    0.000    0.000    0.000    0.000    0.000 
#
# Total GULP energy -792835.510012 kJ/mol
# GULP energy per Si atom -12388.054844 kJ/mol
# Density = 1.828757 g / cm^3
# Si number density = 18.329291 Si / 1000 Ang^3
#
#
#
# Elastic Constant Matrix: (Units=GPa)
#
#
# Indices 1 2 3 4 5 6 
#
# 1 43.7287 35.7010 38.1782 0.0000 0.0000 0.0000
# 2 35.7010 90.3201 65.1350 0.0000 0.0000 0.0000
# 3 38.1782 65.1350 111.1391 0.0000 0.0000 0.0000
# 4 0.0000 0.0000 0.0000 30.1013 0.0000 0.0000
# 5 0.0000 0.0000 0.0000 0.0000 16.0842 0.0000
# 6 0.0000 0.0000 0.0000 0.0000 0.0000 17.8933
#
#
#
# Elastic Compliance Matrix: (Units=1/GPa)
#
#
# Indices 1 2 3 4 5 6 
#
# 1 0.036753 -0.009392 -0.007121 0.000000 0.000000 0.000000
# 2 -0.009392 0.021577 -0.009419 0.000000 0.000000 0.000000
# 3 -0.007121 -0.009419 0.016964 0.000000 0.000000 0.000000
# 4 0.000000 0.000000 0.000000 0.033221 0.000000 0.000000
# 5 0.000000 0.000000 0.000000 0.000000 0.062173 0.000000
# 6 0.000000 0.000000 0.000000 0.000000 0.000000 0.055887
#
#
# Mechanical properties :
#
#
# Convention : Reuss Voigt Hill
#
# Bulk Modulus (GPa) = 42.68067 58.13514 50.40790
# Shear Modulus (GPa) = 17.46725 19.89399 18.68062
#
# Velocity S-wave (km/s) = 3.09037 3.29806 3.19590
# Velocity P-wave (km/s) = 6.00582 6.80359 6.41712
#
# Compressibility (1/GPa) = 0.02342981
#
# Stress axis : x y z
#
# Youngs Moduli (GPa) = 27.20839 46.34587 58.94788
#
# Poissons Ratio (x) = 0.43529 0.41976
# Poissons Ratio (y) = 0.25555 0.55524
# Poissons Ratio (z) = 0.19375 0.43654
#
# Static dielectric constant tensor:
#      x y z
#    x 2.960590 0.000000 0.000000 
#    y 0.000000 3.440130 0.000000 
#    z 0.000000 0.000000 3.487460 
# 
# 
# High freq. dielectric constant tensor:
#      x y z
#    x 1.666580 0.000000 0.000000 
#    y 0.000000 1.704520 0.000000 
#    z 0.000000 0.000000 1.709770 
# 
# From -- ./inp_files/32124.got.cif
#   From: 2010.03.12/outbox.cif.g09.slc.cpg/sg47_17_cif.got.tgz:32124.got - 2010.04.14 03:12:58.
