data_PCOD8199592
_publ_section_title
;
Structure prediction by ZEFSAII (Michael W. Deem and Ramdas Pophale) SiO2 
 PCOD8199592
Probable space group: P M M M
;
_chemical_formula_sum "Si O2"
_cell_formula_units_Z 52
_cell_length_a 9.044763
_cell_length_b 20.563897
_cell_length_c 14.188497
_cell_angle_alpha 90.000000
_cell_angle_beta 90.000000
_cell_angle_gamma 90.000000
_cell_volume 2638.997654
_symmetry_space_group_name_H-M "P M M M"
_symmetry_group_IT_number 47
_symmetry_cell_setting 'orthorhombic'
loop_
_space_group_symop_operation_xyz
x,y,z
-x,-y,z
x,-y,-z
-x,y,-z
-x,-y,-z
x,y,-z
-x,y,z
x,-y,z
loop_
_atom_site_type_symbol
_atom_site_label
_atom_site_fract_x
_atom_site_fract_y
_atom_site_fract_z
Si Si1 0.824593 0.000000 0.889855
Si Si2 0.165674 0.319817 0.610484
Si Si3 0.326756 0.883846 0.779660
Si Si4 0.331351 0.754864 0.892199
Si Si5 0.825951 0.625418 0.106378
Si Si6 0.826113 0.827670 0.391927
Si Si7 0.329743 0.427865 0.725159
O O1 0.758108 0.937596 0.838910
O O2 0.000000 0.000000 0.878046
O O3 0.778986 0.000000 0.000000
O O4 0.165479 0.331925 0.500000
O O5 0.221508 0.246608 0.631780
O O6 0.271871 0.372926 0.655348
O O7 0.000000 0.329456 0.650850
O O8 0.500000 0.900798 0.776513
O O9 0.292136 0.816235 0.829660
O O10 0.263647 0.878011 0.673566
O O11 0.500000 0.732277 0.877802
O O12 0.225086 0.696746 0.859214
O O13 0.300356 0.774228 0.000000
O O14 0.753786 0.572702 0.174714
O O15 0.000000 0.620510 0.113301
O O16 0.770415 0.612348 0.000000
O O17 0.786287 0.844250 0.500000
O O18 0.000000 0.836361 0.374530
O O19 0.500000 0.413527 0.744205
O O20 0.305989 0.500000 0.681360
#
# Coordination Sequence:
#
# PCOD8199592 Si02
#       7
#     4   8   8   8   8   8   8
#     4  11  25  43  62  85 116 157 199 232 268 321
#     4   9  19  37  61  87 113 143 181 227 278 329
#     4  11  22  36  58  87 118 151 187 230 277 324
#     4   9  18  33  54  81 112 144 177 218 275 338
#     4  10  21  36  55  79 105 136 179 232 284 332
#     4   9  19  37  60  86 116 148 184 228 277 329
#     4  11  24  38  52  74 106 145 186 227 276 336
#
# _framework density 19.704452
#
# number of rings (size 3 to 8) (size 9 to 14) (size 15 to 20)
#    0.000    2.077    0.000    3.923    0.000    8.923 
#    0.000    6.538    0.000    2.308    0.000    0.000 
#    0.000    0.000    0.000    0.000    0.000    0.000 
#
# Total GULP energy -644869.855425 kJ/mol
# GULP energy per Si atom -12401.343374 kJ/mol
# Density = 1.965960 g / cm^3
# Si number density = 19.704452 Si / 1000 Ang^3
#
#
#
# Elastic Constant Matrix: (Units=GPa)
#
#
# Indices 1 2 3 4 5 6 
#
# 1 92.7689 51.9788 44.4964 0.0000 0.0000 0.0000
# 2 51.9788 80.0588 57.6753 0.0000 0.0000 0.0000
# 3 44.4964 57.6753 94.3301 0.0000 0.0000 0.0000
# 4 0.0000 0.0000 0.0000 22.0914 0.0000 0.0000
# 5 0.0000 0.0000 0.0000 0.0000 30.4852 0.0000
# 6 0.0000 0.0000 0.0000 0.0000 0.0000 34.0393
#
#
#
# Elastic Compliance Matrix: (Units=1/GPa)
#
#
# Indices 1 2 3 4 5 6 
#
# 1 0.017218 -0.009522 -0.002300 0.000000 0.000000 0.000000
# 2 -0.009522 0.027590 -0.012377 0.000000 0.000000 0.000000
# 3 -0.002300 -0.012377 0.019254 0.000000 0.000000 0.000000
# 4 0.000000 0.000000 0.000000 0.045266 0.000000 0.000000
# 5 0.000000 0.000000 0.000000 0.000000 0.032803 0.000000
# 6 0.000000 0.000000 0.000000 0.000000 0.000000 0.029378
#
#
# Mechanical properties :
#
#
# Convention : Reuss Voigt Hill
#
# Bulk Modulus (GPa) = 63.84500 63.93986 63.89243
# Shear Modulus (GPa) = 22.20960 24.85699 23.53330
#
# Velocity S-wave (km/s) = 3.36093 3.55560 3.45963
# Velocity P-wave (km/s) = 6.89440 7.02683 6.96093
#
# Compressibility (1/GPa) = 0.01566293
#
# Stress axis : x y z
#
# Youngs Moduli (GPa) = 58.07949 36.24524 51.93792
#
# Poissons Ratio (x) = 0.34512 0.11945
# Poissons Ratio (y) = 0.55303 0.64286
# Poissons Ratio (z) = 0.13358 0.44862
#
# Static dielectric constant tensor:
#      x y z
#    x 3.572450 0.000000 0.000000 
#    y 0.000000 3.615300 0.000000 
#    z 0.000000 0.000000 3.708150 
# 
# 
# High freq. dielectric constant tensor:
#      x y z
#    x 1.769800 0.000000 0.000000 
#    y 0.000000 1.758180 0.000000 
#    z 0.000000 0.000000 1.777270 
# 
# From -- ./inp_files/21470.got.cif
#   From: 2010.03.12/outbox.cif.g09.slc.cpg/sg47_11_cif.got.tgz:21470.got - 2010.04.14 03:12:58.
