data_PCOD8199555
_publ_section_title
;
Structure prediction by ZEFSAII (Michael W. Deem and Ramdas Pophale) SiO2 
 PCOD8199555
Probable space group: P M M M
;
_chemical_formula_sum "Si O2"
_cell_formula_units_Z 64
_cell_length_a 9.048016
_cell_length_b 26.347353
_cell_length_c 14.241676
_cell_angle_alpha 90.000000
_cell_angle_beta 90.000000
_cell_angle_gamma 90.000000
_cell_volume 3395.091250
_symmetry_space_group_name_H-M "P M M M"
_symmetry_group_IT_number 47
_symmetry_cell_setting 'orthorhombic'
loop_
_space_group_symop_operation_xyz
x,y,z
-x,-y,z
x,-y,-z
-x,y,-z
-x,-y,-z
x,y,-z
-x,y,z
x,-y,z
loop_
_atom_site_type_symbol
_atom_site_label
_atom_site_fract_x
_atom_site_fract_y
_atom_site_fract_z
Si Si1 0.826421 0.594355 0.108571
Si Si2 0.827205 0.186165 0.109383
Si Si3 0.324584 0.055810 0.604987
Si Si4 0.324438 0.847739 0.717365
Si Si5 0.173762 0.296269 0.102436
Si Si6 0.327802 0.555591 0.721662
Si Si7 0.672185 0.347161 0.390447
Si Si8 0.171988 0.755446 0.610960
O O1 0.776197 0.650535 0.148777
O O2 0.744605 0.554813 0.174984
O O3 0.000000 0.585772 0.118253
O O4 0.778426 0.587304 0.000000
O O5 0.730695 0.149376 0.174544
O O6 0.788104 0.242737 0.151811
O O7 0.000000 0.174254 0.121335
O O8 0.782054 0.180416 0.000000
O O9 0.263599 0.065621 0.500000
O O10 0.500000 0.057363 0.603014
O O11 0.264973 0.099871 0.672554
O O12 0.271419 0.000000 0.640314
O O13 0.500000 0.842817 0.713626
O O14 0.254479 0.801418 0.660831
O O15 0.000000 0.299300 0.087896
O O16 0.248298 0.293792 0.000000
O O17 0.500000 0.563582 0.735481
O O18 0.294740 0.500000 0.676167
O O19 0.265719 0.601172 0.657160
O O20 0.700628 0.354573 0.500000
O O21 0.500000 0.338065 0.368425
O O22 0.762145 0.298262 0.352881
O O23 0.197585 0.761150 0.500000
O O24 0.000000 0.756688 0.638303
#
# Coordination Sequence:
#
# PCOD8199555 Si02
#       8
#     8   8   8   8   8   8   8   8
#     4   9  18  33  53  75  98 128 168 209 249 300
#     4   9  18  33  51  72 104 146 186 220 259 310
#     4   8  15  30  52  77 106 142 183 223 263 310
#     4  11  21  31  51  83 114 142 175 221 271 315
#     4   7  12  26  47  68  89 119 162 206 245 289
#     4  10  22  37  52  74 102 130 164 208 258 311
#     4   9  19  37  58  77 100 131 168 212 260 310
#     4  10  21  36  54  78 109 142 173 207 255 319
#
# _framework density 18.850746000000001
#
# number of rings (size 3 to 8) (size 9 to 14) (size 15 to 20)
#    0.000    2.875    0.000    3.000    1.750    3.000 
#    0.000    2.500    0.000    4.125    0.000    9.625 
#    0.000    0.000    0.000    0.000    0.000    0.000 
#
# Total GULP energy -792931.268749 kJ/mol
# GULP energy per Si atom -12389.551074 kJ/mol
# Density = 1.880784 g / cm^3
# Si number density = 18.850746 Si / 1000 Ang^3
#
#
#
# Elastic Constant Matrix: (Units=GPa)
#
#
# Indices 1 2 3 4 5 6 
#
# 1 49.8128 45.9967 34.3572 0.0000 0.0000 0.0000
# 2 45.9967 150.9482 70.2657 0.0000 0.0000 0.0000
# 3 34.3572 70.2657 69.9593 0.0000 0.0000 0.0000
# 4 0.0000 0.0000 0.0000 28.2244 0.0000 0.0000
# 5 0.0000 0.0000 0.0000 0.0000 28.0938 0.0000
# 6 0.0000 0.0000 0.0000 0.0000 0.0000 14.3110
#
#
#
# Elastic Compliance Matrix: (Units=1/GPa)
#
#
# Indices 1 2 3 4 5 6 
#
# 1 0.031951 -0.004567 -0.011104 0.000000 0.000000 0.000000
# 2 -0.004567 0.013095 -0.010909 0.000000 0.000000 0.000000
# 3 -0.011104 -0.010909 0.030704 0.000000 0.000000 0.000000
# 4 0.000000 0.000000 0.000000 0.035430 0.000000 0.000000
# 5 0.000000 0.000000 0.000000 0.000000 0.035595 0.000000
# 6 0.000000 0.000000 0.000000 0.000000 0.000000 0.069876
#
#
# Mechanical properties :
#
#
# Convention : Reuss Voigt Hill
#
# Bulk Modulus (GPa) = 44.26884 63.55107 53.90995
# Shear Modulus (GPa) = 18.02829 22.13257 20.08043
#
# Velocity S-wave (km/s) = 3.09588 3.43022 3.26733
# Velocity P-wave (km/s) = 6.02612 7.03381 6.54938
#
# Compressibility (1/GPa) = 0.02258925
#
# Stress axis : x y z
#
# Youngs Moduli (GPa) = 31.29762 76.36763 32.56905
#
# Poissons Ratio (x) = 0.34879 0.36165
# Poissons Ratio (y) = 0.14294 0.35529
# Poissons Ratio (z) = 0.34753 0.83309
#
# Static dielectric constant tensor:
#      x y z
#    x 3.128420 0.000000 0.000000 
#    y 0.000000 3.778500 0.000000 
#    z 0.000000 0.000000 3.430440 
# 
# 
# High freq. dielectric constant tensor:
#      x y z
#    x 1.701130 0.000000 0.000000 
#    y 0.000000 1.731170 0.000000 
#    z 0.000000 0.000000 1.728120 
# 
# From -- ./inp_files/21875.got.cif
#   From: 2010.03.12/outbox.cif.g09.slc.cpg/sg47_11_cif.got.tgz:21875.got - 2010.04.14 03:12:58.
