data_PCOD8199457
_publ_section_title
;
Structure prediction by ZEFSAII (Michael W. Deem and Ramdas Pophale) SiO2 
 PCOD8199457
Probable space group: P M M M
;
_chemical_formula_sum "Si O2"
_cell_formula_units_Z 48
_cell_length_a 9.157756
_cell_length_b 9.175242
_cell_length_c 30.999725
_cell_angle_alpha 90.000000
_cell_angle_beta 90.000000
_cell_angle_gamma 90.000000
_cell_volume 2604.740345
_symmetry_space_group_name_H-M "P M M M"
_symmetry_group_IT_number 47
_symmetry_cell_setting 'orthorhombic'
loop_
_space_group_symop_operation_xyz
x,y,z
-x,-y,z
x,-y,-z
-x,y,-z
-x,-y,-z
x,y,-z
-x,y,z
x,-y,z
loop_
_atom_site_type_symbol
_atom_site_label
_atom_site_fract_x
_atom_site_fract_y
_atom_site_fract_z
Si Si1 0.171334 0.831950 0.245806
Si Si2 0.330220 0.168391 0.667521
Si Si3 0.172391 0.341414 0.500000
Si Si4 0.669903 0.831752 0.916074
Si Si5 0.834242 0.325927 0.593052
Si Si6 0.164755 0.173387 0.000000
Si Si7 0.668039 0.671355 0.170306
O O1 0.245590 0.779235 0.289965
O O2 0.231196 0.733618 0.207619
O O3 0.000000 0.806961 0.250335
O O4 0.210331 0.000000 0.236183
O O5 0.500000 0.198293 0.675150
O O6 0.276798 0.261543 0.627293
O O7 0.297254 0.000000 0.657829
O O8 0.248344 0.500000 0.500000
O O9 0.213726 0.263109 0.454576
O O10 0.000000 0.363726 0.500000
O O11 0.500000 0.811401 0.925954
O O12 0.755732 0.767827 0.957191
O O13 0.719905 0.740796 0.874619
O O14 0.709252 0.000000 0.907333
O O15 0.823414 0.500000 0.592971
O O16 0.000000 0.277136 0.604088
O O17 0.000000 0.231726 0.000000
O O18 0.172721 0.000000 0.000000
O O19 0.500000 0.712935 0.179851
O O20 0.690843 0.500000 0.167346
#
# Coordination Sequence:
#
# PCOD8199457 Si02
#       7
#     8   8   4   8   8   4   8
#     4  10  21  37  57  78  99 129 170 212 254 302
#     4  10  21  36  53  74 102 135 169 207 253 303
#     4   7  12  26  48  73 100 130 166 207 248 293
#     4   9  17  31  52  75 100 133 171 208 248 296
#     4   9  17  31  53  78 102 131 169 211 253 298
#     4   9  17  29  48  75 102 128 166 215 256 291
#     4  10  21  36  54  78 107 137 169 207 253 304
#
# _framework density 18.427941000000001
#
# number of rings (size 3 to 8) (size 9 to 14) (size 15 to 20)
#    0.000    2.667    0.000    2.750    0.000    5.667 
#    0.000    2.917    0.000    6.500    0.000    0.000 
#    0.000    0.000    0.000    0.000    0.000    0.000 
#
# Total GULP energy -595110.087047 kJ/mol
# GULP energy per Si atom -12398.126813 kJ/mol
# Density = 1.838600 g / cm^3
# Si number density = 18.427941 Si / 1000 Ang^3
#
#
#
# Elastic Constant Matrix: (Units=GPa)
#
#
# Indices 1 2 3 4 5 6 
#
# 1 84.4504 34.4748 72.9860 0.0000 0.0000 0.0000
# 2 34.4748 49.2806 54.2534 0.0000 0.0000 0.0000
# 3 72.9860 54.2534 176.8876 0.0000 0.0000 0.0000
# 4 0.0000 0.0000 0.0000 41.3239 0.0000 0.0000
# 5 0.0000 0.0000 0.0000 0.0000 34.8879 0.0000
# 6 0.0000 0.0000 0.0000 0.0000 0.0000 23.9603
#
#
#
# Elastic Compliance Matrix: (Units=1/GPa)
#
#
# Indices 1 2 3 4 5 6 
#
# 1 0.020057 -0.007429 -0.005997 0.000000 0.000000 0.000000
# 2 -0.007429 0.033388 -0.007175 0.000000 0.000000 0.000000
# 3 -0.005997 -0.007175 0.010329 0.000000 0.000000 0.000000
# 4 0.000000 0.000000 0.000000 0.024199 0.000000 0.000000
# 5 0.000000 0.000000 0.000000 0.000000 0.028663 0.000000
# 6 0.000000 0.000000 0.000000 0.000000 0.000000 0.041736
#
#
# Mechanical properties :
#
#
# Convention : Reuss Voigt Hill
#
# Bulk Modulus (GPa) = 44.30432 70.44966 57.37699
# Shear Modulus (GPa) = 24.14314 29.96138 27.05226
#
# Velocity S-wave (km/s) = 3.62351 4.03658 3.83561
# Velocity P-wave (km/s) = 6.44985 7.74842 7.12877
#
# Compressibility (1/GPa) = 0.02257116
#
# Stress axis : x y z
#
# Youngs Moduli (GPa) = 49.85796 29.95073 96.81820
#
# Poissons Ratio (x) = 0.22249 0.58065
# Poissons Ratio (y) = 0.37038 0.69471
# Poissons Ratio (z) = 0.29901 0.21491
#
# Static dielectric constant tensor:
#      x y z
#    x 3.305160 0.000000 0.000000 
#    y 0.000000 3.122990 0.000000 
#    z 0.000000 0.000000 3.680200 
# 
# 
# High freq. dielectric constant tensor:
#      x y z
#    x 1.706210 0.000000 0.000000 
#    y 0.000000 1.686160 0.000000 
#    z 0.000000 0.000000 1.733440 
# 
# From -- ./inp_files/2717.got.cif
#   From: 2010.03.12/outbox.cif.g09.slc.cpg/sg47_2_cif.got.tgz:2717.got - 2010.04.14 03:12:58.
