data_PCOD8199342
_publ_section_title
;
Structure prediction by ZEFSAII (Michael W. Deem and Ramdas Pophale) SiO2 
 PCOD8199342
Probable space group: P M M M
;
_chemical_formula_sum "Si O2"
_cell_formula_units_Z 44
_cell_length_a 8.085797
_cell_length_b 9.508354
_cell_length_c 29.485347
_cell_angle_alpha 90.000000
_cell_angle_beta 90.000000
_cell_angle_gamma 90.000000
_cell_volume 2266.910736
_symmetry_space_group_name_H-M "P M M M"
_symmetry_group_IT_number 47
_symmetry_cell_setting 'orthorhombic'
loop_
_space_group_symop_operation_xyz
x,y,z
-x,-y,z
x,-y,-z
-x,y,-z
-x,-y,-z
x,y,-z
-x,y,z
x,-y,z
loop_
_atom_site_type_symbol
_atom_site_label
_atom_site_fract_x
_atom_site_fract_y
_atom_site_fract_z
Si Si1 0.189347 0.155874 0.723054
Si Si2 0.309999 0.657578 0.198616
Si Si3 0.000000 0.163130 0.053589
Si Si4 0.192630 0.653811 0.450755
Si Si5 0.691385 0.333978 0.094127
Si Si6 0.689853 0.158068 0.370650
O O1 0.206396 0.243852 0.768724
O O2 0.280590 0.224941 0.679422
O O3 0.000000 0.148374 0.709522
O O4 0.261869 0.000000 0.732617
O O5 0.500000 0.667604 0.212863
O O6 0.243197 0.500000 0.204865
O O7 0.286058 0.703967 0.146797
O O8 0.830681 0.242063 0.068725
O O9 0.000000 0.000000 0.070967
O O10 0.000000 0.165607 0.000000
O O11 0.262336 0.707105 0.500000
O O12 0.270639 0.500000 0.439654
O O13 0.222557 0.759474 0.410279
O O14 0.000000 0.635936 0.455670
O O15 0.500000 0.297359 0.079342
O O16 0.722562 0.500000 0.085287
O O17 0.500000 0.159428 0.382779
O O18 0.762325 0.000000 0.369867
#
# Coordination Sequence:
#
# PCOD8199342 Si02
#       6
#     8   8   4   8   8   8
#     4  10  21  35  52  77 108 142 180 220 265 321
#     4   9  19  36  57  82 111 143 182 228 277 329
#     4  11  25  41  59  89 127 163 201 249 304 361
#     4   9  19  36  56  77 101 130 167 213 265 321
#     4   9  20  40  64  89 119 158 204 252 300 354
#     4  10  21  36  53  74 103 139 177 217 261 314
#
# _framework density 19.409676000000001
#
# number of rings (size 3 to 8) (size 9 to 14) (size 15 to 20)
#    0.000    2.455    0.000    3.000    1.273    6.545 
#    0.000    6.364    0.000    0.000    0.000    0.000 
#    0.000    0.000    0.000    0.000    0.000    0.000 
#
# Total GULP energy -545247.405997 kJ/mol
# GULP energy per Si atom -12391.986500 kJ/mol
# Density = 1.936550 g / cm^3
# Si number density = 19.409676 Si / 1000 Ang^3
#
#
#
# Elastic Constant Matrix: (Units=GPa)
#
#
# Indices 1 2 3 4 5 6 
#
# 1 79.4757 43.7598 37.1101 0.0000 0.0000 0.0000
# 2 43.7598 86.4177 57.1961 0.0000 0.0000 0.0000
# 3 37.1101 57.1961 107.5798 0.0000 0.0000 0.0000
# 4 0.0000 0.0000 0.0000 35.7137 0.0000 0.0000
# 5 0.0000 0.0000 0.0000 0.0000 76.6027 0.0000
# 6 0.0000 0.0000 0.0000 0.0000 0.0000 22.6000
#
#
#
# Elastic Compliance Matrix: (Units=1/GPa)
#
#
# Indices 1 2 3 4 5 6 
#
# 1 0.017742 -0.007612 -0.002073 0.000000 0.000000 0.000000
# 2 -0.007612 0.021120 -0.008603 0.000000 0.000000 0.000000
# 3 -0.002073 -0.008603 0.014584 0.000000 0.000000 0.000000
# 4 0.000000 0.000000 0.000000 0.028000 0.000000 0.000000
# 5 0.000000 0.000000 0.000000 0.000000 0.013054 0.000000
# 6 0.000000 0.000000 0.000000 0.000000 0.000000 0.044248
#
#
# Mechanical properties :
#
#
# Convention : Reuss Voigt Hill
#
# Bulk Modulus (GPa) = 59.27600 61.06725 60.17162
# Shear Modulus (GPa) = 27.63222 36.01042 31.82132
#
# Velocity S-wave (km/s) = 3.77720 4.31197 4.05341
# Velocity P-wave (km/s) = 7.04476 7.50476 7.27839
#
# Compressibility (1/GPa) = 0.01687024
#
# Stress axis : x y z
#
# Youngs Moduli (GPa) = 56.36470 47.34817 68.56603
#
# Poissons Ratio (x) = 0.36041 0.14215
# Poissons Ratio (y) = 0.42904 0.58988
# Poissons Ratio (z) = 0.11685 0.40734
#
# Static dielectric constant tensor:
#      x y z
#    x 3.488420 0.000000 0.000000 
#    y 0.000000 3.657190 0.000000 
#    z 0.000000 0.000000 3.543830 
# 
# 
# High freq. dielectric constant tensor:
#      x y z
#    x 1.756650 0.000000 0.000000 
#    y 0.000000 1.744140 0.000000 
#    z 0.000000 0.000000 1.761730 
# 
# From -- ./inp_files/33945.got.cif
#   From: 2010.03.12/outbox.cif.g09.slc.cpg/sg47_17_cif.got.tgz:33945.got - 2010.04.14 03:12:58.
