data_PCOD8199952
_publ_section_title
;
Structure prediction by ZEFSAII (Michael W. Deem and Ramdas Pophale) SiO2 
 PCOD8199952
Probable space group: P M M M
;
_chemical_formula_sum "Si O2"
_cell_formula_units_Z 28
_cell_length_a 7.592067
_cell_length_b 8.746775
_cell_length_c 21.852242
_cell_angle_alpha 90.000000
_cell_angle_beta 90.000000
_cell_angle_gamma 90.000000
_cell_volume 1451.122208
_symmetry_space_group_name_H-M "P M M M"
_symmetry_group_IT_number 47
_symmetry_cell_setting 'orthorhombic'
loop_
_space_group_symop_operation_xyz
x,y,z
-x,-y,z
x,-y,-z
-x,y,-z
-x,-y,-z
x,y,-z
-x,y,z
x,-y,z
loop_
_atom_site_type_symbol
_atom_site_label
_atom_site_fract_x
_atom_site_fract_y
_atom_site_fract_z
Si Si1 0.500000 0.681466 0.292682
Si Si2 0.203955 0.819878 0.625360
Si Si3 0.500000 0.682257 0.153795
Si Si4 0.791468 0.671279 0.500000
Si Si5 0.195411 0.681913 0.931782
O O1 0.500000 0.500000 0.297342
O O2 0.678300 0.744151 0.322526
O O3 0.500000 0.741207 0.223085
O O4 0.274350 0.759513 0.560101
O O5 0.000000 0.774015 0.636512
O O6 0.229758 0.000000 0.626614
O O7 0.500000 0.500000 0.152346
O O8 0.670814 0.748291 0.118580
O O9 0.712827 0.500000 0.500000
O O10 0.000000 0.667062 0.500000
O O11 0.198568 0.500000 0.930413
O O12 0.000000 0.741953 0.915509
O O13 0.249752 0.737217 0.000000
#
# Coordination Sequence:
#
# PCOD8199952 Si02
#       5
#     4   8   4   4   8
#     4  11  23  35  50  76 108 143 181 218 261 313
#     4  10  21  38  58  78 104 139 178 219 262 312
#     4   9  17  27  39  60  94 133 168 204 249 302
#     4   9  17  32  57  86 110 131 163 214 273 322
#     4   8  13  22  38  60  87 123 165 204 246 301
#
# _framework density 19.295411999999999
#
# number of rings (size 3 to 8) (size 9 to 14) (size 15 to 20)
#    0.000    2.714    0.000    3.000    0.000    6.857 
#    0.000    5.714    0.000    0.000    0.000    0.000 
#    0.000    9.143    0.000   25.143    0.000   20.571 
#
# Total GULP energy -347123.188659 kJ/mol
# GULP energy per Si atom -12397.256738 kJ/mol
# Density = 1.925150 g / cm^3
# Si number density = 19.295412 Si / 1000 Ang^3
#
#
#
# Elastic Constant Matrix: (Units=GPa)
#
#
# Indices 1 2 3 4 5 6 
#
# 1 129.6375 34.6051 102.6429 0.0000 0.0000 0.0000
# 2 34.6051 63.2116 42.2988 0.0000 0.0000 0.0000
# 3 102.6429 42.2988 196.1223 0.0000 0.0000 0.0000
# 4 0.0000 0.0000 0.0000 -0.5827 0.0000 0.0000
# 5 0.0000 0.0000 0.0000 0.0000 41.6187 0.0000
# 6 0.0000 0.0000 0.0000 0.0000 0.0000 20.5865
#
#
#
# Elastic Compliance Matrix: (Units=1/GPa)
#
#
# Indices 1 2 3 4 5 6 
#
# 1 0.013690 -0.003156 -0.006484 0.000000 0.000000 0.000000
# 2 -0.003156 0.019216 -0.002493 0.000000 0.000000 0.000000
# 3 -0.006484 -0.002493 0.009030 0.000000 0.000000 0.000000
# 4 0.000000 0.000000 0.000000 -1.716191 0.000000 0.000000
# 5 0.000000 0.000000 0.000000 0.000000 0.024028 0.000000
# 6 0.000000 0.000000 0.000000 0.000000 0.000000 0.048575
#
#
# Mechanical properties :
#
#
# Convention : Reuss Voigt Hill
#
# Bulk Modulus (GPa) = 56.59184 83.11831 69.85508
# Shear Modulus (GPa) = -3.18168 26.28614 11.55223
#
# Velocity S-wave (km/s) = -1.28550 3.69494 2.44950
# Velocity P-wave (km/s) = 5.21435 7.83414 6.65444
#
# Compressibility (1/GPa) = 0.01767039
#
# Stress axis : x y z
#
# Youngs Moduli (GPa) = 73.04431 52.04129 110.73978
#
# Poissons Ratio (x) = 0.16422 0.71808
# Poissons Ratio (y) = 0.23050 0.27605
# Poissons Ratio (z) = 0.47365 0.12973
#
# Static dielectric constant tensor:
#      x y z
#    x 3.698640 0.000000 0.000000 
#    y 0.000000 3.145240 0.000000 
#    z 0.000000 0.000000 3.729260 
# 
# 
# High freq. dielectric constant tensor:
#      x y z
#    x 1.757820 0.000000 0.000000 
#    y 0.000000 1.710120 0.000000 
#    z 0.000000 0.000000 1.752670 
# 
# From -- ./inp_files/29009.got.cif
#   From: 2010.03.12/outbox.cif.g09.slc.cpg/sg47_15_cif.got.tgz:29009.got - 2010.04.14 03:12:58.
