data_PCOD8199951
_publ_section_title
;
Structure prediction by ZEFSAII (Michael W. Deem and Ramdas Pophale) SiO2 
 PCOD8199951
Probable space group: P M M M
;
_chemical_formula_sum "Si O2"
_cell_formula_units_Z 52
_cell_length_a 9.117699
_cell_length_b 20.181549
_cell_length_c 14.775488
_cell_angle_alpha 90.000000
_cell_angle_beta 90.000000
_cell_angle_gamma 90.000000
_cell_volume 2718.827044
_symmetry_space_group_name_H-M "P M M M"
_symmetry_group_IT_number 47
_symmetry_cell_setting 'orthorhombic'
loop_
_space_group_symop_operation_xyz
x,y,z
-x,-y,z
x,-y,-z
-x,y,-z
-x,-y,-z
x,y,-z
-x,y,z
x,-y,z
loop_
_atom_site_type_symbol
_atom_site_label
_atom_site_fract_x
_atom_site_fract_y
_atom_site_fract_z
Si Si1 0.834956 0.104153 0.595600
Si Si2 0.667732 0.299391 0.228294
Si Si3 0.830315 0.577951 0.500000
Si Si4 0.174223 0.927236 0.211218
Si Si5 0.825908 0.800482 0.897098
Si Si6 0.330811 0.425636 0.677947
Si Si7 0.162737 0.739398 0.601000
O O1 0.760369 0.079809 0.500000
O O2 0.756628 0.078131 0.687334
O O3 0.837281 0.182425 0.594546
O O4 0.000000 0.076435 0.596903
O O5 0.500000 0.280361 0.208641
O O6 0.766279 0.265021 0.152285
O O7 0.691169 0.379497 0.232523
O O8 0.709778 0.277201 0.329053
O O9 0.796913 0.500000 0.500000
O O10 0.760602 0.605739 0.593594
O O11 0.000000 0.595469 0.500000
O O12 0.236670 0.868035 0.148587
O O13 0.000000 0.918334 0.216061
O O14 0.215387 0.000000 0.171139
O O15 0.000000 0.798173 0.891434
O O16 0.770411 0.799576 0.000000
O O17 0.500000 0.425816 0.647968
O O18 0.277387 0.500000 0.702510
O O19 0.193183 0.708550 0.500000
O O20 0.000000 0.716345 0.634241
#
# Coordination Sequence:
#
# PCOD8199951 Si02
#       7
#     8   8   4   8   8   8   8
#     4   8  13  23  41  67 101 137 170 205 248 295
#     4  11  22  34  54  80 104 135 177 222 264 313
#     4   9  17  29  47  75 109 145 184 219 252 295
#     4   9  16  27  47  76 107 136 170 213 257 307
#     4  10  21  38  58  78 103 134 170 218 277 332
#     4   9  19  35  51  70 104 146 181 214 257 308
#     4   9  17  30  49  73 105 144 179 214 258 306
#
# _framework density 19.125895
#
# number of rings (size 3 to 8) (size 9 to 14) (size 15 to 20)
#    0.000    2.692    1.538    1.615    1.077    3.385 
#    0.000    3.077    0.000    0.923    0.000    4.308 
#    0.000    2.462    0.000    0.000    0.000    0.000 
#
# Total GULP energy -644245.674225 kJ/mol
# GULP energy per Si atom -12389.339889 kJ/mol
# Density = 1.908236 g / cm^3
# Si number density = 19.125895 Si / 1000 Ang^3
#
#
#
# Elastic Constant Matrix: (Units=GPa)
#
#
# Indices 1 2 3 4 5 6 
#
# 1 32.6667 20.1606 25.5366 0.0000 0.0000 0.0000
# 2 20.1606 90.3508 63.2198 0.0000 0.0000 0.0000
# 3 25.5366 63.2198 131.9218 0.0000 0.0000 0.0000
# 4 0.0000 0.0000 0.0000 5.0751 0.0000 0.0000
# 5 0.0000 0.0000 0.0000 0.0000 17.7866 0.0000
# 6 0.0000 0.0000 0.0000 0.0000 0.0000 12.4837
#
#
#
# Elastic Compliance Matrix: (Units=1/GPa)
#
#
# Indices 1 2 3 4 5 6 
#
# 1 0.037484 -0.004945 -0.004886 0.000000 0.000000 0.000000
# 2 -0.004945 0.017304 -0.007335 0.000000 0.000000 0.000000
# 3 -0.004886 -0.007335 0.012041 0.000000 0.000000 0.000000
# 4 0.000000 0.000000 0.000000 0.197040 0.000000 0.000000
# 5 0.000000 0.000000 0.000000 0.000000 0.056222 0.000000
# 6 0.000000 0.000000 0.000000 0.000000 0.000000 0.080104
#
#
# Mechanical properties :
#
#
# Convention : Reuss Voigt Hill
#
# Bulk Modulus (GPa) = 30.77285 52.53035 41.65160
# Shear Modulus (GPa) = 11.22687 16.80390 14.01539
#
# Velocity S-wave (km/s) = 2.42543 2.96732 2.70996
# Velocity P-wave (km/s) = 4.89573 6.26620 5.62287
#
# Compressibility (1/GPa) = 0.03249618
#
# Stress axis : x y z
#
# Youngs Moduli (GPa) = 26.67823 57.79019 83.04788
#
# Poissons Ratio (x) = 0.28578 0.40577
# Poissons Ratio (y) = 0.13193 0.60917
# Poissons Ratio (z) = 0.13035 0.42390
#
# Static dielectric constant tensor:
#      x y z
#    x 3.109980 0.000000 0.000000 
#    y 0.000000 3.815560 0.000000 
#    z 0.000000 0.000000 3.544430 
# 
# 
# High freq. dielectric constant tensor:
#      x y z
#    x 1.694270 0.000000 0.000000 
#    y 0.000000 1.764550 0.000000 
#    z 0.000000 0.000000 1.721300 
# 
# From -- ./inp_files/21400.got.cif
#   From: 2010.03.12/outbox.cif.g09.slc.cpg/sg47_11_cif.got.tgz:21400.got - 2010.04.14 03:12:58.
