data_PCOD8199973
_publ_section_title
;
Structure prediction by ZEFSAII (Michael W. Deem and Ramdas Pophale) SiO2 
 PCOD8199973
Probable space group: P M M M
;
_chemical_formula_sum "Si O2"
_cell_formula_units_Z 48
_cell_length_a 13.548802
_cell_length_b 8.869490
_cell_length_c 18.730337
_cell_angle_alpha 90.000000
_cell_angle_beta 90.000000
_cell_angle_gamma 90.000000
_cell_volume 2250.842651
_symmetry_space_group_name_H-M "P M M M"
_symmetry_group_IT_number 47
_symmetry_cell_setting 'orthorhombic'
loop_
_space_group_symop_operation_xyz
x,y,z
-x,-y,z
x,-y,-z
-x,y,-z
-x,-y,-z
x,y,-z
-x,y,z
x,-y,z
loop_
_atom_site_type_symbol
_atom_site_label
_atom_site_fract_x
_atom_site_fract_y
_atom_site_fract_z
Si Si1 0.882594 0.670171 0.771666
Si Si2 0.618201 0.328733 0.000000
Si Si3 0.217016 0.822572 0.357879
Si Si4 0.382125 0.171499 0.142733
Si Si5 0.610773 0.678041 0.712477
Si Si6 0.889247 0.678722 0.924268
Si Si7 0.110604 0.820653 0.500000
O O1 0.843298 0.500000 0.755552
O O2 0.850666 0.781705 0.709359
O O3 0.840419 0.733040 0.848906
O O4 0.000000 0.668234 0.776565
O O5 0.660865 0.249082 0.071192
O O6 0.656339 0.500000 0.000000
O O7 0.500000 0.321503 0.000000
O O8 0.323248 0.742380 0.351700
O O9 0.166446 0.761134 0.429827
O O10 0.232871 0.000000 0.360991
O O11 0.500000 0.179290 0.140212
O O12 0.344733 0.260424 0.212828
O O13 0.344628 0.000000 0.146323
O O14 0.500000 0.737424 0.700165
O O15 0.614331 0.500000 0.714298
O O16 0.895046 0.500000 0.918214
O O17 0.000000 0.744104 0.929166
O O18 0.834035 0.724144 0.000000
O O19 0.000000 0.753955 0.500000
O O20 0.106424 0.000000 0.500000
#
# Coordination Sequence:
#
# PCOD8199973 Si02
#       7
#     8   4   8   8   8   8   4
#     4   9  17  30  51  81 115 148 185 232 283 337
#     4   9  15  23  39  67 103 143 188 237 292 351
#     4  11  22  37  60  86 114 149 190 235 286 345
#     4   9  16  27  46  73 104 140 186 240 294 345
#     4  10  21  38  59  82 111 148 190 239 294 352
#     4   7  10  19  39  68 101 139 182 224 267 318
#     4   9  20  40  64  91 122 154 187 225 274 339
#
# _framework density 21.325346
#
# number of rings (size 3 to 8) (size 9 to 14) (size 15 to 20)
#    0.000    2.833    0.000    3.750    0.000    5.000 
#    0.000    2.083    1.833    6.000    0.000    2.333 
#    0.000    0.000    0.000    0.000    0.000    0.000 
#
# Total GULP energy -594932.197621 kJ/mol
# GULP energy per Si atom -12394.420784 kJ/mol
# Density = 2.127681 g / cm^3
# Si number density = 21.325346 Si / 1000 Ang^3
#
#
#
# Elastic Constant Matrix: (Units=GPa)
#
#
# Indices 1 2 3 4 5 6 
#
# 1 62.5598 15.6518 67.4232 0.0000 0.0000 0.0000
# 2 15.6518 81.2357 45.5622 0.0000 0.0000 0.0000
# 3 67.4232 45.5622 195.8285 0.0000 0.0000 0.0000
# 4 0.0000 0.0000 0.0000 29.1591 0.0000 0.0000
# 5 0.0000 0.0000 0.0000 0.0000 39.5291 0.0000
# 6 0.0000 0.0000 0.0000 0.0000 0.0000 20.9029
#
#
#
# Elastic Compliance Matrix: (Units=1/GPa)
#
#
# Indices 1 2 3 4 5 6 
#
# 1 0.025415 0.000013 -0.008753 0.000000 0.000000 0.000000
# 2 0.000013 0.014157 -0.003298 0.000000 0.000000 0.000000
# 3 -0.008753 -0.003298 0.008888 0.000000 0.000000 0.000000
# 4 0.000000 0.000000 0.000000 0.034295 0.000000 0.000000
# 5 0.000000 0.000000 0.000000 0.000000 0.025298 0.000000
# 6 0.000000 0.000000 0.000000 0.000000 0.000000 0.047840
#
#
# Mechanical properties :
#
#
# Convention : Reuss Voigt Hill
#
# Bulk Modulus (GPa) = 41.01320 66.32205 53.66763
# Shear Modulus (GPa) = 26.58181 31.98400 29.28290
#
# Velocity S-wave (km/s) = 3.53440 3.87694 3.70962
# Velocity P-wave (km/s) = 5.99415 7.15601 6.60069
#
# Compressibility (1/GPa) = 0.02438239
#
# Stress axis : x y z
#
# Youngs Moduli (GPa) = 39.34616 70.63499 112.51539
#
# Poissons Ratio (x) = -0.00089 0.98489
# Poissons Ratio (y) = -0.00050 0.37110
# Poissons Ratio (z) = 0.34441 0.23297
#
# Static dielectric constant tensor:
#      x y z
#    x 3.791180 0.000000 0.000000 
#    y 0.000000 3.498520 0.000000 
#    z 0.000000 0.000000 4.130660 
# 
# 
# High freq. dielectric constant tensor:
#      x y z
#    x 1.840570 0.000000 0.000000 
#    y 0.000000 1.803510 0.000000 
#    z 0.000000 0.000000 1.837030 
# 
# From -- ./inp_files/6451.got.cif
#   From: 2010.03.12/outbox.cif.g09.slc.cpg/sg47_4_cif.got.tgz:6451.got - 2010.04.14 03:12:58.
