data_PCOD8199102
_publ_section_title
;
Structure prediction by ZEFSAII (Michael W. Deem and Ramdas Pophale) SiO2 
 PCOD8199102
Probable space group: P M M M
;
_chemical_formula_sum "Si O2"
_cell_formula_units_Z 48
_cell_length_a 32.400931
_cell_length_b 8.161721
_cell_length_c 9.457606
_cell_angle_alpha 90.000000
_cell_angle_beta 90.000000
_cell_angle_gamma 90.000000
_cell_volume 2501.038929
_symmetry_space_group_name_H-M "P M M M"
_symmetry_group_IT_number 47
_symmetry_cell_setting 'orthorhombic'
loop_
_space_group_symop_operation_xyz
x,y,z
-x,-y,z
x,-y,-z
-x,y,-z
-x,-y,-z
x,y,-z
-x,y,z
x,-y,z
loop_
_atom_site_type_symbol
_atom_site_label
_atom_site_fract_x
_atom_site_fract_y
_atom_site_fract_z
Si Si1 0.404438 0.182441 0.832132
Si Si2 0.546960 0.500000 0.831495
Si Si3 0.163544 0.694427 0.840790
Si Si4 0.689253 0.810233 0.840591
Si Si5 0.924720 0.192343 0.158846
Si Si6 0.000000 0.690991 0.656372
Si Si7 0.761922 0.690643 0.343590
O O1 0.432018 0.332583 0.771605
O O2 0.357403 0.217169 0.786813
O O3 0.418346 0.000000 0.775986
O O4 0.407466 0.178250 0.000000
O O5 0.500000 0.500000 0.778691
O O6 0.549987 0.500000 0.000000
O O7 0.164578 0.500000 0.839633
O O8 0.119810 0.755681 0.780105
O O9 0.200178 0.769188 0.744613
O O10 0.169946 0.761702 0.000000
O O11 0.718814 0.714023 0.735650
O O12 0.700963 0.000000 0.837481
O O13 0.694512 0.741085 0.000000
O O14 0.959287 0.260134 0.260791
O O15 0.928708 0.000000 0.154186
O O16 0.930497 0.264743 0.000000
O O17 0.000000 0.500000 0.637733
O O18 0.000000 0.773341 0.500000
O O19 0.760056 0.771389 0.500000
O O20 0.770304 0.500000 0.359134
#
# Coordination Sequence:
#
# PCOD8199102 Si02
#       7
#     8   4   8   8   8   4   8
#     4   8  15  27  41  62  93 127 167 214 259 308
#     4   9  16  24  38  64  95 131 171 207 257 320
#     4   9  18  34  54  75 102 139 179 213 250 301
#     4   9  18  32  50  71  95 129 174 217 256 303
#     4  10  21  37  58  83 108 134 168 212 257 302
#     4  11  24  39  56  80 108 139 174 211 254 304
#     4  10  21  34  49  74 106 136 168 209 257 308
#
# _framework density 19.192022999999999
#
# number of rings (size 3 to 8) (size 9 to 14) (size 15 to 20)
#    0.000    2.667    0.000    2.500    1.167    5.667 
#    0.000    5.000    0.000    0.000    0.000    0.000 
#    0.000    1.333    0.000    3.667    0.000    3.667 
#
# Total GULP energy -595011.445465 kJ/mol
# GULP energy per Si atom -12396.071781 kJ/mol
# Density = 1.914834 g / cm^3
# Si number density = 19.192023 Si / 1000 Ang^3
#
#
#
# Elastic Constant Matrix: (Units=GPa)
#
#
# Indices 1 2 3 4 5 6 
#
# 1 151.3541 56.7332 64.9568 0.0000 0.0000 0.0000
# 2 56.7332 62.9128 24.8346 0.0000 0.0000 0.0000
# 3 64.9568 24.8346 85.5578 0.0000 0.0000 0.0000
# 4 0.0000 0.0000 0.0000 12.8663 0.0000 0.0000
# 5 0.0000 0.0000 0.0000 0.0000 0.4217 0.0000
# 6 0.0000 0.0000 0.0000 0.0000 0.0000 -111.6872
#
#
#
# Elastic Compliance Matrix: (Units=1/GPa)
#
#
# Indices 1 2 3 4 5 6 
#
# 1 0.013109 -0.008914 -0.007365 0.000000 0.000000 0.000000
# 2 -0.008914 0.024014 -0.000202 0.000000 0.000000 0.000000
# 3 -0.007365 -0.000202 0.017339 0.000000 0.000000 0.000000
# 4 0.000000 0.000000 0.000000 0.077722 0.000000 0.000000
# 5 0.000000 0.000000 0.000000 0.000000 2.371320 0.000000
# 6 0.000000 0.000000 0.000000 0.000000 0.000000 -0.008954
#
#
# Mechanical properties :
#
#
# Convention : Reuss Voigt Hill
#
# Bulk Modulus (GPa) = 46.51715 65.87488 56.19602
# Shear Modulus (GPa) = 1.97264 -9.45983 -3.74360
#
# Velocity S-wave (km/s) = 1.01492 -2.22255 -1.39815
# Velocity P-wave (km/s) = 5.06595 5.27374 5.17088
#
# Compressibility (1/GPa) = 0.02149745
#
# Stress axis : x y z
#
# Youngs Moduli (GPa) = 76.28090 41.64295 57.67455
#
# Poissons Ratio (x) = 0.37122 0.42479
# Poissons Ratio (y) = 0.67999 0.01168
# Poissons Ratio (z) = 0.56184 0.00843
#
# Static dielectric constant tensor:
#      x y z
#    x 3.575620 0.000000 0.000000 
#    y 0.000000 3.556930 0.000000 
#    z 0.000000 0.000000 3.353600 
# 
# 
# High freq. dielectric constant tensor:
#      x y z
#    x 1.752130 0.000000 0.000000 
#    y 0.000000 1.743650 0.000000 
#    z 0.000000 0.000000 1.709550 
# 
# From -- ./inp_files/13832.got.cif
#   From: 2010.03.12/outbox.cif.g09.slc.cpg/sg47_7_cif.got.tgz:13832.got - 2010.04.14 03:12:58.
