data_PCOD8199586
_publ_section_title
;
Structure prediction by ZEFSAII (Michael W. Deem and Ramdas Pophale) SiO2 
 PCOD8199586
Probable space group: P M M M
;
_chemical_formula_sum "Si O2"
_cell_formula_units_Z 52
_cell_length_a 8.169732
_cell_length_b 12.291171
_cell_length_c 26.650081
_cell_angle_alpha 90.000000
_cell_angle_beta 90.000000
_cell_angle_gamma 90.000000
_cell_volume 2676.083155
_symmetry_space_group_name_H-M "P M M M"
_symmetry_group_IT_number 47
_symmetry_cell_setting 'orthorhombic'
loop_
_space_group_symop_operation_xyz
x,y,z
-x,-y,z
x,-y,-z
-x,y,-z
-x,-y,-z
x,y,-z
-x,y,z
x,-y,z
loop_
_atom_site_type_symbol
_atom_site_label
_atom_site_fract_x
_atom_site_fract_y
_atom_site_fract_z
Si Si1 0.308752 0.627355 0.623021
Si Si2 0.311623 0.834230 0.945765
Si Si3 0.184349 0.000000 0.753970
Si Si4 0.692300 0.000000 0.866485
Si Si5 0.000000 0.372136 0.444467
Si Si6 0.684650 0.219186 0.715304
Si Si7 0.189413 0.620344 0.091425
Si Si8 0.810701 0.378493 0.206955
O O1 0.500000 0.647316 0.605769
O O2 0.287983 0.500000 0.637725
O O3 0.172125 0.661920 0.581934
O O4 0.259545 0.704275 0.669455
O O5 0.500000 0.865076 0.948033
O O6 0.293841 0.705191 0.939918
O O7 0.233575 0.896408 0.897462
O O8 0.233614 0.868348 0.000000
O O9 0.274294 0.000000 0.807403
O O10 0.217151 0.106538 0.720071
O O11 0.000000 0.000000 0.770589
O O12 0.500000 0.000000 0.870333
O O13 0.000000 0.500000 0.449248
O O14 0.000000 0.318747 0.500000
O O15 0.500000 0.182204 0.708062
O O16 0.700434 0.290376 0.765310
O O17 0.227691 0.500000 0.070696
O O18 0.239227 0.627114 0.149351
O O19 0.000000 0.648778 0.084767
O O20 0.775414 0.500000 0.227700
O O21 0.000000 0.348566 0.215414
#
# Coordination Sequence:
#
# PCOD8199586 Si02
#       8
#     8   8   4   4   4   8   8   8
#     4   9  19  34  54  84 120 156 195 241 286 332
#     4  10  21  36  55  77  98 125 163 208 260 315
#     4  12  26  39  55  79 106 141 179 220 273 328
#     4  10  21  40  60  76 100 130 163 211 266 323
#     4   9  18  32  54  85 121 163 203 238 283 336
#     4  11  22  36  53  77 110 145 184 227 274 330
#     4   9  19  35  51  71 101 133 166 204 252 311
#     4   9  18  32  52  77 105 139 175 215 263 319
#
# _framework density 19.431384000000001
#
# number of rings (size 3 to 8) (size 9 to 14) (size 15 to 20)
#    0.000    2.231    0.000    3.692    2.154    6.769 
#    0.000    4.615    0.000    1.385    0.000    1.077 
#    0.000    2.462    0.000    0.000    0.000    0.000 
#
# Total GULP energy -644314.070146 kJ/mol
# GULP energy per Si atom -12390.655195 kJ/mol
# Density = 1.938716 g / cm^3
# Si number density = 19.431384 Si / 1000 Ang^3
#
#
#
# Elastic Constant Matrix: (Units=GPa)
#
#
# Indices 1 2 3 4 5 6 
#
# 1 61.0633 27.6542 38.7073 0.0000 0.0000 0.0000
# 2 27.6542 110.9905 47.9309 0.0000 0.0000 0.0000
# 3 38.7073 47.9309 98.7034 0.0000 0.0000 0.0000
# 4 0.0000 0.0000 0.0000 24.4125 0.0000 0.0000
# 5 0.0000 0.0000 0.0000 0.0000 16.4381 0.0000
# 6 0.0000 0.0000 0.0000 0.0000 0.0000 18.3298
#
#
#
# Elastic Compliance Matrix: (Units=1/GPa)
#
#
# Indices 1 2 3 4 5 6 
#
# 1 0.022227 -0.002245 -0.007627 0.000000 0.000000 0.000000
# 2 -0.002245 0.011627 -0.004766 0.000000 0.000000 0.000000
# 3 -0.007627 -0.004766 0.015437 0.000000 0.000000 0.000000
# 4 0.000000 0.000000 0.000000 0.040963 0.000000 0.000000
# 5 0.000000 0.000000 0.000000 0.000000 0.060834 0.000000
# 6 0.000000 0.000000 0.000000 0.000000 0.000000 0.054556
#
#
# Mechanical properties :
#
#
# Convention : Reuss Voigt Hill
#
# Bulk Modulus (GPa) = 49.95820 55.48243 52.72032
# Shear Modulus (GPa) = 20.69616 22.26709 21.48162
#
# Velocity S-wave (km/s) = 3.26711 3.38884 3.32853
# Velocity P-wave (km/s) = 6.32439 6.62777 6.47785
#
# Compressibility (1/GPa) = 0.02001673
#
# Stress axis : x y z
#
# Youngs Moduli (GPa) = 44.98944 86.00513 64.78104
#
# Poissons Ratio (x) = 0.19305 0.49406
# Poissons Ratio (y) = 0.10098 0.30875
# Poissons Ratio (z) = 0.34312 0.40990
#
# Static dielectric constant tensor:
#      x y z
#    x 3.448600 0.000000 0.000000 
#    y 0.000000 3.625080 0.000000 
#    z 0.000000 0.000000 3.579570 
# 
# 
# High freq. dielectric constant tensor:
#      x y z
#    x 1.749750 0.000000 0.000000 
#    y 0.000000 1.752020 0.000000 
#    z 0.000000 0.000000 1.735710 
# 
# From -- ./inp_files/33270.got.cif
#   From: 2010.03.12/outbox.cif.g09.slc.cpg/sg47_17_cif.got.tgz:33270.got - 2010.04.14 03:12:58.
