data_PCOD8199218
_publ_section_title
;
Structure prediction by ZEFSAII (Michael W. Deem and Ramdas Pophale) SiO2 
 PCOD8199218
Probable space group: P M M M
;
_chemical_formula_sum "Si O2"
_cell_formula_units_Z 44
_cell_length_a 28.220034
_cell_length_b 9.664324
_cell_length_c 9.137647
_cell_angle_alpha 90.000000
_cell_angle_beta 90.000000
_cell_angle_gamma 90.000000
_cell_volume 2492.088096
_symmetry_space_group_name_H-M "P M M M"
_symmetry_group_IT_number 47
_symmetry_cell_setting 'orthorhombic'
loop_
_space_group_symop_operation_xyz
x,y,z
-x,-y,z
x,-y,-z
-x,y,-z
-x,-y,-z
x,y,-z
-x,y,z
x,-y,z
loop_
_atom_site_type_symbol
_atom_site_label
_atom_site_fract_x
_atom_site_fract_y
_atom_site_fract_z
Si Si1 0.552277 0.845296 0.173998
Si Si2 0.000000 0.657451 0.174016
Si Si3 0.740124 0.337065 0.168075
Si Si4 0.634027 0.652741 0.826346
Si Si5 0.183379 0.841313 0.328801
Si Si6 0.912761 0.158881 0.171727
O O1 0.500000 0.789962 0.220071
O O2 0.593685 0.750967 0.243031
O O3 0.559453 0.000000 0.234659
O O4 0.556294 0.846071 0.000000
O O5 0.046046 0.740130 0.230513
O O6 0.000000 0.500000 0.235216
O O7 0.000000 0.656414 0.000000
O O8 0.747654 0.500000 0.191014
O O9 0.686643 0.294037 0.213229
O O10 0.774481 0.253980 0.273186
O O11 0.750316 0.296556 0.000000
O O12 0.626028 0.500000 0.760606
O O13 0.629184 0.646326 0.000000
O O14 0.176972 0.818939 0.500000
O O15 0.134923 0.794958 0.252078
O O16 0.195313 0.000000 0.289781
O O17 0.926444 0.000000 0.208466
O O18 0.904540 0.178123 0.000000
#
# Coordination Sequence:
#
# PCOD8199218 Si02
#       6
#     8   4   8   8   8   8
#     4   8  13  20  30  48  77 111 144 178 219 268
#     4   9  17  29  48  75 100 120 150 193 232 267
#     4   9  18  32  49  69  93 122 158 199 240 282
#     4   8  14  24  37  55  80 110 146 186 225 268
#     4  10  21  35  50  71  98 126 159 198 238 282
#     4   9  17  31  51  72  95 125 158 190 228 274
#
# _framework density 17.655878000000001
#
# number of rings (size 3 to 8) (size 9 to 14) (size 15 to 20)
#    0.000    3.182    0.000    2.455    0.000    4.364 
#    0.000    5.909    0.000    2.727    0.000    0.000 
#    0.000    0.727    0.000    8.000    0.000   13.091 
#
# Total GULP energy -545416.861416 kJ/mol
# GULP energy per Si atom -12395.837759 kJ/mol
# Density = 1.761569 g / cm^3
# Si number density = 17.655878 Si / 1000 Ang^3
#
#
#
# Elastic Constant Matrix: (Units=GPa)
#
#
# Indices 1 2 3 4 5 6 
#
# 1 166.7386 86.5396 35.1311 0.0000 0.0000 0.0000
# 2 86.5396 90.6259 23.4898 0.0000 0.0000 0.0000
# 3 35.1311 23.4898 28.9477 0.0000 0.0000 0.0000
# 4 0.0000 0.0000 0.0000 15.7194 0.0000 0.0000
# 5 0.0000 0.0000 0.0000 0.0000 -0.9741 0.0000
# 6 0.0000 0.0000 0.0000 0.0000 0.0000 33.5222
#
#
#
# Elastic Compliance Matrix: (Units=1/GPa)
#
#
# Indices 1 2 3 4 5 6 
#
# 1 0.012979 -0.010525 -0.007211 0.000000 0.000000 0.000000
# 2 -0.010525 0.022508 -0.005491 0.000000 0.000000 0.000000
# 3 -0.007211 -0.005491 0.047752 0.000000 0.000000 0.000000
# 4 0.000000 0.000000 0.000000 0.063616 0.000000 0.000000
# 5 0.000000 0.000000 0.000000 0.000000 -1.026640 0.000000
# 6 0.000000 0.000000 0.000000 0.000000 0.000000 0.029831
#
#
# Mechanical properties :
#
#
# Convention : Reuss Voigt Hill
#
# Bulk Modulus (GPa) = 27.18488 64.07035 45.62761
# Shear Modulus (GPa) = -6.31922 19.06363 6.37220
#
# Velocity S-wave (km/s) = -1.89390 3.28949 1.90183
# Velocity P-wave (km/s) = 3.26313 7.12705 5.54269
#
# Compressibility (1/GPa) = 0.03678516
#
# Stress axis : x y z
#
# Youngs Moduli (GPa) = 77.04489 44.42839 20.94134
#
# Poissons Ratio (x) = 0.46761 0.15101
# Poissons Ratio (y) = 0.81090 0.11499
# Poissons Ratio (z) = 0.55559 0.24396
#
# Static dielectric constant tensor:
#      x y z
#    x 3.510100 0.000000 0.000000 
#    y 0.000000 3.473910 0.000000 
#    z 0.000000 0.000000 2.753430 
# 
# 
# High freq. dielectric constant tensor:
#      x y z
#    x 1.696500 0.000000 0.000000 
#    y 0.000000 1.681630 0.000000 
#    z 0.000000 0.000000 1.627260 
# 
# From -- ./inp_files/13673.got.cif
#   From: 2010.03.12/outbox.cif.g09.slc.cpg/sg47_7_cif.got.tgz:13673.got - 2010.04.14 03:12:58.
