data_PCOD8199903
_publ_section_title
;
Structure prediction by ZEFSAII (Michael W. Deem and Ramdas Pophale) SiO2 
 PCOD8199903
Probable space group: P M M M
;
_chemical_formula_sum "Si O2"
_cell_formula_units_Z 40
_cell_length_a 8.924574
_cell_length_b 9.072148
_cell_length_c 25.501406
_cell_angle_alpha 90.000000
_cell_angle_beta 90.000000
_cell_angle_gamma 90.000000
_cell_volume 2064.722769
_symmetry_space_group_name_H-M "P M M M"
_symmetry_group_IT_number 47
_symmetry_cell_setting 'orthorhombic'
loop_
_space_group_symop_operation_xyz
x,y,z
-x,-y,z
x,-y,-z
-x,y,-z
-x,-y,-z
x,y,-z
-x,y,z
x,-y,z
loop_
_atom_site_type_symbol
_atom_site_label
_atom_site_fract_x
_atom_site_fract_y
_atom_site_fract_z
Si Si1 0.674167 0.828860 0.691757
Si Si2 0.676928 0.166831 0.000000
Si Si3 0.322899 0.168921 0.500000
Si Si4 0.825273 0.327962 0.597051
Si Si5 0.171969 0.830348 0.799015
Si Si6 0.174554 0.328840 0.095751
O O1 0.500000 0.792283 0.684800
O O2 0.769950 0.729854 0.652789
O O3 0.723760 0.787112 0.750336
O O4 0.707801 0.000000 0.679994
O O5 0.733278 0.247121 0.051593
O O6 0.500000 0.171268 0.000000
O O7 0.737655 0.000000 0.000000
O O8 0.500000 0.182383 0.500000
O O9 0.261945 0.245719 0.448443
O O10 0.270362 0.000000 0.500000
O O11 0.790199 0.500000 0.592765
O O12 0.000000 0.294636 0.590938
O O13 0.224091 0.731714 0.847720
O O14 0.000000 0.798100 0.783585
O O15 0.194163 0.000000 0.815045
O O16 0.213699 0.500000 0.093295
O O17 0.000000 0.298466 0.085875
#
# Coordination Sequence:
#
# PCOD8199903 Si02
#       6
#     8   4   4   8   8   8
#     4  10  21  37  58  85 116 150 189 232 278 330
#     4  11  24  39  56  80 110 145 186 231 278 330
#     4  11  24  41  62  88 116 147 186 231 280 336
#     4  11  24  40  59  85 116 150 190 234 279 330
#     4   9  18  34  56  81 111 149 190 230 273 324
#     4  10  21  37  58  84 113 145 183 228 278 333
#
# _framework density 19.373062000000001
#
# number of rings (size 3 to 8) (size 9 to 14) (size 15 to 20)
#    0.000    1.800    0.000    3.600    0.000   12.000 
#    0.000    4.000    0.000    0.000    0.000    0.000 
#    0.000    0.000    0.000    0.000    0.000    0.000 
#
# Total GULP energy -496228.024449 kJ/mol
# GULP energy per Si atom -12405.700611 kJ/mol
# Density = 1.932897 g / cm^3
# Si number density = 19.373062 Si / 1000 Ang^3
#
#
#
# Elastic Constant Matrix: (Units=GPa)
#
#
# Indices 1 2 3 4 5 6 
#
# 1 58.7627 58.1968 43.3945 0.0000 0.0000 0.0000
# 2 58.1968 122.4122 75.7518 0.0000 0.0000 0.0000
# 3 43.3945 75.7518 122.7239 0.0000 0.0000 0.0000
# 4 0.0000 0.0000 0.0000 76.6472 0.0000 0.0000
# 5 0.0000 0.0000 0.0000 0.0000 59.3114 0.0000
# 6 0.0000 0.0000 0.0000 0.0000 0.0000 28.4431
#
#
#
# Elastic Compliance Matrix: (Units=1/GPa)
#
#
# Indices 1 2 3 4 5 6 
#
# 1 0.032920 -0.013668 -0.003204 0.000000 0.000000 0.000000
# 2 -0.013668 0.018893 -0.006829 0.000000 0.000000 0.000000
# 3 -0.003204 -0.006829 0.013496 0.000000 0.000000 0.000000
# 4 0.000000 0.000000 0.000000 0.013047 0.000000 0.000000
# 5 0.000000 0.000000 0.000000 0.000000 0.016860 0.000000
# 6 0.000000 0.000000 0.000000 0.000000 0.000000 0.035158
#
#
# Mechanical properties :
#
#
# Convention : Reuss Voigt Hill
#
# Bulk Modulus (GPa) = 55.84081 73.17612 64.50847
# Shear Modulus (GPa) = 27.21170 41.31740 34.26455
#
# Velocity S-wave (km/s) = 3.75189 4.62315 4.21012
# Velocity P-wave (km/s) = 6.90329 8.14568 7.55008
#
# Compressibility (1/GPa) = 0.01790805
#
# Stress axis : x y z
#
# Youngs Moduli (GPa) = 30.37675 52.92951 74.09479
#
# Poissons Ratio (x) = 0.72345 0.23737
# Poissons Ratio (y) = 0.41520 0.50598
# Poissons Ratio (z) = 0.09731 0.36144
#
# Static dielectric constant tensor:
#      x y z
#    x 3.558910 0.000000 0.000000 
#    y 0.000000 3.672390 0.000000 
#    z 0.000000 0.000000 3.669480 
# 
# 
# High freq. dielectric constant tensor:
#      x y z
#    x 1.756900 0.000000 0.000000 
#    y 0.000000 1.760850 0.000000 
#    z 0.000000 0.000000 1.769130 
# 
# From -- ./inp_files/33079.got.cif
#   From: 2010.03.12/outbox.cif.g09.slc.cpg/sg47_17_cif.got.tgz:33079.got - 2010.04.14 03:12:58.
