data_PCOD8199404
_publ_section_title
;
Structure prediction by ZEFSAII (Michael W. Deem and Ramdas Pophale) SiO2 
 PCOD8199404
Probable space group: P M M M
;
_chemical_formula_sum "Si O2"
_cell_formula_units_Z 36
_cell_length_a 8.873054
_cell_length_b 14.409915
_cell_length_c 15.451155
_cell_angle_alpha 90.000000
_cell_angle_beta 90.000000
_cell_angle_gamma 90.000000
_cell_volume 1975.583966
_symmetry_space_group_name_H-M "P M M M"
_symmetry_group_IT_number 47
_symmetry_cell_setting 'orthorhombic'
loop_
_space_group_symop_operation_xyz
x,y,z
-x,-y,z
x,-y,-z
-x,y,-z
-x,-y,-z
x,y,-z
-x,y,z
x,-y,z
loop_
_atom_site_type_symbol
_atom_site_label
_atom_site_fract_x
_atom_site_fract_y
_atom_site_fract_z
Si Si1 0.178989 0.103724 0.404187
Si Si2 0.325944 0.107883 0.900927
Si Si3 0.178088 0.224747 0.246479
Si Si4 0.677952 0.605642 0.175383
Si Si5 0.831268 0.609918 0.000000
O O1 0.230789 0.137025 0.500000
O O2 0.242864 0.172708 0.331341
O O3 0.000000 0.101648 0.399149
O O4 0.241247 0.000000 0.386309
O O5 0.500000 0.131188 0.881626
O O6 0.220789 0.167747 0.838924
O O7 0.293234 0.000000 0.883656
O O8 0.286002 0.133127 0.000000
O O9 0.253642 0.326760 0.248025
O O10 0.000000 0.236876 0.250091
O O11 0.500000 0.613605 0.172625
O O12 0.729106 0.500000 0.194791
O O13 0.741752 0.643380 0.084303
O O14 0.838074 0.500000 0.000000
O O15 0.000000 0.652004 0.000000
#
# Coordination Sequence:
#
# PCOD8199404 Si02
#       5
#     8   8   8   8   4
#     4   8  15  30  52  78 107 135 164 204 258 316
#     4   9  19  35  51  68  98 141 179 207 243 300
#     4  11  21  31  51  80 105 131 169 219 266 306
#     4  10  21  36  52  70  98 139 179 213 256 311
#     4   9  17  31  51  73  96 123 164 219 265 295
#
# _framework density 18.222460000000002
#
# number of rings (size 3 to 8) (size 9 to 14) (size 15 to 20)
#    0.000    2.556    0.000    3.667    1.556    4.444 
#    0.000    1.111    0.000    3.333    0.000   12.444 
#    0.000    0.000    0.000    0.000    0.000    0.000 
#
# Total GULP energy -446344.424659 kJ/mol
# GULP energy per Si atom -12398.456241 kJ/mol
# Density = 1.818098 g / cm^3
# Si number density = 18.222460 Si / 1000 Ang^3
#
#
#
# Elastic Constant Matrix: (Units=GPa)
#
#
# Indices 1 2 3 4 5 6 
#
# 1 61.2106 34.4201 33.3808 0.0000 0.0000 0.0000
# 2 34.4201 109.0795 77.3530 0.0000 0.0000 0.0000
# 3 33.3808 77.3530 118.6249 0.0000 0.0000 0.0000
# 4 0.0000 0.0000 0.0000 27.6639 0.0000 0.0000
# 5 0.0000 0.0000 0.0000 0.0000 4.0616 0.0000
# 6 0.0000 0.0000 0.0000 0.0000 0.0000 29.3307
#
#
#
# Elastic Compliance Matrix: (Units=1/GPa)
#
#
# Indices 1 2 3 4 5 6 
#
# 1 0.020372 -0.004396 -0.002866 0.000000 0.000000 0.000000
# 2 -0.004396 0.018002 -0.010502 0.000000 0.000000 0.000000
# 3 -0.002866 -0.010502 0.016084 0.000000 0.000000 0.000000
# 4 0.000000 0.000000 0.000000 0.036148 0.000000 0.000000
# 5 0.000000 0.000000 0.000000 0.000000 0.246208 0.000000
# 6 0.000000 0.000000 0.000000 0.000000 0.000000 0.034094
#
#
# Mechanical properties :
#
#
# Convention : Reuss Voigt Hill
#
# Bulk Modulus (GPa) = 52.82385 64.35809 58.59097
# Shear Modulus (GPa) = 12.11396 21.79532 16.95464
#
# Velocity S-wave (km/s) = 2.58113 3.46217 3.05360
# Velocity P-wave (km/s) = 6.15908 7.16777 6.68248
#
# Compressibility (1/GPa) = 0.01893084
#
# Stress axis : x y z
#
# Youngs Moduli (GPa) = 49.08698 55.54942 62.17182
#
# Poissons Ratio (x) = 0.24419 0.17820
# Poissons Ratio (y) = 0.21578 0.65291
# Poissons Ratio (z) = 0.14069 0.58337
#
# Static dielectric constant tensor:
#      x y z
#    x 3.156930 0.000000 0.000000 
#    y 0.000000 3.520940 0.000000 
#    z 0.000000 0.000000 3.465850 
# 
# 
# High freq. dielectric constant tensor:
#      x y z
#    x 1.691010 0.000000 0.000000 
#    y 0.000000 1.708890 0.000000 
#    z 0.000000 0.000000 1.687640 
# 
# From -- ./inp_files/5527.got.cif
#   From: 2010.03.12/outbox.cif.g09.slc.cpg/sg47_3_cif.got.tgz:5527.got - 2010.04.14 03:12:58.
