data_PCOD8199866
_publ_section_title
;
Structure prediction by ZEFSAII (Michael W. Deem and Ramdas Pophale) SiO2 
 PCOD8199866
Probable space group: P M M M
;
_chemical_formula_sum "Si O2"
_cell_formula_units_Z 44
_cell_length_a 8.951542
_cell_length_b 28.013956
_cell_length_c 9.157874
_cell_angle_alpha 90.000000
_cell_angle_beta 90.000000
_cell_angle_gamma 90.000000
_cell_volume 2296.502697
_symmetry_space_group_name_H-M "P M M M"
_symmetry_group_IT_number 47
_symmetry_cell_setting 'orthorhombic'
loop_
_space_group_symop_operation_xyz
x,y,z
-x,-y,z
x,-y,-z
-x,y,-z
-x,-y,-z
x,y,-z
-x,y,z
x,-y,z
loop_
_atom_site_type_symbol
_atom_site_label
_atom_site_fract_x
_atom_site_fract_y
_atom_site_fract_z
Si Si1 0.322204 0.500000 0.164875
Si Si2 0.173109 0.862797 0.670905
Si Si3 0.672883 0.592688 0.330351
Si Si4 0.823839 0.690051 0.667015
Si Si5 0.671805 0.944842 0.168208
Si Si6 0.674157 0.776170 0.169924
O O1 0.500000 0.500000 0.174143
O O2 0.261110 0.452608 0.243833
O O3 0.263262 0.500000 0.000000
O O4 0.205558 0.860117 0.500000
O O5 0.219900 0.914636 0.728937
O O6 0.271483 0.823383 0.750027
O O7 0.000000 0.853614 0.705586
O O8 0.697105 0.581951 0.500000
O O9 0.500000 0.601563 0.293028
O O10 0.762733 0.639175 0.279182
O O11 0.774126 0.699889 0.500000
O O12 0.758654 0.730364 0.769997
O O13 0.000000 0.690089 0.682234
O O14 0.500000 0.932954 0.205097
O O15 0.706221 0.000000 0.199467
O O16 0.704863 0.932290 0.000000
O O17 0.500000 0.769429 0.199949
O O18 0.710374 0.781667 0.000000
#
# Coordination Sequence:
#
# PCOD8199866 Si02
#       6
#     4   8   8   8   8   8
#     4   9  17  29  48  75 104 134 174 225 270 309
#     4  11  24  39  56  82 115 148 183 225 272 323
#     4   9  17  31  52  76 103 138 178 218 264 318
#     4  10  21  37  57  82 111 142 178 221 270 324
#     4   9  19  37  60  85 113 146 186 230 273 320
#     4  11  24  40  59  83 109 140 181 226 271 323
#
# _framework density 19.159569999999999
#
# number of rings (size 3 to 8) (size 9 to 14) (size 15 to 20)
#    0.000    2.091    0.000    3.545    0.000   11.273 
#    0.000    5.000    0.000    2.727    0.000    0.000 
#    0.000    0.000    0.000    0.000    0.000    0.000 
#
# Total GULP energy -545786.419012 kJ/mol
# GULP energy per Si atom -12404.236796 kJ/mol
# Density = 1.911596 g / cm^3
# Si number density = 19.159570 Si / 1000 Ang^3
#
#
#
# Elastic Constant Matrix: (Units=GPa)
#
#
# Indices 1 2 3 4 5 6 
#
# 1 51.6995 36.8899 34.9469 0.0000 0.0000 0.0000
# 2 36.8899 126.2605 54.7786 0.0000 0.0000 0.0000
# 3 34.9469 54.7786 78.3031 0.0000 0.0000 0.0000
# 4 0.0000 0.0000 0.0000 -27.4339 0.0000 0.0000
# 5 0.0000 0.0000 0.0000 0.0000 27.7579 0.0000
# 6 0.0000 0.0000 0.0000 0.0000 0.0000 -18.3153
#
#
#
# Elastic Compliance Matrix: (Units=1/GPa)
#
#
# Indices 1 2 3 4 5 6 
#
# 1 0.029119 -0.004120 -0.010114 0.000000 0.000000 0.000000
# 2 -0.004120 0.011954 -0.006524 0.000000 0.000000 0.000000
# 3 -0.010114 -0.006524 0.021849 0.000000 0.000000 0.000000
# 4 0.000000 0.000000 0.000000 -0.036451 0.000000 0.000000
# 5 0.000000 0.000000 0.000000 0.000000 0.036026 0.000000
# 6 0.000000 0.000000 0.000000 0.000000 0.000000 -0.054599
#
#
# Mechanical properties :
#
#
# Convention : Reuss Voigt Hill
#
# Bulk Modulus (GPa) = 46.71494 56.61044 51.66269
# Shear Modulus (GPa) = 88.42000 5.04490 46.73245
#
# Velocity S-wave (km/s) = 6.80069 1.62444 4.94410
# Velocity P-wave (km/s) = 9.27906 5.75581 7.72108
#
# Compressibility (1/GPa) = 0.02140643
#
# Stress axis : x y z
#
# Youngs Moduli (GPa) = 34.34231 83.65101 45.76909
#
# Poissons Ratio (x) = 0.34463 0.46289
# Poissons Ratio (y) = 0.14149 0.29861
# Poissons Ratio (z) = 0.34732 0.54576
#
# Static dielectric constant tensor:
#      x y z
#    x 3.416110 0.000000 0.000000 
#    y 0.000000 3.693930 0.000000 
#    z 0.000000 0.000000 3.538550 
# 
# 
# High freq. dielectric constant tensor:
#      x y z
#    x 1.736910 0.000000 0.000000 
#    y 0.000000 1.761160 0.000000 
#    z 0.000000 0.000000 1.745320 
# 
# From -- ./inp_files/2088.got.cif
#   From: 2010.03.12/outbox.cif.g09.slc.cpg/sg47_2_cif.got.tgz:2088.got - 2010.04.14 03:12:58.
