data_PCOD8199571
_publ_section_title
;
Structure prediction by ZEFSAII (Michael W. Deem and Ramdas Pophale) SiO2 
 PCOD8199571
Probable space group: P M M M
;
_chemical_formula_sum "Si O2"
_cell_formula_units_Z 56
_cell_length_a 20.991894
_cell_length_b 8.964143
_cell_length_c 14.291497
_cell_angle_alpha 90.000000
_cell_angle_beta 90.000000
_cell_angle_gamma 90.000000
_cell_volume 2689.293011
_symmetry_space_group_name_H-M "P M M M"
_symmetry_group_IT_number 47
_symmetry_cell_setting 'orthorhombic'
loop_
_space_group_symop_operation_xyz
x,y,z
-x,-y,z
x,-y,-z
-x,y,-z
-x,-y,-z
x,y,-z
-x,y,z
x,-y,z
loop_
_atom_site_type_symbol
_atom_site_label
_atom_site_fract_x
_atom_site_fract_y
_atom_site_fract_z
Si Si1 0.311710 0.675630 0.393079
Si Si2 0.371806 0.174867 0.107001
Si Si3 0.183153 0.826527 0.609950
Si Si4 0.429489 0.327810 0.730991
Si Si5 0.244785 0.666829 0.110857
Si Si6 0.882783 0.823853 0.892863
Si Si7 0.071046 0.328278 0.279020
O O1 0.320792 0.725813 0.500000
O O2 0.302234 0.500000 0.384038
O O3 0.248331 0.752862 0.350437
O O4 0.375552 0.730179 0.340411
O O5 0.428341 0.231895 0.173214
O O6 0.309269 0.257864 0.146843
O O7 0.360978 0.000000 0.116231
O O8 0.387384 0.218716 0.000000
O O9 0.178033 0.795725 0.500000
O O10 0.120800 0.756132 0.655814
O O11 0.184667 0.000000 0.634636
O O12 0.500000 0.305862 0.686479
O O13 0.417675 0.500000 0.756444
O O14 0.238733 0.500000 0.153226
O O15 0.186231 0.769074 0.143105
O O16 0.246278 0.660357 0.000000
O O17 0.932643 0.743870 0.824832
O O18 0.887021 0.000000 0.881728
O O19 0.896440 0.775798 0.000000
O O20 0.091461 0.500000 0.270619
O O21 0.000000 0.313031 0.322146
#
# Coordination Sequence:
#
# PCOD8199571 Si02
#       7
#     8   8   8   8   8   8   8
#     4   9  19  38  64  91 119 152 191 239 295 357
#     4  10  21  36  54  78 112 155 201 247 296 351
#     4  10  22  41  66  94 122 154 194 244 303 364
#     4  10  22  38  57  85 119 156 198 244 298 357
#     4   9  17  31  53  80 109 144 190 243 295 346
#     4  10  21  37  58  85 119 159 202 248 298 352
#     4  11  25  42  61  88 122 162 205 248 298 356
#
# _framework density 20.823316999999999
#
# number of rings (size 3 to 8) (size 9 to 14) (size 15 to 20)
#    0.000    2.143    0.000    2.143    2.000    7.429 
#    0.000    5.714    0.000    0.000    0.000    3.000 
#    0.000    0.000    0.000    0.000    0.000    0.000 
#
# Total GULP energy -694441.149217 kJ/mol
# GULP energy per Si atom -12400.734807 kJ/mol
# Density = 2.077592 g / cm^3
# Si number density = 20.823317 Si / 1000 Ang^3
#
#
#
# Elastic Constant Matrix: (Units=GPa)
#
#
# Indices 1 2 3 4 5 6 
#
# 1 143.0067 51.4245 55.1571 0.0000 0.0000 0.0000
# 2 51.4245 94.2206 39.0853 0.0000 0.0000 0.0000
# 3 55.1571 39.0853 65.5265 0.0000 0.0000 0.0000
# 4 0.0000 0.0000 0.0000 29.8568 0.0000 0.0000
# 5 0.0000 0.0000 0.0000 0.0000 28.4443 0.0000
# 6 0.0000 0.0000 0.0000 0.0000 0.0000 20.7146
#
#
#
# Elastic Compliance Matrix: (Units=1/GPa)
#
#
# Indices 1 2 3 4 5 6 
#
# 1 0.010901 -0.002848 -0.007477 0.000000 0.000000 0.000000
# 2 -0.002848 0.014847 -0.006459 0.000000 0.000000 0.000000
# 3 -0.007477 -0.006459 0.025407 0.000000 0.000000 0.000000
# 4 0.000000 0.000000 0.000000 0.033493 0.000000 0.000000
# 5 0.000000 0.000000 0.000000 0.000000 0.035156 0.000000
# 6 0.000000 0.000000 0.000000 0.000000 0.000000 0.048275
#
#
# Mechanical properties :
#
#
# Convention : Reuss Voigt Hill
#
# Bulk Modulus (GPa) = 56.85763 66.00973 61.43368
# Shear Modulus (GPa) = 24.09531 26.27559 25.18545
#
# Velocity S-wave (km/s) = 3.40535 3.55609 3.48154
# Velocity P-wave (km/s) = 6.54416 6.97350 6.76224
#
# Compressibility (1/GPa) = 0.01758779
#
# Stress axis : x y z
#
# Youngs Moduli (GPa) = 91.73852 67.35382 39.35875
#
# Poissons Ratio (x) = 0.19181 0.29428
# Poissons Ratio (y) = 0.26125 0.25421
# Poissons Ratio (z) = 0.68592 0.43503
#
# Static dielectric constant tensor:
#      x y z
#    x 3.807390 0.000000 0.000000 
#    y 0.000000 3.749740 0.000000 
#    z 0.000000 0.000000 3.754390 
# 
# 
# High freq. dielectric constant tensor:
#      x y z
#    x 1.815670 0.000000 0.000000 
#    y 0.000000 1.816030 0.000000 
#    z 0.000000 0.000000 1.810480 
# 
# From -- ./inp_files/7275.got.cif
#   From: 2010.03.12/outbox.cif.g09.slc.cpg/sg47_4_cif.got.tgz:7275.got - 2010.04.14 03:12:58.
