data_PCOD8199606
_publ_section_title
;
Structure prediction by ZEFSAII (Michael W. Deem and Ramdas Pophale) SiO2 
 PCOD8199606
Probable space group: P M M M
;
_chemical_formula_sum "Si O2"
_cell_formula_units_Z 44
_cell_length_a 27.990800
_cell_length_b 9.161964
_cell_length_c 9.036568
_cell_angle_alpha 90.000000
_cell_angle_beta 90.000000
_cell_angle_gamma 90.000000
_cell_volume 2317.434207
_symmetry_space_group_name_H-M "P M M M"
_symmetry_group_IT_number 47
_symmetry_cell_setting 'orthorhombic'
loop_
_space_group_symop_operation_xyz
x,y,z
-x,-y,z
x,-y,-z
-x,y,-z
-x,-y,-z
x,y,-z
-x,y,z
x,-y,z
loop_
_atom_site_type_symbol
_atom_site_label
_atom_site_fract_x
_atom_site_fract_y
_atom_site_fract_z
Si Si1 0.445869 0.664427 0.325944
Si Si2 0.268698 0.671766 0.829599
Si Si3 0.184275 0.167836 0.672412
Si Si4 0.913997 0.169230 0.827160
Si Si5 0.000000 0.672473 0.329518
Si Si6 0.363463 0.832954 0.172951
O O1 0.439199 0.676512 0.500000
O O2 0.500000 0.704443 0.280915
O O3 0.433825 0.500000 0.273009
O O4 0.411284 0.778854 0.249943
O O5 0.272584 0.500000 0.809512
O O6 0.226532 0.730480 0.728139
O O7 0.317953 0.741296 0.771670
O O8 0.259006 0.715955 0.000000
O O9 0.175189 0.196055 0.500000
O O10 0.136911 0.212763 0.760202
O O11 0.197807 0.000000 0.704247
O O12 0.953316 0.266082 0.748493
O O13 0.925747 0.000000 0.797740
O O14 0.913594 0.205727 0.000000
O O15 0.000000 0.500000 0.312430
O O16 0.000000 0.721380 0.500000
O O17 0.354472 0.000000 0.216666
O O18 0.370903 0.811688 0.000000
#
# Coordination Sequence:
#
# PCOD8199606 Si02
#       6
#     8   8   8   8   4   8
#     4   9  19  36  56  78 106 141 180 221 267 321
#     4  10  21  37  57  80 107 142 182 222 268 322
#     4  10  21  37  58  84 112 143 180 222 270 323
#     4  10  21  38  61  86 111 144 186 228 272 324
#     4  11  24  39  56  82 116 151 186 227 274 322
#     4  10  21  36  55  80 109 141 179 224 271 320
#
# _framework density 18.986515000000001
#
# number of rings (size 3 to 8) (size 9 to 14) (size 15 to 20)
#    0.000    2.091    0.000    3.273    0.000    8.727 
#    0.000    2.727    0.000    0.000    0.000    0.000 
#    0.000    0.000    0.000    0.000    0.000    0.000 
#
# Total GULP energy -545800.700533 kJ/mol
# GULP energy per Si atom -12404.561376 kJ/mol
# Density = 1.894330 g / cm^3
# Si number density = 18.986515 Si / 1000 Ang^3
#
#
#
# Elastic Constant Matrix: (Units=GPa)
#
#
# Indices 1 2 3 4 5 6 
#
# 1 143.9170 69.8245 66.8910 0.0000 0.0000 0.0000
# 2 69.8245 87.2949 52.9642 0.0000 0.0000 0.0000
# 3 66.8910 52.9642 90.9169 0.0000 0.0000 0.0000
# 4 0.0000 0.0000 0.0000 32.5040 0.0000 0.0000
# 5 0.0000 0.0000 0.0000 0.0000 42.3282 0.0000
# 6 0.0000 0.0000 0.0000 0.0000 0.0000 102.3762
#
#
#
# Elastic Compliance Matrix: (Units=1/GPa)
#
#
# Indices 1 2 3 4 5 6 
#
# 1 0.012848 -0.007024 -0.005361 0.000000 0.000000 0.000000
# 2 -0.007024 0.021558 -0.007391 0.000000 0.000000 0.000000
# 3 -0.005361 -0.007391 0.019249 0.000000 0.000000 0.000000
# 4 0.000000 0.000000 0.000000 0.030765 0.000000 0.000000
# 5 0.000000 0.000000 0.000000 0.000000 0.023625 0.000000
# 6 0.000000 0.000000 0.000000 0.000000 0.000000 0.009768
#
#
# Mechanical properties :
#
#
# Convention : Reuss Voigt Hill
#
# Bulk Modulus (GPa) = 70.90568 77.94315 74.42441
# Shear Modulus (GPa) = 30.85166 44.27163 37.56164
#
# Velocity S-wave (km/s) = 4.03541 4.83405 4.45267
# Velocity P-wave (km/s) = 7.69019 8.50284 8.10671
#
# Compressibility (1/GPa) = 0.01410324
#
# Stress axis : x y z
#
# Youngs Moduli (GPa) = 77.83287 46.38630 51.95140
#
# Poissons Ratio (x) = 0.32583 0.27850
# Poissons Ratio (y) = 0.54672 0.38396
# Poissons Ratio (z) = 0.41725 0.34283
#
# Static dielectric constant tensor:
#      x y z
#    x 3.906100 0.000000 0.000000 
#    y 0.000000 3.479880 0.000000 
#    z 0.000000 0.000000 3.481180 
# 
# 
# High freq. dielectric constant tensor:
#      x y z
#    x 1.750580 0.000000 0.000000 
#    y 0.000000 1.739370 0.000000 
#    z 0.000000 0.000000 1.739410 
# 
# From -- ./inp_files/13626.got.cif
#   From: 2010.03.12/outbox.cif.g09.slc.cpg/sg47_7_cif.got.tgz:13626.got - 2010.04.14 03:12:58.
