data_PCOD8199080
_publ_section_title
;
Structure prediction by ZEFSAII (Michael W. Deem and Ramdas Pophale) SiO2 
 PCOD8199080
Probable space group: P M M M
;
_chemical_formula_sum "Si O2"
_cell_formula_units_Z 52
_cell_length_a 14.367249
_cell_length_b 9.036013
_cell_length_c 20.652280
_cell_angle_alpha 90.000000
_cell_angle_beta 90.000000
_cell_angle_gamma 90.000000
_cell_volume 2681.133692
_symmetry_space_group_name_H-M "P M M M"
_symmetry_group_IT_number 47
_symmetry_cell_setting 'orthorhombic'
loop_
_space_group_symop_operation_xyz
x,y,z
-x,-y,z
x,-y,-z
-x,y,-z
-x,-y,-z
x,y,-z
-x,y,z
x,-y,z
loop_
_atom_site_type_symbol
_atom_site_label
_atom_site_fract_x
_atom_site_fract_y
_atom_site_fract_z
Si Si1 0.393434 0.174638 0.824617
Si Si2 0.107374 0.169029 0.772239
Si Si3 0.894208 0.675804 0.000000
Si Si4 0.104892 0.828461 0.377060
Si Si5 0.723926 0.325588 0.428903
Si Si6 0.392067 0.670189 0.691853
Si Si7 0.223410 0.674561 0.877223
O O1 0.500000 0.219813 0.840762
O O2 0.363920 0.233014 0.753843
O O3 0.325279 0.248518 0.877692
O O4 0.380283 0.000000 0.825855
O O5 0.124763 0.207845 0.697744
O O6 0.169371 0.282471 0.812312
O O7 0.000000 0.192739 0.790710
O O8 0.137043 0.000000 0.787254
O O9 0.837648 0.732887 0.937532
O O10 0.899599 0.500000 0.000000
O O11 0.000000 0.740348 0.000000
O O12 0.171911 0.734279 0.422172
O O13 0.000000 0.783776 0.395123
O O14 0.121978 0.000000 0.390882
O O15 0.685512 0.278205 0.500000
O O16 0.726803 0.500000 0.423465
O O17 0.659343 0.263023 0.371302
O O18 0.500000 0.685002 0.676278
O O19 0.364503 0.500000 0.706053
O O20 0.238344 0.500000 0.880470
#
# Coordination Sequence:
#
# PCOD8199080 Si02
#       7
#     8   8   4   8   8   8   8
#     4  10  21  37  57  81 109 139 172 216 269 317
#     4   9  18  33  53  78 107 136 170 217 269 317
#     4   9  20  38  56  79 114 150 181 213 252 301
#     4   9  19  35  52  70  95 130 171 214 261 311
#     4  10  21  34  48  71 102 134 169 210 258 310
#     4   9  18  34  56  80 105 134 170 212 258 312
#     4  11  21  34  56  82 109 143 180 218 259 305
#
# _framework density 19.394780999999998
#
# number of rings (size 3 to 8) (size 9 to 14) (size 15 to 20)
#    0.000    2.385    0.000    3.231    0.000    6.769 
#    0.000    6.538    0.000    5.077    0.000    3.231 
#    0.000    0.000    0.000    0.000    0.000    0.000 
#
# Total GULP energy -644807.552465 kJ/mol
# GULP energy per Si atom -12400.145240 kJ/mol
# Density = 1.935064 g / cm^3
# Si number density = 19.394781 Si / 1000 Ang^3
#
#
#
# Elastic Constant Matrix: (Units=GPa)
#
#
# Indices 1 2 3 4 5 6 
#
# 1 113.0911 34.1749 63.2744 0.0000 0.0000 0.0000
# 2 34.1749 37.0692 27.1712 0.0000 0.0000 0.0000
# 3 63.2744 27.1712 81.1935 0.0000 0.0000 0.0000
# 4 0.0000 0.0000 0.0000 13.1345 0.0000 0.0000
# 5 0.0000 0.0000 0.0000 0.0000 28.7192 0.0000
# 6 0.0000 0.0000 0.0000 0.0000 0.0000 32.8215
#
#
#
# Elastic Compliance Matrix: (Units=1/GPa)
#
#
# Indices 1 2 3 4 5 6 
#
# 1 0.017319 -0.008048 -0.010804 0.000000 0.000000 0.000000
# 2 -0.008048 0.039484 -0.006941 0.000000 0.000000 0.000000
# 3 -0.010804 -0.006941 0.023058 0.000000 0.000000 0.000000
# 4 0.000000 0.000000 0.000000 0.076135 0.000000 0.000000
# 5 0.000000 0.000000 0.000000 0.000000 0.034820 0.000000
# 6 0.000000 0.000000 0.000000 0.000000 0.000000 0.030468
#
#
# Mechanical properties :
#
#
# Convention : Reuss Voigt Hill
#
# Bulk Modulus (GPa) = 35.36609 53.39942 44.38275
# Shear Modulus (GPa) = 17.71193 22.05061 19.88127
#
# Velocity S-wave (km/s) = 3.02525 3.37551 3.20517
# Velocity P-wave (km/s) = 5.52062 6.54100 6.05235
#
# Compressibility (1/GPa) = 0.02827567
#
# Stress axis : x y z
#
# Youngs Moduli (GPa) = 57.74002 25.32666 43.36802
#
# Poissons Ratio (x) = 0.20383 0.46853
# Poissons Ratio (y) = 0.46469 0.30104
# Poissons Ratio (z) = 0.62380 0.17580
#
# Static dielectric constant tensor:
#      x y z
#    x 3.721800 0.000000 0.000000 
#    y 0.000000 3.329760 0.000000 
#    z 0.000000 0.000000 3.606310 
# 
# 
# High freq. dielectric constant tensor:
#      x y z
#    x 1.765510 0.000000 0.000000 
#    y 0.000000 1.739730 0.000000 
#    z 0.000000 0.000000 1.745180 
# 
# From -- ./inp_files/7059.got.cif
#   From: 2010.03.12/outbox.cif.g09.slc.cpg/sg47_4_cif.got.tgz:7059.got - 2010.04.14 03:12:58.
