data_PCOD8199321
_publ_section_title
;
Structure prediction by ZEFSAII (Michael W. Deem and Ramdas Pophale) SiO2 
 PCOD8199321
Probable space group: P M M M
;
_chemical_formula_sum "Si O2"
_cell_formula_units_Z 40
_cell_length_a 9.059657
_cell_length_b 14.901466
_cell_length_c 14.769155
_cell_angle_alpha 90.000000
_cell_angle_beta 90.000000
_cell_angle_gamma 90.000000
_cell_volume 1993.867985
_symmetry_space_group_name_H-M "P M M M"
_symmetry_group_IT_number 47
_symmetry_cell_setting 'orthorhombic'
loop_
_space_group_symop_operation_xyz
x,y,z
-x,-y,z
x,-y,-z
-x,y,-z
-x,-y,-z
x,y,-z
-x,y,z
x,-y,z
loop_
_atom_site_type_symbol
_atom_site_label
_atom_site_fract_x
_atom_site_fract_y
_atom_site_fract_z
Si Si1 0.827534 0.600413 0.293503
Si Si2 0.665597 0.231542 0.640980
Si Si3 0.169708 0.663536 0.901687
Si Si4 0.336343 0.170643 0.154987
Si Si5 0.173550 0.000000 0.102358
Si Si6 0.824091 0.893941 0.500000
O O1 0.787312 0.500000 0.325881
O O2 0.741935 0.670087 0.358461
O O3 0.783679 0.605511 0.186166
O O4 0.000000 0.620367 0.305271
O O5 0.500000 0.239600 0.599977
O O6 0.657337 0.201270 0.742835
O O7 0.758926 0.157288 0.587002
O O8 0.266670 0.752942 0.907340
O O9 0.000000 0.692521 0.891007
O O10 0.192523 0.613643 0.000000
O O11 0.500000 0.148291 0.118625
O O12 0.233217 0.085178 0.154389
O O13 0.000000 0.000000 0.107748
O O14 0.231991 0.000000 0.000000
O O15 0.000000 0.885036 0.500000
O O16 0.778323 0.000000 0.500000
#
# Coordination Sequence:
#
# PCOD8199321 Si02
#       6
#     8   8   8   8   4   4
#     4   9  18  34  57  84 116 155 196 240 288 337
#     4  10  22  40  61  86 117 151 185 229 283 340
#     4   9  17  30  49  75 109 149 193 239 285 332
#     4  10  21  35  52  75 105 144 187 230 281 336
#     4  11  23  35  49  72 103 142 189 237 282 329
#     4  11  25  43  66  95 120 145 181 226 280 341
#
# _framework density 20.061509000000001
#
# number of rings (size 3 to 8) (size 9 to 14) (size 15 to 20)
#    0.000    2.200    0.000    2.400    1.400    7.600 
#    0.000    2.500    0.000    3.000    0.000    5.600 
#    0.000    0.000    0.000    0.000    0.000    0.000 
#
# Total GULP energy -495754.292211 kJ/mol
# GULP energy per Si atom -12393.857305 kJ/mol
# Density = 2.001585 g / cm^3
# Si number density = 20.061509 Si / 1000 Ang^3
#
#
#
# Elastic Constant Matrix: (Units=GPa)
#
#
# Indices 1 2 3 4 5 6 
#
# 1 97.4423 57.4853 26.7400 0.0000 0.0000 0.0000
# 2 57.4853 142.0162 28.6470 0.0000 0.0000 0.0000
# 3 26.7400 28.6470 56.7886 0.0000 0.0000 0.0000
# 4 0.0000 0.0000 0.0000 22.9690 0.0000 0.0000
# 5 0.0000 0.0000 0.0000 0.0000 22.8648 0.0000
# 6 0.0000 0.0000 0.0000 0.0000 0.0000 28.2408
#
#
#
# Elastic Compliance Matrix: (Units=1/GPa)
#
#
# Indices 1 2 3 4 5 6 
#
# 1 0.014352 -0.004950 -0.004261 0.000000 0.000000 0.000000
# 2 -0.004950 0.009546 -0.002485 0.000000 0.000000 0.000000
# 3 -0.004261 -0.002485 0.020869 0.000000 0.000000 0.000000
# 4 0.000000 0.000000 0.000000 0.043537 0.000000 0.000000
# 5 0.000000 0.000000 0.000000 0.000000 0.043735 0.000000
# 6 0.000000 0.000000 0.000000 0.000000 0.000000 0.035410
#
#
# Mechanical properties :
#
#
# Convention : Reuss Voigt Hill
#
# Bulk Modulus (GPa) = 46.78174 57.99908 52.39041
# Shear Modulus (GPa) = 25.25690 27.03992 26.14841
#
# Velocity S-wave (km/s) = 3.55205 3.67529 3.61420
# Velocity P-wave (km/s) = 6.33976 6.85447 6.60213
#
# Compressibility (1/GPa) = 0.02137586
#
# Stress axis : x y z
#
# Youngs Moduli (GPa) = 69.67720 104.75263 47.91799
#
# Poissons Ratio (x) = 0.51851 0.20417
# Poissons Ratio (y) = 0.34489 0.11907
# Poissons Ratio (z) = 0.29689 0.26030
#
# Static dielectric constant tensor:
#      x y z
#    x 3.937100 0.000000 0.000000 
#    y 0.000000 3.595410 0.000000 
#    z 0.000000 0.000000 3.615620 
# 
# 
# High freq. dielectric constant tensor:
#      x y z
#    x 1.786830 0.000000 0.000000 
#    y 0.000000 1.776280 0.000000 
#    z 0.000000 0.000000 1.778440 
# 
# From -- ./inp_files/5728.got.cif
#   From: 2010.03.12/outbox.cif.g09.slc.cpg/sg47_3_cif.got.tgz:5728.got - 2010.04.14 03:12:58.
