data_PCOD8199707
_publ_section_title
;
Structure prediction by ZEFSAII (Michael W. Deem and Ramdas Pophale) SiO2 
 PCOD8199707
Probable space group: P M M M
;
_chemical_formula_sum "Si O2"
_cell_formula_units_Z 40
_cell_length_a 8.033821
_cell_length_b 27.948279
_cell_length_c 9.184789
_cell_angle_alpha 90.000000
_cell_angle_beta 90.000000
_cell_angle_gamma 90.000000
_cell_volume 2062.274183
_symmetry_space_group_name_H-M "P M M M"
_symmetry_group_IT_number 47
_symmetry_cell_setting 'orthorhombic'
loop_
_space_group_symop_operation_xyz
x,y,z
-x,-y,z
x,-y,-z
-x,y,-z
-x,-y,-z
x,y,-z
-x,y,z
x,-y,z
loop_
_atom_site_type_symbol
_atom_site_label
_atom_site_fract_x
_atom_site_fract_y
_atom_site_fract_z
Si Si1 0.193678 0.818344 0.836700
Si Si2 0.000000 0.554021 0.173441
Si Si3 0.303730 0.000000 0.834150
Si Si4 0.305301 0.280483 0.838418
Si Si5 0.312609 0.385053 0.174214
Si Si6 0.195822 0.907438 0.338262
O O1 0.226880 0.766336 0.760487
O O2 0.274459 0.860487 0.739649
O O3 0.000000 0.827980 0.847777
O O4 0.272602 0.819689 0.000000
O O5 0.830595 0.579135 0.232075
O O6 0.000000 0.500000 0.232943
O O7 0.000000 0.555104 0.000000
O O8 0.234587 0.953608 0.755679
O O9 0.500000 0.000000 0.826399
O O10 0.239394 0.000000 0.000000
O O11 0.500000 0.272730 0.845326
O O12 0.267711 0.331941 0.762974
O O13 0.226991 0.282285 0.000000
O O14 0.500000 0.400717 0.225964
O O15 0.313370 0.382891 0.000000
O O16 0.274113 0.912334 0.500000
O O17 0.000000 0.901393 0.352132
#
# Coordination Sequence:
#
# PCOD8199707 Si02
#       6
#     8   4   4   8   8   8
#     4   9  17  28  45  69  92 116 151 194 236 279
#     4   9  16  22  30  46  68 102 147 190 235 284
#     4  11  24  39  56  78 100 125 162 207 248 284
#     4   8  14  24  38  57  80 107 140 183 235 281
#     4   8  14  23  33  47  70 101 140 187 236 284
#     4  10  21  37  55  75 101 132 163 195 238 294
#
# _framework density 19.396063000000002
#
# number of rings (size 3 to 8) (size 9 to 14) (size 15 to 20)
#    0.000    3.000    0.000    2.400    1.400    4.400 
#    0.000    4.000    0.000    0.000    0.000    0.000 
#    0.000    0.000    0.000    0.000    0.000    2.000 
#
# Total GULP energy -495558.204233 kJ/mol
# GULP energy per Si atom -12388.955106 kJ/mol
# Density = 1.935192 g / cm^3
# Si number density = 19.396063 Si / 1000 Ang^3
#
#
#
# Elastic Constant Matrix: (Units=GPa)
#
#
# Indices 1 2 3 4 5 6 
#
# 1 63.5935 59.6943 18.7181 0.0000 0.0000 0.0000
# 2 59.6943 192.4172 46.6003 0.0000 0.0000 0.0000
# 3 18.7181 46.6003 67.3120 0.0000 0.0000 0.0000
# 4 0.0000 0.0000 0.0000 -0.8925 0.0000 0.0000
# 5 0.0000 0.0000 0.0000 0.0000 7.3372 0.0000
# 6 0.0000 0.0000 0.0000 0.0000 0.0000 5.9602
#
#
#
# Elastic Compliance Matrix: (Units=1/GPa)
#
#
# Indices 1 2 3 4 5 6 
#
# 1 0.022346 -0.006521 -0.001700 0.000000 0.000000 0.000000
# 2 -0.006521 0.008147 -0.003827 0.000000 0.000000 0.000000
# 3 -0.001700 -0.003827 0.017978 0.000000 0.000000 0.000000
# 4 0.000000 0.000000 0.000000 -1.120417 0.000000 0.000000
# 5 0.000000 0.000000 0.000000 0.000000 0.136292 0.000000
# 6 0.000000 0.000000 0.000000 0.000000 0.000000 0.167778
#
#
# Mechanical properties :
#
#
# Convention : Reuss Voigt Hill
#
# Bulk Modulus (GPa) = 41.02284 63.70536 52.36410
# Shear Modulus (GPa) = -6.79666 15.70165 4.45250
#
# Velocity S-wave (km/s) = -1.87397 2.84831 1.51676
# Velocity P-wave (km/s) = 4.06370 6.61309 5.48847
#
# Compressibility (1/GPa) = 0.02437666
#
# Stress axis : x y z
#
# Youngs Moduli (GPa) = 44.75024 122.74705 55.62334
#
# Poissons Ratio (x) = 0.80043 0.09453
# Poissons Ratio (y) = 0.29181 0.21286
# Poissons Ratio (z) = 0.07606 0.46972
#
# Static dielectric constant tensor:
#      x y z
#    x 3.480000 0.000000 0.000000 
#    y 0.000000 3.862750 0.000000 
#    z 0.000000 0.000000 3.225610 
# 
# 
# High freq. dielectric constant tensor:
#      x y z
#    x 1.747280 0.000000 0.000000 
#    y 0.000000 1.771890 0.000000 
#    z 0.000000 0.000000 1.683070 
# 
# From -- ./inp_files/1684.got.cif
#   From: 2010.03.12/outbox.cif.g09.slc.cpg/sg47_1_cif.got.tgz:1684.got - 2010.04.14 03:12:58.
