data_PCOD8199304
_publ_section_title
;
Structure prediction by ZEFSAII (Michael W. Deem and Ramdas Pophale) SiO2 
 PCOD8199304
Probable space group: P M M M
;
_chemical_formula_sum "Si O2"
_cell_formula_units_Z 48
_cell_length_a 9.184943
_cell_length_b 30.496758
_cell_length_c 9.120185
_cell_angle_alpha 90.000000
_cell_angle_beta 90.000000
_cell_angle_gamma 90.000000
_cell_volume 2554.663994
_symmetry_space_group_name_H-M "P M M M"
_symmetry_group_IT_number 47
_symmetry_cell_setting 'orthorhombic'
loop_
_space_group_symop_operation_xyz
x,y,z
-x,-y,z
x,-y,-z
-x,y,-z
-x,-y,-z
x,y,-z
-x,y,z
x,-y,z
loop_
_atom_site_type_symbol
_atom_site_label
_atom_site_fract_x
_atom_site_fract_y
_atom_site_fract_z
Si Si1 0.670529 0.500000 0.172599
Si Si2 0.332288 0.653733 0.830147
Si Si3 0.669319 0.754615 0.164856
Si Si4 0.335626 0.000000 0.825386
Si Si5 0.831695 0.084975 0.828151
Si Si6 0.829701 0.420685 0.671816
Si Si7 0.831070 0.171474 0.330417
O O1 0.500000 0.500000 0.208802
O O2 0.742145 0.542698 0.241366
O O3 0.699629 0.500000 0.000000
O O4 0.500000 0.642068 0.795345
O O5 0.300239 0.704289 0.794317
O O6 0.226013 0.626346 0.726307
O O7 0.299046 0.643320 0.000000
O O8 0.500000 0.765186 0.176926
O O9 0.753183 0.784685 0.278439
O O10 0.724424 0.764243 0.000000
O O11 0.255566 0.043310 0.765312
O O12 0.500000 0.000000 0.766645
O O13 0.328948 0.000000 0.000000
O O14 0.769592 0.128712 0.752408
O O15 0.000000 0.077391 0.788775
O O16 0.806981 0.090657 0.000000
O O17 0.798624 0.425742 0.500000
O O18 0.000000 0.425417 0.706432
O O19 0.799090 0.164672 0.500000
O O20 0.000000 0.177266 0.294998
#
# Coordination Sequence:
#
# PCOD8199304 Si02
#       7
#     4   8   8   4   8   8   8
#     4  11  24  41  62  86 110 141 184 229 270 316
#     4   9  19  37  59  82 108 140 181 224 265 315
#     4   9  19  36  57  80 106 138 178 223 267 312
#     4   9  17  29  48  75 100 122 158 211 262 305
#     4   9  17  31  51  72  96 130 170 209 253 308
#     4  11  24  39  56  83 117 148 180 220 266 317
#     4  10  21  35  51  75 107 140 175 216 262 313
#
# _framework density 18.789162999999999
#
# number of rings (size 3 to 8) (size 9 to 14) (size 15 to 20)
#    0.000    2.333    0.000    3.250    0.000    9.667 
#    0.000    7.083    0.000    2.500    0.000    0.000 
#    0.000    0.000    0.000    0.000    0.000    0.000 
#
# Total GULP energy -595330.097687 kJ/mol
# GULP energy per Si atom -12402.710368 kJ/mol
# Density = 1.874640 g / cm^3
# Si number density = 18.789163 Si / 1000 Ang^3
#
#
#
# Elastic Constant Matrix: (Units=GPa)
#
#
# Indices 1 2 3 4 5 6 
#
# 1 96.4795 71.9545 60.6120 0.0000 0.0000 0.0000
# 2 71.9545 135.8632 61.6467 0.0000 0.0000 0.0000
# 3 60.6120 61.6467 70.3013 0.0000 0.0000 0.0000
# 4 0.0000 0.0000 0.0000 6.3970 0.0000 0.0000
# 5 0.0000 0.0000 0.0000 0.0000 28.3238 0.0000
# 6 0.0000 0.0000 0.0000 0.0000 0.0000 35.5440
#
#
#
# Elastic Compliance Matrix: (Units=1/GPa)
#
#
# Indices 1 2 3 4 5 6 
#
# 1 0.025063 -0.005761 -0.016557 0.000000 0.000000 0.000000
# 2 -0.005761 0.013548 -0.006913 0.000000 0.000000 0.000000
# 3 -0.016557 -0.006913 0.034562 0.000000 0.000000 0.000000
# 4 0.000000 0.000000 0.000000 0.156324 0.000000 0.000000
# 5 0.000000 0.000000 0.000000 0.000000 0.035306 0.000000
# 6 0.000000 0.000000 0.000000 0.000000 0.000000 0.028134
#
#
# Mechanical properties :
#
#
# Convention : Reuss Voigt Hill
#
# Bulk Modulus (GPa) = 67.97905 76.78562 72.38233
# Shear Modulus (GPa) = 14.03294 21.28165 17.65730
#
# Velocity S-wave (km/s) = 2.73585 3.36915 3.06888
# Velocity P-wave (km/s) = 6.79987 7.48936 7.15293
#
# Compressibility (1/GPa) = 0.01471041
#
# Stress axis : x y z
#
# Youngs Moduli (GPa) = 39.89884 73.80944 28.93365
#
# Poissons Ratio (x) = 0.42523 0.47906
# Poissons Ratio (y) = 0.22987 0.20003
# Poissons Ratio (z) = 0.66061 0.51027
#
# Static dielectric constant tensor:
#      x y z
#    x 3.417580 0.000000 0.000000 
#    y 0.000000 3.597120 0.000000 
#    z 0.000000 0.000000 3.319930 
# 
# 
# High freq. dielectric constant tensor:
#      x y z
#    x 1.726580 0.000000 0.000000 
#    y 0.000000 1.744680 0.000000 
#    z 0.000000 0.000000 1.719080 
# 
# From -- ./inp_files/2585.got.cif
#   From: 2010.03.12/outbox.cif.g09.slc.cpg/sg47_2_cif.got.tgz:2585.got - 2010.04.14 03:12:58.
