data_PCOD8199598
_publ_section_title
;
Structure prediction by ZEFSAII (Michael W. Deem and Ramdas Pophale) SiO2 
 PCOD8199598
Probable space group: P M M M
;
_chemical_formula_sum "Si O2"
_cell_formula_units_Z 64
_cell_length_a 9.435292
_cell_length_b 24.383255
_cell_length_c 14.989167
_cell_angle_alpha 90.000000
_cell_angle_beta 90.000000
_cell_angle_gamma 90.000000
_cell_volume 3448.454689
_symmetry_space_group_name_H-M "P M M M"
_symmetry_group_IT_number 47
_symmetry_cell_setting 'orthorhombic'
loop_
_space_group_symop_operation_xyz
x,y,z
-x,-y,z
x,-y,-z
-x,y,-z
-x,-y,-z
x,y,-z
-x,y,z
x,-y,z
loop_
_atom_site_type_symbol
_atom_site_label
_atom_site_fract_x
_atom_site_fract_y
_atom_site_fract_z
Si Si1 0.340053 0.344827 0.905692
Si Si2 0.336284 0.229939 0.736199
Si Si3 0.839029 0.560579 0.395423
Si Si4 0.659096 0.934831 0.901040
Si Si5 0.660824 0.356209 0.715069
Si Si6 0.335345 0.864686 0.396930
Si Si7 0.161876 0.065109 0.265318
Si Si8 0.165316 0.236243 0.098142
O O1 0.500000 0.319445 0.899284
O O2 0.317690 0.380579 0.816057
O O3 0.224705 0.297480 0.906525
O O4 0.325327 0.378311 0.000000
O O5 0.500000 0.226625 0.762880
O O6 0.292122 0.292411 0.713400
O O7 0.302241 0.193390 0.649844
O O8 0.247907 0.205957 0.821078
O O9 0.828159 0.569516 0.500000
O O10 0.779576 0.500000 0.370037
O O11 0.753568 0.608986 0.350987
O O12 0.000000 0.565042 0.362908
O O13 0.500000 0.913552 0.880115
O O14 0.765416 0.912170 0.825571
O O15 0.660021 0.000000 0.899268
O O16 0.707225 0.914746 0.000000
O O17 0.500000 0.361944 0.682490
O O18 0.291113 0.859514 0.500000
O O19 0.500000 0.880698 0.386951
O O20 0.242344 0.911980 0.351657
O O21 0.000000 0.085534 0.265015
O O22 0.171088 0.000000 0.270617
O O23 0.000000 0.238192 0.121698
O O24 0.189776 0.208391 0.000000
#
# Coordination Sequence:
#
# PCOD8199598 Si02
#       8
#     8   8   8   8   8   8   8   8
#     4   8  14  26  44  67  98 134 167 199 240 290
#     4   9  19  35  53  75 103 133 165 203 250 302
#     4   9  19  35  51  68  95 131 168 206 249 296
#     4   8  14  27  50  79 108 137 169 204 242 290
#     4   9  17  29  50  79 103 126 161 204 247 292
#     4  10  22  40  59  76  97 130 172 216 259 303
#     4  10  21  36  55  80 108 136 167 207 255 305
#     4   9  16  26  44  72 103 133 166 203 240 283
#
# _framework density 18.559038999999999
#
# number of rings (size 3 to 8) (size 9 to 14) (size 15 to 20)
#    0.000    3.000    0.000    2.250    0.000    5.750 
#    0.000    5.000    0.000    1.125    0.000    2.625 
#    0.000    0.000    0.000    0.000    0.000    0.000 
#
# Total GULP energy -792981.740432 kJ/mol
# GULP energy per Si atom -12390.339694 kJ/mol
# Density = 1.851680 g / cm^3
# Si number density = 18.559039 Si / 1000 Ang^3
#
#
#
# Elastic Constant Matrix: (Units=GPa)
#
#
# Indices 1 2 3 4 5 6 
#
# 1 97.5514 36.2445 71.1068 0.0000 0.0000 0.0000
# 2 36.2445 48.2491 38.1702 0.0000 0.0000 0.0000
# 3 71.1068 38.1702 133.3957 0.0000 0.0000 0.0000
# 4 0.0000 0.0000 0.0000 -7.0816 0.0000 0.0000
# 5 0.0000 0.0000 0.0000 0.0000 30.0893 0.0000
# 6 0.0000 0.0000 0.0000 0.0000 0.0000 21.0730
#
#
#
# Elastic Compliance Matrix: (Units=1/GPa)
#
#
# Indices 1 2 3 4 5 6 
#
# 1 0.018912 -0.008055 -0.007776 0.000000 0.000000 0.000000
# 2 -0.008055 0.030221 -0.004354 0.000000 0.000000 0.000000
# 3 -0.007776 -0.004354 0.012887 0.000000 0.000000 0.000000
# 4 0.000000 0.000000 0.000000 -0.141211 0.000000 0.000000
# 5 0.000000 0.000000 0.000000 0.000000 0.033234 0.000000
# 6 0.000000 0.000000 0.000000 0.000000 0.000000 0.047454
#
#
# Mechanical properties :
#
#
# Convention : Reuss Voigt Hill
#
# Bulk Modulus (GPa) = 46.18824 63.35990 54.77407
# Shear Modulus (GPa) = 101.86535 17.72779 59.79657
#
# Velocity S-wave (km/s) = 7.41663 3.09400 5.68239
# Velocity P-wave (km/s) = 9.91378 6.85402 8.52234
#
# Compressibility (1/GPa) = 0.02165053
#
# Stress axis : x y z
#
# Youngs Moduli (GPa) = 52.87680 33.08978 77.59484
#
# Poissons Ratio (x) = 0.26653 0.60339
# Poissons Ratio (y) = 0.42591 0.33784
# Poissons Ratio (z) = 0.41118 0.14407
#
# Static dielectric constant tensor:
#      x y z
#    x 3.458090 0.000000 0.000000 
#    y 0.000000 3.040730 0.000000 
#    z 0.000000 0.000000 3.770220 
# 
# 
# High freq. dielectric constant tensor:
#      x y z
#    x 1.717540 0.000000 0.000000 
#    y 0.000000 1.679830 0.000000 
#    z 0.000000 0.000000 1.732450 
# 
# From -- ./inp_files/21918.got.cif
#   From: 2010.03.12/outbox.cif.g09.slc.cpg/sg47_11_cif.got.tgz:21918.got - 2010.04.14 03:12:58.
