data_PCOD8199367
_publ_section_title
;
Structure prediction by ZEFSAII (Michael W. Deem and Ramdas Pophale) SiO2 
 PCOD8199367
Probable space group: P M M M
;
_chemical_formula_sum "Si O2"
_cell_formula_units_Z 56
_cell_length_a 21.781934
_cell_length_b 8.837243
_cell_length_c 14.990645
_cell_angle_alpha 90.000000
_cell_angle_beta 90.000000
_cell_angle_gamma 90.000000
_cell_volume 2885.582892
_symmetry_space_group_name_H-M "P M M M"
_symmetry_group_IT_number 47
_symmetry_cell_setting 'orthorhombic'
loop_
_space_group_symop_operation_xyz
x,y,z
-x,-y,z
x,-y,-z
-x,y,-z
-x,-y,-z
x,y,-z
-x,y,z
x,-y,z
loop_
_atom_site_type_symbol
_atom_site_label
_atom_site_fract_x
_atom_site_fract_y
_atom_site_fract_z
Si Si1 0.500000 0.669774 0.105624
Si Si2 0.708069 0.679862 0.750399
Si Si3 0.930896 0.174837 0.103601
Si Si4 0.374947 0.178023 0.603729
Si Si5 0.624740 0.822337 0.103920
Si Si6 0.068616 0.680094 0.598739
Si Si7 0.500000 0.669967 0.605632
Si Si8 0.847541 0.321216 0.245113
O O1 0.500000 0.500000 0.145363
O O2 0.559931 0.758186 0.139172
O O3 0.500000 0.665015 0.000000
O O4 0.702375 0.500000 0.748933
O O5 0.678604 0.745834 0.660614
O O6 0.677850 0.742878 0.840255
O O7 0.778036 0.737493 0.752393
O O8 0.880603 0.271689 0.154907
O O9 0.000000 0.227136 0.129039
O O10 0.922245 0.000000 0.127894
O O11 0.918989 0.203317 0.000000
O O12 0.363981 0.218397 0.500000
O O13 0.439714 0.242703 0.639216
O O14 0.375105 0.000000 0.619975
O O15 0.625545 0.000000 0.121859
O O16 0.635457 0.784281 0.000000
O O17 0.087760 0.736648 0.500000
O O18 0.069674 0.500000 0.601441
O O19 0.116100 0.748678 0.670188
O O20 0.000000 0.737700 0.621913
O O21 0.500000 0.500000 0.644952
O O22 0.500000 0.666631 0.500000
O O23 0.848480 0.500000 0.249541
#
# Coordination Sequence:
#
# PCOD8199367 Si02
#       8
#     4   8   8   8   8   8   4   8
#     4   9  17  32  57  86 112 137 169 218 279 332
#     4  11  24  38  53  78 111 148 189 228 271 326
#     4   9  19  36  57  81 109 142 179 219 268 325
#     4  10  21  38  59  82 110 144 184 230 276 326
#     4  10  21  38  59  81 107 141 182 227 274 327
#     4   8  14  27  50  79 107 134 167 210 261 314
#     4   9  17  32  57  86 112 139 175 224 283 336
#     4  10  21  35  53  79 109 142 181 225 268 312
#
# _framework density 19.406825000000001
#
# number of rings (size 3 to 8) (size 9 to 14) (size 15 to 20)
#    0.000    2.429    0.000    3.000    0.000    7.429 
#    0.000    7.857    0.000    0.429    0.000    2.000 
#    0.000    0.000    0.000    0.000    0.000    0.000 
#
# Total GULP energy -694416.258250 kJ/mol
# GULP energy per Si atom -12400.290326 kJ/mol
# Density = 1.936265 g / cm^3
# Si number density = 19.406825 Si / 1000 Ang^3
#
#
#
# Elastic Constant Matrix: (Units=GPa)
#
#
# Indices 1 2 3 4 5 6 
#
# 1 179.1649 50.7643 77.8390 0.0000 0.0000 0.0000
# 2 50.7643 70.8237 35.0136 0.0000 0.0000 0.0000
# 3 77.8390 35.0136 97.9629 0.0000 0.0000 0.0000
# 4 0.0000 0.0000 0.0000 27.2962 0.0000 0.0000
# 5 0.0000 0.0000 0.0000 0.0000 12.8503 0.0000
# 6 0.0000 0.0000 0.0000 0.0000 0.0000 22.0747
#
#
#
# Elastic Compliance Matrix: (Units=1/GPa)
#
#
# Indices 1 2 3 4 5 6 
#
# 1 0.009235 -0.003634 -0.006039 0.000000 0.000000 0.000000
# 2 -0.003634 0.018580 -0.003754 0.000000 0.000000 0.000000
# 3 -0.006039 -0.003754 0.016348 0.000000 0.000000 0.000000
# 4 0.000000 0.000000 0.000000 0.036635 0.000000 0.000000
# 5 0.000000 0.000000 0.000000 0.000000 0.077819 0.000000
# 6 0.000000 0.000000 0.000000 0.000000 0.000000 0.045301
#
#
# Mechanical properties :
#
#
# Convention : Reuss Voigt Hill
#
# Bulk Modulus (GPa) = 57.76962 75.02059 66.39510
# Shear Modulus (GPa) = 21.13811 24.73320 22.93565
#
# Velocity S-wave (km/s) = 3.30390 3.57383 3.44151
# Velocity P-wave (km/s) = 6.66233 7.46796 7.07662
#
# Compressibility (1/GPa) = 0.01731014
#
# Stress axis : x y z
#
# Youngs Moduli (GPa) = 108.28826 53.82222 61.16998
#
# Poissons Ratio (x) = 0.19557 0.36940
# Poissons Ratio (y) = 0.39348 0.22960
# Poissons Ratio (z) = 0.65394 0.20202
#
# Static dielectric constant tensor:
#      x y z
#    x 3.727550 0.000000 0.000000 
#    y 0.000000 3.410410 0.000000 
#    z 0.000000 0.000000 3.562080 
# 
# 
# High freq. dielectric constant tensor:
#      x y z
#    x 1.756700 0.000000 0.000000 
#    y 0.000000 1.743730 0.000000 
#    z 0.000000 0.000000 1.760400 
# 
# From -- ./inp_files/25233.got.cif
#   From: 2010.03.12/outbox.cif.g09.slc.cpg/sg47_13_cif.got.tgz:25233.got - 2010.04.14 03:12:58.
