data_PCOD8199685
_publ_section_title
;
Structure prediction by ZEFSAII (Michael W. Deem and Ramdas Pophale) SiO2 
 PCOD8199685
Probable space group: P M M M
;
_chemical_formula_sum "Si O2"
_cell_formula_units_Z 40
_cell_length_a 16.855026
_cell_length_b 7.765143
_cell_length_c 14.392313
_cell_angle_alpha 90.000000
_cell_angle_beta 90.000000
_cell_angle_gamma 90.000000
_cell_volume 1883.690208
_symmetry_space_group_name_H-M "P M M M"
_symmetry_group_IT_number 47
_symmetry_cell_setting 'orthorhombic'
loop_
_space_group_symop_operation_xyz
x,y,z
-x,-y,z
x,-y,-z
-x,y,-z
-x,-y,-z
x,y,-z
-x,y,z
x,-y,z
loop_
_atom_site_type_symbol
_atom_site_label
_atom_site_fract_x
_atom_site_fract_y
_atom_site_fract_z
Si Si1 0.091457 0.800087 0.897706
Si Si2 0.593145 0.000000 0.396741
Si Si3 0.328252 0.301151 0.286896
Si Si4 0.409311 0.203064 0.105027
Si Si5 0.152007 0.692925 0.288775
Si Si6 0.000000 0.705756 0.606396
O O1 0.137446 0.690789 0.821521
O O2 0.000000 0.747546 0.894428
O O3 0.102594 0.000000 0.874314
O O4 0.125966 0.757900 0.000000
O O5 0.615826 0.824369 0.344701
O O6 0.500000 0.000000 0.402972
O O7 0.630804 0.000000 0.500000
O O8 0.336618 0.500000 0.320132
O O9 0.351039 0.295131 0.177849
O O10 0.239065 0.227109 0.304839
O O11 0.500000 0.260520 0.123988
O O12 0.401399 0.000000 0.118458
O O13 0.384677 0.255703 0.000000
O O14 0.155900 0.500000 0.326075
O O15 0.079171 0.784868 0.344070
O O16 0.000000 0.500000 0.617079
O O17 0.000000 0.765653 0.500000
#
# Coordination Sequence:
#
# PCOD8199685 Si02
#       6
#     8   4   8   8   8   4
#     4   9  18  32  52  79 114 159 205 248 296 350
#     4  11  26  48  71  94 122 159 207 258 313 384
#     4  11  24  40  63  97 133 164 202 259 317 371
#     4   9  18  35  61  92 126 165 208 251 299 364
#     4  10  21  36  57  87 118 152 198 250 302 357
#     4   9  18  36  60  81 108 150 197 245 302 364
#
# _framework density 21.234915000000001
#
# number of rings (size 3 to 8) (size 9 to 14) (size 15 to 20)
#    0.000    2.200    2.000    1.800    1.400    4.400 
#    0.000    9.000    0.000    0.600    0.000    0.000 
#    0.000    0.000    0.000    0.000    0.000    0.000 
#
# Total GULP energy -495781.882028 kJ/mol
# GULP energy per Si atom -12394.547051 kJ/mol
# Density = 2.118658 g / cm^3
# Si number density = 21.234915 Si / 1000 Ang^3
#
#
#
# Elastic Constant Matrix: (Units=GPa)
#
#
# Indices 1 2 3 4 5 6 
#
# 1 116.5357 25.0411 53.1753 0.0000 0.0000 0.0000
# 2 25.0411 63.0240 27.7263 0.0000 0.0000 0.0000
# 3 53.1753 27.7263 133.6214 0.0000 0.0000 0.0000
# 4 0.0000 0.0000 0.0000 15.0468 0.0000 0.0000
# 5 0.0000 0.0000 0.0000 0.0000 13.6680 0.0000
# 6 0.0000 0.0000 0.0000 0.0000 0.0000 12.9924
#
#
#
# Elastic Compliance Matrix: (Units=1/GPa)
#
#
# Indices 1 2 3 4 5 6 
#
# 1 0.010876 -0.002660 -0.003776 0.000000 0.000000 0.000000
# 2 -0.002660 0.018111 -0.002700 0.000000 0.000000 0.000000
# 3 -0.003776 -0.002700 0.009547 0.000000 0.000000 0.000000
# 4 0.000000 0.000000 0.000000 0.066459 0.000000 0.000000
# 5 0.000000 0.000000 0.000000 0.000000 0.073164 0.000000
# 6 0.000000 0.000000 0.000000 0.000000 0.000000 0.076968
#
#
# Mechanical properties :
#
#
# Convention : Reuss Voigt Hill
#
# Bulk Modulus (GPa) = 49.35202 58.34074 53.84638
# Shear Modulus (GPa) = 17.84757 22.15734 20.00246
#
# Velocity S-wave (km/s) = 2.90225 3.23374 3.07247
# Velocity P-wave (km/s) = 5.87556 6.44021 6.16435
#
# Compressibility (1/GPa) = 0.02026259
#
# Stress axis : x y z
#
# Youngs Moduli (GPa) = 91.94847 55.21364 104.74831
#
# Poissons Ratio (x) = 0.14687 0.39554
# Poissons Ratio (y) = 0.24458 0.28277
# Poissons Ratio (z) = 0.34720 0.14905
#
# Static dielectric constant tensor:
#      x y z
#    x 3.930850 0.000000 0.000000 
#    y 0.000000 3.489560 0.000000 
#    z 0.000000 0.000000 3.845240 
# 
# 
# High freq. dielectric constant tensor:
#      x y z
#    x 1.830040 0.000000 0.000000 
#    y 0.000000 1.810580 0.000000 
#    z 0.000000 0.000000 1.829770 
# 
# From -- ./inp_files/23344.got.cif
#   From: 2010.03.12/outbox.cif.g09.slc.cpg/sg47_12_cif.got.tgz:23344.got - 2010.04.14 03:12:58.
