data_PCOD8199242
_publ_section_title
;
Structure prediction by ZEFSAII (Michael W. Deem and Ramdas Pophale) SiO2 
 PCOD8199242
Probable space group: P M M M
;
_chemical_formula_sum "Si O2"
_cell_formula_units_Z 44
_cell_length_a 30.121597
_cell_length_b 7.824358
_cell_length_c 9.527026
_cell_angle_alpha 90.000000
_cell_angle_beta 90.000000
_cell_angle_gamma 90.000000
_cell_volume 2245.350051
_symmetry_space_group_name_H-M "P M M M"
_symmetry_group_IT_number 47
_symmetry_cell_setting 'orthorhombic'
loop_
_space_group_symop_operation_xyz
x,y,z
-x,-y,z
x,-y,-z
-x,y,-z
-x,-y,-z
x,y,-z
-x,y,z
x,-y,z
loop_
_atom_site_type_symbol
_atom_site_label
_atom_site_fract_x
_atom_site_fract_y
_atom_site_fract_z
Si Si1 0.225016 0.696612 0.341578
Si Si2 0.951189 0.796719 0.157638
Si Si3 0.613312 0.801168 0.335733
Si Si4 0.695835 0.804069 0.844929
Si Si5 0.450762 0.500000 0.665709
Si Si6 0.871298 0.797572 0.341348
O O1 0.229269 0.773647 0.500000
O O2 0.238010 0.500000 0.343334
O O3 0.257567 0.789097 0.234480
O O4 0.175036 0.722087 0.284933
O O5 0.912180 0.719041 0.253323
O O6 0.000000 0.736416 0.211173
O O7 0.949181 0.000000 0.161855
O O8 0.943566 0.730355 0.000000
O O9 0.624223 0.779164 0.500000
O O10 0.656131 0.731837 0.251080
O O11 0.573691 0.675317 0.287393
O O12 0.600992 0.000000 0.303047
O O13 0.685549 0.000000 0.868618
O O14 0.697436 0.714982 0.000000
O O15 0.500000 0.500000 0.733511
O O16 0.454598 0.500000 0.500000
O O17 0.879079 0.737479 0.500000
O O18 0.869283 0.000000 0.327817
#
# Coordination Sequence:
#
# PCOD8199242 Si02
#       6
#     8   8   8   8   4   8
#     4  10  21  35  51  72 100 134 169 207 253 307
#     4   8  14  25  42  65  91 118 151 194 244 295
#     4   9  18  33  54  79 108 143 180 221 270 320
#     4  10  21  36  54  77 104 134 171 216 262 308
#     4   9  18  32  53  83 113 141 181 229 270 315
#     4   9  17  29  46  68  93 121 155 198 246 296
#
# _framework density 19.596055
#
# number of rings (size 3 to 8) (size 9 to 14) (size 15 to 20)
#    0.000    2.818    0.000    1.636    1.273    3.636 
#    0.000    5.455    0.000    1.636    0.000    6.364 
#    0.000    0.000    0.000    0.000    0.000    0.000 
#
# Total GULP energy -545351.986101 kJ/mol
# GULP energy per Si atom -12394.363320 kJ/mol
# Density = 1.955145 g / cm^3
# Si number density = 19.596055 Si / 1000 Ang^3
#
#
#
# Elastic Constant Matrix: (Units=GPa)
#
#
# Indices 1 2 3 4 5 6 
#
# 1 175.6998 36.1440 84.6094 0.0000 0.0000 0.0000
# 2 36.1440 46.9477 20.2331 0.0000 0.0000 0.0000
# 3 84.6094 20.2331 94.7503 0.0000 0.0000 0.0000
# 4 0.0000 0.0000 0.0000 8.5935 0.0000 0.0000
# 5 0.0000 0.0000 0.0000 0.0000 13.0581 0.0000
# 6 0.0000 0.0000 0.0000 0.0000 0.0000 8.6799
#
#
#
# Elastic Compliance Matrix: (Units=1/GPa)
#
#
# Indices 1 2 3 4 5 6 
#
# 1 0.010813 -0.004585 -0.008677 0.000000 0.000000 0.000000
# 2 -0.004585 0.025404 -0.001330 0.000000 0.000000 0.000000
# 3 -0.008677 -0.001330 0.018586 0.000000 0.000000 0.000000
# 4 0.000000 0.000000 0.000000 0.116367 0.000000 0.000000
# 5 0.000000 0.000000 0.000000 0.000000 0.076581 0.000000
# 6 0.000000 0.000000 0.000000 0.000000 0.000000 0.115208
#
#
# Mechanical properties :
#
#
# Convention : Reuss Voigt Hill
#
# Bulk Modulus (GPa) = 39.03409 66.59676 52.81543
# Shear Modulus (GPa) = 12.47869 17.82705 15.15287
#
# Velocity S-wave (km/s) = 2.52622 3.01944 2.78377
# Velocity P-wave (km/s) = 5.33588 6.79813 6.11090
#
# Compressibility (1/GPa) = 0.02561863
#
# Stress axis : x y z
#
# Youngs Moduli (GPa) = 92.48059 39.36426 53.80381
#
# Poissons Ratio (x) = 0.18050 0.46683
# Poissons Ratio (y) = 0.42406 0.07157
# Poissons Ratio (z) = 0.80242 0.05236
#
# Static dielectric constant tensor:
#      x y z
#    x 3.790110 0.000000 0.000000 
#    y 0.000000 3.326600 0.000000 
#    z 0.000000 0.000000 3.727030 
# 
# 
# High freq. dielectric constant tensor:
#      x y z
#    x 1.766480 0.000000 0.000000 
#    y 0.000000 1.745530 0.000000 
#    z 0.000000 0.000000 1.744830 
# 
# From -- ./inp_files/13665.got.cif
#   From: 2010.03.12/outbox.cif.g09.slc.cpg/sg47_7_cif.got.tgz:13665.got - 2010.04.14 03:12:58.
