data_PCOD8199785
_publ_section_title
;
Structure prediction by ZEFSAII (Michael W. Deem and Ramdas Pophale) SiO2 
 PCOD8199785
Probable space group: P M M M
;
_chemical_formula_sum "Si O2"
_cell_formula_units_Z 64
_cell_length_a 18.983897
_cell_length_b 19.295274
_cell_length_c 9.138753
_cell_angle_alpha 90.000000
_cell_angle_beta 90.000000
_cell_angle_gamma 90.000000
_cell_volume 3347.520602
_symmetry_space_group_name_H-M "P M M M"
_symmetry_group_IT_number 47
_symmetry_cell_setting 'orthorhombic'
loop_
_space_group_symop_operation_xyz
x,y,z
-x,-y,z
x,-y,-z
-x,y,-z
-x,-y,-z
x,y,-z
-x,y,z
x,-y,z
loop_
_atom_site_type_symbol
_atom_site_label
_atom_site_fract_x
_atom_site_fract_y
_atom_site_fract_z
Si Si1 0.581796 0.078246 0.335626
Si Si2 0.082812 0.576645 0.161334
Si Si3 0.418568 0.420136 0.670667
Si Si4 0.309997 0.836015 0.171951
Si Si5 0.919269 0.818236 0.328084
Si Si6 0.164891 0.317874 0.670538
Si Si7 0.307658 0.321286 0.825938
Si Si8 0.824656 0.079929 0.826524
O O1 0.598131 0.103864 0.500000
O O2 0.500000 0.083008 0.301335
O O3 0.619453 0.126291 0.219705
O O4 0.608627 0.000000 0.315605
O O5 0.114960 0.500000 0.184017
O O6 0.106922 0.624850 0.293893
O O7 0.000000 0.572418 0.169578
O O8 0.105788 0.604927 0.000000
O O9 0.404323 0.407002 0.500000
O O10 0.500000 0.403855 0.708602
O O11 0.401298 0.500000 0.710615
O O12 0.369497 0.369327 0.763676
O O13 0.316714 0.757689 0.229041
O O14 0.242208 0.876709 0.235612
O O15 0.304881 0.837373 0.000000
O O16 0.913838 0.831132 0.500000
O O17 0.867646 0.755743 0.279303
O O18 0.894617 0.887705 0.245337
O O19 0.000000 0.801528 0.283179
O O20 0.183476 0.317689 0.500000
O O21 0.232198 0.342687 0.763057
O O22 0.308202 0.328183 0.000000
O O23 0.817085 0.000000 0.778021
O O24 0.831138 0.086182 0.000000
#
# Coordination Sequence:
#
# PCOD8199785 Si02
#       8
#     8   8   8   8   8   8   8   8
#     4   9  19  35  54  79 111 146 186 230 276 332
#     4   9  19  36  57  82 113 149 188 230 280 339
#     4   9  20  41  66  90 119 156 196 237 284 338
#     4  10  21  37  56  80 113 149 187 234 284 337
#     4  10  22  39  58  82 112 146 186 235 291 347
#     4  11  22  37  58  83 114 151 192 239 287 341
#     4  11  23  38  59  86 117 151 191 236 283 336
#     4  10  21  38  59  82 110 146 189 236 287 343
#
# _framework density 19.118627
#
# number of rings (size 3 to 8) (size 9 to 14) (size 15 to 20)
#    0.000    2.125    1.250    2.625    0.000    6.250 
#    0.000    5.625    0.000    0.000    0.000    0.000 
#    0.000    0.000    0.000    0.000    0.000    0.000 
#
# Total GULP energy -793548.479628 kJ/mol
# GULP energy per Si atom -12399.194994 kJ/mol
# Density = 1.907511 g / cm^3
# Si number density = 19.118627 Si / 1000 Ang^3
#
#
#
# Elastic Constant Matrix: (Units=GPa)
#
#
# Indices 1 2 3 4 5 6 
#
# 1 92.9368 62.7865 42.2515 0.0000 0.0000 0.0000
# 2 62.7865 122.5703 48.1837 0.0000 0.0000 0.0000
# 3 42.2515 48.1837 43.8770 0.0000 0.0000 0.0000
# 4 0.0000 0.0000 0.0000 34.4685 0.0000 0.0000
# 5 0.0000 0.0000 0.0000 0.0000 36.3288 0.0000
# 6 0.0000 0.0000 0.0000 0.0000 0.0000 39.3082
#
#
#
# Elastic Compliance Matrix: (Units=1/GPa)
#
#
# Indices 1 2 3 4 5 6 
#
# 1 0.020663 -0.004861 -0.014559 0.000000 0.000000 0.000000
# 2 -0.004861 0.015500 -0.012340 0.000000 0.000000 0.000000
# 3 -0.014559 -0.012340 0.050362 0.000000 0.000000 0.000000
# 4 0.000000 0.000000 0.000000 0.029012 0.000000 0.000000
# 5 0.000000 0.000000 0.000000 0.000000 0.027526 0.000000
# 6 0.000000 0.000000 0.000000 0.000000 0.000000 0.025440
#
#
# Mechanical properties :
#
#
# Convention : Reuss Voigt Hill
#
# Bulk Modulus (GPa) = 43.47066 62.86974 53.17020
# Shear Modulus (GPa) = 20.86009 29.09858 24.97934
#
# Velocity S-wave (km/s) = 3.30674 3.90552 3.61854
# Velocity P-wave (km/s) = 6.11278 7.30019 6.73272
#
# Compressibility (1/GPa) = 0.02300402
#
# Stress axis : x y z
#
# Youngs Moduli (GPa) = 48.39511 64.51731 19.85628
#
# Poissons Ratio (x) = 0.31364 0.28909
# Poissons Ratio (y) = 0.23526 0.24502
# Poissons Ratio (z) = 0.70460 0.79613
#
# Static dielectric constant tensor:
#      x y z
#    x 3.425380 0.000000 0.000000 
#    y 0.000000 3.653670 0.000000 
#    z 0.000000 0.000000 3.351400 
# 
# 
# High freq. dielectric constant tensor:
#      x y z
#    x 1.744640 0.000000 0.000000 
#    y 0.000000 1.748190 0.000000 
#    z 0.000000 0.000000 1.736520 
# 
# From -- ./inp_files/10031.got.cif
#   From: 2010.03.12/outbox.cif.g09.slc.cpg/sg47_6_cif.got.tgz:10031.got - 2010.04.14 03:12:58.
