data_PCOD8199956
_publ_section_title
;
Structure prediction by ZEFSAII (Michael W. Deem and Ramdas Pophale) SiO2 
 PCOD8199956
Probable space group: P M M M
;
_chemical_formula_sum "Si O2"
_cell_formula_units_Z 36
_cell_length_a 8.162098
_cell_length_b 15.568260
_cell_length_c 14.564241
_cell_angle_alpha 90.000000
_cell_angle_beta 90.000000
_cell_angle_gamma 90.000000
_cell_volume 1850.673208
_symmetry_space_group_name_H-M "P M M M"
_symmetry_group_IT_number 47
_symmetry_cell_setting 'orthorhombic'
loop_
_space_group_symop_operation_xyz
x,y,z
-x,-y,z
x,-y,-z
-x,y,-z
-x,-y,-z
x,y,-z
-x,y,z
x,-y,z
loop_
_atom_site_type_symbol
_atom_site_label
_atom_site_fract_x
_atom_site_fract_y
_atom_site_fract_z
Si Si1 0.183408 0.199773 0.396658
Si Si2 0.806930 0.097410 0.104951
Si Si3 0.500000 0.092452 0.607764
Si Si4 0.314871 0.254432 0.775519
Si Si5 0.811031 0.596775 0.894589
O O1 0.215729 0.236425 0.500000
O O2 0.326830 0.135050 0.364819
O O3 0.199182 0.269901 0.315113
O O4 0.000000 0.158560 0.393824
O O5 0.723539 0.166812 0.170376
O O6 0.000000 0.107673 0.115388
O O7 0.754046 0.000000 0.131997
O O8 0.754018 0.116116 0.000000
O O9 0.500000 0.083141 0.500000
O O10 0.500000 0.000000 0.656188
O O11 0.500000 0.247873 0.740211
O O12 0.298862 0.337564 0.838560
O O13 0.781156 0.500000 0.858456
O O14 0.000000 0.623004 0.883699
O O15 0.757529 0.603084 0.000000
#
# Coordination Sequence:
#
# PCOD8199956 Si02
#       5
#     8   8   4   8   8
#     4  10  21  38  58  79 108 149 193 238 290 343
#     4   9  19  36  55  75 104 145 192 237 277 326
#     4   9  18  34  54  78 108 139 182 240 292 341
#     4  12  23  34  54  83 115 150 188 234 287 344
#     4   9  19  37  60  85 114 148 188 236 286 340
#
# _framework density 19.452380999999999
#
# number of rings (size 3 to 8) (size 9 to 14) (size 15 to 20)
#    0.000    2.111    1.111    4.000    0.000    5.778 
#    0.000    4.444    0.000    0.667    0.000    4.667 
#    0.000    0.000    0.000    0.000    0.000    0.000 
#
# Total GULP energy -446032.759286 kJ/mol
# GULP energy per Si atom -12389.798869 kJ/mol
# Density = 1.940811 g / cm^3
# Si number density = 19.452381 Si / 1000 Ang^3
#
#
#
# Elastic Constant Matrix: (Units=GPa)
#
#
# Indices 1 2 3 4 5 6 
#
# 1 112.7285 34.7092 40.4825 0.0000 0.0000 0.0000
# 2 34.7092 91.6764 50.6561 0.0000 0.0000 0.0000
# 3 40.4825 50.6561 109.8319 0.0000 0.0000 0.0000
# 4 0.0000 0.0000 0.0000 11.0757 0.0000 0.0000
# 5 0.0000 0.0000 0.0000 0.0000 27.5194 0.0000
# 6 0.0000 0.0000 0.0000 0.0000 0.0000 21.7913
#
#
#
# Elastic Compliance Matrix: (Units=1/GPa)
#
#
# Indices 1 2 3 4 5 6 
#
# 1 0.010634 -0.002496 -0.002768 0.000000 0.000000 0.000000
# 2 -0.002496 0.015225 -0.006102 0.000000 0.000000 0.000000
# 3 -0.002768 -0.006102 0.012939 0.000000 0.000000 0.000000
# 4 0.000000 0.000000 0.000000 0.090288 0.000000 0.000000
# 5 0.000000 0.000000 0.000000 0.000000 0.036338 0.000000
# 6 0.000000 0.000000 0.000000 0.000000 0.000000 0.045890
#
#
# Mechanical properties :
#
#
# Convention : Reuss Voigt Hill
#
# Bulk Modulus (GPa) = 62.24630 62.88136 62.56383
# Shear Modulus (GPa) = 20.88555 24.63656 22.76105
#
# Velocity S-wave (km/s) = 3.28025 3.56266 3.42437
# Velocity P-wave (km/s) = 6.81290 7.02278 6.91863
#
# Compressibility (1/GPa) = 0.01606521
#
# Stress axis : x y z
#
# Youngs Moduli (GPa) = 94.04197 65.68320 77.28445
#
# Poissons Ratio (x) = 0.16398 0.21392
# Poissons Ratio (y) = 0.23477 0.47156
# Poissons Ratio (z) = 0.26031 0.40078
#
# Static dielectric constant tensor:
#      x y z
#    x 3.551120 0.000000 0.000000 
#    y 0.000000 3.518610 0.000000 
#    z 0.000000 0.000000 3.732790 
# 
# 
# High freq. dielectric constant tensor:
#      x y z
#    x 1.764610 0.000000 0.000000 
#    y 0.000000 1.723750 0.000000 
#    z 0.000000 0.000000 1.767020 
# 
# From -- ./inp_files/20548.got.cif
#   From: 2010.03.12/outbox.cif.g09.slc.cpg/sg47_11_cif.got.tgz:20548.got - 2010.04.14 03:12:58.
