data_PCOD8199301
_publ_section_title
;
Structure prediction by ZEFSAII (Michael W. Deem and Ramdas Pophale) SiO2 
 PCOD8199301
Probable space group: P M M M
;
_chemical_formula_sum "Si O2"
_cell_formula_units_Z 36
_cell_length_a 14.408148
_cell_length_b 13.355398
_cell_length_c 9.443914
_cell_angle_alpha 90.000000
_cell_angle_beta 90.000000
_cell_angle_gamma 90.000000
_cell_volume 1817.259799
_symmetry_space_group_name_H-M "P M M M"
_symmetry_group_IT_number 47
_symmetry_cell_setting 'orthorhombic'
loop_
_space_group_symop_operation_xyz
x,y,z
-x,-y,z
x,-y,-z
-x,y,-z
-x,-y,-z
x,y,-z
-x,y,z
x,-y,z
loop_
_atom_site_type_symbol
_atom_site_label
_atom_site_fract_x
_atom_site_fract_y
_atom_site_fract_z
Si Si1 0.389982 0.890185 0.342322
Si Si2 0.240890 0.388228 0.336476
Si Si3 0.391534 0.296053 0.164703
Si Si4 0.889201 0.000000 0.656015
Si Si5 0.896062 0.783928 0.669325
O O1 0.356578 0.858105 0.500000
O O2 0.500000 0.897147 0.339562
O O3 0.355777 0.809620 0.228522
O O4 0.348425 0.000000 0.303958
O O5 0.265005 0.367110 0.500000
O O6 0.199362 0.500000 0.318064
O O7 0.335279 0.382537 0.245128
O O8 0.168051 0.306812 0.276360
O O9 0.500000 0.313953 0.193293
O O10 0.367992 0.297478 0.000000
O O11 0.859219 0.893294 0.728073
O O12 0.845057 0.000000 0.500000
O O13 0.000000 0.000000 0.646118
O O14 0.897294 0.787590 0.500000
O O15 0.000000 0.763266 0.726148
#
# Coordination Sequence:
#
# PCOD8199301 Si02
#       5
#     8   8   8   4   8
#     4   8  14  27  49  75 101 129 163 207 259 313
#     4  10  21  35  51  75 106 137 174 223 272 317
#     4  10  21  36  53  72  98 137 182 226 269 314
#     4   7  10  20  42  72 104 133 160 196 243 299
#     4   8  14  27  49  77 107 136 166 205 258 317
#
# _framework density 19.810046
#
# number of rings (size 3 to 8) (size 9 to 14) (size 15 to 20)
#    0.000    3.222    0.000    2.667    0.000    3.111 
#    2.000    6.667    0.000    0.667    0.000    1.556 
#    0.000    2.667    0.000    0.000    0.000    0.000 
#
# Total GULP energy -446030.449693 kJ/mol
# GULP energy per Si atom -12389.734714 kJ/mol
# Density = 1.976496 g / cm^3
# Si number density = 19.810046 Si / 1000 Ang^3
#
#
#
# Elastic Constant Matrix: (Units=GPa)
#
#
# Indices 1 2 3 4 5 6 
#
# 1 60.9777 60.7272 32.6521 0.0000 0.0000 0.0000
# 2 60.7272 164.1260 41.2811 0.0000 0.0000 0.0000
# 3 32.6521 41.2811 59.5573 0.0000 0.0000 0.0000
# 4 0.0000 0.0000 0.0000 14.6100 0.0000 0.0000
# 5 0.0000 0.0000 0.0000 0.0000 10.0426 0.0000
# 6 0.0000 0.0000 0.0000 0.0000 0.0000 32.0568
#
#
#
# Elastic Compliance Matrix: (Units=1/GPa)
#
#
# Indices 1 2 3 4 5 6 
#
# 1 0.030896 -0.008685 -0.010918 0.000000 0.000000 0.000000
# 2 -0.008685 0.009821 -0.002046 0.000000 0.000000 0.000000
# 3 -0.010918 -0.002046 0.024194 0.000000 0.000000 0.000000
# 4 0.000000 0.000000 0.000000 0.068446 0.000000 0.000000
# 5 0.000000 0.000000 0.000000 0.000000 0.099576 0.000000
# 6 0.000000 0.000000 0.000000 0.000000 0.000000 0.031195
#
#
# Mechanical properties :
#
#
# Convention : Reuss Voigt Hill
#
# Bulk Modulus (GPa) = 46.26948 61.55352 53.91150
# Shear Modulus (GPa) = 15.89169 21.34192 18.61680
#
# Velocity S-wave (km/s) = 2.83539 3.28583 3.06889
# Velocity P-wave (km/s) = 5.84179 6.74795 6.31116
#
# Compressibility (1/GPa) = 0.02161252
#
# Stress axis : x y z
#
# Youngs Moduli (GPa) = 32.36707 101.82295 41.33196
#
# Poissons Ratio (x) = 0.88436 0.45128
# Poissons Ratio (y) = 0.28112 0.08455
# Poissons Ratio (z) = 0.35340 0.20828
#
# Static dielectric constant tensor:
#      x y z
#    x 3.505100 0.000000 0.000000 
#    y 0.000000 4.011930 0.000000 
#    z 0.000000 0.000000 3.119080 
# 
# 
# High freq. dielectric constant tensor:
#      x y z
#    x 1.761450 0.000000 0.000000 
#    y 0.000000 1.785900 0.000000 
#    z 0.000000 0.000000 1.709440 
# 
# From -- ./inp_files/3736.got.cif
#   From: 2010.03.12/outbox.cif.g09.slc.cpg/sg47_2_cif.got.tgz:3736.got - 2010.04.14 03:12:58.
