data_PCOD8199417
_publ_section_title
;
Structure prediction by ZEFSAII (Michael W. Deem and Ramdas Pophale) SiO2 
 PCOD8199417
Probable space group: P M M M
;
_chemical_formula_sum "Si O2"
_cell_formula_units_Z 36
_cell_length_a 14.309381
_cell_length_b 15.277730
_cell_length_c 8.935563
_cell_angle_alpha 90.000000
_cell_angle_beta 90.000000
_cell_angle_gamma 90.000000
_cell_volume 1953.446849
_symmetry_space_group_name_H-M "P M M M"
_symmetry_group_IT_number 47
_symmetry_cell_setting 'orthorhombic'
loop_
_space_group_symop_operation_xyz
x,y,z
-x,-y,z
x,-y,-z
-x,y,-z
-x,-y,-z
x,y,-z
-x,y,z
x,-y,z
loop_
_atom_site_type_symbol
_atom_site_label
_atom_site_fract_x
_atom_site_fract_y
_atom_site_fract_z
Si Si1 0.727732 0.756490 0.823132
Si Si2 0.604611 0.403305 0.822731
Si Si3 0.892675 0.676880 0.323776
Si Si4 0.606924 0.101523 0.327895
Si Si5 0.889312 0.500000 0.832710
O O1 0.670102 0.673223 0.758867
O O2 0.829611 0.754372 0.745146
O O3 0.675310 0.844996 0.779103
O O4 0.740926 0.753502 0.000000
O O5 0.500000 0.390560 0.757862
O O6 0.642898 0.500000 0.776400
O O7 0.600555 0.395561 0.000000
O O8 0.880221 0.671475 0.500000
O O9 0.855444 0.586133 0.253417
O O10 0.000000 0.695676 0.279780
O O11 0.625667 0.126539 0.500000
O O12 0.500000 0.122926 0.284861
O O13 0.628183 0.000000 0.300509
O O14 0.000000 0.500000 0.840770
O O15 0.845520 0.500000 0.000000
#
# Coordination Sequence:
#
# PCOD8199417 Si02
#       5
#     8   8   8   8   4
#     4  11  21  31  52  82 108 138 178 225 275 321
#     4   8  15  28  44  66 101 140 173 205 247 305
#     4  10  21  36  52  72 103 144 186 226 270 322
#     4   9  19  37  59  81 108 143 179 217 266 324
#     4   9  17  31  51  73  98 131 176 229 277 315
#
# _framework density 18.428963
#
# number of rings (size 3 to 8) (size 9 to 14) (size 15 to 20)
#    0.000    2.556    0.000    3.667    1.556    4.444 
#    0.000    1.111    0.000    0.667    0.000    9.333 
#    0.000    0.000    0.000    0.000    0.000    0.000 
#
# Total GULP energy -446380.702723 kJ/mol
# GULP energy per Si atom -12399.463965 kJ/mol
# Density = 1.838702 g / cm^3
# Si number density = 18.428963 Si / 1000 Ang^3
#
#
#
# Elastic Constant Matrix: (Units=GPa)
#
#
# Indices 1 2 3 4 5 6 
#
# 1 91.2364 53.6047 45.8922 0.0000 0.0000 0.0000
# 2 53.6047 82.9226 36.5572 0.0000 0.0000 0.0000
# 3 45.8922 36.5572 75.3154 0.0000 0.0000 0.0000
# 4 0.0000 0.0000 0.0000 30.7253 0.0000 0.0000
# 5 0.0000 0.0000 0.0000 0.0000 25.8188 0.0000
# 6 0.0000 0.0000 0.0000 0.0000 0.0000 29.0912
#
#
#
# Elastic Compliance Matrix: (Units=1/GPa)
#
#
# Indices 1 2 3 4 5 6 
#
# 1 0.020741 -0.009970 -0.007799 0.000000 0.000000 0.000000
# 2 -0.009970 0.020135 -0.003698 0.000000 0.000000 0.000000
# 3 -0.007799 -0.003698 0.019825 0.000000 0.000000 0.000000
# 4 0.000000 0.000000 0.000000 0.032546 0.000000 0.000000
# 5 0.000000 0.000000 0.000000 0.000000 0.038731 0.000000
# 6 0.000000 0.000000 0.000000 0.000000 0.000000 0.034375
#
#
# Mechanical properties :
#
#
# Convention : Reuss Voigt Hill
#
# Bulk Modulus (GPa) = 56.28553 57.95364 57.11958
# Shear Modulus (GPa) = 23.23321 24.68841 23.96081
#
# Velocity S-wave (km/s) = 3.55447 3.66410 3.60970
# Velocity P-wave (km/s) = 6.88868 7.02966 6.95953
#
# Compressibility (1/GPa) = 0.01776655
#
# Stress axis : x y z
#
# Youngs Moduli (GPa) = 48.21372 49.66563 50.44177
#
# Poissons Ratio (x) = 0.49515 0.39340
# Poissons Ratio (y) = 0.48067 0.18655
# Poissons Ratio (z) = 0.37602 0.18368
#
# Static dielectric constant tensor:
#      x y z
#    x 3.473330 0.000000 0.000000 
#    y 0.000000 3.281620 0.000000 
#    z 0.000000 0.000000 3.164730 
# 
# 
# High freq. dielectric constant tensor:
#      x y z
#    x 1.716730 0.000000 0.000000 
#    y 0.000000 1.695490 0.000000 
#    z 0.000000 0.000000 1.699300 
# 
# From -- ./inp_files/5497.got.cif
#   From: 2010.03.12/outbox.cif.g09.slc.cpg/sg47_3_cif.got.tgz:5497.got - 2010.04.14 03:12:58.
