data_PCOD8199282
_publ_section_title
;
Structure prediction by ZEFSAII (Michael W. Deem and Ramdas Pophale) SiO2 
 PCOD8199282
Probable space group: P M M M
;
_chemical_formula_sum "Si O2"
_cell_formula_units_Z 56
_cell_length_a 9.565275
_cell_length_b 13.772638
_cell_length_c 23.292782
_cell_angle_alpha 90.000000
_cell_angle_beta 90.000000
_cell_angle_gamma 90.000000
_cell_volume 3068.569437
_symmetry_space_group_name_H-M "P M M M"
_symmetry_group_IT_number 47
_symmetry_cell_setting 'orthorhombic'
loop_
_space_group_symop_operation_xyz
x,y,z
-x,-y,z
x,-y,-z
-x,y,-z
-x,-y,-z
x,y,-z
-x,y,z
x,-y,z
loop_
_atom_site_type_symbol
_atom_site_label
_atom_site_fract_x
_atom_site_fract_y
_atom_site_fract_z
Si Si1 0.838703 0.109194 0.338832
Si Si2 0.837913 0.703123 0.271730
Si Si3 0.844404 0.107017 0.931898
Si Si4 0.339736 0.391362 0.366551
Si Si5 0.662960 0.204420 0.434708
Si Si6 0.338066 0.715413 0.067511
Si Si7 0.840607 0.389464 0.845902
O O1 0.801175 0.185010 0.287884
O O2 0.748039 0.130155 0.395284
O O3 0.000000 0.120343 0.356629
O O4 0.806399 0.000000 0.316916
O O5 0.752643 0.629174 0.310930
O O6 0.798069 0.682870 0.205764
O O7 0.000000 0.680150 0.282119
O O8 0.731316 0.184382 0.910190
O O9 0.000000 0.135420 0.909640
O O10 0.803392 0.000000 0.908469
O O11 0.845253 0.104777 0.000000
O O12 0.500000 0.380328 0.347265
O O13 0.308615 0.500000 0.389394
O O14 0.303989 0.315668 0.417125
O O15 0.711799 0.190026 0.500000
O O16 0.500000 0.180550 0.427348
O O17 0.500000 0.717859 0.084037
O O18 0.261391 0.628173 0.100289
O O19 0.315900 0.699166 0.000000
O O20 0.821429 0.500000 0.825115
O O21 0.000000 0.370500 0.865592
#
# Coordination Sequence:
#
# PCOD8199282 Si02
#       7
#     8   8   8   8   8   8   8
#     4   9  18  33  53  75  99 129 163 201 248 297
#     4   9  18  34  54  74  97 124 159 205 252 299
#     4   8  14  27  49  74  98 127 163 199 234 276
#     4   9  17  29  47  71  97 127 164 206 252 298
#     4   9  18  31  46  68 100 136 172 207 243 287
#     4  10  21  35  51  74 105 138 169 204 247 295
#     4  10  21  36  54  75  98 127 164 206 253 305
#
# _framework density 18.249545999999999
#
# number of rings (size 3 to 8) (size 9 to 14) (size 15 to 20)
#    0.000    2.857    0.000    1.286    0.000    4.286 
#    0.000    6.429    0.000    2.571    0.000    4.000 
#    0.000    0.000    0.000    0.000    0.000    0.000 
#
# Total GULP energy -694286.293788 kJ/mol
# GULP energy per Si atom -12397.969532 kJ/mol
# Density = 1.820801 g / cm^3
# Si number density = 18.249546 Si / 1000 Ang^3
#
#
#
# Elastic Constant Matrix: (Units=GPa)
#
#
# Indices 1 2 3 4 5 6 
#
# 1 78.3189 44.0614 49.1905 0.0000 0.0000 0.0000
# 2 44.0614 111.3655 44.5011 0.0000 0.0000 0.0000
# 3 49.1905 44.5011 79.5009 0.0000 0.0000 0.0000
# 4 0.0000 0.0000 0.0000 19.2426 0.0000 0.0000
# 5 0.0000 0.0000 0.0000 0.0000 27.1835 0.0000
# 6 0.0000 0.0000 0.0000 0.0000 0.0000 26.4371
#
#
#
# Elastic Compliance Matrix: (Units=1/GPa)
#
#
# Indices 1 2 3 4 5 6 
#
# 1 0.022360 -0.004274 -0.011442 0.000000 0.000000 0.000000
# 2 -0.004274 0.012384 -0.004287 0.000000 0.000000 0.000000
# 3 -0.011442 -0.004287 0.022058 0.000000 0.000000 0.000000
# 4 0.000000 0.000000 0.000000 0.051968 0.000000 0.000000
# 5 0.000000 0.000000 0.000000 0.000000 0.036787 0.000000
# 6 0.000000 0.000000 0.000000 0.000000 0.000000 0.037826
#
#
# Mechanical properties :
#
#
# Convention : Reuss Voigt Hill
#
# Bulk Modulus (GPa) = 59.54532 60.52126 60.03329
# Shear Modulus (GPa) = 21.83525 23.33478 22.58502
#
# Velocity S-wave (km/s) = 3.46277 3.57970 3.52172
# Velocity P-wave (km/s) = 6.97760 7.09372 7.03590
#
# Compressibility (1/GPa) = 0.01679393
#
# Stress axis : x y z
#
# Youngs Moduli (GPa) = 44.72351 80.75151 45.33488
#
# Poissons Ratio (x) = 0.34515 0.51873
# Poissons Ratio (y) = 0.19116 0.19436
# Poissons Ratio (z) = 0.51174 0.34620
#
# Static dielectric constant tensor:
#      x y z
#    x 3.385120 0.000000 0.000000 
#    y 0.000000 3.542560 0.000000 
#    z 0.000000 0.000000 3.128160 
# 
# 
# High freq. dielectric constant tensor:
#      x y z
#    x 1.704380 0.000000 0.000000 
#    y 0.000000 1.713590 0.000000 
#    z 0.000000 0.000000 1.681100 
# 
# From -- ./inp_files/7339.got.cif
#   From: 2010.03.12/outbox.cif.g09.slc.cpg/sg47_4_cif.got.tgz:7339.got - 2010.04.14 03:12:58.
