data_PCOD8199687
_publ_section_title
;
Structure prediction by ZEFSAII (Michael W. Deem and Ramdas Pophale) SiO2 
 PCOD8199687
Probable space group: P M M M
;
_chemical_formula_sum "Si O2"
_cell_formula_units_Z 64
_cell_length_a 23.363359
_cell_length_b 9.131485
_cell_length_c 14.489037
_cell_angle_alpha 90.000000
_cell_angle_beta 90.000000
_cell_angle_gamma 90.000000
_cell_volume 3091.122483
_symmetry_space_group_name_H-M "P M M M"
_symmetry_group_IT_number 47
_symmetry_cell_setting 'orthorhombic'
loop_
_space_group_symop_operation_xyz
x,y,z
-x,-y,z
x,-y,-z
-x,y,-z
-x,-y,-z
x,y,-z
-x,y,z
x,-y,z
loop_
_atom_site_type_symbol
_atom_site_label
_atom_site_fract_x
_atom_site_fract_y
_atom_site_fract_z
Si Si1 0.932031 0.164555 0.398502
Si Si2 0.843705 0.172589 0.105787
Si Si3 0.067197 0.669595 0.780438
Si Si4 0.563905 0.167122 0.354206
Si Si5 0.259917 0.828056 0.236048
Si Si6 0.563681 0.838029 0.863364
Si Si7 0.665365 0.663676 0.899419
Si Si8 0.320912 0.668058 0.395849
O O1 0.910457 0.218112 0.500000
O O2 0.908834 0.268435 0.317291
O O3 0.000000 0.165807 0.398220
O O4 0.909493 0.000000 0.379648
O O5 0.902750 0.250882 0.133612
O O6 0.796802 0.225615 0.181186
O O7 0.852471 0.000000 0.112343
O O8 0.827459 0.216618 0.000000
O O9 0.082390 0.500000 0.783370
O O10 0.000000 0.699338 0.790634
O O11 0.500000 0.216516 0.389233
O O12 0.565489 0.180990 0.245547
O O13 0.615154 0.265343 0.393807
O O14 0.574936 0.000000 0.385521
O O15 0.311067 0.787358 0.168001
O O16 0.272759 0.748147 0.332800
O O17 0.258749 0.000000 0.254680
O O18 0.500000 0.819633 0.901139
O O19 0.599481 0.709101 0.911301
O O20 0.586739 0.000000 0.890466
O O21 0.671438 0.500000 0.857775
O O22 0.695253 0.668864 0.000000
O O23 0.297695 0.680845 0.500000
O O24 0.325093 0.500000 0.363679
#
# Coordination Sequence:
#
# PCOD8199687 Si02
#       8
#     8   8   8   8   8   8   8   8
#     4   8  14  27  50  80 115 158 205 246 282 325
#     4  10  23  43  66  91 117 151 198 248 297 350
#     4  10  21  36  57  90 130 167 201 241 293 353
#     4   9  18  34  57  85 116 153 198 245 295 352
#     4  11  23  42  66  88 112 145 192 247 293 342
#     4   9  18  33  53  78 109 147 191 238 288 341
#     4  11  23  36  54  83 115 148 187 232 289 353
#     4  11  24  40  60  89 123 157 194 239 297 362
#
# _framework density 20.704453999999998
#
# number of rings (size 3 to 8) (size 9 to 14) (size 15 to 20)
#    0.000    2.125    1.250    3.000    0.000    6.000 
#    0.000    6.875    0.000    0.750    0.000    0.000 
#    0.000    0.000    0.000    0.000    0.000    0.000 
#
# Total GULP energy -793154.788290 kJ/mol
# GULP energy per Si atom -12393.043567 kJ/mol
# Density = 2.065733 g / cm^3
# Si number density = 20.704454 Si / 1000 Ang^3
#
#
#
# Elastic Constant Matrix: (Units=GPa)
#
#
# Indices 1 2 3 4 5 6 
#
# 1 69.6630 42.5082 46.5808 0.0000 0.0000 0.0000
# 2 42.5082 88.7685 52.7947 0.0000 0.0000 0.0000
# 3 46.5808 52.7947 126.8132 0.0000 0.0000 0.0000
# 4 0.0000 0.0000 0.0000 36.6789 0.0000 0.0000
# 5 0.0000 0.0000 0.0000 0.0000 0.3263 0.0000
# 6 0.0000 0.0000 0.0000 0.0000 0.0000 23.4407
#
#
#
# Elastic Compliance Matrix: (Units=1/GPa)
#
#
# Indices 1 2 3 4 5 6 
#
# 1 0.022445 -0.007768 -0.005010 0.000000 0.000000 0.000000
# 2 -0.007768 0.017661 -0.004499 0.000000 0.000000 0.000000
# 3 -0.005010 -0.004499 0.011599 0.000000 0.000000 0.000000
# 4 0.000000 0.000000 0.000000 0.027264 0.000000 0.000000
# 5 0.000000 0.000000 0.000000 0.000000 3.064987 0.000000
# 6 0.000000 0.000000 0.000000 0.000000 0.000000 0.042661
#
#
# Mechanical properties :
#
#
# Convention : Reuss Voigt Hill
#
# Bulk Modulus (GPa) = 58.31046 63.22357 60.76701
# Shear Modulus (GPa) = 1.54948 21.64657 11.59802
#
# Velocity S-wave (km/s) = 0.86603 3.23693 2.36936
# Velocity P-wave (km/s) = 5.40596 6.67629 6.07442
#
# Compressibility (1/GPa) = 0.01714958
#
# Stress axis : x y z
#
# Youngs Moduli (GPa) = 44.55264 56.62153 86.21310
#
# Poissons Ratio (x) = 0.43986 0.43197
# Poissons Ratio (y) = 0.34610 0.38789
# Poissons Ratio (z) = 0.22323 0.25475
#
# Static dielectric constant tensor:
#      x y z
#    x 3.691380 0.000000 0.000000 
#    y 0.000000 3.685830 0.000000 
#    z 0.000000 0.000000 3.901480 
# 
# 
# High freq. dielectric constant tensor:
#      x y z
#    x 1.787490 0.000000 0.000000 
#    y 0.000000 1.802690 0.000000 
#    z 0.000000 0.000000 1.819760 
# 
# From -- ./inp_files/25588.got.cif
#   From: 2010.03.12/outbox.cif.g09.slc.cpg/sg47_13_cif.got.tgz:25588.got - 2010.04.14 03:12:58.
