data_PCOD8199977
_publ_section_title
;
Structure prediction by ZEFSAII (Michael W. Deem and Ramdas Pophale) SiO2 
 PCOD8199977
Probable space group: P M M M
;
_chemical_formula_sum "Si O2"
_cell_formula_units_Z 56
_cell_length_a 13.852606
_cell_length_b 22.155774
_cell_length_c 9.406234
_cell_angle_alpha 90.000000
_cell_angle_beta 90.000000
_cell_angle_gamma 90.000000
_cell_volume 2886.916263
_symmetry_space_group_name_H-M "P M M M"
_symmetry_group_IT_number 47
_symmetry_cell_setting 'orthorhombic'
loop_
_space_group_symop_operation_xyz
x,y,z
-x,-y,z
x,-y,-z
-x,y,-z
-x,-y,-z
x,y,-z
-x,y,z
x,-y,z
loop_
_atom_site_type_symbol
_atom_site_label
_atom_site_fract_x
_atom_site_fract_y
_atom_site_fract_z
Si Si1 0.192132 0.109703 0.345032
Si Si2 0.609268 0.275051 0.336136
Si Si3 0.611894 0.066642 0.000000
Si Si4 0.887648 0.214850 0.161343
Si Si5 0.110752 0.429684 0.337742
Si Si6 0.391195 0.862856 0.279215
Si Si7 0.773154 0.664562 0.835388
Si Si8 0.886392 0.000000 0.166685
O O1 0.141924 0.101636 0.500000
O O2 0.165743 0.173135 0.274440
O O3 0.307459 0.110687 0.379563
O O4 0.159752 0.058130 0.238218
O O5 0.643646 0.271014 0.500000
O O6 0.500000 0.299405 0.327742
O O7 0.615081 0.209053 0.265580
O O8 0.674690 0.320709 0.247423
O O9 0.640315 0.107573 0.131632
O O10 0.500000 0.053512 0.000000
O O11 0.663739 0.000000 0.000000
O O12 0.849914 0.282133 0.183352
O O13 0.000000 0.213888 0.196583
O O14 0.868266 0.192366 0.000000
O O15 0.130625 0.409320 0.500000
O O16 0.133165 0.500000 0.320021
O O17 0.180999 0.395155 0.231038
O O18 0.000000 0.415952 0.297200
O O19 0.500000 0.881564 0.329806
O O20 0.748494 0.652782 0.000000
O O21 0.000000 0.000000 0.193886
O O22 0.862533 0.000000 0.000000
#
# Coordination Sequence:
#
# PCOD8199977 Si02
#       8
#     8   8   4   8   8   8   8   4
#     4  12  25  39  61  89 114 145 187 240 295 346
#     4  10  21  38  59  83 117 160 202 245 297 360
#     4   9  20  36  56  84 112 148 193 236 287 351
#     4  10  22  39  57  80 114 153 192 236 290 350
#     4   9  19  37  61  89 124 167 209 246 289 347
#     4  10  22  37  59  86 118 155 192 237 294 356
#     4  11  22  35  58  90 123 157 197 246 298 349
#     4  11  27  49  68  81 104 148 194 238 292 357
#
# _framework density 19.397862
#
# number of rings (size 3 to 8) (size 9 to 14) (size 15 to 20)
#    0.000    1.714    1.429    2.786    4.000    5.429 
#    0.000    0.714    0.000    1.286    0.000    3.000 
#    0.000    0.000    0.000    0.000    0.000    0.000 
#
# Total GULP energy -694234.881277 kJ/mol
# GULP energy per Si atom -12397.051451 kJ/mol
# Density = 1.935371 g / cm^3
# Si number density = 19.397862 Si / 1000 Ang^3
#
#
#
# Elastic Constant Matrix: (Units=GPa)
#
#
# Indices 1 2 3 4 5 6 
#
# 1 115.1242 42.4822 54.9720 0.0000 0.0000 0.0000
# 2 42.4822 88.9364 63.2418 0.0000 0.0000 0.0000
# 3 54.9720 63.2418 136.8312 0.0000 0.0000 0.0000
# 4 0.0000 0.0000 0.0000 25.2390 0.0000 0.0000
# 5 0.0000 0.0000 0.0000 0.0000 24.4960 0.0000
# 6 0.0000 0.0000 0.0000 0.0000 0.0000 38.2077
#
#
#
# Elastic Compliance Matrix: (Units=1/GPa)
#
#
# Indices 1 2 3 4 5 6 
#
# 1 0.011344 -0.003244 -0.003058 0.000000 0.000000 0.000000
# 2 -0.003244 0.017676 -0.006866 0.000000 0.000000 0.000000
# 3 -0.003058 -0.006866 0.011710 0.000000 0.000000 0.000000
# 4 0.000000 0.000000 0.000000 0.039621 0.000000 0.000000
# 5 0.000000 0.000000 0.000000 0.000000 0.040823 0.000000
# 6 0.000000 0.000000 0.000000 0.000000 0.000000 0.026173
#
#
# Mechanical properties :
#
#
# Convention : Reuss Voigt Hill
#
# Bulk Modulus (GPa) = 69.47646 73.58708 71.53177
# Shear Modulus (GPa) = 28.01409 29.60159 28.80784
#
# Velocity S-wave (km/s) = 3.80437 3.91067 3.85789
# Velocity P-wave (km/s) = 7.42913 7.64259 7.53661
#
# Compressibility (1/GPa) = 0.01439336
#
# Stress axis : x y z
#
# Youngs Moduli (GPa) = 88.15619 56.57323 85.39420
#
# Poissons Ratio (x) = 0.18352 0.26113
# Poissons Ratio (y) = 0.28598 0.58636
# Poissons Ratio (z) = 0.26958 0.38846
#
# Static dielectric constant tensor:
#      x y z
#    x 3.699100 0.000000 0.000000 
#    y 0.000000 3.302230 0.000000 
#    z 0.000000 0.000000 3.909020 
# 
# 
# High freq. dielectric constant tensor:
#      x y z
#    x 1.763050 0.000000 0.000000 
#    y 0.000000 1.735340 0.000000 
#    z 0.000000 0.000000 1.764470 
# 
# From -- ./inp_files/7379.got.cif
#   From: 2010.03.12/outbox.cif.g09.slc.cpg/sg47_4_cif.got.tgz:7379.got - 2010.04.14 03:12:58.
