data_PCOD8199718
_publ_section_title
;
Structure prediction by ZEFSAII (Michael W. Deem and Ramdas Pophale) SiO2 
 PCOD8199718
Probable space group: P M M M
;
_chemical_formula_sum "Si O2"
_cell_formula_units_Z 40
_cell_length_a 21.776587
_cell_length_b 10.528136
_cell_length_c 9.327011
_cell_angle_alpha 90.000000
_cell_angle_beta 90.000000
_cell_angle_gamma 90.000000
_cell_volume 2138.374614
_symmetry_space_group_name_H-M "P M M M"
_symmetry_group_IT_number 47
_symmetry_cell_setting 'orthorhombic'
loop_
_space_group_symop_operation_xyz
x,y,z
-x,-y,z
x,-y,-z
-x,y,-z
-x,-y,-z
x,y,-z
-x,y,z
x,-y,z
loop_
_atom_site_type_symbol
_atom_site_label
_atom_site_fract_x
_atom_site_fract_y
_atom_site_fract_z
Si Si1 0.278064 0.646112 0.834445
Si Si2 0.067212 0.500000 0.330482
Si Si3 0.500000 0.149864 0.339945
Si Si4 0.933294 0.853447 0.842837
Si Si5 0.156863 0.718762 0.669165
Si Si6 0.380920 0.146648 0.833434
O O1 0.300122 0.500000 0.804929
O O2 0.221268 0.678880 0.734480
O O3 0.328871 0.751173 0.793878
O O4 0.259101 0.661280 0.000000
O O5 0.061913 0.500000 0.500000
O O6 0.105235 0.379717 0.279306
O O7 0.000000 0.500000 0.258793
O O8 0.500000 0.209309 0.500000
O O9 0.560423 0.193841 0.255690
O O10 0.500000 0.000000 0.349442
O O11 0.874219 0.842812 0.736683
O O12 0.000000 0.800440 0.783935
O O13 0.942035 0.000000 0.864942
O O14 0.919200 0.792211 0.000000
O O15 0.165802 0.730785 0.500000
O O16 0.361489 0.000000 0.794768
O O17 0.398258 0.154176 0.000000
#
# Coordination Sequence:
#
# PCOD8199718 Si02
#       6
#     8   4   4   8   8   8
#     4  10  21  37  55  76 108 148 188 227 271 325
#     4   9  18  32  49  71  99 130 167 214 267 319
#     4   9  17  31  54  85 116 142 172 219 272 318
#     4   9  19  36  55  75 102 135 171 216 271 328
#     4  11  21  34  53  76 104 138 176 219 270 326
#     4   9  18  34  57  82 107 141 184 225 266 316
#
# _framework density 18.705798000000001
#
# number of rings (size 3 to 8) (size 9 to 14) (size 15 to 20)
#    0.000    2.400    1.000    2.100    0.000    4.400 
#    0.000    3.500    0.000    5.400    0.000    0.000 
#    0.000    0.000    0.000    0.000    0.000    0.000 
#
# Total GULP energy -495543.601588 kJ/mol
# GULP energy per Si atom -12388.590040 kJ/mol
# Density = 1.866322 g / cm^3
# Si number density = 18.705798 Si / 1000 Ang^3
#
#
#
# Elastic Constant Matrix: (Units=GPa)
#
#
# Indices 1 2 3 4 5 6 
#
# 1 153.0761 63.6848 78.7256 0.0000 0.0000 0.0000
# 2 63.6848 79.9853 40.1605 0.0000 0.0000 0.0000
# 3 78.7256 40.1605 96.7108 0.0000 0.0000 0.0000
# 4 0.0000 0.0000 0.0000 16.9545 0.0000 0.0000
# 5 0.0000 0.0000 0.0000 0.0000 33.7727 0.0000
# 6 0.0000 0.0000 0.0000 0.0000 0.0000 37.5398
#
#
#
# Elastic Compliance Matrix: (Units=1/GPa)
#
#
# Indices 1 2 3 4 5 6 
#
# 1 0.013547 -0.006632 -0.008274 0.000000 0.000000 0.000000
# 2 -0.006632 0.019042 -0.002509 0.000000 0.000000 0.000000
# 3 -0.008274 -0.002509 0.018117 0.000000 0.000000 0.000000
# 4 0.000000 0.000000 0.000000 0.058981 0.000000 0.000000
# 5 0.000000 0.000000 0.000000 0.000000 0.029610 0.000000
# 6 0.000000 0.000000 0.000000 0.000000 0.000000 0.026638
#
#
# Mechanical properties :
#
#
# Convention : Reuss Voigt Hill
#
# Bulk Modulus (GPa) = 62.98339 77.21266 70.09803
# Shear Modulus (GPa) = 24.26514 27.46683 25.86599
#
# Velocity S-wave (km/s) = 3.60557 3.83607 3.72261
# Velocity P-wave (km/s) = 7.14683 7.80946 7.48548
#
# Compressibility (1/GPa) = 0.01587720
#
# Stress axis : x y z
#
# Youngs Moduli (GPa) = 73.81829 52.51425 55.19704
#
# Poissons Ratio (x) = 0.34827 0.45667
# Poissons Ratio (y) = 0.48956 0.13849
# Poissons Ratio (z) = 0.61074 0.13176
#
# Static dielectric constant tensor:
#      x y z
#    x 3.464500 0.000000 0.000000 
#    y 0.000000 3.468940 0.000000 
#    z 0.000000 0.000000 3.435170 
# 
# 
# High freq. dielectric constant tensor:
#      x y z
#    x 1.725450 0.000000 0.000000 
#    y 0.000000 1.715970 0.000000 
#    z 0.000000 0.000000 1.722100 
# 
# From -- ./inp_files/4044.got.cif
#   From: 2010.03.12/outbox.cif.g09.slc.cpg/sg47_3_cif.got.tgz:4044.got - 2010.04.14 03:12:58.
