data_PCOD8199445
_publ_section_title
;
Structure prediction by ZEFSAII (Michael W. Deem and Ramdas Pophale) SiO2 
 PCOD8199445
Probable space group: P M M M
;
_chemical_formula_sum "Si O2"
_cell_formula_units_Z 64
_cell_length_a 20.135787
_cell_length_b 9.091583
_cell_length_c 19.825780
_cell_angle_alpha 90.000000
_cell_angle_beta 90.000000
_cell_angle_gamma 90.000000
_cell_volume 3629.429786
_symmetry_space_group_name_H-M "P M M M"
_symmetry_group_IT_number 47
_symmetry_cell_setting 'orthorhombic'
loop_
_space_group_symop_operation_xyz
x,y,z
-x,-y,z
x,-y,-z
-x,y,-z
-x,-y,-z
x,y,-z
-x,y,z
x,-y,z
loop_
_atom_site_type_symbol
_atom_site_label
_atom_site_fract_x
_atom_site_fract_y
_atom_site_fract_z
Si Si1 0.577639 0.829119 0.323770
Si Si2 0.675649 0.670788 0.578832
Si Si3 0.423974 0.329013 0.188044
Si Si4 0.073686 0.174732 0.672919
Si Si5 0.189899 0.827744 0.577799
Si Si6 0.320023 0.328173 0.076505
Si Si7 0.073717 0.825171 0.175914
Si Si8 0.186030 0.826474 0.076960
O O1 0.500000 0.800992 0.335320
O O2 0.615015 0.747418 0.383660
O O3 0.600467 0.763640 0.252160
O O4 0.595954 0.000000 0.325072
O O5 0.663941 0.697271 0.500000
O O6 0.677633 0.500000 0.597613
O O7 0.744676 0.743037 0.602208
O O8 0.500000 0.292783 0.169954
O O9 0.414367 0.500000 0.205442
O O10 0.381022 0.280552 0.123634
O O11 0.128136 0.235822 0.620727
O O12 0.092142 0.227497 0.748499
O O13 0.000000 0.233302 0.653229
O O14 0.073093 0.000000 0.669888
O O15 0.173888 0.794859 0.500000
O O16 0.201559 0.000000 0.590741
O O17 0.305326 0.500000 0.082048
O O18 0.254608 0.244374 0.101545
O O19 0.338480 0.283074 0.000000
O O20 0.127023 0.761147 0.123167
O O21 0.000000 0.767763 0.156476
O O22 0.074208 0.000000 0.172762
O O23 0.192788 0.000000 0.085499
O O24 0.170192 0.782228 0.000000
#
# Coordination Sequence:
#
# PCOD8199445 Si02
#       8
#     8   8   8   8   8   8   8   8
#     4  10  21  36  54  76 101 128 159 198 243 290
#     4  10  21  36  53  73  99 131 165 201 241 287
#     4   9  18  33  52  73  98 128 162 199 237 281
#     4   8  14  25  42  66  94 121 152 193 240 287
#     4   9  17  29  46  69  96 124 156 196 239 283
#     4   9  18  32  49  70  97 128 161 198 240 284
#     4   8  14  25  41  62  88 116 148 189 234 278
#     4   9  17  28  43  65  91 118 151 192 236 282
#
# _framework density 17.633624999999999
#
# number of rings (size 3 to 8) (size 9 to 14) (size 15 to 20)
#    0.000    3.000    0.000    1.500    0.000    4.000 
#    0.000    6.250    0.000    0.750    0.000    8.750 
#    0.000    0.000    0.000    0.000    0.000    0.000 
#
# Total GULP energy -793542.249301 kJ/mol
# GULP energy per Si atom -12399.097645 kJ/mol
# Density = 1.759349 g / cm^3
# Si number density = 17.633625 Si / 1000 Ang^3
#
#
#
# Elastic Constant Matrix: (Units=GPa)
#
#
# Indices 1 2 3 4 5 6 
#
# 1 124.0467 44.0936 83.2200 0.0000 0.0000 0.0000
# 2 44.0936 48.3973 39.3688 0.0000 0.0000 0.0000
# 3 83.2200 39.3688 99.4610 0.0000 0.0000 0.0000
# 4 0.0000 0.0000 0.0000 19.8025 0.0000 0.0000
# 5 0.0000 0.0000 0.0000 0.0000 40.7583 0.0000
# 6 0.0000 0.0000 0.0000 0.0000 0.0000 16.4926
#
#
#
# Elastic Compliance Matrix: (Units=1/GPa)
#
#
# Indices 1 2 3 4 5 6 
#
# 1 0.019753 -0.006714 -0.013870 0.000000 0.000000 0.000000
# 2 -0.006714 0.032757 -0.007348 0.000000 0.000000 0.000000
# 3 -0.013870 -0.007348 0.024568 0.000000 0.000000 0.000000
# 4 0.000000 0.000000 0.000000 0.050499 0.000000 0.000000
# 5 0.000000 0.000000 0.000000 0.000000 0.024535 0.000000
# 6 0.000000 0.000000 0.000000 0.000000 0.000000 0.060633
#
#
# Mechanical properties :
#
#
# Convention : Reuss Voigt Hill
#
# Bulk Modulus (GPa) = 47.14018 67.25220 57.19619
# Shear Modulus (GPa) = 18.13698 22.42554 20.28126
#
# Velocity S-wave (km/s) = 3.21057 3.57003 3.39506
# Velocity P-wave (km/s) = 6.36670 7.43067 6.91917
#
# Compressibility (1/GPa) = 0.02121333
#
# Stress axis : x y z
#
# Youngs Moduli (GPa) = 50.62481 30.52819 40.70329
#
# Poissons Ratio (x) = 0.20496 0.56456
# Poissons Ratio (y) = 0.33989 0.29909
# Poissons Ratio (z) = 0.70217 0.22433
#
# Static dielectric constant tensor:
#      x y z
#    x 3.470900 0.000000 0.000000 
#    y 0.000000 3.023910 0.000000 
#    z 0.000000 0.000000 3.395160 
# 
# 
# High freq. dielectric constant tensor:
#      x y z
#    x 1.687160 0.000000 0.000000 
#    y 0.000000 1.653300 0.000000 
#    z 0.000000 0.000000 1.683420 
# 
# From -- ./inp_files/9972.got.cif
#   From: 2010.03.12/outbox.cif.g09.slc.cpg/sg47_5_cif.got.tgz:9972.got - 2010.04.14 03:12:58.
