data_PCOD8199190
_publ_section_title
;
Structure prediction by ZEFSAII (Michael W. Deem and Ramdas Pophale) SiO2 
 PCOD8199190
Probable space group: P M M M
;
_chemical_formula_sum "Si O2"
_cell_formula_units_Z 64
_cell_length_a 19.973875
_cell_length_b 19.792210
_cell_length_c 9.342338
_cell_angle_alpha 90.000000
_cell_angle_beta 90.000000
_cell_angle_gamma 90.000000
_cell_volume 3693.279655
_symmetry_space_group_name_H-M "P M M M"
_symmetry_group_IT_number 47
_symmetry_cell_setting 'orthorhombic'
loop_
_space_group_symop_operation_xyz
x,y,z
-x,-y,z
x,-y,-z
-x,y,-z
-x,-y,-z
x,y,-z
-x,y,z
x,-y,z
loop_
_atom_site_type_symbol
_atom_site_label
_atom_site_fract_x
_atom_site_fract_y
_atom_site_fract_z
Si Si1 0.188798 0.922423 0.166013
Si Si2 0.076065 0.181473 0.166932
Si Si3 0.421475 0.168247 0.164336
Si Si4 0.426178 0.679446 0.169546
Si Si5 0.315023 0.422590 0.168046
Si Si6 0.320013 0.078922 0.666677
Si Si7 0.817141 0.423080 0.333825
Si Si8 0.076154 0.313549 0.333302
O O1 0.123432 0.880437 0.211507
O O2 0.251777 0.896790 0.257710
O O3 0.171949 0.000000 0.200338
O O4 0.206739 0.911798 0.000000
O O5 0.101048 0.247754 0.249279
O O6 0.000000 0.162419 0.210423
O O7 0.081425 0.197372 0.000000
O O8 0.500000 0.154970 0.184096
O O9 0.403434 0.244846 0.210757
O O10 0.382648 0.117731 0.267212
O O11 0.400361 0.155269 0.000000
O O12 0.500000 0.664041 0.233865
O O13 0.373989 0.624684 0.230251
O O14 0.430403 0.673618 0.000000
O O15 0.333531 0.500000 0.203979
O O16 0.247214 0.400068 0.244845
O O17 0.304740 0.411602 0.000000
O O18 0.314492 0.096100 0.500000
O O19 0.331969 0.000000 0.694520
O O20 0.799802 0.414042 0.500000
O O21 0.837059 0.500000 0.297991
O O22 0.879264 0.377094 0.286445
O O23 0.083688 0.297632 0.500000
O O24 0.000000 0.331650 0.292399
#
# Coordination Sequence:
#
# PCOD8199190 Si02
#       8
#     8   8   8   8   8   8   8   8
#     4   9  18  33  52  72  95 125 160 195 230 274
#     4   9  18  32  50  73  99 125 154 191 236 282
#     4   9  18  33  52  72  95 125 160 196 234 280
#     4   8  15  29  48  70  95 121 152 191 230 268
#     4   9  17  29  47  71  96 122 153 189 229 274
#     4  10  21  35  50  70  97 126 156 195 240 282
#     4   9  18  32  48  66  91 123 157 194 234 274
#     4   9  18  32  49  69  93 122 157 195 233 276
#
# _framework density 17.328771
#
# number of rings (size 3 to 8) (size 9 to 14) (size 15 to 20)
#    0.000    3.000    0.000    1.125    0.000    4.000 
#    0.000    9.375    0.000    1.125    0.000    8.750 
#    0.000    0.000    0.000    0.000    0.000    0.000 
#
# Total GULP energy -793611.115944 kJ/mol
# GULP energy per Si atom -12400.173687 kJ/mol
# Density = 1.728933 g / cm^3
# Si number density = 17.328771 Si / 1000 Ang^3
#
#
#
# Elastic Constant Matrix: (Units=GPa)
#
#
# Indices 1 2 3 4 5 6 
#
# 1 115.8955 81.1091 49.9196 0.0000 0.0000 0.0000
# 2 81.1091 101.4142 45.3108 0.0000 0.0000 0.0000
# 3 49.9196 45.3108 51.1149 0.0000 0.0000 0.0000
# 4 0.0000 0.0000 0.0000 23.8430 0.0000 0.0000
# 5 0.0000 0.0000 0.0000 0.0000 20.3069 0.0000
# 6 0.0000 0.0000 0.0000 0.0000 0.0000 35.6023
#
#
#
# Elastic Compliance Matrix: (Units=1/GPa)
#
#
# Indices 1 2 3 4 5 6 
#
# 1 0.022240 -0.013384 -0.009856 0.000000 0.000000 0.000000
# 2 -0.013384 0.024381 -0.008542 0.000000 0.000000 0.000000
# 3 -0.009856 -0.008542 0.036761 0.000000 0.000000 0.000000
# 4 0.000000 0.000000 0.000000 0.041941 0.000000 0.000000
# 5 0.000000 0.000000 0.000000 0.000000 0.049244 0.000000
# 6 0.000000 0.000000 0.000000 0.000000 0.000000 0.028088
#
#
# Mechanical properties :
#
#
# Convention : Reuss Voigt Hill
#
# Bulk Modulus (GPa) = 50.45611 69.01150 59.73380
# Shear Modulus (GPa) = 18.32669 22.08945 20.20807
#
# Velocity S-wave (km/s) = 3.25559 3.57421 3.41861
# Velocity P-wave (km/s) = 6.58118 7.54616 7.08013
#
# Compressibility (1/GPa) = 0.01981920
#
# Stress axis : x y z
#
# Youngs Moduli (GPa) = 44.96311 41.01563 27.20249
#
# Poissons Ratio (x) = 0.54894 0.26812
# Poissons Ratio (y) = 0.60178 0.23235
# Poissons Ratio (z) = 0.44317 0.35034
#
# Static dielectric constant tensor:
#      x y z
#    x 3.376320 0.000000 0.000000 
#    y 0.000000 3.307600 0.000000 
#    z 0.000000 0.000000 3.079200 
# 
# 
# High freq. dielectric constant tensor:
#      x y z
#    x 1.672140 0.000000 0.000000 
#    y 0.000000 1.669850 0.000000 
#    z 0.000000 0.000000 1.652100 
# 
# From -- ./inp_files/10062.got.cif
#   From: 2010.03.12/outbox.cif.g09.slc.cpg/sg47_6_cif.got.tgz:10062.got - 2010.04.14 03:12:58.
