data_PCOD8199963
_publ_section_title
;
Structure prediction by ZEFSAII (Michael W. Deem and Ramdas Pophale) SiO2 
 PCOD8199963
Probable space group: P M M M
;
_chemical_formula_sum "Si O2"
_cell_formula_units_Z 44
_cell_length_a 8.966942
_cell_length_b 32.172802
_cell_length_c 7.703958
_cell_angle_alpha 90.000000
_cell_angle_beta 90.000000
_cell_angle_gamma 90.000000
_cell_volume 2222.527551
_symmetry_space_group_name_H-M "P M M M"
_symmetry_group_IT_number 47
_symmetry_cell_setting 'orthorhombic'
loop_
_space_group_symop_operation_xyz
x,y,z
-x,-y,z
x,-y,-z
-x,y,-z
-x,-y,-z
x,y,-z
-x,y,z
x,-y,z
loop_
_atom_site_type_symbol
_atom_site_label
_atom_site_fract_x
_atom_site_fract_y
_atom_site_fract_z
Si Si1 0.824501 0.708898 0.201723
Si Si2 0.677483 0.855820 0.500000
Si Si3 0.676943 0.911588 0.190377
Si Si4 0.832458 0.454380 0.793581
Si Si5 0.665579 0.374895 0.794514
Si Si6 0.677644 0.238853 0.500000
Si Si7 0.323009 0.000000 0.303016
O O1 0.771043 0.663183 0.259394
O O2 0.741337 0.741607 0.323586
O O3 0.000000 0.711792 0.233110
O O4 0.783577 0.717920 0.000000
O O5 0.500000 0.857078 0.500000
O O6 0.742515 0.879482 0.331041
O O7 0.732893 0.808646 0.500000
O O8 0.500000 0.913490 0.211950
O O9 0.741569 0.958228 0.214873
O O10 0.723340 0.895389 0.000000
O O11 0.772321 0.500000 0.735400
O O12 0.730188 0.417789 0.714750
O O13 0.000000 0.448152 0.723523
O O14 0.833278 0.451598 0.000000
O O15 0.500000 0.367574 0.718338
O O16 0.658936 0.378656 0.000000
O O17 0.500000 0.243255 0.500000
O O18 0.500000 0.000000 0.287191
O O19 0.269924 0.000000 0.500000
#
# Coordination Sequence:
#
# PCOD8199963 Si02
#       7
#     8   4   8   8   8   4   4
#     4  10  21  38  59  80 104 137 178 224 274 331
#     4   9  18  30  41  60  91 127 165 210 262 319
#     4   9  15  23  36  55  83 124 172 215 256 304
#     4   8  13  21  34  56  91 135 178 216 256 308
#     4   9  16  26  43  69 100 132 169 217 271 323
#     4  11  23  37  56  81 109 139 176 224 280 337
#     4   9  13  19  33  52  81 121 170 223 258 290
#
# _framework density 19.797279
#
# number of rings (size 3 to 8) (size 9 to 14) (size 15 to 20)
#    0.000    2.818    0.909    2.182    0.000    5.455 
#    0.000    3.636    0.000    0.000    0.000    0.636 
#    0.000    5.091    0.000    7.091    0.000   32.364 
#
# Total GULP energy -545344.678186 kJ/mol
# GULP energy per Si atom -12394.197231 kJ/mol
# Density = 1.975222 g / cm^3
# Si number density = 19.797279 Si / 1000 Ang^3
#
#
#
# Elastic Constant Matrix: (Units=GPa)
#
#
# Indices 1 2 3 4 5 6 
#
# 1 72.7191 49.8968 29.6697 0.0000 0.0000 0.0000
# 2 49.8968 185.2736 75.2170 0.0000 0.0000 0.0000
# 3 29.6697 75.2170 101.4685 0.0000 0.0000 0.0000
# 4 0.0000 0.0000 0.0000 -11.4344 0.0000 0.0000
# 5 0.0000 0.0000 0.0000 0.0000 13.6221 0.0000
# 6 0.0000 0.0000 0.0000 0.0000 0.0000 3.7859
#
#
#
# Elastic Compliance Matrix: (Units=1/GPa)
#
#
# Indices 1 2 3 4 5 6 
#
# 1 0.017232 -0.003712 -0.002287 0.000000 0.000000 0.000000
# 2 -0.003712 0.008521 -0.005231 0.000000 0.000000 0.000000
# 3 -0.002287 -0.005231 0.014401 0.000000 0.000000 0.000000
# 4 0.000000 0.000000 0.000000 -0.087455 0.000000 0.000000
# 5 0.000000 0.000000 0.000000 0.000000 0.073410 0.000000
# 6 0.000000 0.000000 0.000000 0.000000 0.000000 0.264139
#
#
# Mechanical properties :
#
#
# Convention : Reuss Voigt Hill
#
# Bulk Modulus (GPa) = 56.51556 74.33644 65.42600
# Shear Modulus (GPa) = 15.69333 14.83988 15.26661
#
# Velocity S-wave (km/s) = 2.81855 2.74084 2.77997
# Velocity P-wave (km/s) = 6.26110 6.90265 6.58969
#
# Compressibility (1/GPa) = 0.01769424
#
# Stress axis : x y z
#
# Youngs Moduli (GPa) = 58.03207 117.35929 69.43750
#
# Poissons Ratio (x) = 0.43569 0.15878
# Poissons Ratio (y) = 0.21544 0.36322
# Poissons Ratio (z) = 0.13270 0.61389
#
# Static dielectric constant tensor:
#      x y z
#    x 3.287050 0.000000 0.000000 
#    y 0.000000 3.858890 0.000000 
#    z 0.000000 0.000000 3.453910 
# 
# 
# High freq. dielectric constant tensor:
#      x y z
#    x 1.725430 0.000000 0.000000 
#    y 0.000000 1.778450 0.000000 
#    z 0.000000 0.000000 1.759430 
# 
# From -- ./inp_files/2354.got.cif
#   From: 2010.03.12/outbox.cif.g09.slc.cpg/sg47_2_cif.got.tgz:2354.got - 2010.04.14 03:12:58.
