data_PCOD8199801
_publ_section_title
;
Structure prediction by ZEFSAII (Michael W. Deem and Ramdas Pophale) SiO2 
 PCOD8199801
Probable space group: P M M M
;
_chemical_formula_sum "Si O2"
_cell_formula_units_Z 48
_cell_length_a 31.109709
_cell_length_b 9.125223
_cell_length_c 9.163875
_cell_angle_alpha 90.000000
_cell_angle_beta 90.000000
_cell_angle_gamma 90.000000
_cell_volume 2601.468621
_symmetry_space_group_name_H-M "P M M M"
_symmetry_group_IT_number 47
_symmetry_cell_setting 'orthorhombic'
loop_
_space_group_symop_operation_xyz
x,y,z
-x,-y,z
x,-y,-z
-x,y,-z
-x,-y,-z
x,y,-z
-x,y,z
x,-y,z
loop_
_atom_site_type_symbol
_atom_site_label
_atom_site_fract_x
_atom_site_fract_y
_atom_site_fract_z
Si Si1 0.745401 0.827704 0.831306
Si Si2 0.916368 0.330350 0.329571
Si Si3 0.500000 0.827357 0.158511
Si Si4 0.831544 0.331902 0.829931
Si Si5 0.000000 0.165431 0.673772
Si Si6 0.406948 0.168204 0.825780
Si Si7 0.668813 0.670691 0.329541
O O1 0.791086 0.764246 0.780214
O O2 0.709199 0.757301 0.732134
O O3 0.745577 0.000000 0.805898
O O4 0.736270 0.787784 0.000000
O O5 0.910749 0.301463 0.500000
O O6 0.923879 0.500000 0.293695
O O7 0.873418 0.271275 0.252563
O O8 0.957378 0.244418 0.265552
O O9 0.454699 0.786447 0.236210
O O10 0.500000 0.000000 0.134630
O O11 0.500000 0.750694 0.000000
O O12 0.822122 0.500000 0.786752
O O13 0.840571 0.314686 0.000000
O O14 0.000000 0.174762 0.500000
O O15 0.000000 0.000000 0.731084
O O16 0.374092 0.276461 0.749651
O O17 0.395885 0.000000 0.784707
O O18 0.405041 0.187592 0.000000
O O19 0.664561 0.703814 0.500000
O O20 0.675375 0.500000 0.297114
#
# Coordination Sequence:
#
# PCOD8199801 Si02
#       7
#     8   8   4   8   4   8   8
#     4  10  21  37  57  79 101 129 167 209 254 305
#     4   9  17  30  49  71  95 126 164 202 239 284
#     4   7  12  26  50  79 106 130 162 207 252 295
#     4   9  18  33  52  74 101 131 161 197 245 299
#     4   9  17  29  46  69  96 126 162 203 244 286
#     4   9  17  32  56  82 105 132 169 211 254 301
#     4  11  24  38  51  72 104 139 173 210 253 300
#
# _framework density 18.451117
#
# number of rings (size 3 to 8) (size 9 to 14) (size 15 to 20)
#    0.000    2.667    0.000    2.750    0.000    7.000 
#    0.000    2.917    0.000    6.500    0.000    0.000 
#    0.000    0.000    0.000    0.000    0.000    0.000 
#
# Total GULP energy -595071.386406 kJ/mol
# GULP energy per Si atom -12397.320550 kJ/mol
# Density = 1.840912 g / cm^3
# Si number density = 18.451117 Si / 1000 Ang^3
#
#
#
# Elastic Constant Matrix: (Units=GPa)
#
#
# Indices 1 2 3 4 5 6 
#
# 1 178.9335 67.6327 51.4268 0.0000 0.0000 0.0000
# 2 67.6327 78.1646 33.9079 0.0000 0.0000 0.0000
# 3 51.4268 33.9079 43.8226 0.0000 0.0000 0.0000
# 4 0.0000 0.0000 0.0000 22.1598 0.0000 0.0000
# 5 0.0000 0.0000 0.0000 0.0000 71.3055 0.0000
# 6 0.0000 0.0000 0.0000 0.0000 0.0000 36.5239
#
#
#
# Elastic Compliance Matrix: (Units=1/GPa)
#
#
# Indices 1 2 3 4 5 6 
#
# 1 0.009647 -0.005172 -0.007319 0.000000 0.000000 0.000000
# 2 -0.005172 0.022030 -0.010976 0.000000 0.000000 0.000000
# 3 -0.007319 -0.010976 0.039901 0.000000 0.000000 0.000000
# 4 0.000000 0.000000 0.000000 0.045127 0.000000 0.000000
# 5 0.000000 0.000000 0.000000 0.000000 0.014024 0.000000
# 6 0.000000 0.000000 0.000000 0.000000 0.000000 0.027379
#
#
# Mechanical properties :
#
#
# Convention : Reuss Voigt Hill
#
# Bulk Modulus (GPa) = 40.57858 67.42838 54.00348
# Shear Modulus (GPa) = 23.44559 35.86139 29.65349
#
# Velocity S-wave (km/s) = 3.56854 4.41340 4.01326
# Velocity P-wave (km/s) = 6.24656 7.91167 7.12790
#
# Compressibility (1/GPa) = 0.02464354
#
# Stress axis : x y z
#
# Youngs Moduli (GPa) = 103.65636 45.39168 25.06174
#
# Poissons Ratio (x) = 0.23478 0.18343
# Poissons Ratio (y) = 0.53614 0.27509
# Poissons Ratio (z) = 0.75868 0.49823
#
# Static dielectric constant tensor:
#      x y z
#    x 3.769190 0.000000 0.000000 
#    y 0.000000 3.329430 0.000000 
#    z 0.000000 0.000000 3.153040 
# 
# 
# High freq. dielectric constant tensor:
#      x y z
#    x 1.737070 0.000000 0.000000 
#    y 0.000000 1.705920 0.000000 
#    z 0.000000 0.000000 1.687110 
# 
# From -- ./inp_files/13813.got.cif
#   From: 2010.03.12/outbox.cif.g09.slc.cpg/sg47_7_cif.got.tgz:13813.got - 2010.04.14 03:12:58.
