data_PCOD8199029
_publ_section_title
;
Structure prediction by ZEFSAII (Michael W. Deem and Ramdas Pophale) SiO2 
 PCOD8199029
Probable space group: P M M M
;
_chemical_formula_sum "Si O2"
_cell_formula_units_Z 52
_cell_length_a 9.556030
_cell_length_b 27.235704
_cell_length_c 13.783179
_cell_angle_alpha 90.000000
_cell_angle_beta 90.000000
_cell_angle_gamma 90.000000
_cell_volume 3587.281901
_symmetry_space_group_name_H-M "P M M M"
_symmetry_group_IT_number 47
_symmetry_cell_setting 'orthorhombic'
loop_
_space_group_symop_operation_xyz
x,y,z
-x,-y,z
x,-y,-z
-x,y,-z
-x,-y,-z
x,y,-z
-x,y,z
x,-y,z
loop_
_atom_site_type_symbol
_atom_site_label
_atom_site_fract_x
_atom_site_fract_y
_atom_site_fract_z
Si Si1 0.663907 0.818345 0.385341
Si Si2 0.753047 0.380744 0.615486
Si Si3 0.840987 0.724643 0.615081
Si Si4 0.339870 0.942965 0.111724
Si Si5 0.500000 0.443930 0.615900
Si Si6 0.831877 0.903357 0.720894
Si Si7 0.835009 0.000000 0.607196
Si Si8 0.000000 0.554008 0.384429
O O1 0.678619 0.826686 0.500000
O O2 0.500000 0.819052 0.354582
O O3 0.734680 0.767276 0.352687
O O4 0.754772 0.859031 0.331572
O O5 0.748517 0.377465 0.500000
O O6 0.774658 0.325829 0.657176
O O7 0.622794 0.410252 0.656901
O O8 0.872225 0.415549 0.655303
O O9 0.849414 0.721579 0.500000
O O10 0.000000 0.732845 0.655037
O O11 0.500000 0.932887 0.144696
O O12 0.230774 0.909456 0.171297
O O13 0.302634 0.000000 0.126965
O O14 0.320881 0.928213 0.000000
O O15 0.500000 0.500000 0.657257
O O16 0.500000 0.447638 0.500000
O O17 0.000000 0.895384 0.723926
O O18 0.785474 0.951787 0.663001
O O19 0.766879 0.000000 0.500000
O O20 0.000000 0.000000 0.598399
O O21 0.000000 0.500000 0.338213
O O22 0.000000 0.550254 0.500000
#
# Coordination Sequence:
#
# PCOD8199029 Si02
#       8
#     8   8   8   8   4   8   4   4
#     4  10  21  33  45  61  82 109 143 180 217 259
#     4   9  15  22  32  45  62  86 116 154 200 250
#     4   9  16  27  40  53  68  92 128 169 212 253
#     4   9  18  33  52  72  95 120 141 165 202 249
#     4   9  16  22  28  42  64  88 114 149 198 251
#     4  11  20  32  49  69  91 115 140 175 214 251
#     4   9  18  30  44  63  88 116 143 169 206 253
#     4   9  14  20  30  44  62  84 112 149 196 249
#
# _framework density 14.495654999999999
#
# number of rings (size 3 to 8) (size 9 to 14) (size 15 to 20)
#    0.000    2.538    1.538    2.308    1.077    3.692 
#    0.000    0.769    0.000    1.846    0.000    0.000 
#    0.000    0.000    0.000    0.000    0.000    0.000 
#
# Total GULP energy -644270.716703 kJ/mol
# GULP energy per Si atom -12389.821475 kJ/mol
# Density = 1.446266 g / cm^3
# Si number density = 14.495655 Si / 1000 Ang^3
#
#
#
# Elastic Constant Matrix: (Units=GPa)
#
#
# Indices 1 2 3 4 5 6 
#
# 1 129.2238 71.3668 27.3067 0.0000 0.0000 0.0000
# 2 71.3668 135.0923 27.7811 0.0000 0.0000 0.0000
# 3 27.3067 27.7811 35.7640 0.0000 0.0000 0.0000
# 4 0.0000 0.0000 0.0000 -0.0653 0.0000 0.0000
# 5 0.0000 0.0000 0.0000 0.0000 15.6720 0.0000
# 6 0.0000 0.0000 0.0000 0.0000 0.0000 21.4915
#
#
#
# Elastic Compliance Matrix: (Units=1/GPa)
#
#
# Indices 1 2 3 4 5 6 
#
# 1 0.011599 -0.005125 -0.004875 0.000000 0.000000 0.000000
# 2 -0.005125 0.011074 -0.004689 0.000000 0.000000 0.000000
# 3 -0.004875 -0.004689 0.035326 0.000000 0.000000 0.000000
# 4 0.000000 0.000000 0.000000-15.320013 0.000000 0.000000
# 5 0.000000 0.000000 0.000000 0.000000 0.063808 0.000000
# 6 0.000000 0.000000 0.000000 0.000000 0.000000 0.046530
#
#
# Mechanical properties :
#
#
# Convention : Reuss Voigt Hill
#
# Bulk Modulus (GPa) = 34.94010 61.44327 48.19168
# Shear Modulus (GPa) = -0.33085 18.99467 9.33191
#
# Velocity S-wave (km/s) = -0.47826 3.62383 2.54002
# Velocity P-wave (km/s) = 4.88377 7.74525 6.47457
#
# Compressibility (1/GPa) = 0.02862041
#
# Stress axis : x y z
#
# Youngs Moduli (GPa) = 86.21335 90.30060 28.30788
#
# Poissons Ratio (x) = 0.46280 0.13801
# Poissons Ratio (y) = 0.44185 0.13274
# Poissons Ratio (z) = 0.42030 0.42343
#
# Static dielectric constant tensor:
#      x y z
#    x 2.974040 0.000000 0.000000 
#    y 0.000000 3.015300 0.000000 
#    z 0.000000 0.000000 2.331050 
# 
# 
# High freq. dielectric constant tensor:
#      x y z
#    x 1.569720 0.000000 0.000000 
#    y 0.000000 1.562400 0.000000 
#    z 0.000000 0.000000 1.478050 
# 
# From -- ./inp_files/15572.got.cif
#   From: 2010.03.12/outbox.cif.g09.slc.cpg/sg47_8_cif.got.tgz:15572.got - 2010.04.14 03:12:58.
