data_PCOD8199212
_publ_section_title
;
Structure prediction by ZEFSAII (Michael W. Deem and Ramdas Pophale) SiO2 
 PCOD8199212
Probable space group: P M M M
;
_chemical_formula_sum "Si O2"
_cell_formula_units_Z 64
_cell_length_a 9.419177
_cell_length_b 19.944567
_cell_length_c 19.700663
_cell_angle_alpha 90.000000
_cell_angle_beta 90.000000
_cell_angle_gamma 90.000000
_cell_volume 3700.994265
_symmetry_space_group_name_H-M "P M M M"
_symmetry_group_IT_number 47
_symmetry_cell_setting 'orthorhombic'
loop_
_space_group_symop_operation_xyz
x,y,z
-x,-y,z
x,-y,-z
-x,y,-z
-x,-y,-z
x,y,-z
-x,y,z
x,-y,z
loop_
_atom_site_type_symbol
_atom_site_label
_atom_site_fract_x
_atom_site_fract_y
_atom_site_fract_z
Si Si1 0.668633 0.573774 0.326529
Si Si2 0.334979 0.577072 0.826145
Si Si3 0.334825 0.308216 0.578466
Si Si4 0.164602 0.674593 0.921986
Si Si5 0.833930 0.827182 0.922524
Si Si6 0.834859 0.823394 0.578989
Si Si7 0.661164 0.921409 0.330884
Si Si8 0.664943 0.076444 0.175642
O O1 0.500000 0.571357 0.328805
O O2 0.727621 0.500000 0.347084
O O3 0.717950 0.591876 0.250403
O O4 0.725868 0.629125 0.378863
O O5 0.500000 0.593699 0.833226
O O6 0.304536 0.500000 0.845240
O O7 0.252303 0.624398 0.876569
O O8 0.310122 0.325565 0.500000
O O9 0.500000 0.294115 0.593995
O O10 0.245902 0.243833 0.601271
O O11 0.207909 0.750869 0.904807
O O12 0.000000 0.663269 0.906709
O O13 0.199172 0.658759 0.000000
O O14 0.751730 0.876158 0.873314
O O15 0.000000 0.838345 0.911637
O O16 0.791808 0.843551 0.000000
O O17 0.809686 0.838554 0.500000
O O18 0.772092 0.884982 0.620705
O O19 0.000000 0.814929 0.596192
O O20 0.500000 0.900048 0.349131
O O21 0.694997 0.902472 0.253174
O O22 0.680573 0.000000 0.342448
O O23 0.500000 0.084416 0.158695
O O24 0.713513 0.000000 0.163522
#
# Coordination Sequence:
#
# PCOD8199212 Si02
#       8
#     8   8   8   8   8   8   8   8
#     4   8  15  29  48  71  99 127 157 198 244 284
#     4   9  18  32  49  70  97 127 158 195 240 289
#     4   9  17  30  50  74  98 127 164 202 238 281
#     4   9  19  35  51  68  94 126 159 198 241 283
#     4   9  19  35  52  72 100 132 166 203 242 287
#     4  10  21  35  50  71 101 133 163 199 243 290
#     4   9  19  36  55  74  98 128 162 201 244 290
#     4   9  19  35  53  75 102 129 160 200 244 290
#
# _framework density 17.292649999999998
#
# number of rings (size 3 to 8) (size 9 to 14) (size 15 to 20)
#    0.000    3.000    0.000    2.625    0.000    5.000 
#    0.000   11.875    0.000    1.125    0.000    1.750 
#    0.000    0.000    0.000    0.000    0.000    0.000 
#
# Total GULP energy -793523.850867 kJ/mol
# GULP energy per Si atom -12398.810170 kJ/mol
# Density = 1.725329 g / cm^3
# Si number density = 17.292650 Si / 1000 Ang^3
#
#
#
# Elastic Constant Matrix: (Units=GPa)
#
#
# Indices 1 2 3 4 5 6 
#
# 1 69.5727 61.9302 56.7861 0.0000 0.0000 0.0000
# 2 61.9302 113.7784 80.4894 0.0000 0.0000 0.0000
# 3 56.7861 80.4894 93.9431 0.0000 0.0000 0.0000
# 4 0.0000 0.0000 0.0000 43.6492 0.0000 0.0000
# 5 0.0000 0.0000 0.0000 0.0000 23.3720 0.0000
# 6 0.0000 0.0000 0.0000 0.0000 0.0000 19.0995
#
#
#
# Elastic Compliance Matrix: (Units=1/GPa)
#
#
# Indices 1 2 3 4 5 6 
#
# 1 0.031935 -0.009461 -0.011198 0.000000 0.000000 0.000000
# 2 -0.009461 0.025116 -0.015801 0.000000 0.000000 0.000000
# 3 -0.011198 -0.015801 0.030951 0.000000 0.000000 0.000000
# 4 0.000000 0.000000 0.000000 0.022910 0.000000 0.000000
# 5 0.000000 0.000000 0.000000 0.000000 0.042786 0.000000
# 6 0.000000 0.000000 0.000000 0.000000 0.000000 0.052357
#
#
# Mechanical properties :
#
#
# Convention : Reuss Voigt Hill
#
# Bulk Modulus (GPa) = 66.29536 75.07839 70.68687
# Shear Modulus (GPa) = 17.60551 22.43004 20.01777
#
# Velocity S-wave (km/s) = 3.19422 3.60541 3.40603
# Velocity P-wave (km/s) = 7.21281 7.80017 7.51223
#
# Compressibility (1/GPa) = 0.01508401
#
# Stress axis : x y z
#
# Youngs Moduli (GPa) = 31.31392 39.81504 32.30872
#
# Poissons Ratio (x) = 0.37667 0.36179
# Poissons Ratio (y) = 0.29625 0.51050
# Poissons Ratio (z) = 0.35065 0.62910
#
# Static dielectric constant tensor:
#      x y z
#    x 3.037020 0.000000 0.000000 
#    y 0.000000 3.347450 0.000000 
#    z 0.000000 0.000000 3.263130 
# 
# 
# High freq. dielectric constant tensor:
#      x y z
#    x 1.651780 0.000000 0.000000 
#    y 0.000000 1.673620 0.000000 
#    z 0.000000 0.000000 1.670020 
# 
# From -- ./inp_files/29982.got.cif
#   From: 2010.03.12/outbox.cif.g09.slc.cpg/sg47_15_cif.got.tgz:29982.got - 2010.04.14 03:12:58.
