data_PCOD8199904
_publ_section_title
;
Structure prediction by ZEFSAII (Michael W. Deem and Ramdas Pophale) SiO2 
 PCOD8199904
Probable space group: P M M M
;
_chemical_formula_sum "Si O2"
_cell_formula_units_Z 48
_cell_length_a 30.602483
_cell_length_b 8.811186
_cell_length_c 9.041338
_cell_angle_alpha 90.000000
_cell_angle_beta 90.000000
_cell_angle_gamma 90.000000
_cell_volume 2437.944079
_symmetry_space_group_name_H-M "P M M M"
_symmetry_group_IT_number 47
_symmetry_cell_setting 'orthorhombic'
loop_
_space_group_symop_operation_xyz
x,y,z
-x,-y,z
x,-y,-z
-x,y,-z
-x,-y,-z
x,y,-z
-x,y,z
x,-y,z
loop_
_atom_site_type_symbol
_atom_site_label
_atom_site_fract_x
_atom_site_fract_y
_atom_site_fract_z
Si Si1 0.168379 0.174227 0.329434
Si Si2 0.337715 0.176302 0.172882
Si Si3 0.258453 0.676168 0.328253
Si Si4 0.080783 0.177109 0.171405
Si Si5 0.000000 0.678937 0.333893
Si Si6 0.581485 0.677655 0.671054
Si Si7 0.500000 0.179394 0.167395
O O1 0.155524 0.195069 0.500000
O O2 0.209237 0.278691 0.286084
O O3 0.127539 0.230255 0.233189
O O4 0.180520 0.000000 0.294285
O O5 0.290005 0.222942 0.228170
O O6 0.372590 0.276882 0.259299
O O7 0.345986 0.000000 0.206798
O O8 0.341814 0.211047 0.000000
O O9 0.267837 0.712099 0.500000
O O10 0.265810 0.500000 0.292657
O O11 0.043035 0.266913 0.251947
O O12 0.073606 0.000000 0.201621
O O13 0.078900 0.217518 0.000000
O O14 0.000000 0.500000 0.335163
O O15 0.000000 0.744754 0.500000
O O16 0.581543 0.724196 0.500000
O O17 0.573928 0.500000 0.691800
O O18 0.542938 0.764870 0.751195
O O19 0.500000 0.000000 0.168434
O O20 0.500000 0.241910 0.000000
#
# Coordination Sequence:
#
# PCOD8199904 Si02
#       7
#     8   8   8   8   4   8   4
#     4   9  18  34  56  81 111 149 190 230 274 327
#     4  11  24  40  59  85 116 151 193 239 286 338
#     4  10  21  37  58  85 116 150 189 233 281 335
#     4  10  21  37  58  84 113 145 183 228 278 333
#     4  11  24  39  56  80 110 145 186 231 278 330
#     4  11  24  41  62  89 119 152 193 238 285 340
#     4  11  24  41  62  90 122 155 194 237 282 336
#
# _framework density 19.688721000000001
#
# number of rings (size 3 to 8) (size 9 to 14) (size 15 to 20)
#    0.000    1.667    0.000    4.000    0.000   13.333 
#    0.000    3.333    0.000    0.000    0.000    0.000 
#    0.000    0.000    0.000    0.000    0.000    0.000 
#
# Total GULP energy -595493.072033 kJ/mol
# GULP energy per Si atom -12406.105667 kJ/mol
# Density = 1.964391 g / cm^3
# Si number density = 19.688721 Si / 1000 Ang^3
#
#
#
# Elastic Constant Matrix: (Units=GPa)
#
#
# Indices 1 2 3 4 5 6 
#
# 1 120.0636 33.4608 66.5890 0.0000 0.0000 0.0000
# 2 33.4608 53.8730 49.4384 0.0000 0.0000 0.0000
# 3 66.5890 49.4384 124.4598 0.0000 0.0000 0.0000
# 4 0.0000 0.0000 0.0000 28.3099 0.0000 0.0000
# 5 0.0000 0.0000 0.0000 0.0000 51.1294 0.0000
# 6 0.0000 0.0000 0.0000 0.0000 0.0000 33.6415
#
#
#
# Elastic Compliance Matrix: (Units=1/GPa)
#
#
# Indices 1 2 3 4 5 6 
#
# 1 0.012048 -0.002467 -0.005466 0.000000 0.000000 0.000000
# 2 -0.002467 0.029715 -0.010484 0.000000 0.000000 0.000000
# 3 -0.005466 -0.010484 0.015124 0.000000 0.000000 0.000000
# 4 0.000000 0.000000 0.000000 0.035323 0.000000 0.000000
# 5 0.000000 0.000000 0.000000 0.000000 0.019558 0.000000
# 6 0.000000 0.000000 0.000000 0.000000 0.000000 0.029725
#
#
# Mechanical properties :
#
#
# Convention : Reuss Voigt Hill
#
# Bulk Modulus (GPa) = 49.86709 66.37478 58.12093
# Shear Modulus (GPa) = 27.02541 32.54337 29.78439
#
# Velocity S-wave (km/s) = 3.70893 4.06999 3.89365
# Velocity P-wave (km/s) = 6.61243 7.47474 7.05677
#
# Compressibility (1/GPa) = 0.02005331
#
# Stress axis : x y z
#
# Youngs Moduli (GPa) = 83.00143 33.65291 66.12212
#
# Poissons Ratio (x) = 0.08302 0.36142
# Poissons Ratio (y) = 0.20476 0.69320
# Poissons Ratio (z) = 0.45369 0.35281
#
# Static dielectric constant tensor:
#      x y z
#    x 3.754160 0.000000 0.000000 
#    y 0.000000 3.583460 0.000000 
#    z 0.000000 0.000000 3.747760 
# 
# 
# High freq. dielectric constant tensor:
#      x y z
#    x 1.782680 0.000000 0.000000 
#    y 0.000000 1.769640 0.000000 
#    z 0.000000 0.000000 1.775900 
# 
# From -- ./inp_files/13903.got.cif
#   From: 2010.03.12/outbox.cif.g09.slc.cpg/sg47_7_cif.got.tgz:13903.got - 2010.04.14 03:12:58.
