data_PCOD8199375
_publ_section_title
;
Structure prediction by ZEFSAII (Michael W. Deem and Ramdas Pophale) SiO2 
 PCOD8199375
Probable space group: P M M M
;
_chemical_formula_sum "Si O2"
_cell_formula_units_Z 44
_cell_length_a 16.888659
_cell_length_b 14.363607
_cell_length_c 9.741996
_cell_angle_alpha 90.000000
_cell_angle_beta 90.000000
_cell_angle_gamma 90.000000
_cell_volume 2363.233464
_symmetry_space_group_name_H-M "P M M M"
_symmetry_group_IT_number 47
_symmetry_cell_setting 'orthorhombic'
loop_
_space_group_symop_operation_xyz
x,y,z
-x,-y,z
x,-y,-z
-x,y,-z
-x,-y,-z
x,y,-z
-x,y,z
x,-y,z
loop_
_atom_site_type_symbol
_atom_site_label
_atom_site_fract_x
_atom_site_fract_y
_atom_site_fract_z
Si Si1 0.412309 0.603056 0.253200
Si Si2 0.755785 0.394738 0.151003
Si Si3 0.907785 0.892274 0.844705
Si Si4 0.799906 0.766406 0.341096
Si Si5 0.378785 0.796859 0.648557
Si Si6 0.500000 0.109731 0.158115
O O1 0.500000 0.612640 0.183320
O O2 0.406268 0.500000 0.324149
O O3 0.340264 0.613997 0.146101
O O4 0.401049 0.687122 0.360560
O O5 0.781398 0.500000 0.183118
O O6 0.798416 0.333370 0.266321
O O7 0.785448 0.364091 0.000000
O O8 0.862143 0.832613 0.732413
O O9 0.000000 0.870238 0.828058
O O10 0.890376 0.000000 0.814539
O O11 0.880401 0.867407 0.000000
O O12 0.823928 0.752128 0.500000
O O13 0.713956 0.813164 0.327313
O O14 0.403244 0.838674 0.500000
O O15 0.422150 0.849298 0.771172
O O16 0.500000 0.000000 0.174513
O O17 0.500000 0.140489 0.000000
#
# Coordination Sequence:
#
# PCOD8199375 Si02
#       6
#     8   8   8   8   8   4
#     4   9  17  29  47  77 108 134 170 221 274 322
#     4   9  18  32  50  74 106 146 188 227 269 316
#     4   9  19  37  61  88 115 141 171 212 265 324
#     4  10  21  35  54  82 113 145 179 216 265 323
#     4  10  21  37  54  75 104 139 180 220 262 316
#     4  11  25  41  54  69  92 130 181 233 280 317
#
# _framework density 18.618559000000001
#
# number of rings (size 3 to 8) (size 9 to 14) (size 15 to 20)
#    0.000    2.455    0.909    1.364    0.000    6.909 
#    0.000   10.909    0.000    0.545    0.000    3.818 
#    0.000    0.000    0.000    0.000    0.000    0.000 
#
# Total GULP energy -545210.208007 kJ/mol
# GULP energy per Si atom -12391.141091 kJ/mol
# Density = 1.857618 g / cm^3
# Si number density = 18.618559 Si / 1000 Ang^3
#
#
#
# Elastic Constant Matrix: (Units=GPa)
#
#
# Indices 1 2 3 4 5 6 
#
# 1 71.5974 50.5028 56.9154 0.0000 0.0000 0.0000
# 2 50.5028 95.7765 79.3579 0.0000 0.0000 0.0000
# 3 56.9154 79.3579 168.1545 0.0000 0.0000 0.0000
# 4 0.0000 0.0000 0.0000 18.1633 0.0000 0.0000
# 5 0.0000 0.0000 0.0000 0.0000 25.0567 0.0000
# 6 0.0000 0.0000 0.0000 0.0000 0.0000 30.9068
#
#
#
# Elastic Compliance Matrix: (Units=1/GPa)
#
#
# Indices 1 2 3 4 5 6 
#
# 1 0.023392 -0.009482 -0.003443 0.000000 0.000000 0.000000
# 2 -0.009482 0.020989 -0.006696 0.000000 0.000000 0.000000
# 3 -0.003443 -0.006696 0.010272 0.000000 0.000000 0.000000
# 4 0.000000 0.000000 0.000000 0.055056 0.000000 0.000000
# 5 0.000000 0.000000 0.000000 0.000000 0.039909 0.000000
# 6 0.000000 0.000000 0.000000 0.000000 0.000000 0.032355
#
#
# Mechanical properties :
#
#
# Convention : Reuss Voigt Hill
#
# Bulk Modulus (GPa) = 64.88531 78.78673 71.83602
# Shear Modulus (GPa) = 22.08940 24.74220 23.41580
#
# Velocity S-wave (km/s) = 3.44818 3.64936 3.55020
# Velocity P-wave (km/s) = 7.12592 7.75662 7.44795
#
# Compressibility (1/GPa) = 0.01541181
#
# Stress axis : x y z
#
# Youngs Moduli (GPa) = 42.74952 47.64389 97.35011
#
# Poissons Ratio (x) = 0.45177 0.33513
# Poissons Ratio (y) = 0.40536 0.65186
# Poissons Ratio (z) = 0.14717 0.31902
#
# Static dielectric constant tensor:
#      x y z
#    x 3.238090 0.000000 0.000000 
#    y 0.000000 3.434430 0.000000 
#    z 0.000000 0.000000 3.345200 
# 
# 
# High freq. dielectric constant tensor:
#      x y z
#    x 1.702570 0.000000 0.000000 
#    y 0.000000 1.721470 0.000000 
#    z 0.000000 0.000000 1.717220 
# 
# From -- ./inp_files/9005.got.cif
#   From: 2010.03.12/outbox.cif.g09.slc.cpg/sg47_5_cif.got.tgz:9005.got - 2010.04.14 03:12:58.
