data_PCOD8199310
_publ_section_title
;
Structure prediction by ZEFSAII (Michael W. Deem and Ramdas Pophale) SiO2 
 PCOD8199310
Probable space group: P M M M
;
_chemical_formula_sum "Si O2"
_cell_formula_units_Z 64
_cell_length_a 25.391928
_cell_length_b 14.442047
_cell_length_c 9.116148
_cell_angle_alpha 90.000000
_cell_angle_beta 90.000000
_cell_angle_gamma 90.000000
_cell_volume 3342.995556
_symmetry_space_group_name_H-M "P M M M"
_symmetry_group_IT_number 47
_symmetry_cell_setting 'orthorhombic'
loop_
_space_group_symop_operation_xyz
x,y,z
-x,-y,z
x,-y,-z
-x,y,-z
-x,-y,-z
x,y,-z
-x,y,z
x,-y,z
loop_
_atom_site_type_symbol
_atom_site_label
_atom_site_fract_x
_atom_site_fract_y
_atom_site_fract_z
Si Si1 0.558166 0.224739 0.669909
Si Si2 0.150718 0.892692 0.330919
Si Si3 0.657463 0.892365 0.328090
Si Si4 0.283716 0.600298 0.173821
Si Si5 0.245408 0.205087 0.825492
Si Si6 0.059054 0.402313 0.826030
Si Si7 0.402238 0.604079 0.170785
Si Si8 0.062108 0.201582 0.829069
O O1 0.566879 0.243678 0.500000
O O2 0.500000 0.182030 0.700121
O O3 0.602935 0.154111 0.726106
O O4 0.560611 0.323659 0.748335
O O5 0.153496 0.863024 0.500000
O O6 0.191606 0.833776 0.237656
O O7 0.092407 0.873730 0.268043
O O8 0.164348 0.000000 0.312040
O O9 0.668065 0.875923 0.500000
O O10 0.705292 0.850236 0.237439
O O11 0.653122 0.000000 0.291027
O O12 0.261778 0.500000 0.231240
O O13 0.248095 0.686798 0.224167
O O14 0.342901 0.615274 0.232814
O O15 0.286430 0.596512 0.000000
O O16 0.245453 0.194611 0.000000
O O17 0.087624 0.500000 0.775634
O O18 0.083988 0.303964 0.777290
O O19 0.000000 0.405435 0.763661
O O20 0.056846 0.399600 0.000000
O O21 0.422806 0.500000 0.200757
O O22 0.403948 0.627433 0.000000
O O23 0.000000 0.192428 0.798635
O O24 0.074222 0.184128 0.000000
#
# Coordination Sequence:
#
# PCOD8199310 Si02
#       8
#     8   8   8   8   8   8   8   8
#     4  10  21  35  51  75 108 144 183 227 270 317
#     4  11  25  42  57  76 108 149 187 224 271 327
#     4  10  21  37  56  77 104 140 180 223 275 331
#     4   8  15  30  54  83 111 137 168 210 263 322
#     4  11  21  36  62  88 108 134 174 225 273 319
#     4   7  10  20  43  76 110 140 171 209 254 305
#     4   9  17  32  54  78 106 141 179 218 265 324
#     4   9  18  34  58  87 115 144 183 230 273 313
#
# _framework density 19.144506
#
# number of rings (size 3 to 8) (size 9 to 14) (size 15 to 20)
#    0.000    2.625    1.250    3.000    0.000    4.250 
#    0.000    4.375    0.000    5.625    0.000    3.500 
#    0.000    0.000    0.000    0.000    0.000    0.000 
#
# Total GULP energy -793019.500937 kJ/mol
# GULP energy per Si atom -12390.929702 kJ/mol
# Density = 1.910093 g / cm^3
# Si number density = 19.144506 Si / 1000 Ang^3
#
#
#
# Elastic Constant Matrix: (Units=GPa)
#
#
# Indices 1 2 3 4 5 6 
#
# 1 89.1336 52.3933 37.0725 0.0000 0.0000 0.0000
# 2 52.3933 117.1289 43.7774 0.0000 0.0000 0.0000
# 3 37.0725 43.7774 51.9292 0.0000 0.0000 0.0000
# 4 0.0000 0.0000 0.0000 22.1332 0.0000 0.0000
# 5 0.0000 0.0000 0.0000 0.0000 25.1373 0.0000
# 6 0.0000 0.0000 0.0000 0.0000 0.0000 24.7351
#
#
#
# Elastic Compliance Matrix: (Units=1/GPa)
#
#
# Indices 1 2 3 4 5 6 
#
# 1 0.017514 -0.004615 -0.008613 0.000000 0.000000 0.000000
# 2 -0.004615 0.013681 -0.008239 0.000000 0.000000 0.000000
# 3 -0.008613 -0.008239 0.032351 0.000000 0.000000 0.000000
# 4 0.000000 0.000000 0.000000 0.045181 0.000000 0.000000
# 5 0.000000 0.000000 0.000000 0.000000 0.039782 0.000000
# 6 0.000000 0.000000 0.000000 0.000000 0.000000 0.040428
#
#
# Mechanical properties :
#
#
# Convention : Reuss Voigt Hill
#
# Bulk Modulus (GPa) = 48.51279 58.29757 53.40518
# Shear Modulus (GPa) = 20.94308 22.73101 21.83704
#
# Velocity S-wave (km/s) = 3.31108 3.44952 3.38100
# Velocity P-wave (km/s) = 6.32558 6.81051 6.57252
#
# Compressibility (1/GPa) = 0.02061312
#
# Stress axis : x y z
#
# Youngs Moduli (GPa) = 57.09638 73.09214 30.91085
#
# Poissons Ratio (x) = 0.33734 0.26623
# Poissons Ratio (y) = 0.26352 0.25467
# Poissons Ratio (z) = 0.49175 0.60219
#
# Static dielectric constant tensor:
#      x y z
#    x 3.379560 0.000000 0.000000 
#    y 0.000000 3.975600 0.000000 
#    z 0.000000 0.000000 3.190480 
# 
# 
# High freq. dielectric constant tensor:
#      x y z
#    x 1.728490 0.000000 0.000000 
#    y 0.000000 1.761220 0.000000 
#    z 0.000000 0.000000 1.711110 
# 
# From -- ./inp_files/12739.got.cif
#   From: 2010.03.12/outbox.cif.g09.slc.cpg/sg47_7_cif.got.tgz:12739.got - 2010.04.14 03:12:58.
