data_PCOD8199627
_publ_section_title
;
Structure prediction by ZEFSAII (Michael W. Deem and Ramdas Pophale) SiO2 
 PCOD8199627
Probable space group: P M M M
;
_chemical_formula_sum "Si O2"
_cell_formula_units_Z 40
_cell_length_a 9.395850
_cell_length_b 25.213232
_cell_length_c 9.010272
_cell_angle_alpha 90.000000
_cell_angle_beta 90.000000
_cell_angle_gamma 90.000000
_cell_volume 2134.531147
_symmetry_space_group_name_H-M "P M M M"
_symmetry_group_IT_number 47
_symmetry_cell_setting 'orthorhombic'
loop_
_space_group_symop_operation_xyz
x,y,z
-x,-y,z
x,-y,-z
-x,y,-z
-x,-y,-z
x,y,-z
-x,y,z
x,-y,z
loop_
_atom_site_type_symbol
_atom_site_label
_atom_site_fract_x
_atom_site_fract_y
_atom_site_fract_z
Si Si1 0.662655 0.910442 0.327591
Si Si2 0.164186 0.701217 0.829602
Si Si3 0.333724 0.500000 0.174473
Si Si4 0.666480 0.789099 0.332192
Si Si5 0.838352 0.000000 0.174983
Si Si6 0.835125 0.406620 0.325874
O O1 0.684618 0.923323 0.500000
O O2 0.500000 0.921821 0.282100
O O3 0.702795 0.849748 0.293031
O O4 0.764291 0.947074 0.232423
O O5 0.252434 0.752424 0.783301
O O6 0.210078 0.651398 0.729780
O O7 0.000000 0.715012 0.804323
O O8 0.196784 0.687239 0.000000
O O9 0.500000 0.500000 0.213620
O O10 0.263091 0.551767 0.243128
O O11 0.306349 0.500000 0.000000
O O12 0.715922 0.776261 0.500000
O O13 0.500000 0.778535 0.315826
O O14 0.000000 0.000000 0.231892
O O15 0.829269 0.000000 0.000000
O O16 0.806643 0.410580 0.500000
O O17 0.000000 0.418317 0.287626
#
# Coordination Sequence:
#
# PCOD8199627 Si02
#       6
#     8   8   4   8   4   8
#     4   9  19  37  59  80 103 136 180 224 265 316
#     4  10  21  36  55  81 112 145 180 219 265 316
#     4  11  24  39  56  82 114 145 178 219 270 324
#     4   9  19  36  57  81 108 139 177 221 268 317
#     4  11  24  37  50  76 112 143 174 217 268 320
#     4  10  21  38  60  83 107 141 185 226 266 317
#
# _framework density 18.739477999999998
#
# number of rings (size 3 to 8) (size 9 to 14) (size 15 to 20)
#    0.000    2.200    0.000    3.600    0.000    9.600 
#    0.000    6.000    0.000    0.000    0.000    0.000 
#    0.000    0.000    0.000    0.000    0.000    0.000 
#
# Total GULP energy -496146.086788 kJ/mol
# GULP energy per Si atom -12403.652170 kJ/mol
# Density = 1.869683 g / cm^3
# Si number density = 18.739478 Si / 1000 Ang^3
#
#
#
# Elastic Constant Matrix: (Units=GPa)
#
#
# Indices 1 2 3 4 5 6 
#
# 1 96.0892 75.8254 59.1934 0.0000 0.0000 0.0000
# 2 75.8254 126.3163 59.2200 0.0000 0.0000 0.0000
# 3 59.1934 59.2200 86.8039 0.0000 0.0000 0.0000
# 4 0.0000 0.0000 0.0000 -240.7817 0.0000 0.0000
# 5 0.0000 0.0000 0.0000 0.0000 33.8145 0.0000
# 6 0.0000 0.0000 0.0000 0.0000 0.0000 36.3242
#
#
#
# Elastic Compliance Matrix: (Units=1/GPa)
#
#
# Indices 1 2 3 4 5 6 
#
# 1 0.024329 -0.010036 -0.009743 0.000000 0.000000 0.000000
# 2 -0.010036 0.015780 -0.003921 0.000000 0.000000 0.000000
# 3 -0.009743 -0.003921 0.020840 0.000000 0.000000 0.000000
# 4 0.000000 0.000000 0.000000 -0.004153 0.000000 0.000000
# 5 0.000000 0.000000 0.000000 0.000000 0.029573 0.000000
# 6 0.000000 0.000000 0.000000 0.000000 0.000000 0.027530
#
#
# Mechanical properties :
#
#
# Convention : Reuss Voigt Hill
#
# Bulk Modulus (GPa) = 73.82129 77.52078 75.67103
# Shear Modulus (GPa) = 30.15397 -26.46388 1.84505
#
# Velocity S-wave (km/s) = 4.01573 -3.76200 0.99334
# Velocity P-wave (km/s) = 7.80900 4.75260 6.46404
#
# Compressibility (1/GPa) = 0.01354623
#
# Stress axis : x y z
#
# Youngs Moduli (GPa) = 41.10324 63.37260 47.98544
#
# Poissons Ratio (x) = 0.63603 0.46754
# Poissons Ratio (y) = 0.41253 0.18817
# Poissons Ratio (z) = 0.40048 0.24851
#
# Static dielectric constant tensor:
#      x y z
#    x 3.414750 0.000000 0.000000 
#    y 0.000000 3.506960 0.000000 
#    z 0.000000 0.000000 3.446740 
# 
# 
# High freq. dielectric constant tensor:
#      x y z
#    x 1.723890 0.000000 0.000000 
#    y 0.000000 1.739570 0.000000 
#    z 0.000000 0.000000 1.733020 
# 
# From -- ./inp_files/1714.got.cif
#   From: 2010.03.12/outbox.cif.g09.slc.cpg/sg47_1_cif.got.tgz:1714.got - 2010.04.14 03:12:58.
