data_PCOD8199104
_publ_section_title
;
Structure prediction by ZEFSAII (Michael W. Deem and Ramdas Pophale) SiO2 
 PCOD8199104
Probable space group: P M M M
;
_chemical_formula_sum "Si O2"
_cell_formula_units_Z 48
_cell_length_a 15.114559
_cell_length_b 18.841455
_cell_length_c 9.233398
_cell_angle_alpha 90.000000
_cell_angle_beta 90.000000
_cell_angle_gamma 90.000000
_cell_volume 2629.489698
_symmetry_space_group_name_H-M "P M M M"
_symmetry_group_IT_number 47
_symmetry_cell_setting 'orthorhombic'
loop_
_space_group_symop_operation_xyz
x,y,z
-x,-y,z
x,-y,-z
-x,y,-z
-x,-y,-z
x,y,-z
-x,y,z
x,-y,z
loop_
_atom_site_type_symbol
_atom_site_label
_atom_site_fract_x
_atom_site_fract_y
_atom_site_fract_z
Si Si1 0.601596 0.917694 0.666054
Si Si2 0.741769 0.327909 0.171423
Si Si3 0.097694 0.420497 0.827842
Si Si4 0.101809 0.081737 0.667306
Si Si5 0.602829 0.419495 0.333035
Si Si6 0.250357 0.834706 0.828854
O O1 0.625385 0.900194 0.500000
O O2 0.500000 0.898345 0.698302
O O3 0.661808 0.872019 0.771195
O O4 0.619432 0.000000 0.697726
O O5 0.829206 0.366745 0.234306
O O6 0.655130 0.363855 0.236291
O O7 0.746439 0.246711 0.220684
O O8 0.735995 0.335296 0.000000
O O9 0.119673 0.500000 0.772978
O O10 0.000000 0.397524 0.772269
O O11 0.098696 0.419039 0.000000
O O12 0.124145 0.096225 0.500000
O O13 0.161802 0.131030 0.766132
O O14 0.000000 0.100019 0.700549
O O15 0.121687 0.000000 0.705060
O O16 0.627581 0.407608 0.500000
O O17 0.500000 0.404672 0.306709
O O18 0.626458 0.500000 0.286571
O O19 0.247641 0.842860 0.000000
#
# Coordination Sequence:
#
# PCOD8199104 Si02
#       6
#     8   8   8   8   8   8
#     4   9  19  37  59  78  96 127 174 220 260 308
#     4  10  21  34  49  74 107 140 171 204 247 303
#     4   8  14  27  49  73  94 122 164 208 244 281
#     4   9  19  37  59  79 100 133 179 224 261 304
#     4   9  19  36  56  77 101 131 170 216 263 307
#     4  11  23  34  48  77 113 143 170 207 259 315
#
# _framework density 18.254491999999999
#
# number of rings (size 3 to 8) (size 9 to 14) (size 15 to 20)
#    0.000    2.667    0.000    3.500    0.000    7.333 
#    0.000    7.500    0.000    0.500    0.000    2.333 
#    0.000    0.000    0.000    0.000    0.000    0.000 
#
# Total GULP energy -595199.411075 kJ/mol
# GULP energy per Si atom -12399.987731 kJ/mol
# Density = 1.821294 g / cm^3
# Si number density = 18.254492 Si / 1000 Ang^3
#
#
#
# Elastic Constant Matrix: (Units=GPa)
#
#
# Indices 1 2 3 4 5 6 
#
# 1 119.5033 82.9948 45.6410 0.0000 0.0000 0.0000
# 2 82.9948 134.1693 54.3074 0.0000 0.0000 0.0000
# 3 45.6410 54.3074 49.6687 0.0000 0.0000 0.0000
# 4 0.0000 0.0000 0.0000 23.7018 0.0000 0.0000
# 5 0.0000 0.0000 0.0000 0.0000 30.4681 0.0000
# 6 0.0000 0.0000 0.0000 0.0000 0.0000 -5.3825
#
#
#
# Elastic Compliance Matrix: (Units=1/GPa)
#
#
# Indices 1 2 3 4 5 6 
#
# 1 0.015893 -0.007032 -0.006915 0.000000 0.000000 0.000000
# 2 -0.007032 0.016482 -0.011560 0.000000 0.000000 0.000000
# 3 -0.006915 -0.011560 0.039127 0.000000 0.000000 0.000000
# 4 0.000000 0.000000 0.000000 0.042191 0.000000 0.000000
# 5 0.000000 0.000000 0.000000 0.000000 0.032821 0.000000
# 6 0.000000 0.000000 0.000000 0.000000 0.000000 -0.185789
#
#
# Mechanical properties :
#
#
# Convention : Reuss Voigt Hill
#
# Bulk Modulus (GPa) = 48.80868 74.35866 61.58367
# Shear Modulus (GPa) = 269.27192 17.78403 143.52798
#
# Velocity S-wave (km/s) = 12.15854 3.12465 8.87676
# Velocity P-wave (km/s) = 14.96338 7.33763 11.78439
#
# Compressibility (1/GPa) = 0.02048816
#
# Stress axis : x y z
#
# Youngs Moduli (GPa) = 62.92197 60.67205 25.55757
#
# Poissons Ratio (x) = 0.42663 0.17674
# Poissons Ratio (y) = 0.44246 0.29544
# Poissons Ratio (z) = 0.43513 0.70135
#
# Static dielectric constant tensor:
#      x y z
#    x 3.491310 0.000000 0.000000 
#    y 0.000000 3.430960 0.000000 
#    z 0.000000 0.000000 3.091720 
# 
# 
# High freq. dielectric constant tensor:
#      x y z
#    x 1.722110 0.000000 0.000000 
#    y 0.000000 1.707010 0.000000 
#    z 0.000000 0.000000 1.684870 
# 
# From -- ./inp_files/6323.got.cif
#   From: 2010.03.12/outbox.cif.g09.slc.cpg/sg47_4_cif.got.tgz:6323.got - 2010.04.14 03:12:58.
