data_PCOD8199181
_publ_section_title
;
Structure prediction by ZEFSAII (Michael W. Deem and Ramdas Pophale) SiO2 
 PCOD8199181
Probable space group: P M M M
;
_chemical_formula_sum "Si O2"
_cell_formula_units_Z 52
_cell_length_a 14.757078
_cell_length_b 23.138961
_cell_length_c 9.397595
_cell_angle_alpha 90.000000
_cell_angle_beta 90.000000
_cell_angle_gamma 90.000000
_cell_volume 3208.935232
_symmetry_space_group_name_H-M "P M M M"
_symmetry_group_IT_number 47
_symmetry_cell_setting 'orthorhombic'
loop_
_space_group_symop_operation_xyz
x,y,z
-x,-y,z
x,-y,-z
-x,y,-z
-x,-y,-z
x,y,-z
-x,y,z
x,-y,z
loop_
_atom_site_type_symbol
_atom_site_label
_atom_site_fract_x
_atom_site_fract_y
_atom_site_fract_z
Si Si1 0.660113 0.605419 0.344313
Si Si2 0.396059 0.172885 0.668130
Si Si3 0.102067 0.676124 0.836210
Si Si4 0.500000 0.564898 0.832846
Si Si5 0.607408 0.936560 0.159223
Si Si6 0.256506 0.270010 0.660742
Si Si7 0.853802 0.564630 0.336212
O O1 0.618245 0.591430 0.500000
O O2 0.588486 0.596868 0.221190
O O3 0.688407 0.671366 0.338608
O O4 0.745711 0.564460 0.315740
O O5 0.393338 0.166613 0.500000
O O6 0.500000 0.187044 0.717217
O O7 0.358949 0.113115 0.734337
O O8 0.325951 0.221910 0.720748
O O9 0.167744 0.722415 0.759285
O O10 0.102120 0.612620 0.764574
O O11 0.000000 0.700565 0.826017
O O12 0.132810 0.669422 0.000000
O O13 0.500000 0.500000 0.774004
O O14 0.500000 0.567514 0.000000
O O15 0.500000 0.938085 0.159986
O O16 0.643817 0.000000 0.207866
O O17 0.642580 0.922772 0.000000
O O18 0.224655 0.254872 0.500000
O O19 0.878232 0.579987 0.500000
O O20 0.889193 0.500000 0.297578
#
# Coordination Sequence:
#
# PCOD8199181 Si02
#       7
#     8   8   8   4   8   8   8
#     4   9  18  32  49  63  80 111 147 183 223 267
#     4   9  17  28  45  69  96 125 158 196 232 264
#     4  10  21  35  50  69  93 119 146 182 231 281
#     4  11  23  33  41  59  85 111 144 185 226 267
#     4   8  14  25  40  60  91 130 166 195 223 258
#     4   9  19  34  51  69  90 119 153 191 231 271
#     4   9  18  33  52  71  88 109 141 180 224 277
#
# _framework density 16.204751999999999
#
# number of rings (size 3 to 8) (size 9 to 14) (size 15 to 20)
#    0.000    2.846    0.000    2.538    1.077    6.462 
#    0.000    3.077    0.000    0.000    0.000    0.000 
#    0.000    0.615    0.000    6.769    0.000    5.231 
#
# Total GULP energy -644501.736610 kJ/mol
# GULP energy per Si atom -12394.264166 kJ/mol
# Density = 1.616787 g / cm^3
# Si number density = 16.204752 Si / 1000 Ang^3
#
#
#
# Elastic Constant Matrix: (Units=GPa)
#
#
# Indices 1 2 3 4 5 6 
#
# 1 75.5600 37.3633 41.5929 0.0000 0.0000 0.0000
# 2 37.3633 87.3548 34.6653 0.0000 0.0000 0.0000
# 3 41.5929 34.6653 69.1875 0.0000 0.0000 0.0000
# 4 0.0000 0.0000 0.0000 23.1753 0.0000 0.0000
# 5 0.0000 0.0000 0.0000 0.0000 22.7189 0.0000
# 6 0.0000 0.0000 0.0000 0.0000 0.0000 9.4548
#
#
#
# Elastic Compliance Matrix: (Units=1/GPa)
#
#
# Indices 1 2 3 4 5 6 
#
# 1 0.021434 -0.005061 -0.010350 0.000000 0.000000 0.000000
# 2 -0.005061 0.015483 -0.004715 0.000000 0.000000 0.000000
# 3 -0.010350 -0.004715 0.023038 0.000000 0.000000 0.000000
# 4 0.000000 0.000000 0.000000 0.043149 0.000000 0.000000
# 5 0.000000 0.000000 0.000000 0.000000 0.044016 0.000000
# 6 0.000000 0.000000 0.000000 0.000000 0.000000 0.105766
#
#
# Mechanical properties :
#
#
# Convention : Reuss Voigt Hill
#
# Bulk Modulus (GPa) = 50.75190 51.03834 50.89512
# Shear Modulus (GPa) = 16.68297 18.96853 17.82575
#
# Velocity S-wave (km/s) = 3.21208 3.42505 3.32027
# Velocity P-wave (km/s) = 6.71891 6.87063 6.79519
#
# Compressibility (1/GPa) = 0.01970369
#
# Stress axis : x y z
#
# Youngs Moduli (GPa) = 46.65464 64.58566 43.40656
#
# Poissons Ratio (x) = 0.32684 0.44925
# Poissons Ratio (y) = 0.23610 0.20468
# Poissons Ratio (z) = 0.48287 0.30455
#
# Static dielectric constant tensor:
#      x y z
#    x 2.880420 0.000000 0.000000 
#    y 0.000000 3.192460 0.000000 
#    z 0.000000 0.000000 3.133170 
# 
# 
# High freq. dielectric constant tensor:
#      x y z
#    x 1.597680 0.000000 0.000000 
#    y 0.000000 1.608680 0.000000 
#    z 0.000000 0.000000 1.623790 
# 
# From -- ./inp_files/7683.got.cif
#   From: 2010.03.12/outbox.cif.g09.slc.cpg/sg47_4_cif.got.tgz:7683.got - 2010.04.14 03:12:58.
