data_PCOD8199055
_publ_section_title
;
Structure prediction by ZEFSAII (Michael W. Deem and Ramdas Pophale) SiO2 
 PCOD8199055
Probable space group: P M M M
;
_chemical_formula_sum "Si O2"
_cell_formula_units_Z 52
_cell_length_a 14.458422
_cell_length_b 20.919172
_cell_length_c 9.493276
_cell_angle_alpha 90.000000
_cell_angle_beta 90.000000
_cell_angle_gamma 90.000000
_cell_volume 2871.319329
_symmetry_space_group_name_H-M "P M M M"
_symmetry_group_IT_number 47
_symmetry_cell_setting 'orthorhombic'
loop_
_space_group_symop_operation_xyz
x,y,z
-x,-y,z
x,-y,-z
-x,y,-z
-x,-y,-z
x,y,-z
-x,y,z
x,-y,z
loop_
_atom_site_type_symbol
_atom_site_label
_atom_site_fract_x
_atom_site_fract_y
_atom_site_fract_z
Si Si1 0.101938 0.260109 0.667483
Si Si2 0.732911 0.070686 0.838130
Si Si3 0.106605 0.117557 0.664342
Si Si4 0.604359 0.687974 0.335446
Si Si5 0.393414 0.813054 0.836679
Si Si6 0.784044 0.377425 0.334173
Si Si7 0.892864 0.500000 0.668336
O O1 0.101651 0.260778 0.500000
O O2 0.130616 0.189424 0.717145
O O3 0.170391 0.313313 0.729749
O O4 0.000000 0.277001 0.723929
O O5 0.828021 0.070751 0.751089
O O6 0.662429 0.124840 0.783022
O O7 0.688180 0.000000 0.819181
O O8 0.757511 0.083607 0.000000
O O9 0.127615 0.109146 0.500000
O O10 0.000000 0.100947 0.696031
O O11 0.611554 0.705091 0.500000
O O12 0.500000 0.666878 0.294088
O O13 0.636159 0.751042 0.252289
O O14 0.674105 0.628877 0.299087
O O15 0.500000 0.829251 0.809559
O O16 0.374216 0.798028 0.000000
O O17 0.800095 0.380291 0.500000
O O18 0.835443 0.439388 0.270070
O O19 0.892832 0.500000 0.500000
O O20 0.000000 0.500000 0.721786
#
# Coordination Sequence:
#
# PCOD8199055 Si02
#       7
#     8   8   8   8   8   8   4
#     4   8  13  22  38  59  80 104 139 183 226 263
#     4  10  21  34  47  66  92 121 151 184 229 284
#     4   9  18  32  49  68  89 117 156 197 233 272
#     4   9  17  29  46  68  92 118 149 185 228 275
#     4   9  18  33  52  72  93 118 151 192 234 276
#     4   9  15  23  37  58  87 121 151 181 220 263
#     4   9  16  24  35  57  92 129 159 185 218 264
#
# _framework density 18.110143000000001
#
# number of rings (size 3 to 8) (size 9 to 14) (size 15 to 20)
#    0.000    3.000    0.000    2.308    0.000    4.923 
#    0.000    3.462    0.000    2.308    0.000    3.769 
#    0.000    3.077    0.000    0.000    0.000    0.308 
#
# Total GULP energy -644421.074169 kJ/mol
# GULP energy per Si atom -12392.712965 kJ/mol
# Density = 1.806892 g / cm^3
# Si number density = 18.110143 Si / 1000 Ang^3
#
#
#
# Elastic Constant Matrix: (Units=GPa)
#
#
# Indices 1 2 3 4 5 6 
#
# 1 111.2728 66.2274 25.7160 0.0000 0.0000 0.0000
# 2 66.2274 97.5720 20.6714 0.0000 0.0000 0.0000
# 3 25.7160 20.6714 25.6292 0.0000 0.0000 0.0000
# 4 0.0000 0.0000 0.0000 13.9987 0.0000 0.0000
# 5 0.0000 0.0000 0.0000 0.0000 18.2770 0.0000
# 6 0.0000 0.0000 0.0000 0.0000 0.0000 28.9292
#
#
#
# Elastic Compliance Matrix: (Units=1/GPa)
#
#
# Indices 1 2 3 4 5 6 
#
# 1 0.016696 -0.009387 -0.009181 0.000000 0.000000 0.000000
# 2 -0.009387 0.017639 -0.004808 0.000000 0.000000 0.000000
# 3 -0.009181 -0.004808 0.052108 0.000000 0.000000 0.000000
# 4 0.000000 0.000000 0.000000 0.071435 0.000000 0.000000
# 5 0.000000 0.000000 0.000000 0.000000 0.054714 0.000000
# 6 0.000000 0.000000 0.000000 0.000000 0.000000 0.034567
#
#
# Mechanical properties :
#
#
# Convention : Reuss Voigt Hill
#
# Bulk Modulus (GPa) = 25.19495 51.07820 38.13657
# Shear Modulus (GPa) = 16.27916 20.36493 18.32205
#
# Velocity S-wave (km/s) = 3.00141 3.35700 3.18418
# Velocity P-wave (km/s) = 5.09447 6.57962 5.88409
#
# Compressibility (1/GPa) = 0.03969050
#
# Stress axis : x y z
#
# Youngs Moduli (GPa) = 59.89498 56.69213 19.19098
#
# Poissons Ratio (x) = 0.53219 0.17619
# Poissons Ratio (y) = 0.56225 0.09227
# Poissons Ratio (z) = 0.54990 0.27257
#
# Static dielectric constant tensor:
#      x y z
#    x 3.506250 0.000000 0.000000 
#    y 0.000000 3.472260 0.000000 
#    z 0.000000 0.000000 2.876210 
# 
# 
# High freq. dielectric constant tensor:
#      x y z
#    x 1.710950 0.000000 0.000000 
#    y 0.000000 1.695690 0.000000 
#    z 0.000000 0.000000 1.647640 
# 
# From -- ./inp_files/7009.got.cif
#   From: 2010.03.12/outbox.cif.g09.slc.cpg/sg47_4_cif.got.tgz:7009.got - 2010.04.14 03:12:58.
