data_PCOD8199042
_publ_section_title
;
Structure prediction by ZEFSAII (Michael W. Deem and Ramdas Pophale) SiO2 
 PCOD8199042
Probable space group: P M M M
;
_chemical_formula_sum "Si O2"
_cell_formula_units_Z 44
_cell_length_a 13.885902
_cell_length_b 21.738291
_cell_length_c 9.058979
_cell_angle_alpha 90.000000
_cell_angle_beta 90.000000
_cell_angle_gamma 90.000000
_cell_volume 2734.505158
_symmetry_space_group_name_H-M "P M M M"
_symmetry_group_IT_number 47
_symmetry_cell_setting 'orthorhombic'
loop_
_space_group_symop_operation_xyz
x,y,z
-x,-y,z
x,-y,-z
-x,y,-z
-x,-y,-z
x,y,-z
-x,y,z
x,-y,z
loop_
_atom_site_type_symbol
_atom_site_label
_atom_site_fract_x
_atom_site_fract_y
_atom_site_fract_z
Si Si1 0.391106 0.368146 0.822849
Si Si2 0.390694 0.127107 0.173826
Si Si3 0.108592 0.175328 0.173801
Si Si4 0.614378 0.500000 0.161907
Si Si5 0.712714 0.750177 0.826465
Si Si6 0.782232 0.929716 0.670418
O O1 0.500000 0.353554 0.771103
O O2 0.356159 0.435266 0.758909
O O3 0.321482 0.314838 0.756826
O O4 0.388153 0.370778 0.000000
O O5 0.500000 0.114935 0.222880
O O6 0.361495 0.196333 0.219906
O O7 0.322692 0.079052 0.257214
O O8 0.376747 0.117479 0.000000
O O9 0.179653 0.230573 0.225846
O O10 0.136996 0.112010 0.252602
O O11 0.000000 0.193850 0.216728
O O12 0.120354 0.163923 0.000000
O O13 0.500000 0.500000 0.145472
O O14 0.662263 0.500000 0.000000
O O15 0.710801 0.741534 0.000000
O O16 0.775469 0.911155 0.500000
O O17 0.814507 0.000000 0.691055
#
# Coordination Sequence:
#
# PCOD8199042 Si02
#       6
#     8   8   8   4   8   8
#     4   8  11  15  26  46  74 106 136 164 193 227
#     4   9  17  29  45  64  85 110 141 173 201 233
#     4   9  18  32  48  64  80  99 129 171 214 253
#     4   7  10  14  20  38  71 107 138 163 187 221
#     4   8  13  22  37  56  76 100 133 170 204 237
#     4  10  21  34  46  62  84 108 133 162 200 249
#
# _framework density 16.090662999999999
#
# number of rings (size 3 to 8) (size 9 to 14) (size 15 to 20)
#    0.000    3.364    0.000    3.273    0.000    5.091 
#    0.000    3.636    0.000    0.000    0.000    0.636 
#    0.000    5.091    0.000   13.091    0.000  130.182 
#
# Total GULP energy -545124.951918 kJ/mol
# GULP energy per Si atom -12389.203453 kJ/mol
# Density = 1.605404 g / cm^3
# Si number density = 16.090663 Si / 1000 Ang^3
#
#
#
# Elastic Constant Matrix: (Units=GPa)
#
#
# Indices 1 2 3 4 5 6 
#
# 1 108.3833 52.6448 23.0224 0.0000 0.0000 0.0000
# 2 52.6448 122.6199 22.4074 0.0000 0.0000 0.0000
# 3 23.0224 22.4074 26.6666 0.0000 0.0000 0.0000
# 4 0.0000 0.0000 0.0000 0.7445 0.0000 0.0000
# 5 0.0000 0.0000 0.0000 0.0000 7.5967 0.0000
# 6 0.0000 0.0000 0.0000 0.0000 0.0000 16.6611
#
#
#
# Elastic Compliance Matrix: (Units=1/GPa)
#
#
# Indices 1 2 3 4 5 6 
#
# 1 0.012850 -0.004123 -0.007629 0.000000 0.000000 0.000000
# 2 -0.004123 0.010957 -0.005648 0.000000 0.000000 0.000000
# 3 -0.007629 -0.005648 0.048833 0.000000 0.000000 0.000000
# 4 0.000000 0.000000 0.000000 1.343241 0.000000 0.000000
# 5 0.000000 0.000000 0.000000 0.000000 0.131637 0.000000
# 6 0.000000 0.000000 0.000000 0.000000 0.000000 0.060020
#
#
# Mechanical properties :
#
#
# Convention : Reuss Voigt Hill
#
# Bulk Modulus (GPa) = 26.42734 50.42433 38.42584
# Shear Modulus (GPa) = 3.02124 15.64011 9.33068
#
# Velocity S-wave (km/s) = 1.37175 3.12107 2.41069
# Velocity P-wave (km/s) = 4.35530 6.66287 5.62861
#
# Compressibility (1/GPa) = 0.03783960
#
# Stress axis : x y z
#
# Youngs Moduli (GPa) = 77.82353 91.26288 20.47803
#
# Poissons Ratio (x) = 0.37624 0.15624
# Poissons Ratio (y) = 0.32083 0.11566
# Poissons Ratio (z) = 0.59375 0.51546
#
# Static dielectric constant tensor:
#      x y z
#    x 3.094170 0.000000 0.000000 
#    y 0.000000 3.406400 0.000000 
#    z 0.000000 0.000000 2.635300 
# 
# 
# High freq. dielectric constant tensor:
#      x y z
#    x 1.599370 0.000000 0.000000 
#    y 0.000000 1.621040 0.000000 
#    z 0.000000 0.000000 1.571140 
# 
# From -- ./inp_files/6835.got.cif
#   From: 2010.03.12/outbox.cif.g09.slc.cpg/sg47_4_cif.got.tgz:6835.got - 2010.04.14 03:12:58.
