data_PCOD8199447
_publ_section_title
;
Structure prediction by ZEFSAII (Michael W. Deem and Ramdas Pophale) SiO2 
 PCOD8199447
Probable space group: P M M M
;
_chemical_formula_sum "Si O2"
_cell_formula_units_Z 44
_cell_length_a 28.272852
_cell_length_b 9.029779
_cell_length_c 9.559916
_cell_angle_alpha 90.000000
_cell_angle_beta 90.000000
_cell_angle_gamma 90.000000
_cell_volume 2440.623661
_symmetry_space_group_name_H-M "P M M M"
_symmetry_group_IT_number 47
_symmetry_cell_setting 'orthorhombic'
loop_
_space_group_symop_operation_xyz
x,y,z
-x,-y,z
x,-y,-z
-x,y,-z
-x,-y,-z
x,y,-z
-x,y,z
x,-y,z
loop_
_atom_site_type_symbol
_atom_site_label
_atom_site_fract_x
_atom_site_fract_y
_atom_site_fract_z
Si Si1 0.685270 0.672234 0.837750
Si Si2 0.500000 0.823993 0.658582
Si Si3 0.861671 0.327454 0.338029
Si Si4 0.947926 0.676024 0.842690
Si Si5 0.411756 0.827573 0.161106
Si Si6 0.233942 0.173018 0.337335
O O1 0.686189 0.500000 0.800853
O O2 0.634318 0.735879 0.796560
O O3 0.724055 0.754779 0.747787
O O4 0.696133 0.701955 0.000000
O O5 0.500000 0.761735 0.500000
O O6 0.546247 0.767326 0.740639
O O7 0.500000 0.000000 0.658617
O O8 0.871288 0.298078 0.500000
O O9 0.853847 0.500000 0.305348
O O10 0.907060 0.260809 0.257427
O O11 0.815410 0.241757 0.285291
O O12 0.947460 0.500000 0.836365
O O13 0.000000 0.732731 0.794249
O O14 0.937678 0.730689 0.000000
O O15 0.401235 0.000000 0.188118
O O16 0.426218 0.800256 0.000000
O O17 0.242033 0.208606 0.500000
O O18 0.232916 0.000000 0.306517
#
# Coordination Sequence:
#
# PCOD8199447 Si02
#       6
#     8   4   8   8   8   8
#     4  10  21  36  54  77 103 131 166 208 253 300
#     4   9  17  29  48  75 102 128 164 207 244 283
#     4   9  17  29  46  69  96 125 159 200 244 290
#     4   8  14  25  42  66  95 124 155 194 240 288
#     4   9  17  31  51  73  99 132 167 202 243 291
#     4  10  21  36  53  73  99 132 168 206 250 300
#
# _framework density 18.028179000000002
#
# number of rings (size 3 to 8) (size 9 to 14) (size 15 to 20)
#    0.000    2.818    0.000    1.909    0.000    5.091 
#    0.000    5.909    0.000    3.273    0.000    3.818 
#    0.000    0.000    0.000    0.000    0.000    0.000 
#
# Total GULP energy -545581.962557 kJ/mol
# GULP energy per Si atom -12399.590058 kJ/mol
# Density = 1.798715 g / cm^3
# Si number density = 18.028179 Si / 1000 Ang^3
#
#
#
# Elastic Constant Matrix: (Units=GPa)
#
#
# Indices 1 2 3 4 5 6 
#
# 1 176.8018 53.1781 93.2949 0.0000 0.0000 0.0000
# 2 53.1781 51.7009 37.7753 0.0000 0.0000 0.0000
# 3 93.2949 37.7753 90.1235 0.0000 0.0000 0.0000
# 4 0.0000 0.0000 0.0000 18.7666 0.0000 0.0000
# 5 0.0000 0.0000 0.0000 0.0000 35.7707 0.0000
# 6 0.0000 0.0000 0.0000 0.0000 0.0000 45.2340
#
#
#
# Elastic Compliance Matrix: (Units=1/GPa)
#
#
# Indices 1 2 3 4 5 6 
#
# 1 0.013387 -0.005253 -0.011656 0.000000 0.000000 0.000000
# 2 -0.005253 0.029941 -0.007113 0.000000 0.000000 0.000000
# 3 -0.011656 -0.007113 0.026143 0.000000 0.000000 0.000000
# 4 0.000000 0.000000 0.000000 0.053286 0.000000 0.000000
# 5 0.000000 0.000000 0.000000 0.000000 0.027956 0.000000
# 6 0.000000 0.000000 0.000000 0.000000 0.000000 0.022107
#
#
# Mechanical properties :
#
#
# Convention : Reuss Voigt Hill
#
# Bulk Modulus (GPa) = 46.66568 76.34698 61.50633
# Shear Modulus (GPa) = 21.92924 28.91278 25.42101
#
# Velocity S-wave (km/s) = 3.49146 4.00904 3.75916
# Velocity P-wave (km/s) = 6.49575 7.99190 7.28235
#
# Compressibility (1/GPa) = 0.02142903
#
# Stress axis : x y z
#
# Youngs Moduli (GPa) = 74.70172 33.39849 38.25064
#
# Poissons Ratio (x) = 0.17543 0.44585
# Poissons Ratio (y) = 0.39237 0.27206
# Poissons Ratio (z) = 0.87073 0.23755
#
# Static dielectric constant tensor:
#      x y z
#    x 3.645830 0.000000 0.000000 
#    y 0.000000 3.089710 0.000000 
#    z 0.000000 0.000000 3.399700 
# 
# 
# High freq. dielectric constant tensor:
#      x y z
#    x 1.712490 0.000000 0.000000 
#    y 0.000000 1.669030 0.000000 
#    z 0.000000 0.000000 1.694440 
# 
# From -- ./inp_files/13554.got.cif
#   From: 2010.03.12/outbox.cif.g09.slc.cpg/sg47_7_cif.got.tgz:13554.got - 2010.04.14 03:12:58.
