data_PCOD8199025
_publ_section_title
;
Structure prediction by ZEFSAII (Michael W. Deem and Ramdas Pophale) SiO2 
 PCOD8199025
Probable space group: P M M M
;
_chemical_formula_sum "Si O2"
_cell_formula_units_Z 56
_cell_length_a 13.622683
_cell_length_b 15.572278
_cell_length_c 14.936241
_cell_angle_alpha 90.000000
_cell_angle_beta 90.000000
_cell_angle_gamma 90.000000
_cell_volume 3168.517509
_symmetry_space_group_name_H-M "P M M M"
_symmetry_group_IT_number 47
_symmetry_cell_setting 'orthorhombic'
loop_
_space_group_symop_operation_xyz
x,y,z
-x,-y,z
x,-y,-z
-x,y,-z
-x,-y,-z
x,y,-z
-x,y,z
x,-y,z
loop_
_atom_site_type_symbol
_atom_site_label
_atom_site_fract_x
_atom_site_fract_y
_atom_site_fract_z
Si Si1 0.386608 0.699021 0.101419
Si Si2 0.309235 0.750815 0.716063
Si Si3 0.116045 0.093907 0.900934
Si Si4 0.615812 0.404530 0.400214
Si Si5 0.385694 0.902743 0.398198
Si Si6 0.198127 0.594221 0.102091
Si Si7 0.887825 0.257140 0.210465
O O1 0.500000 0.670570 0.115135
O O2 0.353158 0.762300 0.182529
O O3 0.313411 0.618222 0.111335
O O4 0.374254 0.739059 0.000000
O O5 0.353911 0.666868 0.670711
O O6 0.327987 0.838469 0.664715
O O7 0.191568 0.734692 0.710648
O O8 0.150626 0.171186 0.838881
O O9 0.000000 0.097383 0.908122
O O10 0.148987 0.000000 0.863095
O O11 0.161209 0.107040 0.000000
O O12 0.655402 0.381205 0.500000
O O13 0.500000 0.406399 0.403065
O O14 0.654561 0.500000 0.372525
O O15 0.350630 0.889356 0.500000
O O16 0.500000 0.881885 0.390458
O O17 0.363619 0.000000 0.367346
O O18 0.184730 0.500000 0.145563
O O19 0.123127 0.660415 0.147331
O O20 0.165672 0.592209 0.000000
O O21 0.000000 0.250275 0.245300
#
# Coordination Sequence:
#
# PCOD8199025 Si02
#       7
#     8   8   8   8   8   8   8
#     4   9  18  31  46  68 101 138 172 205 241 287
#     4  11  20  31  52  74  98 136 174 203 241 294
#     4   8  14  27  48  68  83 107 151 209 266 302
#     4   9  18  33  55  83 106 119 143 195 260 315
#     4   9  18  33  55  84 111 129 152 194 248 305
#     4   9  18  31  46  65  89 123 170 216 256 298
#     4  10  21  33  44  64  95 129 167 212 252 284
#
# _framework density 17.67388
#
# number of rings (size 3 to 8) (size 9 to 14) (size 15 to 20)
#    0.000    2.714    0.000    3.429    0.000    6.000 
#    0.000    2.143    0.000    2.143    0.000    4.000 
#    0.000    0.000    0.000    0.000    0.000    0.286 
#
# Total GULP energy -693747.815874 kJ/mol
# GULP energy per Si atom -12388.353855 kJ/mol
# Density = 1.763365 g / cm^3
# Si number density = 17.673880 Si / 1000 Ang^3
#
#
#
# Elastic Constant Matrix: (Units=GPa)
#
#
# Indices 1 2 3 4 5 6 
#
# 1 72.1224 26.5026 29.1816 0.0000 0.0000 0.0000
# 2 26.5026 110.2470 42.3644 0.0000 0.0000 0.0000
# 3 29.1816 42.3644 78.5255 0.0000 0.0000 0.0000
# 4 0.0000 0.0000 0.0000 13.7465 0.0000 0.0000
# 5 0.0000 0.0000 0.0000 0.0000 12.6546 0.0000
# 6 0.0000 0.0000 0.0000 0.0000 0.0000 19.5697
#
#
#
# Elastic Compliance Matrix: (Units=1/GPa)
#
#
# Indices 1 2 3 4 5 6 
#
# 1 0.016680 -0.002053 -0.005091 0.000000 0.000000 0.000000
# 2 -0.002053 0.011696 -0.005547 0.000000 0.000000 0.000000
# 3 -0.005091 -0.005547 0.017619 0.000000 0.000000 0.000000
# 4 0.000000 0.000000 0.000000 0.072746 0.000000 0.000000
# 5 0.000000 0.000000 0.000000 0.000000 0.079023 0.000000
# 6 0.000000 0.000000 0.000000 0.000000 0.000000 0.051100
#
#
# Mechanical properties :
#
#
# Convention : Reuss Voigt Hill
#
# Bulk Modulus (GPa) = 48.51399 50.77689 49.64544
# Shear Modulus (GPa) = 17.78633 20.05056 18.91844
#
# Velocity S-wave (km/s) = 3.17576 3.37185 3.27527
# Velocity P-wave (km/s) = 6.39972 6.62959 6.51567
#
# Compressibility (1/GPa) = 0.02061261
#
# Stress axis : x y z
#
# Youngs Moduli (GPa) = 59.95336 85.50240 56.75724
#
# Poissons Ratio (x) = 0.17558 0.28893
# Poissons Ratio (y) = 0.12311 0.31481
# Poissons Ratio (z) = 0.30520 0.47425
#
# Static dielectric constant tensor:
#      x y z
#    x 3.072270 0.000000 0.000000 
#    y 0.000000 3.542550 0.000000 
#    z 0.000000 0.000000 3.460510 
# 
# 
# High freq. dielectric constant tensor:
#      x y z
#    x 1.661290 0.000000 0.000000 
#    y 0.000000 1.685860 0.000000 
#    z 0.000000 0.000000 1.667170 
# 
# From -- ./inp_files/23861.got.cif
#   From: 2010.03.12/outbox.cif.g09.slc.cpg/sg47_12_cif.got.tgz:23861.got - 2010.04.14 03:12:58.
