data_PCOD8199424
_publ_section_title
;
Structure prediction by ZEFSAII (Michael W. Deem and Ramdas Pophale) SiO2 
 PCOD8199424
Probable space group: P M M M
;
_chemical_formula_sum "Si O2"
_cell_formula_units_Z 64
_cell_length_a 9.618699
_cell_length_b 15.449927
_cell_length_c 24.713443
_cell_angle_alpha 90.000000
_cell_angle_beta 90.000000
_cell_angle_gamma 90.000000
_cell_volume 3672.620215
_symmetry_space_group_name_H-M "P M M M"
_symmetry_group_IT_number 47
_symmetry_cell_setting 'orthorhombic'
loop_
_space_group_symop_operation_xyz
x,y,z
-x,-y,z
x,-y,-z
-x,y,-z
-x,-y,-z
x,y,-z
-x,y,z
x,-y,z
loop_
_atom_site_type_symbol
_atom_site_label
_atom_site_fract_x
_atom_site_fract_y
_atom_site_fract_z
Si Si1 0.343606 0.144182 0.285790
Si Si2 0.662247 0.725142 0.437833
Si Si3 0.661616 0.096614 0.166597
Si Si4 0.157110 0.702898 0.265130
Si Si5 0.834921 0.403651 0.060900
Si Si6 0.339573 0.091352 0.402657
Si Si7 0.840378 0.402090 0.365367
Si Si8 0.835752 0.738178 0.855023
O O1 0.500000 0.179494 0.282451
O O2 0.306035 0.093865 0.230752
O O3 0.247967 0.226440 0.295250
O O4 0.322344 0.084370 0.337778
O O5 0.683549 0.699620 0.500000
O O6 0.500000 0.722550 0.421168
O O7 0.726779 0.821535 0.427647
O O8 0.743262 0.657127 0.401669
O O9 0.500000 0.118175 0.155364
O O10 0.756419 0.169958 0.138210
O O11 0.697803 0.000000 0.144253
O O12 0.176091 0.616238 0.300747
O O13 0.200921 0.692547 0.202355
O O14 0.000000 0.736646 0.266797
O O15 0.781286 0.500000 0.077755
O O16 0.777067 0.329052 0.100444
O O17 0.000000 0.403728 0.063999
O O18 0.784988 0.382298 0.000000
O O19 0.500000 0.093448 0.419335
O O20 0.274744 0.000000 0.425038
O O21 0.793741 0.500000 0.375322
O O22 0.000000 0.386863 0.382853
O O23 0.000000 0.755639 0.861870
#
# Coordination Sequence:
#
# PCOD8199424 Si02
#       8
#     8   8   8   8   8   8   8   8
#     4   9  15  26  46  68  91 121 156 188 222 271
#     4  10  21  36  53  73  95 119 152 197 241 278
#     4   9  17  28  43  66  97 131 164 196 232 278
#     4   9  17  29  45  68  98 124 149 186 233 278
#     4   8  14  26  46  72  99 126 159 200 243 286
#     4   9  16  27  47  73  96 118 147 184 227 276
#     4  10  21  36  53  71  93 124 158 190 231 286
#     4   9  17  28  46  73 100 126 158 197 239 281
#
# _framework density 17.426248999999999
#
# number of rings (size 3 to 8) (size 9 to 14) (size 15 to 20)
#    0.000    2.875    1.250    0.750    0.000    3.250 
#    0.000    5.000    0.000    3.375    0.000    7.875 
#    0.000    0.000    0.000    0.000    0.000    0.000 
#
# Total GULP energy -792960.884378 kJ/mol
# GULP energy per Si atom -12390.013818 kJ/mol
# Density = 1.738659 g / cm^3
# Si number density = 17.426249 Si / 1000 Ang^3
#
#
#
# Elastic Constant Matrix: (Units=GPa)
#
#
# Indices 1 2 3 4 5 6 
#
# 1 41.5124 47.8003 28.5883 0.0000 0.0000 0.0000
# 2 47.8003 152.4621 65.0136 0.0000 0.0000 0.0000
# 3 28.5883 65.0136 76.6916 0.0000 0.0000 0.0000
# 4 0.0000 0.0000 0.0000 17.4589 0.0000 0.0000
# 5 0.0000 0.0000 0.0000 0.0000 15.7231 0.0000
# 6 0.0000 0.0000 0.0000 0.0000 0.0000 21.8824
#
#
#
# Elastic Compliance Matrix: (Units=1/GPa)
#
#
# Indices 1 2 3 4 5 6 
#
# 1 0.039760 -0.009625 -0.006662 0.000000 0.000000 0.000000
# 2 -0.009625 0.012602 -0.007095 0.000000 0.000000 0.000000
# 3 -0.006662 -0.007095 0.021538 0.000000 0.000000 0.000000
# 4 0.000000 0.000000 0.000000 0.057277 0.000000 0.000000
# 5 0.000000 0.000000 0.000000 0.000000 0.063601 0.000000
# 6 0.000000 0.000000 0.000000 0.000000 0.000000 0.045699
#
#
# Mechanical properties :
#
#
# Convention : Reuss Voigt Hill
#
# Bulk Modulus (GPa) = 36.85258 61.49671 49.17465
# Shear Modulus (GPa) = 16.87558 19.63048 18.25303
#
# Velocity S-wave (km/s) = 3.11529 3.35996 3.23994
# Velocity P-wave (km/s) = 5.84240 7.10062 6.50202
#
# Compressibility (1/GPa) = 0.02713514
#
# Stress axis : x y z
#
# Youngs Moduli (GPa) = 25.15110 79.35088 46.43017
#
# Poissons Ratio (x) = 0.76373 0.30932
# Poissons Ratio (y) = 0.24207 0.32945
# Poissons Ratio (z) = 0.16756 0.56303
#
# Static dielectric constant tensor:
#      x y z
#    x 2.999700 0.000000 0.000000 
#    y 0.000000 3.429340 0.000000 
#    z 0.000000 0.000000 3.228980 
# 
# 
# High freq. dielectric constant tensor:
#      x y z
#    x 1.638720 0.000000 0.000000 
#    y 0.000000 1.676030 0.000000 
#    z 0.000000 0.000000 1.660300 
# 
# From -- ./inp_files/33722.got.cif
#   From: 2010.03.12/outbox.cif.g09.slc.cpg/sg47_17_cif.got.tgz:33722.got - 2010.04.14 03:12:58.
