data_PCOD8199338
_publ_section_title
;
Structure prediction by ZEFSAII (Michael W. Deem and Ramdas Pophale) SiO2 
 PCOD8199338
Probable space group: P M M M
;
_chemical_formula_sum "Si O2"
_cell_formula_units_Z 56
_cell_length_a 19.633498
_cell_length_b 15.340936
_cell_length_c 9.584354
_cell_angle_alpha 90.000000
_cell_angle_beta 90.000000
_cell_angle_gamma 90.000000
_cell_volume 2886.771352
_symmetry_space_group_name_H-M "P M M M"
_symmetry_group_IT_number 47
_symmetry_cell_setting 'orthorhombic'
loop_
_space_group_symop_operation_xyz
x,y,z
-x,-y,z
x,-y,-z
-x,y,-z
-x,-y,-z
x,y,-z
-x,y,z
x,-y,z
loop_
_atom_site_type_symbol
_atom_site_label
_atom_site_fract_x
_atom_site_fract_y
_atom_site_fract_z
Si Si1 0.303698 0.399282 0.349548
Si Si2 0.576532 0.140464 0.844428
Si Si3 0.301163 0.099109 0.346727
Si Si4 0.078811 0.744474 0.839259
Si Si5 0.153995 0.600788 0.334889
Si Si6 0.574945 0.346074 0.156505
Si Si7 0.177926 0.101030 0.161477
O O1 0.321011 0.355462 0.500000
O O2 0.292275 0.500000 0.375135
O O3 0.230488 0.366001 0.293376
O O4 0.365418 0.386047 0.246116
O O5 0.500000 0.109478 0.808313
O O6 0.626169 0.102786 0.728509
O O7 0.581350 0.243447 0.841148
O O8 0.596364 0.107092 0.000000
O O9 0.304165 0.145310 0.500000
O O10 0.241813 0.138783 0.250097
O O11 0.281831 0.000000 0.370377
O O12 0.102540 0.663264 0.746286
O O13 0.115136 0.836036 0.800884
O O14 0.000000 0.760893 0.808956
O O15 0.092609 0.719914 0.000000
O O16 0.142667 0.611204 0.500000
O O17 0.141087 0.500000 0.290196
O O18 0.500000 0.374023 0.213687
O O19 0.583444 0.381728 0.000000
O O20 0.159198 0.000000 0.196904
O O21 0.198763 0.108890 0.000000
#
# Coordination Sequence:
#
# PCOD8199338 Si02
#       7
#     8   8   8   8   8   8   8
#     4   9  19  35  53  75 103 136 177 222 267 317
#     4   9  19  35  52  72 102 140 180 221 267 321
#     4  10  21  35  52  77 107 138 176 224 273 318
#     4  10  22  38  58  88 118 144 181 227 275 326
#     4   9  20  39  59  81 113 151 189 228 273 330
#     4   9  19  34  50  72 103 137 175 220 268 318
#     4   9  19  37  59  82 112 150 187 223 269 330
#
# _framework density 19.398835999999999
#
# number of rings (size 3 to 8) (size 9 to 14) (size 15 to 20)
#    0.000    2.714    0.000    2.143    2.000    5.143 
#    0.000    8.571    0.000    0.000    0.000    3.000 
#    0.000    0.000    0.000    0.000    0.000    0.000 
#
# Total GULP energy -694013.266296 kJ/mol
# GULP energy per Si atom -12393.094041 kJ/mol
# Density = 1.935468 g / cm^3
# Si number density = 19.398836 Si / 1000 Ang^3
#
#
#
# Elastic Constant Matrix: (Units=GPa)
#
#
# Indices 1 2 3 4 5 6 
#
# 1 142.9350 42.1343 74.4641 0.0000 0.0000 0.0000
# 2 42.1343 65.4109 36.7346 0.0000 0.0000 0.0000
# 3 74.4641 36.7346 101.2824 0.0000 0.0000 0.0000
# 4 0.0000 0.0000 0.0000 28.1220 0.0000 0.0000
# 5 0.0000 0.0000 0.0000 0.0000 17.6683 0.0000
# 6 0.0000 0.0000 0.0000 0.0000 0.0000 21.9706
#
#
#
# Elastic Compliance Matrix: (Units=1/GPa)
#
#
# Indices 1 2 3 4 5 6 
#
# 1 0.011934 -0.003466 -0.007517 0.000000 0.000000 0.000000
# 2 -0.003466 0.020205 -0.004780 0.000000 0.000000 0.000000
# 3 -0.007517 -0.004780 0.017134 0.000000 0.000000 0.000000
# 4 0.000000 0.000000 0.000000 0.035559 0.000000 0.000000
# 5 0.000000 0.000000 0.000000 0.000000 0.056599 0.000000
# 6 0.000000 0.000000 0.000000 0.000000 0.000000 0.045515
#
#
# Mechanical properties :
#
#
# Convention : Reuss Voigt Hill
#
# Bulk Modulus (GPa) = 56.34810 68.47715 62.41262
# Shear Modulus (GPa) = 22.28292 23.97185 23.12739
#
# Velocity S-wave (km/s) = 3.39288 3.51912 3.45658
# Velocity P-wave (km/s) = 6.66777 7.20337 6.94074
#
# Compressibility (1/GPa) = 0.01774683
#
# Stress axis : x y z
#
# Youngs Moduli (GPa) = 83.79516 49.49280 58.36451
#
# Poissons Ratio (x) = 0.17153 0.43872
# Poissons Ratio (y) = 0.29041 0.27899
# Poissons Ratio (z) = 0.62988 0.23659
#
# Static dielectric constant tensor:
#      x y z
#    x 3.906790 0.000000 0.000000 
#    y 0.000000 3.428410 0.000000 
#    z 0.000000 0.000000 2.499100 
# 
# 
# High freq. dielectric constant tensor:
#      x y z
#    x 1.755320 0.000000 0.000000 
#    y 0.000000 1.748890 0.000000 
#    z 0.000000 0.000000 1.750890 
# 
# From -- ./inp_files/7345.got.cif
#   From: 2010.03.12/outbox.cif.g09.slc.cpg/sg47_4_cif.got.tgz:7345.got - 2010.04.14 03:12:58.
