data_PCOD8199287
_publ_section_title
;
Structure prediction by ZEFSAII (Michael W. Deem and Ramdas Pophale) SiO2 
 PCOD8199287
Probable space group: P M M M
;
_chemical_formula_sum "Si O2"
_cell_formula_units_Z 56
_cell_length_a 19.855308
_cell_length_b 8.864098
_cell_length_c 15.525387
_cell_angle_alpha 90.000000
_cell_angle_beta 90.000000
_cell_angle_gamma 90.000000
_cell_volume 2732.458734
_symmetry_space_group_name_H-M "P M M M"
_symmetry_group_IT_number 47
_symmetry_cell_setting 'orthorhombic'
loop_
_space_group_symop_operation_xyz
x,y,z
-x,-y,z
x,-y,-z
-x,y,-z
-x,-y,-z
x,y,-z
-x,y,z
x,-y,z
loop_
_atom_site_type_symbol
_atom_site_label
_atom_site_fract_x
_atom_site_fract_y
_atom_site_fract_z
Si Si1 0.920684 0.326702 0.745394
Si Si2 0.287609 0.666348 0.099371
Si Si3 0.425768 0.173524 0.657580
Si Si4 0.166460 0.822266 0.600654
Si Si5 0.700122 0.664854 0.402657
Si Si6 0.572401 0.321631 0.160699
Si Si7 0.153827 0.177293 0.100130
O O1 0.897320 0.500000 0.743466
O O2 0.891531 0.243169 0.661497
O O3 0.899334 0.256100 0.837084
O O4 0.000000 0.310093 0.738668
O O5 0.283310 0.500000 0.144054
O O6 0.361090 0.743513 0.114035
O O7 0.228292 0.774001 0.133226
O O8 0.276394 0.643865 0.000000
O O9 0.500000 0.189767 0.614095
O O10 0.367847 0.236422 0.596351
O O11 0.422375 0.275695 0.741160
O O12 0.411516 0.000000 0.680992
O O13 0.152345 0.781385 0.500000
O O14 0.237025 0.755306 0.637423
O O15 0.169911 0.000000 0.612832
O O16 0.719858 0.636237 0.500000
O O17 0.690831 0.500000 0.357264
O O18 0.500000 0.261391 0.122840
O O19 0.572991 0.500000 0.151207
O O20 0.147398 0.000000 0.111434
O O21 0.140374 0.223680 0.000000
#
# Coordination Sequence:
#
# PCOD8199287 Si02
#       7
#     8   8   8   8   8   8   8
#     4  11  25  43  65  94 125 160 200 240 291 357
#     4   9  18  33  54  80 110 146 189 238 292 349
#     4  10  21  35  51  74 107 148 192 239 292 347
#     4  10  22  41  65  93 125 160 199 245 295 350
#     4  10  21  37  58  83 111 146 189 237 290 348
#     4   9  18  32  50  74 106 145 189 238 291 345
#     4  10  22  40  62  89 122 160 202 250 302 356
#
# _framework density 20.494361999999999
#
# number of rings (size 3 to 8) (size 9 to 14) (size 15 to 20)
#    0.000    2.143    0.000    2.143    2.000    6.286 
#    0.000    5.714    0.000    0.000    0.000    4.000 
#    0.000    0.000    0.000    0.000    0.000    0.000 
#
# Total GULP energy -693930.659408 kJ/mol
# GULP energy per Si atom -12391.618918 kJ/mol
# Density = 2.044772 g / cm^3
# Si number density = 20.494362 Si / 1000 Ang^3
#
#
#
# Elastic Constant Matrix: (Units=GPa)
#
#
# Indices 1 2 3 4 5 6 
#
# 1 125.6954 52.8397 41.5687 0.0000 0.0000 0.0000
# 2 52.8397 67.5191 34.1739 0.0000 0.0000 0.0000
# 3 41.5687 34.1739 68.4392 0.0000 0.0000 0.0000
# 4 0.0000 0.0000 0.0000 25.2579 0.0000 0.0000
# 5 0.0000 0.0000 0.0000 0.0000 27.6378 0.0000
# 6 0.0000 0.0000 0.0000 0.0000 0.0000 28.9971
#
#
#
# Elastic Compliance Matrix: (Units=1/GPa)
#
#
# Indices 1 2 3 4 5 6 
#
# 1 0.012493 -0.007944 -0.003621 0.000000 0.000000 0.000000
# 2 -0.007944 0.024871 -0.007594 0.000000 0.000000 0.000000
# 3 -0.003621 -0.007594 0.020603 0.000000 0.000000 0.000000
# 4 0.000000 0.000000 0.000000 0.039592 0.000000 0.000000
# 5 0.000000 0.000000 0.000000 0.000000 0.036182 0.000000
# 6 0.000000 0.000000 0.000000 0.000000 0.000000 0.034486
#
#
# Mechanical properties :
#
#
# Convention : Reuss Voigt Hill
#
# Bulk Modulus (GPa) = 50.89434 57.64646 54.27040
# Shear Modulus (GPa) = 23.46378 25.24997 24.35688
#
# Velocity S-wave (km/s) = 3.38729 3.51386 3.45116
# Velocity P-wave (km/s) = 6.33921 6.68221 6.51297
#
# Compressibility (1/GPa) = 0.01964855
#
# Stress axis : x y z
#
# Youngs Moduli (GPa) = 80.04647 40.20752 48.53686
#
# Poissons Ratio (x) = 0.31940 0.17576
# Poissons Ratio (y) = 0.63588 0.36859
# Poissons Ratio (z) = 0.28987 0.30533
#
# Static dielectric constant tensor:
#      x y z
#    x 3.978100 0.000000 0.000000 
#    y 0.000000 3.985990 0.000000 
#    z 0.000000 0.000000 3.516850 
# 
# 
# High freq. dielectric constant tensor:
#      x y z
#    x 1.811390 0.000000 0.000000 
#    y 0.000000 1.802720 0.000000 
#    z 0.000000 0.000000 1.785130 
# 
# From -- ./inp_files/11266.got.cif
#   From: 2010.03.12/outbox.cif.g09.slc.cpg/sg47_6_cif.got.tgz:11266.got - 2010.04.14 03:12:58.
