data_PCOD8199121
_publ_section_title
;
Structure prediction by ZEFSAII (Michael W. Deem and Ramdas Pophale) SiO2 
 PCOD8199121
Probable space group: P M M M
;
_chemical_formula_sum "Si O2"
_cell_formula_units_Z 36
_cell_length_a 9.146943
_cell_length_b 7.891237
_cell_length_c 24.840117
_cell_angle_alpha 90.000000
_cell_angle_beta 90.000000
_cell_angle_gamma 90.000000
_cell_volume 1792.976910
_symmetry_space_group_name_H-M "P M M M"
_symmetry_group_IT_number 47
_symmetry_cell_setting 'orthorhombic'
loop_
_space_group_symop_operation_xyz
x,y,z
-x,-y,z
x,-y,-z
-x,y,-z
-x,-y,-z
x,y,-z
-x,y,z
x,-y,z
loop_
_atom_site_type_symbol
_atom_site_label
_atom_site_fract_x
_atom_site_fract_y
_atom_site_fract_z
Si Si1 0.168265 0.500000 0.563624
Si Si2 0.162275 0.194418 0.727773
Si Si3 0.327308 0.800204 0.376736
Si Si4 0.331957 0.802956 0.940639
Si Si5 0.160152 0.307499 0.159968
O O1 0.174176 0.500000 0.500000
O O2 0.247732 0.325872 0.581828
O O3 0.000000 0.500000 0.584198
O O4 0.272138 0.262233 0.682182
O O5 0.231857 0.218985 0.787533
O O6 0.000000 0.281570 0.724876
O O7 0.141180 0.000000 0.715832
O O8 0.500000 0.770753 0.379875
O O9 0.290629 0.000000 0.388676
O O10 0.500000 0.751102 0.938764
O O11 0.252606 0.702321 0.894076
O O12 0.310565 0.000000 0.929469
O O13 0.269041 0.755680 0.000000
O O14 0.145260 0.500000 0.176535
O O15 0.000000 0.226919 0.148843
#
# Coordination Sequence:
#
# PCOD8199121 Si02
#       5
#     4   8   8   8   8
#     4  11  25  43  65  93 125 165 210 253 296 349
#     4   9  18  34  56  81 111 149 191 234 282 339
#     4  10  22  40  63  93 127 162 202 251 306 360
#     4   9  19  36  55  73  96 132 180 231 281 335
#     4  10  21  34  50  78 112 143 178 223 276 334
#
# _framework density 20.078339
#
# number of rings (size 3 to 8) (size 9 to 14) (size 15 to 20)
#    0.000    2.333    0.000    2.333    1.556    6.222 
#    0.000    7.778    0.000    0.000    0.000    0.000 
#    0.000    0.000    0.000    0.000    0.000    0.000 
#
# Total GULP energy -446094.379959 kJ/mol
# GULP energy per Si atom -12391.510554 kJ/mol
# Density = 2.003264 g / cm^3
# Si number density = 20.078339 Si / 1000 Ang^3
#
#
#
# Elastic Constant Matrix: (Units=GPa)
#
#
# Indices 1 2 3 4 5 6 
#
# 1 92.9287 44.8239 54.9926 0.0000 0.0000 0.0000
# 2 44.8239 67.7610 39.0772 0.0000 0.0000 0.0000
# 3 54.9926 39.0772 126.7134 0.0000 0.0000 0.0000
# 4 0.0000 0.0000 0.0000 31.2049 0.0000 0.0000
# 5 0.0000 0.0000 0.0000 0.0000 16.7861 0.0000
# 6 0.0000 0.0000 0.0000 0.0000 0.0000 25.6364
#
#
#
# Elastic Compliance Matrix: (Units=1/GPa)
#
#
# Indices 1 2 3 4 5 6 
#
# 1 0.018141 -0.009073 -0.005075 0.000000 0.000000 0.000000
# 2 -0.009073 0.022488 -0.002997 0.000000 0.000000 0.000000
# 3 -0.005075 -0.002997 0.011019 0.000000 0.000000 0.000000
# 4 0.000000 0.000000 0.000000 0.032046 0.000000 0.000000
# 5 0.000000 0.000000 0.000000 0.000000 0.059573 0.000000
# 6 0.000000 0.000000 0.000000 0.000000 0.000000 0.039007
#
#
# Mechanical properties :
#
#
# Convention : Reuss Voigt Hill
#
# Bulk Modulus (GPa) = 57.61548 62.79895 60.20721
# Shear Modulus (GPa) = 22.48701 24.62611 23.55656
#
# Velocity S-wave (km/s) = 3.35022 3.50594 3.42896
# Velocity P-wave (km/s) = 6.61233 6.90896 6.76227
#
# Compressibility (1/GPa) = 0.01735645
#
# Stress axis : x y z
#
# Youngs Moduli (GPa) = 55.12508 44.46731 90.75591
#
# Poissons Ratio (x) = 0.40347 0.46056
# Poissons Ratio (y) = 0.50018 0.27203
# Poissons Ratio (z) = 0.27974 0.13329
#
# Static dielectric constant tensor:
#      x y z
#    x 3.769110 0.000000 0.000000 
#    y 0.000000 3.561990 0.000000 
#    z 0.000000 0.000000 3.647080 
# 
# 
# High freq. dielectric constant tensor:
#      x y z
#    x 1.771750 0.000000 0.000000 
#    y 0.000000 1.780470 0.000000 
#    z 0.000000 0.000000 1.790470 
# 
# From -- ./inp_files/31650.got.cif
#   From: 2010.03.12/outbox.cif.g09.slc.cpg/sg47_16_cif.got.tgz:31650.got - 2010.04.14 03:12:58.
