data_PCOD8199615
_publ_section_title
;
Structure prediction by ZEFSAII (Michael W. Deem and Ramdas Pophale) SiO2 
 PCOD8199615
Probable space group: P M M M
;
_chemical_formula_sum "Si O2"
_cell_formula_units_Z 56
_cell_length_a 21.326165
_cell_length_b 15.083852
_cell_length_c 8.768043
_cell_angle_alpha 90.000000
_cell_angle_beta 90.000000
_cell_angle_gamma 90.000000
_cell_volume 2820.510355
_symmetry_space_group_name_H-M "P M M M"
_symmetry_group_IT_number 47
_symmetry_cell_setting 'orthorhombic'
loop_
_space_group_symop_operation_xyz
x,y,z
-x,-y,z
x,-y,-z
-x,y,-z
-x,-y,-z
x,y,-z
-x,y,z
x,-y,z
loop_
_atom_site_type_symbol
_atom_site_label
_atom_site_fract_x
_atom_site_fract_y
_atom_site_fract_z
Si Si1 0.120564 0.830668 0.670809
Si Si2 0.674133 0.763550 0.177470
Si Si3 0.000000 0.396649 0.331038
Si Si4 0.740746 0.400015 0.323930
Si Si5 0.429308 0.099725 0.818796
Si Si6 0.000000 0.102420 0.833179
Si Si7 0.868420 0.653152 0.178463
Si Si8 0.751499 0.097065 0.670691
O O1 0.109643 0.792975 0.500000
O O2 0.144831 0.754636 0.783477
O O3 0.173265 0.906243 0.669865
O O4 0.058236 0.872161 0.732980
O O5 0.689394 0.668971 0.255766
O O6 0.614128 0.819340 0.244322
O O7 0.731395 0.829906 0.206963
O O8 0.666127 0.743484 0.000000
O O9 0.063112 0.369801 0.243846
O O10 0.000000 0.500000 0.348270
O O11 0.000000 0.352848 0.500000
O O12 0.749857 0.374853 0.500000
O O13 0.713738 0.500000 0.304171
O O14 0.809668 0.400158 0.247820
O O15 0.500000 0.119352 0.763488
O O16 0.409198 0.000000 0.761719
O O17 0.425210 0.100214 0.000000
O O18 0.000000 0.000000 0.864421
O O19 0.000000 0.150562 0.000000
O O20 0.869366 0.634093 0.000000
O O21 0.727031 0.121276 0.500000
O O22 0.726921 0.000000 0.719610
#
# Coordination Sequence:
#
# PCOD8199615 Si02
#       8
#     8   8   4   8   8   4   8   8
#     4  11  22  38  58  77 104 145 190 230 279 348
#     4  11  21  34  58  90 120 153 195 244 294 339
#     4  11  24  41  60  81 107 143 184 228 291 368
#     4  11  24  42  62  83 113 156 201 244 298 364
#     4   8  15  30  54  88 130 169 200 232 278 339
#     4  11  24  39  54  75 105 141 186 242 295 340
#     4  12  24  39  60  86 113 141 183 243 304 354
#     4  10  21  36  55  80 113 153 192 232 281 340
#
# _framework density 19.854562999999999
#
# number of rings (size 3 to 8) (size 9 to 14) (size 15 to 20)
#    0.000    1.429    1.429    5.143    0.000    6.000 
#    0.000    0.000    0.000    2.143    0.000    8.000 
#    0.000    0.000    0.000    0.000    0.000    0.000 
#
# Total GULP energy -693924.146223 kJ/mol
# GULP energy per Si atom -12391.502611 kJ/mol
# Density = 1.980937 g / cm^3
# Si number density = 19.854563 Si / 1000 Ang^3
#
#
#
# Elastic Constant Matrix: (Units=GPa)
#
#
# Indices 1 2 3 4 5 6 
#
# 1 120.7981 51.5017 42.0522 0.0000 0.0000 0.0000
# 2 51.5017 120.9929 40.8908 0.0000 0.0000 0.0000
# 3 42.0522 40.8908 104.9575 0.0000 0.0000 0.0000
# 4 0.0000 0.0000 0.0000 10.6663 0.0000 0.0000
# 5 0.0000 0.0000 0.0000 0.0000 10.6075 0.0000
# 6 0.0000 0.0000 0.0000 0.0000 0.0000 60.1287
#
#
#
# Elastic Compliance Matrix: (Units=1/GPa)
#
#
# Indices 1 2 3 4 5 6 
#
# 1 0.010845 -0.003625 -0.002933 0.000000 0.000000 0.000000
# 2 -0.003625 0.010730 -0.002728 0.000000 0.000000 0.000000
# 3 -0.002933 -0.002728 0.011765 0.000000 0.000000 0.000000
# 4 0.000000 0.000000 0.000000 0.093754 0.000000 0.000000
# 5 0.000000 0.000000 0.000000 0.000000 0.094273 0.000000
# 6 0.000000 0.000000 0.000000 0.000000 0.000000 0.016631
#
#
# Mechanical properties :
#
#
# Convention : Reuss Voigt Hill
#
# Bulk Modulus (GPa) = 67.71050 68.40420 68.05735
# Shear Modulus (GPa) = 19.12103 30.43409 24.77756
#
# Velocity S-wave (km/s) = 3.10668 3.91941 3.53647
# Velocity P-wave (km/s) = 6.85900 7.41686 7.14338
#
# Compressibility (1/GPa) = 0.01476876
#
# Stress axis : x y z
#
# Youngs Moduli (GPa) = 92.21071 93.19763 84.99447
#
# Poissons Ratio (x) = 0.33784 0.24927
# Poissons Ratio (y) = 0.33426 0.23186
# Poissons Ratio (z) = 0.27043 0.25423
#
# Static dielectric constant tensor:
#      x y z
#    x 3.139050 0.000000 0.000000 
#    y 0.000000 3.807470 0.000000 
#    z 0.000000 0.000000 3.635350 
# 
# 
# High freq. dielectric constant tensor:
#      x y z
#    x 1.761610 0.000000 0.000000 
#    y 0.000000 1.775690 0.000000 
#    z 0.000000 0.000000 1.770390 
# 
# From -- ./inp_files/11296.got.cif
#   From: 2010.03.12/outbox.cif.g09.slc.cpg/sg47_6_cif.got.tgz:11296.got - 2010.04.14 03:12:58.
