data_PCOD8199335
_publ_section_title
;
Structure prediction by ZEFSAII (Michael W. Deem and Ramdas Pophale) SiO2 
 PCOD8199335
Probable space group: P M M M
;
_chemical_formula_sum "Si O2"
_cell_formula_units_Z 64
_cell_length_a 14.947394
_cell_length_b 24.458498
_cell_length_c 9.176079
_cell_angle_alpha 90.000000
_cell_angle_beta 90.000000
_cell_angle_gamma 90.000000
_cell_volume 3354.690120
_symmetry_space_group_name_H-M "P M M M"
_symmetry_group_IT_number 47
_symmetry_cell_setting 'orthorhombic'
loop_
_space_group_symop_operation_xyz
x,y,z
-x,-y,z
x,-y,-z
-x,y,-z
-x,-y,-z
x,y,-z
-x,y,z
x,-y,z
loop_
_atom_site_type_symbol
_atom_site_label
_atom_site_fract_x
_atom_site_fract_y
_atom_site_fract_z
Si Si1 0.741088 0.560646 0.672818
Si Si2 0.741721 0.063418 0.829827
Si Si3 0.606120 0.241839 0.164338
Si Si4 0.604696 0.865787 0.329804
Si Si5 0.898982 0.635596 0.328238
Si Si6 0.105992 0.740724 0.160881
Si Si7 0.603385 0.650877 0.329437
Si Si8 0.900522 0.139609 0.826688
O O1 0.739889 0.556490 0.500000
O O2 0.731517 0.500000 0.741470
O O3 0.835288 0.586475 0.725098
O O4 0.658598 0.598170 0.724991
O O5 0.655794 0.082814 0.739156
O O6 0.830333 0.094448 0.771853
O O7 0.757261 0.000000 0.799056
O O8 0.724445 0.075248 0.000000
O O9 0.500000 0.242227 0.164681
O O10 0.640635 0.189095 0.251866
O O11 0.640715 0.296506 0.243427
O O12 0.644214 0.239643 0.000000
O O13 0.625710 0.860984 0.500000
O O14 0.500000 0.875009 0.300728
O O15 0.895757 0.642192 0.500000
O O16 0.860172 0.692230 0.264497
O O17 0.000000 0.622999 0.274184
O O18 0.133910 0.800215 0.224520
O O19 0.000000 0.739765 0.150676
O O20 0.147468 0.731632 0.000000
O O21 0.617994 0.662359 0.500000
O O22 0.500000 0.639151 0.293638
O O23 0.000000 0.126502 0.763393
O O24 0.906530 0.139907 0.000000
#
# Coordination Sequence:
#
# PCOD8199335 Si02
#       8
#     8   8   8   8   8   8   8   8
#     4   9  18  31  46  67  94 124 164 208 241 277
#     4  10  21  35  52  77 106 136 174 216 254 296
#     4   9  17  31  53  79 104 128 157 198 250 305
#     4  10  21  37  56  76 101 135 172 211 256 305
#     4   9  17  29  46  68  93 120 152 195 244 288
#     4   8  14  27  48  71  95 124 156 191 236 291
#     4   9  17  30  49  72  98 127 158 195 241 292
#     4   8  15  30  52  77 104 133 166 205 249 299
#
# _framework density 19.077767999999999
#
# number of rings (size 3 to 8) (size 9 to 14) (size 15 to 20)
#    0.000    3.000    0.000    1.500    0.000    4.500 
#    0.000    8.750    0.000    2.625    0.000    4.375 
#    0.000    0.000    0.000    0.000    0.000    0.000 
#
# Total GULP energy -793387.908369 kJ/mol
# GULP energy per Si atom -12396.686068 kJ/mol
# Density = 1.903435 g / cm^3
# Si number density = 19.077768 Si / 1000 Ang^3
#
#
#
# Elastic Constant Matrix: (Units=GPa)
#
#
# Indices 1 2 3 4 5 6 
#
# 1 69.9010 42.7913 25.3577 0.0000 0.0000 0.0000
# 2 42.7913 136.6559 39.5832 0.0000 0.0000 0.0000
# 3 25.3577 39.5832 55.1065 0.0000 0.0000 0.0000
# 4 0.0000 0.0000 0.0000 25.4677 0.0000 0.0000
# 5 0.0000 0.0000 0.0000 0.0000 12.5589 0.0000
# 6 0.0000 0.0000 0.0000 0.0000 0.0000 33.1452
#
#
#
# Elastic Compliance Matrix: (Units=1/GPa)
#
#
# Indices 1 2 3 4 5 6 
#
# 1 0.018993 -0.004313 -0.005642 0.000000 0.000000 0.000000
# 2 -0.004313 0.010220 -0.005356 0.000000 0.000000 0.000000
# 3 -0.005642 -0.005356 0.024590 0.000000 0.000000 0.000000
# 4 0.000000 0.000000 0.000000 0.039265 0.000000 0.000000
# 5 0.000000 0.000000 0.000000 0.000000 0.079625 0.000000
# 6 0.000000 0.000000 0.000000 0.000000 0.000000 0.030170
#
#
# Mechanical properties :
#
#
# Convention : Reuss Voigt Hill
#
# Bulk Modulus (GPa) = 43.13894 53.01420 48.07657
# Shear Modulus (GPa) = 20.72868 24.49644 22.61256
#
# Velocity S-wave (km/s) = 3.29984 3.58722 3.44653
# Velocity P-wave (km/s) = 6.09753 6.70868 6.41039
#
# Compressibility (1/GPa) = 0.02318091
#
# Stress axis : x y z
#
# Youngs Moduli (GPa) = 52.65127 97.85065 40.66701
#
# Poissons Ratio (x) = 0.42205 0.22943
# Poissons Ratio (y) = 0.22709 0.21782
# Poissons Ratio (z) = 0.29703 0.52409
#
# Static dielectric constant tensor:
#      x y z
#    x 3.544360 0.000000 0.000000 
#    y 0.000000 3.735450 0.000000 
#    z 0.000000 0.000000 3.293540 
# 
# 
# High freq. dielectric constant tensor:
#      x y z
#    x 1.740350 0.000000 0.000000 
#    y 0.000000 1.742660 0.000000 
#    z 0.000000 0.000000 1.706870 
# 
# From -- ./inp_files/7776.got.cif
#   From: 2010.03.12/outbox.cif.g09.slc.cpg/sg47_4_cif.got.tgz:7776.got - 2010.04.14 03:12:58.
