data_PCOD8199976
_publ_section_title
;
Structure prediction by ZEFSAII (Michael W. Deem and Ramdas Pophale) SiO2 
 PCOD8199976
Probable space group: P M M M
;
_chemical_formula_sum "Si O2"
_cell_formula_units_Z 48
_cell_length_a 8.900888
_cell_length_b 17.255028
_cell_length_c 15.338678
_cell_angle_alpha 90.000000
_cell_angle_beta 90.000000
_cell_angle_gamma 90.000000
_cell_volume 2355.791960
_symmetry_space_group_name_H-M "P M M M"
_symmetry_group_IT_number 47
_symmetry_cell_setting 'orthorhombic'
loop_
_space_group_symop_operation_xyz
x,y,z
-x,-y,z
x,-y,-z
-x,y,-z
-x,-y,-z
x,y,-z
-x,y,z
x,-y,z
loop_
_atom_site_type_symbol
_atom_site_label
_atom_site_fract_x
_atom_site_fract_y
_atom_site_fract_z
Si Si1 0.324284 0.305079 0.400416
Si Si2 0.823673 0.695241 0.898466
Si Si3 0.835779 0.152562 0.399752
Si Si4 0.676865 0.000000 0.654831
Si Si5 0.675193 0.410416 0.240959
Si Si6 0.334199 0.150532 0.899558
Si Si7 0.177497 0.000000 0.840215
O O1 0.273593 0.325819 0.500000
O O2 0.500000 0.288475 0.399276
O O3 0.246335 0.227907 0.361114
O O4 0.279520 0.373903 0.334595
O O5 0.767179 0.624355 0.839871
O O6 0.744778 0.773063 0.860773
O O7 0.000000 0.706212 0.886571
O O8 0.783886 0.678960 0.000000
O O9 0.859701 0.169771 0.500000
O O10 0.736900 0.076321 0.391425
O O11 0.000000 0.141328 0.354672
O O12 0.731639 0.000000 0.752235
O O13 0.500000 0.000000 0.648297
O O14 0.500000 0.397153 0.221822
O O15 0.717656 0.500000 0.247289
O O16 0.500000 0.137723 0.855970
O O17 0.226446 0.076725 0.890901
O O18 0.358252 0.166259 0.000000
O O19 0.000000 0.000000 0.826011
#
# Coordination Sequence:
#
# PCOD8199976 Si02
#       7
#     8   8   8   4   8   8   4
#     4   9  19  37  61  88 119 157 200 244 294 357
#     4  10  22  40  62  88 119 158 202 248 300 359
#     4  10  21  38  59  83 114 152 194 242 297 353
#     4  12  25  38  55  81 115 155 199 246 293 344
#     4  10  22  39  61  90 122 156 195 245 305 365
#     4  10  21  39  62  86 115 153 196 242 292 348
#     4  12  25  38  55  83 119 157 197 242 291 344
#
# _framework density 20.375313999999999
#
# number of rings (size 3 to 8) (size 9 to 14) (size 15 to 20)
#    0.000    1.833    0.000    3.500    2.333    6.667 
#    0.000    3.333    0.000    0.000    0.000    3.500 
#    0.000    0.000    0.000    0.000    0.000    0.000 
#
# Total GULP energy -595125.478507 kJ/mol
# GULP energy per Si atom -12398.447469 kJ/mol
# Density = 2.032894 g / cm^3
# Si number density = 20.375314 Si / 1000 Ang^3
#
#
#
# Elastic Constant Matrix: (Units=GPa)
#
#
# Indices 1 2 3 4 5 6 
#
# 1 65.2704 57.2342 28.9247 0.0000 0.0000 0.0000
# 2 57.2342 168.6003 49.9103 0.0000 0.0000 0.0000
# 3 28.9247 49.9103 74.0203 0.0000 0.0000 0.0000
# 4 0.0000 0.0000 0.0000 34.5820 0.0000 0.0000
# 5 0.0000 0.0000 0.0000 0.0000 27.0107 0.0000
# 6 0.0000 0.0000 0.0000 0.0000 0.0000 24.8590
#
#
#
# Elastic Compliance Matrix: (Units=1/GPa)
#
#
# Indices 1 2 3 4 5 6 
#
# 1 0.023032 -0.006440 -0.004658 0.000000 0.000000 0.000000
# 2 -0.006440 0.009211 -0.003694 0.000000 0.000000 0.000000
# 3 -0.004658 -0.003694 0.017821 0.000000 0.000000 0.000000
# 4 0.000000 0.000000 0.000000 0.028917 0.000000 0.000000
# 5 0.000000 0.000000 0.000000 0.000000 0.037022 0.000000
# 6 0.000000 0.000000 0.000000 0.000000 0.000000 0.040227
#
#
# Mechanical properties :
#
#
# Convention : Reuss Voigt Hill
#
# Bulk Modulus (GPa) = 48.82845 64.44772 56.63809
# Shear Modulus (GPa) = 25.95514 28.74513 27.35014
#
# Velocity S-wave (km/s) = 3.57298 3.76011 3.66774
# Velocity P-wave (km/s) = 6.40610 7.10987 6.76714
#
# Compressibility (1/GPa) = 0.02047986
#
# Stress axis : x y z
#
# Youngs Moduli (GPa) = 43.41814 108.56769 56.11376
#
# Poissons Ratio (x) = 0.69914 0.26138
# Poissons Ratio (y) = 0.27960 0.20730
# Poissons Ratio (z) = 0.20224 0.40108
#
# Static dielectric constant tensor:
#      x y z
#    x 3.919550 0.000000 0.000000 
#    y 0.000000 3.540090 0.000000 
#    z 0.000000 0.000000 3.688100 
# 
# 
# High freq. dielectric constant tensor:
#      x y z
#    x 1.804040 0.000000 0.000000 
#    y 0.000000 1.796250 0.000000 
#    z 0.000000 0.000000 1.792640 
# 
# From -- ./inp_files/9196.got.cif
#   From: 2010.03.12/outbox.cif.g09.slc.cpg/sg47_5_cif.got.tgz:9196.got - 2010.04.14 03:12:58.
