data_PCOD8199520
_publ_section_title
;
Structure prediction by ZEFSAII (Michael W. Deem and Ramdas Pophale) SiO2 
 PCOD8199520
Probable space group: P M M M
;
_chemical_formula_sum "Si O2"
_cell_formula_units_Z 56
_cell_length_a 15.280988
_cell_length_b 19.934299
_cell_length_c 9.285341
_cell_angle_alpha 90.000000
_cell_angle_beta 90.000000
_cell_angle_gamma 90.000000
_cell_volume 2828.461427
_symmetry_space_group_name_H-M "P M M M"
_symmetry_group_IT_number 47
_symmetry_cell_setting 'orthorhombic'
loop_
_space_group_symop_operation_xyz
x,y,z
-x,-y,z
x,-y,-z
-x,y,-z
-x,-y,-z
x,y,-z
-x,y,z
x,-y,z
loop_
_atom_site_type_symbol
_atom_site_label
_atom_site_fract_x
_atom_site_fract_y
_atom_site_fract_z
Si Si1 0.099667 0.338036 0.667578
Si Si2 0.843417 0.928420 0.836555
Si Si3 0.362955 0.925544 0.838514
Si Si4 0.101595 0.211024 0.159973
Si Si5 0.396631 0.328332 0.831617
Si Si6 0.400723 0.201600 0.342284
Si Si7 0.266098 0.422004 0.332922
O O1 0.099100 0.321693 0.500000
O O2 0.138220 0.271691 0.744882
O O3 0.167855 0.396904 0.705989
O O4 0.000000 0.357411 0.716966
O O5 0.740343 0.924664 0.832501
O O6 0.880265 0.860955 0.761466
O O7 0.873832 0.000000 0.764817
O O8 0.878378 0.928407 0.000000
O O9 0.398995 0.871733 0.727497
O O10 0.397303 0.000000 0.796189
O O11 0.395146 0.907617 0.000000
O O12 0.000000 0.222192 0.145414
O O13 0.145265 0.212861 0.000000
O O14 0.500000 0.340687 0.804814
O O15 0.360652 0.258882 0.761041
O O16 0.341815 0.388508 0.761959
O O17 0.375868 0.324353 0.000000
O O18 0.353824 0.200799 0.500000
O O19 0.500000 0.222046 0.366248
O O20 0.286921 0.407470 0.500000
O O21 0.267811 0.500000 0.296612
#
# Coordination Sequence:
#
# PCOD8199520 Si02
#       7
#     8   8   8   8   8   8   8
#     4   9  19  36  56  80 113 150 186 226 271 323
#     4   8  15  28  45  68  99 134 174 220 267 313
#     4   9  18  32  49  71 102 141 184 228 274 325
#     4   9  17  29  48  75 103 134 176 224 272 319
#     4  10  22  40  61  85 114 148 186 228 276 334
#     4  10  21  36  54  77 105 137 177 227 279 328
#     4  10  22  39  60  88 117 147 185 225 272 329
#
# _framework density 19.798749999999998
#
# number of rings (size 3 to 8) (size 9 to 14) (size 15 to 20)
#    0.000    2.714    0.000    1.714    2.000    4.000 
#    0.000    5.714    0.000    1.286    0.000    5.000 
#    0.000    0.000    0.000    0.000    0.000    0.000 
#
# Total GULP energy -693895.499350 kJ/mol
# GULP energy per Si atom -12390.991060 kJ/mol
# Density = 1.975369 g / cm^3
# Si number density = 19.798750 Si / 1000 Ang^3
#
#
#
# Elastic Constant Matrix: (Units=GPa)
#
#
# Indices 1 2 3 4 5 6 
#
# 1 57.2384 47.5081 40.1842 0.0000 0.0000 0.0000
# 2 47.5081 169.1797 78.5185 0.0000 0.0000 0.0000
# 3 40.1842 78.5185 101.1790 0.0000 0.0000 0.0000
# 4 0.0000 0.0000 0.0000 30.3828 0.0000 0.0000
# 5 0.0000 0.0000 0.0000 0.0000 20.6424 0.0000
# 6 0.0000 0.0000 0.0000 0.0000 0.0000 29.8104
#
#
#
# Elastic Compliance Matrix: (Units=1/GPa)
#
#
# Indices 1 2 3 4 5 6 
#
# 1 0.025762 -0.003885 -0.007217 0.000000 0.000000 0.000000
# 2 -0.003885 0.009824 -0.006081 0.000000 0.000000 0.000000
# 3 -0.007217 -0.006081 0.017469 0.000000 0.000000 0.000000
# 4 0.000000 0.000000 0.000000 0.032913 0.000000 0.000000
# 5 0.000000 0.000000 0.000000 0.000000 0.048444 0.000000
# 6 0.000000 0.000000 0.000000 0.000000 0.000000 0.033545
#
#
# Mechanical properties :
#
#
# Convention : Reuss Voigt Hill
#
# Bulk Modulus (GPa) = 53.50609 73.33543 63.42076
# Shear Modulus (GPa) = 23.97485 26.92621 25.45053
#
# Velocity S-wave (km/s) = 3.48361 3.69181 3.58922
# Velocity P-wave (km/s) = 6.57757 7.43596 7.01990
#
# Compressibility (1/GPa) = 0.01868946
#
# Stress axis : x y z
#
# Youngs Moduli (GPa) = 38.81723 101.79127 57.24550
#
# Poissons Ratio (x) = 0.39545 0.41312
# Poissons Ratio (y) = 0.15080 0.34810
# Poissons Ratio (z) = 0.28013 0.61898
#
# Static dielectric constant tensor:
#      x y z
#    x 3.495390 0.000000 0.000000 
#    y 0.000000 3.209900 0.000000 
#    z 0.000000 0.000000 3.693390 
# 
# 
# High freq. dielectric constant tensor:
#      x y z
#    x 1.763680 0.000000 0.000000 
#    y 0.000000 1.779220 0.000000 
#    z 0.000000 0.000000 1.746160 
# 
# From -- ./inp_files/7335.got.cif
#   From: 2010.03.12/outbox.cif.g09.slc.cpg/sg47_4_cif.got.tgz:7335.got - 2010.04.14 03:12:58.
