data_PCOD8199917
_publ_section_title
;
Structure prediction by ZEFSAII (Michael W. Deem and Ramdas Pophale) SiO2 
 PCOD8199917
Probable space group: P M M M
;
_chemical_formula_sum "Si O2"
_cell_formula_units_Z 48
_cell_length_a 18.803200
_cell_length_b 7.983572
_cell_length_c 15.592864
_cell_angle_alpha 90.000000
_cell_angle_beta 90.000000
_cell_angle_gamma 90.000000
_cell_volume 2340.749303
_symmetry_space_group_name_H-M "P M M M"
_symmetry_group_IT_number 47
_symmetry_cell_setting 'orthorhombic'
loop_
_space_group_symop_operation_xyz
x,y,z
-x,-y,z
x,-y,-z
-x,y,-z
-x,-y,-z
x,y,-z
-x,y,z
x,-y,z
loop_
_atom_site_type_symbol
_atom_site_label
_atom_site_fract_x
_atom_site_fract_y
_atom_site_fract_z
Si Si1 0.157931 0.809615 0.595142
Si Si2 0.583465 0.000000 0.097643
Si Si3 0.691248 0.310757 0.633808
Si Si4 0.078466 0.693178 0.241867
Si Si5 0.668552 0.306842 0.165983
Si Si6 0.419797 0.802574 0.500000
Si Si7 0.820470 0.301371 0.904462
O O1 0.136711 0.744386 0.500000
O O2 0.242966 0.802660 0.605047
O O3 0.117567 0.703688 0.666873
O O4 0.133572 0.000000 0.606350
O O5 0.609259 0.173374 0.139877
O O6 0.500000 0.000000 0.108219
O O7 0.608581 0.000000 0.000000
O O8 0.711759 0.500000 0.610200
O O9 0.678260 0.290234 0.733470
O O10 0.619718 0.259419 0.585171
O O11 0.069807 0.500000 0.219742
O O12 0.124990 0.777616 0.165413
O O13 0.000000 0.777565 0.245192
O O14 0.647797 0.500000 0.141278
O O15 0.740719 0.248997 0.119445
O O16 0.500000 0.729266 0.500000
O O17 0.421973 0.000000 0.500000
O O18 0.825955 0.500000 0.901296
O O19 0.838856 0.234010 0.000000
#
# Coordination Sequence:
#
# PCOD8199917 Si02
#       7
#     8   4   8   8   8   4   8
#     4  11  23  38  60  86 116 156 204 255 306 363
#     4  11  26  44  64  93 126 162 205 257 318 376
#     4  11  22  38  63  90 121 161 203 254 310 367
#     4  10  21  37  58  87 121 156 199 250 304 364
#     4  10  22  40  65  94 124 162 211 260 308 371
#     4  11  25  41  59  89 128 165 204 253 307 371
#     4   9  17  33  59  89 121 157 198 247 304 366
#
# _framework density 20.506253000000001
#
# number of rings (size 3 to 8) (size 9 to 14) (size 15 to 20)
#    0.000    1.667    2.500    1.750    2.333    4.667 
#    0.000    5.833    0.000    0.000    0.000    1.167 
#    0.000    0.000    0.000    0.000    0.000    0.000 
#
# Total GULP energy -595141.739635 kJ/mol
# GULP energy per Si atom -12398.786242 kJ/mol
# Density = 2.045958 g / cm^3
# Si number density = 20.506253 Si / 1000 Ang^3
#
#
#
# Elastic Constant Matrix: (Units=GPa)
#
#
# Indices 1 2 3 4 5 6 
#
# 1 105.3515 18.6249 53.5542 0.0000 0.0000 0.0000
# 2 18.6249 62.1419 24.4154 0.0000 0.0000 0.0000
# 3 53.5542 24.4154 139.2138 0.0000 0.0000 0.0000
# 4 0.0000 0.0000 0.0000 -12.0682 0.0000 0.0000
# 5 0.0000 0.0000 0.0000 0.0000 1.8920 0.0000
# 6 0.0000 0.0000 0.0000 0.0000 0.0000 18.1686
#
#
#
# Elastic Compliance Matrix: (Units=1/GPa)
#
#
# Indices 1 2 3 4 5 6 
#
# 1 0.012008 -0.001916 -0.004283 0.000000 0.000000 0.000000
# 2 -0.001916 0.017589 -0.002348 0.000000 0.000000 0.000000
# 3 -0.004283 -0.002348 0.009243 0.000000 0.000000 0.000000
# 4 0.000000 0.000000 0.000000 -0.082862 0.000000 0.000000
# 5 0.000000 0.000000 0.000000 0.000000 0.528549 0.000000
# 6 0.000000 0.000000 0.000000 0.000000 0.000000 0.055040
#
#
# Mechanical properties :
#
#
# Convention : Reuss Voigt Hill
#
# Bulk Modulus (GPa) = 45.98657 55.54404 50.76530
# Shear Modulus (GPa) = 8.86668 15.60598 12.23633
#
# Velocity S-wave (km/s) = 2.08165 2.76168 2.44542
# Velocity P-wave (km/s) = 5.31526 6.10855 5.72566
#
# Compressibility (1/GPa) = 0.02174548
#
# Stress axis : x y z
#
# Youngs Moduli (GPa) = 83.27648 56.85416 108.19344
#
# Poissons Ratio (x) = 0.10894 0.46343
# Poissons Ratio (y) = 0.15957 0.25400
# Poissons Ratio (z) = 0.35671 0.13347
#
# Static dielectric constant tensor:
#      x y z
#    x 3.818220 0.000000 0.000000 
#    y 0.000000 3.590980 0.000000 
#    z 0.000000 0.000000 3.888770 
# 
# 
# High freq. dielectric constant tensor:
#      x y z
#    x 1.794980 0.000000 0.000000 
#    y 0.000000 1.788130 0.000000 
#    z 0.000000 0.000000 1.818470 
# 
# From -- ./inp_files/24432.got.cif
#   From: 2010.03.12/outbox.cif.g09.slc.cpg/sg47_13_cif.got.tgz:24432.got - 2010.04.14 03:12:58.
