data_PCOD8199870
_publ_section_title
;
Structure prediction by ZEFSAII (Michael W. Deem and Ramdas Pophale) SiO2 
 PCOD8199870
Probable space group: P M M M
;
_chemical_formula_sum "Si O2"
_cell_formula_units_Z 40
_cell_length_a 9.096666
_cell_length_b 8.683026
_cell_length_c 25.555824
_cell_angle_alpha 90.000000
_cell_angle_beta 90.000000
_cell_angle_gamma 90.000000
_cell_volume 2018.567326
_symmetry_space_group_name_H-M "P M M M"
_symmetry_group_IT_number 47
_symmetry_cell_setting 'orthorhombic'
loop_
_space_group_symop_operation_xyz
x,y,z
-x,-y,z
x,-y,-z
-x,y,-z
-x,-y,-z
x,y,-z
-x,y,z
x,-y,z
loop_
_atom_site_type_symbol
_atom_site_label
_atom_site_fract_x
_atom_site_fract_y
_atom_site_fract_z
Si Si1 0.834224 0.316784 0.500000
Si Si2 0.670561 0.178757 0.289123
Si Si3 0.170939 0.321021 0.193944
Si Si4 0.165078 0.318508 0.000000
Si Si5 0.670848 0.323242 0.602026
Si Si6 0.668581 0.819804 0.902616
O O1 0.823452 0.500000 0.500000
O O2 0.756055 0.253836 0.552190
O O3 0.000000 0.256344 0.500000
O O4 0.500000 0.218409 0.278900
O O5 0.769682 0.281048 0.251185
O O6 0.715256 0.221853 0.348045
O O7 0.703050 0.000000 0.279235
O O8 0.197462 0.500000 0.182001
O O9 0.258444 0.219282 0.152459
O O10 0.000000 0.278540 0.190618
O O11 0.248591 0.266502 0.051461
O O12 0.157747 0.500000 0.000000
O O13 0.000000 0.249443 0.000000
O O14 0.500000 0.309117 0.589089
O O15 0.715070 0.500000 0.613325
O O16 0.500000 0.765022 0.901627
O O17 0.680130 0.000000 0.913110
#
# Coordination Sequence:
#
# PCOD8199870 Si02
#       6
#     4   8   8   4   8   8
#     4   9  17  29  48  75 104 134 174 225 274 321
#     4  10  21  37  57  82 111 144 184 229 278 333
#     4  11  24  40  59  85 115 148 188 232 279 333
#     4  11  24  41  62  90 122 155 194 237 280 330
#     4   9  17  31  52  76 103 138 179 222 271 327
#     4  11  24  41  62  89 119 152 192 235 280 333
#
# _framework density 19.816033000000001
#
# number of rings (size 3 to 8) (size 9 to 14) (size 15 to 20)
#    0.000    1.800    0.000    3.900    0.000   13.200 
#    0.000    2.500    0.000    3.000    0.000    0.000 
#    0.000    0.000    0.000    0.000    0.000    0.000 
#
# Total GULP energy -496208.732038 kJ/mol
# GULP energy per Si atom -12405.218301 kJ/mol
# Density = 1.977093 g / cm^3
# Si number density = 19.816033 Si / 1000 Ang^3
#
#
#
# Elastic Constant Matrix: (Units=GPa)
#
#
# Indices 1 2 3 4 5 6 
#
# 1 128.6237 38.1096 68.0970 0.0000 0.0000 0.0000
# 2 38.1096 47.7500 21.5139 0.0000 0.0000 0.0000
# 3 68.0970 21.5139 127.2582 0.0000 0.0000 0.0000
# 4 0.0000 0.0000 0.0000 74.7842 0.0000 0.0000
# 5 0.0000 0.0000 0.0000 0.0000 64.9409 0.0000
# 6 0.0000 0.0000 0.0000 0.0000 0.0000 24.3091
#
#
#
# Elastic Compliance Matrix: (Units=1/GPa)
#
#
# Indices 1 2 3 4 5 6 
#
# 1 0.013132 -0.007918 -0.005689 0.000000 0.000000 0.000000
# 2 -0.007918 0.027443 -0.000402 0.000000 0.000000 0.000000
# 3 -0.005689 -0.000402 0.010970 0.000000 0.000000 0.000000
# 4 0.000000 0.000000 0.000000 0.013372 0.000000 0.000000
# 5 0.000000 0.000000 0.000000 0.000000 0.015399 0.000000
# 6 0.000000 0.000000 0.000000 0.000000 0.000000 0.041137
#
#
# Mechanical properties :
#
#
# Convention : Reuss Voigt Hill
#
# Bulk Modulus (GPa) = 42.50359 62.11920 52.31139
# Shear Modulus (GPa) = 31.78366 44.53428 38.15897
#
# Velocity S-wave (km/s) = 4.00926 4.74580 4.39300
# Velocity P-wave (km/s) = 6.55194 7.83876 7.22406
#
# Compressibility (1/GPa) = 0.02352743
#
# Stress axis : x y z
#
# Youngs Moduli (GPa) = 76.14783 36.43895 91.15664
#
# Poissons Ratio (x) = 0.28852 0.51856
# Poissons Ratio (y) = 0.60294 0.03669
# Poissons Ratio (z) = 0.43318 0.01467
#
# Static dielectric constant tensor:
#      x y z
#    x 3.752730 0.000000 0.000000 
#    y 0.000000 3.488130 0.000000 
#    z 0.000000 0.000000 3.882060 
# 
# 
# High freq. dielectric constant tensor:
#      x y z
#    x 1.777840 0.000000 0.000000 
#    y 0.000000 1.763680 0.000000 
#    z 0.000000 0.000000 1.788630 
# 
# From -- ./inp_files/33064.got.cif
#   From: 2010.03.12/outbox.cif.g09.slc.cpg/sg47_17_cif.got.tgz:33064.got - 2010.04.14 03:12:58.
