data_PCOD8199832
_publ_section_title
;
Structure prediction by ZEFSAII (Michael W. Deem and Ramdas Pophale) SiO2 
 PCOD8199832
Probable space group: P M M M
;
_chemical_formula_sum "Si O2"
_cell_formula_units_Z 48
_cell_length_a 8.211920
_cell_length_b 9.301248
_cell_length_c 32.235858
_cell_angle_alpha 90.000000
_cell_angle_beta 90.000000
_cell_angle_gamma 90.000000
_cell_volume 2462.210438
_symmetry_space_group_name_H-M "P M M M"
_symmetry_group_IT_number 47
_symmetry_cell_setting 'orthorhombic'
loop_
_space_group_symop_operation_xyz
x,y,z
-x,-y,z
x,-y,-z
-x,y,-z
-x,-y,-z
x,y,-z
-x,y,z
x,-y,z
loop_
_atom_site_type_symbol
_atom_site_label
_atom_site_fract_x
_atom_site_fract_y
_atom_site_fract_z
Si Si1 0.309529 0.342667 0.666655
Si Si2 0.687439 0.666897 0.575445
Si Si3 0.812524 0.839299 0.259103
Si Si4 0.813491 0.844707 0.500000
Si Si5 0.685981 0.168414 0.901077
Si Si6 0.000000 0.829901 0.046305
Si Si7 0.687471 0.664423 0.183528
O O1 0.500000 0.360298 0.660876
O O2 0.238086 0.500000 0.679881
O O3 0.240405 0.297023 0.621457
O O4 0.276249 0.224693 0.701177
O O5 0.500000 0.709711 0.572728
O O6 0.714132 0.500000 0.565538
O O7 0.778349 0.758100 0.541458
O O8 0.790248 0.742365 0.218663
O O9 0.000000 0.845027 0.270352
O O10 0.744215 0.000000 0.250626
O O11 0.000000 0.878210 0.500000
O O12 0.721521 0.000000 0.500000
O O13 0.500000 0.199110 0.918035
O O14 0.830030 0.220237 0.932121
O O15 0.717699 0.255914 0.859518
O O16 0.704512 0.000000 0.891262
O O17 0.000000 0.000000 0.044404
O O18 0.000000 0.764189 0.000000
O O19 0.500000 0.671599 0.196891
O O20 0.746192 0.500000 0.179064
#
# Coordination Sequence:
#
# PCOD8199832 Si02
#       7
#     8   8   8   4   8   4   8
#     4   9  19  37  59  81 105 135 174 220 267 316
#     4   9  19  37  60  82 103 132 174 221 265 314
#     4  11  24  37  51  77 112 146 179 218 265 319
#     4  11  24  37  50  76 112 143 172 213 264 316
#     4   9  18  33  54  80 111 147 186 232 285 336
#     4   9  18  32  53  83 115 147 187 235 283 336
#     4  10  21  37  57  80 106 139 182 231 278 325
#
# _framework density 19.494678
#
# number of rings (size 3 to 8) (size 9 to 14) (size 15 to 20)
#    0.000    2.333    0.000    3.000    1.167    8.333 
#    0.000    6.667    0.000    1.000    0.000    2.333 
#    0.000    0.000    0.000    0.000    0.000    0.000 
#
# Total GULP energy -594954.270294 kJ/mol
# GULP energy per Si atom -12394.880631 kJ/mol
# Density = 1.945031 g / cm^3
# Si number density = 19.494678 Si / 1000 Ang^3
#
#
#
# Elastic Constant Matrix: (Units=GPa)
#
#
# Indices 1 2 3 4 5 6 
#
# 1 72.8510 28.7770 48.3983 0.0000 0.0000 0.0000
# 2 28.7770 88.2218 60.7728 0.0000 0.0000 0.0000
# 3 48.3983 60.7728 135.3139 0.0000 0.0000 0.0000
# 4 0.0000 0.0000 0.0000 22.0321 0.0000 0.0000
# 5 0.0000 0.0000 0.0000 0.0000 52.1912 0.0000
# 6 0.0000 0.0000 0.0000 0.0000 0.0000 20.8071
#
#
#
# Elastic Compliance Matrix: (Units=1/GPa)
#
#
# Indices 1 2 3 4 5 6 
#
# 1 0.018273 -0.002111 -0.005587 0.000000 0.000000 0.000000
# 2 -0.002111 0.016657 -0.006726 0.000000 0.000000 0.000000
# 3 -0.005587 -0.006726 0.012409 0.000000 0.000000 0.000000
# 4 0.000000 0.000000 0.000000 0.045388 0.000000 0.000000
# 5 0.000000 0.000000 0.000000 0.000000 0.019160 0.000000
# 6 0.000000 0.000000 0.000000 0.000000 0.000000 0.048061
#
#
# Mechanical properties :
#
#
# Convention : Reuss Voigt Hill
#
# Bulk Modulus (GPa) = 54.08393 63.58698 58.83545
# Shear Modulus (GPa) = 25.64618 29.56864 27.60741
#
# Velocity S-wave (km/s) = 3.63098 3.89878 3.76726
# Velocity P-wave (km/s) = 6.73661 7.27707 7.01205
#
# Compressibility (1/GPa) = 0.01848978
#
# Stress axis : x y z
#
# Youngs Moduli (GPa) = 54.72665 60.03487 80.58392
#
# Poissons Ratio (x) = 0.12676 0.45025
# Poissons Ratio (y) = 0.11555 0.54200
# Poissons Ratio (z) = 0.30578 0.40379
#
# Static dielectric constant tensor:
#      x y z
#    x 3.552330 0.000000 0.000000 
#    y 0.000000 3.635630 0.000000 
#    z 0.000000 0.000000 3.902670 
# 
# 
# High freq. dielectric constant tensor:
#      x y z
#    x 1.754520 0.000000 0.000000 
#    y 0.000000 1.753330 0.000000 
#    z 0.000000 0.000000 1.761670 
# 
# From -- ./inp_files/34141.got.cif
#   From: 2010.03.12/outbox.cif.g09.slc.cpg/sg47_18_cif.got.tgz:34141.got - 2010.04.14 03:12:58.
