data_PCOD8199774
_publ_section_title
;
Structure prediction by ZEFSAII (Michael W. Deem and Ramdas Pophale) SiO2 
 PCOD8199774
Probable space group: P M M M
;
_chemical_formula_sum "Si O2"
_cell_formula_units_Z 48
_cell_length_a 8.284686
_cell_length_b 16.057428
_cell_length_c 18.302471
_cell_angle_alpha 90.000000
_cell_angle_beta 90.000000
_cell_angle_gamma 90.000000
_cell_volume 2434.791425
_symmetry_space_group_name_H-M "P M M M"
_symmetry_group_IT_number 47
_symmetry_cell_setting 'orthorhombic'
loop_
_space_group_symop_operation_xyz
x,y,z
-x,-y,z
x,-y,-z
-x,y,-z
-x,-y,-z
x,y,-z
-x,y,z
x,-y,z
loop_
_atom_site_type_symbol
_atom_site_label
_atom_site_fract_x
_atom_site_fract_y
_atom_site_fract_z
Si Si1 0.687565 0.500000 0.414581
Si Si2 0.820189 0.813175 0.915362
Si Si3 0.684839 0.500000 0.079531
Si Si4 0.312719 0.000000 0.585069
Si Si5 0.809373 0.825547 0.582407
Si Si6 0.500000 0.908597 0.913461
Si Si7 0.181411 0.354701 0.826659
Si Si8 0.809358 0.336702 0.664455
O O1 0.500000 0.500000 0.395854
O O2 0.723134 0.500000 0.500000
O O3 0.766147 0.582616 0.382104
O O4 0.668802 0.867685 0.887215
O O5 0.814651 0.732343 0.866684
O O6 0.000000 0.855623 0.905499
O O7 0.795290 0.789083 0.000000
O O8 0.500000 0.500000 0.061439
O O9 0.720009 0.418612 0.125634
O O10 0.775747 0.500000 0.000000
O O11 0.239948 0.914466 0.618863
O O12 0.500000 0.000000 0.601248
O O13 0.267684 0.000000 0.500000
O O14 0.738759 0.819221 0.500000
O O15 0.736852 0.747706 0.628194
O O16 0.000000 0.819605 0.580698
O O17 0.500000 0.000000 0.878729
O O18 0.500000 0.912345 0.000000
O O19 0.260973 0.346040 0.746345
O O20 0.000000 0.389045 0.819118
O O21 0.000000 0.327058 0.668528
#
# Coordination Sequence:
#
# PCOD8199774 Si02
#       8
#     4   8   4   4   8   4   8   8
#     4  11  24  39  54  78 112 145 180 225 274 324
#     4   9  18  33  55  81 110 146 186 231 282 332
#     4  11  24  37  54  82 110 141 182 223 264 318
#     4   9  17  29  49  77 107 137 172 219 272 321
#     4   9  17  31  53  79 104 135 178 225 269 316
#     4   9  18  32  54  83 111 141 183 235 283 333
#     4  10  21  37  56  79 110 143 178 222 274 326
#     4  10  21  37  58  81 107 142 185 226 270 326
#
# _framework density 19.714214999999999
#
# number of rings (size 3 to 8) (size 9 to 14) (size 15 to 20)
#    0.000    2.333    0.000    2.250    1.167    7.333 
#    0.000    3.333    1.833    0.000    0.000    0.000 
#    0.000    0.000    0.000    0.000    0.000    0.000 
#
# Total GULP energy -594917.727896 kJ/mol
# GULP energy per Si atom -12394.119331 kJ/mol
# Density = 1.966934 g / cm^3
# Si number density = 19.714215 Si / 1000 Ang^3
#
#
#
# Elastic Constant Matrix: (Units=GPa)
#
#
# Indices 1 2 3 4 5 6 
#
# 1 71.1124 35.3447 23.1269 0.0000 0.0000 0.0000
# 2 35.3447 146.9276 56.3491 0.0000 0.0000 0.0000
# 3 23.1269 56.3491 101.0056 0.0000 0.0000 0.0000
# 4 0.0000 0.0000 0.0000 23.0303 0.0000 0.0000
# 5 0.0000 0.0000 0.0000 0.0000 13.0340 0.0000
# 6 0.0000 0.0000 0.0000 0.0000 0.0000 21.9665
#
#
#
# Elastic Compliance Matrix: (Units=1/GPa)
#
#
# Indices 1 2 3 4 5 6 
#
# 1 0.016272 -0.003162 -0.001962 0.000000 0.000000 0.000000
# 2 -0.003162 0.009273 -0.004449 0.000000 0.000000 0.000000
# 3 -0.001962 -0.004449 0.012832 0.000000 0.000000 0.000000
# 4 0.000000 0.000000 0.000000 0.043421 0.000000 0.000000
# 5 0.000000 0.000000 0.000000 0.000000 0.076723 0.000000
# 6 0.000000 0.000000 0.000000 0.000000 0.000000 0.045524
#
#
# Mechanical properties :
#
#
# Convention : Reuss Voigt Hill
#
# Bulk Modulus (GPa) = 52.00007 60.96523 56.48265
# Shear Modulus (GPa) = 21.77697 25.22115 23.49906
#
# Velocity S-wave (km/s) = 3.32721 3.58066 3.45626
# Velocity P-wave (km/s) = 6.41830 6.93444 6.68136
#
# Compressibility (1/GPa) = 0.01923074
#
# Stress axis : x y z
#
# Youngs Moduli (GPa) = 61.45600 107.83889 77.93149
#
# Poissons Ratio (x) = 0.34098 0.15288
# Poissons Ratio (y) = 0.19432 0.34674
# Poissons Ratio (z) = 0.12056 0.47981
#
# Static dielectric constant tensor:
#      x y z
#    x 3.694700 0.000000 0.000000 
#    y 0.000000 3.697810 0.000000 
#    z 0.000000 0.000000 3.642000 
# 
# 
# High freq. dielectric constant tensor:
#      x y z
#    x 1.763920 0.000000 0.000000 
#    y 0.000000 1.774050 0.000000 
#    z 0.000000 0.000000 1.752930 
# 
# From -- ./inp_files/26614.got.cif
#   From: 2010.03.12/outbox.cif.g09.slc.cpg/sg47_14_cif.got.tgz:26614.got - 2010.04.14 03:12:58.
