data_PCOD8199770
_publ_section_title
;
Structure prediction by ZEFSAII (Michael W. Deem and Ramdas Pophale) SiO2 
 PCOD8199770
Probable space group: P M M M
;
_chemical_formula_sum "Si O2"
_cell_formula_units_Z 40
_cell_length_a 9.284385
_cell_length_b 7.873522
_cell_length_c 27.668664
_cell_angle_alpha 90.000000
_cell_angle_beta 90.000000
_cell_angle_gamma 90.000000
_cell_volume 2022.601738
_symmetry_space_group_name_H-M "P M M M"
_symmetry_group_IT_number 47
_symmetry_cell_setting 'orthorhombic'
loop_
_space_group_symop_operation_xyz
x,y,z
-x,-y,z
x,-y,-z
-x,y,-z
-x,-y,-z
x,y,-z
-x,y,z
x,-y,z
loop_
_atom_site_type_symbol
_atom_site_label
_atom_site_fract_x
_atom_site_fract_y
_atom_site_fract_z
Si Si1 0.159793 0.801131 0.906836
Si Si2 0.170975 0.000000 0.445982
Si Si3 0.336376 0.299782 0.000000
Si Si4 0.830089 0.694403 0.378947
Si Si5 0.339642 0.802327 0.818634
Si Si6 0.338582 0.300041 0.284798
O O1 0.237589 0.719650 0.859669
O O2 0.000000 0.719795 0.912586
O O3 0.142714 0.000000 0.899392
O O4 0.255456 0.767513 0.953323
O O5 0.223595 0.173383 0.419804
O O6 0.236141 0.000000 0.500000
O O7 0.000000 0.000000 0.447883
O O8 0.335067 0.500000 0.000000
O O9 0.500000 0.229865 0.000000
O O10 0.783291 0.500000 0.392350
O O11 0.760538 0.758544 0.329042
O O12 0.000000 0.704033 0.372154
O O13 0.500000 0.719686 0.821539
O O14 0.273468 0.770921 0.765377
O O15 0.351952 0.000000 0.829067
O O16 0.500000 0.227778 0.292877
O O17 0.340755 0.500000 0.281470
#
# Coordination Sequence:
#
# PCOD8199770 Si02
#       6
#     8   4   4   8   8   8
#     4  10  21  37  56  79 106 136 171 212 261 314
#     4   9  18  32  51  77 105 135 175 220 265 312
#     4  11  24  39  56  78 102 133 174 217 262 312
#     4   9  18  32  50  74 103 135 173 217 265 316
#     4   9  18  32  50  73 101 134 171 209 251 303
#     4   9  18  32  50  73 102 137 173 210 256 307
#
# _framework density 19.776509999999998
#
# number of rings (size 3 to 8) (size 9 to 14) (size 15 to 20)
#    0.000    2.600    0.000    1.200    1.400    5.200 
#    0.000    4.000    0.000    1.200    0.000    2.800 
#    0.000    0.000    0.000    0.000    0.000    0.000 
#
# Total GULP energy -495848.400468 kJ/mol
# GULP energy per Si atom -12396.210012 kJ/mol
# Density = 1.973150 g / cm^3
# Si number density = 19.776510 Si / 1000 Ang^3
#
#
#
# Elastic Constant Matrix: (Units=GPa)
#
#
# Indices 1 2 3 4 5 6 
#
# 1 94.2451 24.4134 73.2628 0.0000 0.0000 0.0000
# 2 24.4134 51.9123 47.9651 0.0000 0.0000 0.0000
# 3 73.2628 47.9651 194.6388 0.0000 0.0000 0.0000
# 4 0.0000 0.0000 0.0000 -36.3514 0.0000 0.0000
# 5 0.0000 0.0000 0.0000 0.0000 10.4848 0.0000
# 6 0.0000 0.0000 0.0000 0.0000 0.0000 15.5362
#
#
#
# Elastic Compliance Matrix: (Units=1/GPa)
#
#
# Indices 1 2 3 4 5 6 
#
# 1 0.015230 -0.002416 -0.005137 0.000000 0.000000 0.000000
# 2 -0.002416 0.025326 -0.005332 0.000000 0.000000 0.000000
# 3 -0.005137 -0.005332 0.008385 0.000000 0.000000 0.000000
# 4 0.000000 0.000000 0.000000 -0.027509 0.000000 0.000000
# 5 0.000000 0.000000 0.000000 0.000000 0.095376 0.000000
# 6 0.000000 0.000000 0.000000 0.000000 0.000000 0.064366
#
#
# Mechanical properties :
#
#
# Convention : Reuss Voigt Hill
#
# Bulk Modulus (GPa) = 43.15655 70.23097 56.69376
# Shear Modulus (GPa) = 23.29191 10.94424 17.11808
#
# Velocity S-wave (km/s) = 3.43557 2.35499 2.94526
# Velocity P-wave (km/s) = 6.13245 6.55622 6.34788
#
# Compressibility (1/GPa) = 0.02317146
#
# Stress axis : x y z
#
# Youngs Moduli (GPa) = 65.66003 39.48560 119.25571
#
# Poissons Ratio (x) = 0.09538 0.61265
# Poissons Ratio (y) = 0.15861 0.63584
# Poissons Ratio (z) = 0.33732 0.21053
#
# Static dielectric constant tensor:
#      x y z
#    x 3.831750 0.000000 0.000000 
#    y 0.000000 3.534140 0.000000 
#    z 0.000000 0.000000 3.783180 
# 
# 
# High freq. dielectric constant tensor:
#      x y z
#    x 1.755620 0.000000 0.000000 
#    y 0.000000 1.761930 0.000000 
#    z 0.000000 0.000000 1.775190 
# 
# From -- ./inp_files/1876.got.cif
#   From: 2010.03.12/outbox.cif.g09.slc.cpg/sg47_1_cif.got.tgz:1876.got - 2010.04.14 03:12:58.
